#------------------------------------------------------------------------------
#$Date: 2019-11-03 10:48:13 +0200 (Sun, 03 Nov 2019) $
#$Revision: 221190 $
#$URL: file:///home/coder/svn-repositories/cod/cif/4/12/80/4128059.cif $
#------------------------------------------------------------------------------
#
# This file is available in the Crystallography Open Database (COD),
# http://www.crystallography.net/
#
# All data on this site have been placed in the public domain by the
# contributors.
#
data_4128059
loop_
_publ_author_name
'Castillo-Blas, Celia'
'L\'opez-Salas, Nieves'
'Guti\'errez, Mar\'ia C'
'Puente-Orench, In\'es'
'Guti\'errez-Puebla, Enrique'
'Ferrer, M. Luisa'
'Monge, M \'Angeles'
'G\'andara, Felipe'
_publ_section_title
;
 Encoding Metal-Cation Arrangements in Metal-Organic Frameworks for
 Programming the Composition of Electrocatalytically Active Multimetal
 Oxides.
;
_journal_issue                   4
_journal_name_full               'Journal of the American Chemical Society'
_journal_page_first              1766
_journal_page_last               1774
_journal_paper_doi               10.1021/jacs.8b12860
_journal_volume                  141
_journal_year                    2019
_chemical_formula_moiety
'C17 H8 Ca0.21 Co0.27 F6 Mn0.29 O4 Zn0.23, 0.25(O)'
_chemical_formula_sum            'C17 H8 Ca0.21 Co0.27 F6 Mn0.29 O4.33 Zn0.23'
_chemical_formula_weight         450.88
_space_group_crystal_system      hexagonal
_space_group_IT_number           179
_space_group_name_Hall           'P 65 2 (0 0 1)'
_space_group_name_H-M_alt        'P 65 2 2'
_symmetry_space_group_name_Hall  'P 65 2 (0 0 1)'
_symmetry_space_group_name_H-M   'P 65 2 2'
_atom_sites_solution_hydrogens   geom
_atom_sites_solution_primary     dual
_audit_creation_date             2018-05-16
_audit_creation_method
;
Olex2 1.2
(compiled 2018.04.26 svn.r3504 for OlexSys, GUI svn.r5492)
;
_cell_angle_alpha                90
_cell_angle_beta                 90
_cell_angle_gamma                120
_cell_formula_units_Z            12
_cell_length_a                   21.250(2)
_cell_length_b                   21.250(2)
_cell_length_c                   15.3379(18)
_cell_measurement_reflns_used    4534
_cell_measurement_temperature    250
_cell_measurement_theta_max      54.300
_cell_measurement_theta_min      2.401
_cell_volume                     5998.1(11)
_computing_cell_refinement       'SAINT v8.37A (Bruker, 2015)'
_computing_data_reduction        'SAINT v8.37A (Bruker, 2015)'
_computing_molecular_graphics    'Olex2 (Dolomanov et al., 2009)'
_computing_publication_material  'Olex2 (Dolomanov et al., 2009)'
_computing_structure_refinement  'XL (Sheldrick, 2008)'
_computing_structure_solution    'XT (Sheldrick, 2015)'
_diffrn_ambient_temperature      250
_diffrn_measured_fraction_theta_full 0.998
_diffrn_measured_fraction_theta_max 0.998
_diffrn_measurement_device_type  'Data Vantec 500'
_diffrn_measurement_method       '\f and \w scans'
_diffrn_radiation_type           CuK\a
_diffrn_radiation_wavelength     1.54178
_diffrn_reflns_av_R_equivalents  0.1203
_diffrn_reflns_av_unetI/netI     0.0933
_diffrn_reflns_Laue_measured_fraction_full 0.998
_diffrn_reflns_Laue_measured_fraction_max 0.998
_diffrn_reflns_limit_h_max       25
_diffrn_reflns_limit_h_min       -21
_diffrn_reflns_limit_k_max       23
_diffrn_reflns_limit_k_min       -25
_diffrn_reflns_limit_l_max       15
_diffrn_reflns_limit_l_min       -18
_diffrn_reflns_number            27144
_diffrn_reflns_point_group_measured_fraction_full 0.996
_diffrn_reflns_point_group_measured_fraction_max 0.996
_diffrn_reflns_theta_full        66.261
_diffrn_reflns_theta_max         66.261
_diffrn_reflns_theta_min         2.401
_diffrn_standards_number         0
_exptl_absorpt_coefficient_mu    5.075
_exptl_absorpt_correction_T_max  1.0000
_exptl_absorpt_correction_T_min  0.6853
_exptl_absorpt_correction_type   multi-scan
_exptl_absorpt_process_details
'SADABS-2016/2 (Bruker,2016/2) was used for absorption correction. wR2(int) was 0.1430 before and 0.0911 after correction. The Ratio of minimum to maximum transmission is 0.6853. The \l/2 correction factor is Not present.'
_exptl_crystal_colour            violet
_exptl_crystal_colour_primary    violet
_exptl_crystal_density_diffrn    1.498
_exptl_crystal_description       needle
_exptl_crystal_F_000             2692
_exptl_crystal_size_max          0.1
_exptl_crystal_size_mid          0.04
_exptl_crystal_size_min          0.04
_refine_diff_density_max         0.332
_refine_diff_density_min         -0.396
_refine_diff_density_rms         0.069
_refine_ls_abs_structure_details
;
 Flack x determined using 644 quotients [(I+)-(I-)]/[(I+)+(I-)]
 (Parsons, Flack and Wagner, Acta Cryst. B69 (2013) 249-259).
;
_refine_ls_abs_structure_Flack   -0.014(11)
_refine_ls_extinction_method     none
_refine_ls_goodness_of_fit_ref   0.975
_refine_ls_hydrogen_treatment    constr
_refine_ls_matrix_type           full
_refine_ls_number_parameters     270
_refine_ls_number_reflns         3504
_refine_ls_number_restraints     0
_refine_ls_restrained_S_all      0.975
_refine_ls_R_factor_all          0.1067
_refine_ls_R_factor_gt           0.0635
_refine_ls_shift/su_max          0.000
_refine_ls_shift/su_mean         0.000
_refine_ls_structure_factor_coef Fsqd
_refine_ls_weighting_details
'w=1/[\s^2^(Fo^2^)+(0.1000P)^2^] where P=(Fo^2^+2Fc^2^)/3'
_refine_ls_weighting_scheme      calc
_refine_ls_wR_factor_gt          0.1555
_refine_ls_wR_factor_ref         0.1818
_reflns_Friedel_coverage         0.696
_reflns_Friedel_fraction_full    0.994
_reflns_Friedel_fraction_max     0.994
_reflns_number_gt                2233
_reflns_number_total             3504
_reflns_threshold_expression     'I > 2\s(I)'
_iucr_refine_instructions_details
;

    1148.res created by SHELXL-2014/7

TITL 1148_a.res in P6(5)22
REM Old TITL 1148 in P6522 #179
REM SHELXT solution in P6(5)22
REM R1 0.163, Rweak 0.075, Alpha 0.015, Orientation as input
REM Flack x = -0.385 ( 0.029 ) from Parsons' quotients
REM Formula found by SHELXT: C34 O6 F14 Ca Zn
CELL 1.54178 21.2505 21.2505 15.3379 90 90 120
ZERR 12 0.0021 0.0021 0.0018 0 0 0
LATT -1
SYMM -Y,+X-Y,0.667+Z
SYMM +Y-X,-X,0.333+Z
SYMM -X,-Y,0.5+Z
SYMM +Y,-X+Y,0.167+Z
SYMM -Y+X,+X,0.833+Z
SYMM +Y,+X,0.667-Z
SYMM -Y+X,-Y,-Z
SYMM -X,-X+Y,0.333-Z
SYMM -Y,-X,0.167-Z
SYMM +Y-X,+Y,0.5-Z
SYMM +X,+X-Y,0.833-Z
SFAC C H Ca Co F Mn O Zn
UNIT 204 96 2.49 3.27 72 3.51 52 2.73
 
L.S. 10
PLAN  10
SIZE 0.04 0.04 0.1
TEMP -23.15
list 4
fmap 2
acta
REM <olex2.extras>
REM <HklSrc "%.\\1148.hkl">
REM </olex2.extras>
 
WGHT    0.100000
FVAR       0.18572   0.45829   0.41127
ZN01  8    0.718483    0.281517    0.583333    20.50000    0.01994    0.01994 =
         0.04951   -0.00481   -0.00481    0.00912
PART 1
CA02  3    0.642315    0.321157    0.416667    30.50000    0.03134    0.02919 =
         0.05015   -0.00386    0.00000    0.01567
PART 0
O003  7    0.374299   -0.254370    0.146393    11.00000    0.04140    0.04580 =
         0.05385   -0.00149   -0.00514    0.02069
O004  7    0.424111   -0.266111    0.022671    11.00000    0.04247    0.05358 =
         0.05201    0.00114    0.00773    0.02183
F005  5    0.703410   -0.096501    0.346410    11.00000    0.08348    0.06924 =
         0.12524   -0.01092   -0.02812    0.04155
O006  7    0.703003    0.203340    0.509144    11.00000    0.08249    0.06532 =
         0.04176   -0.02643   -0.00802    0.03694
F007  5    0.737795    0.049513    0.097656    11.00000    0.10513    0.06302 =
         0.08658   -0.00440    0.03345    0.01006
O008  7    0.657537    0.229228    0.394393    11.00000    0.05927    0.05660 =
         0.06921   -0.00572    0.00778    0.02827
F009  5    0.793529   -0.010474    0.111466    11.00000    0.06499    0.09043 =
         0.14274   -0.05506    0.02917    0.01102
F00A  5    0.748533   -0.110274    0.228907    11.00000    0.08736    0.07736 =
         0.17937   -0.05481   -0.02832    0.05547
F00B  5    0.812621   -0.015820    0.307825    11.00000    0.06532    0.10144 =
         0.17762   -0.06475   -0.03947    0.05161
F00C  5    0.824906    0.084432    0.188829    11.00000    0.05910    0.08531 =
         0.13894   -0.05237    0.02122   -0.01864
C00D  1    0.502060   -0.185599    0.130688    11.00000    0.04115    0.03943 =
         0.05944    0.00298   -0.00277    0.02191
C00E  1    0.681891    0.193188    0.431876    11.00000    0.04496    0.04170 =
         0.07586   -0.00926    0.00840    0.02474
C00F  1    0.563117   -0.163311    0.079743    11.00000    0.04255    0.04445 =
         0.06978   -0.01442    0.00383    0.00837
AFIX  43
H00F  2    0.558431   -0.184491    0.024577    11.00000   -1.20000
AFIX   0
C00G  1    0.430111   -0.239583    0.097149    11.00000    0.03604    0.03495 =
         0.06284    0.00099    0.00634    0.01253
C00H  1    0.639274   -0.078575    0.190579    11.00000    0.04030    0.03162 =
         0.07932   -0.01764    0.00671    0.00894
C00I  1    0.577905   -0.103325    0.242998    11.00000    0.03847    0.04621 =
         0.06804   -0.01735   -0.01183    0.01178
AFIX  43
H00I  2    0.582342   -0.083308    0.298851    11.00000   -1.20000
AFIX   0
C00J  1    0.718924    0.100123    0.418368    11.00000    0.06245    0.05877 =
         0.07485   -0.02001   -0.01033    0.03614
AFIX  43
H00J  2    0.736495    0.110541    0.475869    11.00000   -1.20000
AFIX   0
C00K  1    0.702230    0.033118    0.284356    11.00000    0.04811    0.04475 =
         0.05554   -0.00906   -0.00158    0.02208
C00L  1    0.685212    0.135436    0.383358    11.00000    0.06251    0.04857 =
         0.04562   -0.00920   -0.00236    0.03073
C00M  1    0.667671    0.067876    0.251030    11.00000    0.06111    0.04685 =
         0.06783   -0.00806   -0.00204    0.02052
AFIX  43
H00M  2    0.648797    0.056482    0.194146    11.00000   -1.20000
AFIX   0
C00N  1    0.511170   -0.156386    0.214441    11.00000    0.03750    0.05453 =
         0.04304    0.00596    0.01078    0.01686
AFIX  43
H00N  2    0.470831   -0.173436    0.251786    11.00000   -1.20000
AFIX   0
C00O  1    0.767210    0.025351    0.155973    11.00000    0.05018    0.06454 =
         0.11613   -0.03662    0.01756    0.00711
C00P  1    0.727366    0.049745    0.370567    11.00000    0.06496    0.05119 =
         0.08690   -0.01409   -0.01030    0.03295
AFIX  43
H00P  2    0.750283    0.026250    0.396153    11.00000   -1.20000
AFIX   0
C00Q  1    0.713087   -0.020274    0.227036    11.00000    0.04599    0.04934 =
         0.08254   -0.01379    0.01311    0.01913
C00R  1    0.631059   -0.110488    0.108073    11.00000    0.04035    0.06290 =
         0.06562   -0.01291    0.00899    0.01372
AFIX  43
H00R  2    0.671829   -0.095908    0.072041    11.00000   -1.20000
AFIX   0
C00S  1    0.659631    0.118685    0.297683    11.00000    0.07027    0.05196 =
         0.07700   -0.00356    0.00048    0.03807
AFIX  43
H00S  2    0.636857    0.142239    0.271883    11.00000   -1.20000
AFIX   0
C00T  1    0.743889   -0.060622    0.279787    11.00000    0.05514    0.05510 =
         0.14387   -0.04701   -0.01523    0.02871
 
O1    7    0.505881    0.029580    0.538830    10.25000    0.32986
PART 2
CO01  4    0.717334    0.282666    0.583333   -20.50000    0.07542    0.07542 =
         0.02382   -0.00355   -0.00355    0.04224
MN02  6    0.654337    0.327169    0.416667   -30.50000    0.03180    0.03498 =
         0.03198    0.00614    0.00000    0.01590
HKLF 4
 
REM  1148_a.res in P6(5)22
REM R1 =  0.0635 for    2233 Fo > 4sig(Fo)  and  0.1067 for all    3504 data
REM    270 parameters refined using      0 restraints
 
END  
     
WGHT      0.1085      0.0000 

REM Highest difference peak  0.332,  deepest hole -0.396,  1-sigma level  0.069
Q1    1   0.9968 -0.0032  0.3333  10.50000  0.05    0.33
Q2    1   0.7407  0.0000  0.0000  10.50000  0.05    0.27
Q3    1   0.7139  0.2168  0.5894  11.00000  0.05    0.27
Q4    1   0.6630  0.2519  0.4993  11.00000  0.05    0.26
Q5    1   0.5168  0.0608  0.4402  11.00000  0.05    0.26
Q6    1   0.3330 -0.2387  0.1660  11.00000  0.05    0.26
Q7    1   0.9679  0.0057  0.2186  11.00000  0.05    0.25
Q8    1   0.4483 -0.0128  0.5243  11.00000  0.05    0.25
Q9    1   0.3785 -0.2674  0.2389  11.00000  0.05    0.25
Q10   1   0.4879 -0.0272  0.5818  11.00000  0.05    0.25

  REM The information below was added by Olex2.
  REM
  REM R1 = 0.0635 for 2233 Fo > 4sig(Fo) and 0.1067 for all 27181 data
  REM n/a parameters refined using n/a restraints
  REM Highest difference peak 0.33, deepest hole -0.40
  REM Mean Shift 0, Max Shift 0.000.

  REM +++ Tabular Listing of Refinement Information +++
  REM R1_all = 0.1067
  REM R1_gt = 0.0635
  REM wR_ref = 0.1818
  REM GOOF = 0.975
  REM Shift_max = 0.000
  REM Shift_mean = 0
  REM Reflections_all = 27181
  REM Reflections_gt = 2233
  REM Parameters = n/a
  REM Hole = -0.40
  REM Peak = 0.33
  REM Flack = -0.014(11)

  
;
_cod_data_source_file            Zn0.26Mn0.16Co0.37Ca0.21(hfipbb).cif
_cod_data_source_block           1148
_cod_original_cell_volume        5998.4(14)
_cod_database_code               4128059
_shelx_shelxl_version_number     2014/7
_shelx_space_group_comment
;
The symmetry employed for this shelxl refinement is uniquely defined
by the following loop, which should always be used as a source of
symmetry information in preference to the above space-group names.
They are only intended as comments.
;
_shelx_estimated_absorpt_t_max   0.823
_shelx_estimated_absorpt_t_min   0.631
_olex2_refinement_description
;
1. Fixed Uiso
 At 1.2 times of:
  All C(H) groups
2. Others
 Sof(Co01)=0.5*(1-FVAR(2))
 Sof(Zn01)=0.5*FVAR(2)
 Sof(Mn02)=0.5*(1-FVAR(3))
 Sof(Ca02)=0.5*FVAR(3)
 Fixed Sof: O1(0.25)
3.a Aromatic/amide H refined with riding coordinates:
 C00F(H00F), C00I(H00I), C00J(H00J), C00M(H00M), C00N(H00N), C00P(H00P),
 C00R(H00R), C00S(H00S)
;
_olex2_submission_special_instructions 'No special instructions were received'
loop_
_space_group_symop_operation_xyz
'x, y, z'
'-y, x-y, z+2/3'
'-x+y, -x, z+1/3'
'-x, -y, z+1/2'
'y, -x+y, z+1/6'
'x-y, x, z+5/6'
'y, x, -z+2/3'
'x-y, -y, -z'
'-x, -x+y, -z+1/3'
'-y, -x, -z+1/6'
'-x+y, y, -z+1/2'
'x, x-y, -z+5/6'
loop_
_atom_site_label
_atom_site_type_symbol
_atom_site_fract_x
_atom_site_fract_y
_atom_site_fract_z
_atom_site_U_iso_or_equiv
_atom_site_adp_type
_atom_site_occupancy
_atom_site_site_symmetry_order
_atom_site_calc_flag
_atom_site_refinement_flags_posn
_atom_site_refinement_flags_adp
_atom_site_refinement_flags_occupancy
_atom_site_disorder_assembly
_atom_site_disorder_group
Zn01 Zn 0.7185(2) 0.2815(2) 0.5833 0.030(3) Uani 0.46(3) 2 d S T P A .
Ca02 Ca 0.642(3) 0.3212(15) 0.4167 0.037(6) Uani 0.41(4) 2 d S T P A 1
O003 O 0.3743(4) -0.2544(3) 0.1464(4) 0.0475(17) Uani 1 1 d . . . . .
O004 O 0.4241(4) -0.2661(4) 0.0227(4) 0.0503(17) Uani 1 1 d . . . . .
F005 F 0.7034(4) -0.0965(4) 0.3464(6) 0.091(3) Uani 1 1 d . . . . .
O006 O 0.7030(4) 0.2033(4) 0.5091(4) 0.063(2) Uani 1 1 d . . . . .
F007 F 0.7378(5) 0.0495(4) 0.0977(6) 0.099(3) Uani 1 1 d . . . . .
O008 O 0.6575(4) 0.2292(4) 0.3944(5) 0.062(2) Uani 1 1 d . . . . .
F009 F 0.7935(4) -0.0105(5) 0.1115(6) 0.112(3) Uani 1 1 d . . . . .
F00A F 0.7485(4) -0.1103(4) 0.2289(7) 0.108(3) Uani 1 1 d . . . . .
F00B F 0.8126(4) -0.0158(5) 0.3078(6) 0.110(3) Uani 1 1 d . . . . .
F00C F 0.8249(4) 0.0844(4) 0.1888(6) 0.119(4) Uani 1 1 d . . . . .
C00D C 0.5021(5) -0.1856(5) 0.1307(7) 0.046(2) Uani 1 1 d . . . . .
C00E C 0.6819(5) 0.1932(5) 0.4319(8) 0.053(3) Uani 1 1 d . . . . .
C00F C 0.5631(5) -0.1633(5) 0.0797(8) 0.058(3) Uani 1 1 d . . . . .
H00F H 0.5584 -0.1845 0.0246 0.070 Uiso 1 1 calc R . . . .
C00G C 0.4301(5) -0.2396(5) 0.0971(7) 0.047(2) Uani 1 1 d . . . . .
C00H C 0.6393(6) -0.0786(5) 0.1906(8) 0.054(3) Uani 1 1 d . . . . .
C00I C 0.5779(5) -0.1033(5) 0.2430(8) 0.055(3) Uani 1 1 d . . . . .
H00I H 0.5823 -0.0833 0.2989 0.066 Uiso 1 1 calc R . . . .
C00J C 0.7189(6) 0.1001(6) 0.4184(8) 0.063(3) Uani 1 1 d . . . . .
H00J H 0.7365 0.1105 0.4759 0.075 Uiso 1 1 calc R . . . .
C00K C 0.7022(6) 0.0331(6) 0.2844(7) 0.050(3) Uani 1 1 d . . . . .
C00L C 0.6852(6) 0.1354(6) 0.3834(7) 0.051(3) Uani 1 1 d . . . . .
C00M C 0.6677(6) 0.0679(6) 0.2510(9) 0.061(3) Uani 1 1 d . . . . .
H00M H 0.6488 0.0565 0.1941 0.074 Uiso 1 1 calc R . . . .
C00N C 0.5112(5) -0.1564(6) 0.2144(6) 0.048(3) Uani 1 1 d . . . . .
H00N H 0.4708 -0.1734 0.2518 0.057 Uiso 1 1 calc R . . . .
C00O C 0.7672(7) 0.0254(8) 0.1560(12) 0.087(5) Uani 1 1 d . . . . .
C00P C 0.7274(7) 0.0497(6) 0.3706(8) 0.066(3) Uani 1 1 d . . . . .
H00P H 0.7503 0.0263 0.3962 0.079 Uiso 1 1 calc R . . . .
C00Q C 0.7131(6) -0.0203(6) 0.2270(8) 0.061(3) Uani 1 1 d . . . . .
C00R C 0.6311(6) -0.1105(6) 0.1081(7) 0.062(3) Uani 1 1 d . . . . .
H00R H 0.6718 -0.0959 0.0720 0.074 Uiso 1 1 calc R . . . .
C00S C 0.6596(6) 0.1187(6) 0.2977(8) 0.063(3) Uani 1 1 d . . . . .
H00S H 0.6369 0.1422 0.2719 0.076 Uiso 1 1 calc R . . . .
C00T C 0.7439(7) -0.0606(7) 0.2798(12) 0.084(5) Uani 1 1 d . . . . .
O1 O 0.506(6) 0.030(6) 0.539(7) 0.33(6) Uiso 0.25 1 d . . . . .
Co01 Co 0.7173(4) 0.2827(4) 0.5833 0.056(4) Uani 0.54(3) 2 d S T P B 2
Mn02 Mn 0.6543(16) 0.3272(8) 0.4167 0.033(4) Uani 0.59(4) 2 d S T P A 2
loop_
_atom_site_aniso_label
_atom_site_aniso_U_11
_atom_site_aniso_U_22
_atom_site_aniso_U_33
_atom_site_aniso_U_23
_atom_site_aniso_U_13
_atom_site_aniso_U_12
Zn01 0.020(3) 0.020(3) 0.050(7) -0.005(3) -0.005(3) 0.009(3)
Ca02 0.031(13) 0.029(6) 0.050(11) -0.004(6) 0.000 0.016(6)
O003 0.041(4) 0.046(4) 0.054(4) -0.001(3) -0.005(4) 0.021(3)
O004 0.042(4) 0.054(4) 0.052(4) 0.001(4) 0.008(3) 0.022(3)
F005 0.083(6) 0.069(5) 0.125(7) -0.011(5) -0.028(5) 0.042(5)
O006 0.082(6) 0.065(5) 0.042(4) -0.026(4) -0.008(4) 0.037(4)
F007 0.105(7) 0.063(5) 0.087(5) -0.004(5) 0.033(5) 0.010(4)
O008 0.059(5) 0.057(5) 0.069(5) -0.006(4) 0.008(4) 0.028(4)
F009 0.065(5) 0.090(6) 0.143(8) -0.055(6) 0.029(5) 0.011(4)
F00A 0.087(5) 0.077(5) 0.179(9) -0.055(6) -0.028(6) 0.055(4)
F00B 0.065(5) 0.101(6) 0.178(8) -0.065(6) -0.039(5) 0.052(5)
F00C 0.059(5) 0.085(6) 0.139(7) -0.052(5) 0.021(5) -0.019(4)
C00D 0.041(6) 0.039(5) 0.059(6) 0.003(5) -0.003(5) 0.022(5)
C00E 0.045(6) 0.042(6) 0.076(8) -0.009(6) 0.008(6) 0.025(5)
C00F 0.043(6) 0.044(6) 0.070(7) -0.014(6) 0.004(6) 0.008(5)
C00G 0.036(5) 0.035(5) 0.063(7) 0.001(5) 0.006(5) 0.013(4)
C00H 0.040(6) 0.032(5) 0.079(8) -0.018(5) 0.007(6) 0.009(4)
C00I 0.038(6) 0.046(6) 0.068(7) -0.017(6) -0.012(6) 0.012(5)
C00J 0.062(7) 0.059(7) 0.075(7) -0.020(7) -0.010(8) 0.036(6)
C00K 0.048(6) 0.045(6) 0.056(6) -0.009(5) -0.002(5) 0.022(5)
C00L 0.063(7) 0.049(6) 0.046(6) -0.009(5) -0.002(6) 0.031(6)
C00M 0.061(7) 0.047(6) 0.068(7) -0.008(6) -0.002(7) 0.021(5)
C00N 0.038(5) 0.055(6) 0.043(5) 0.006(5) 0.011(5) 0.017(5)
C00O 0.050(8) 0.065(9) 0.116(13) -0.037(10) 0.018(9) 0.007(7)
C00P 0.065(8) 0.051(7) 0.087(8) -0.014(7) -0.010(7) 0.033(6)
C00Q 0.046(6) 0.049(6) 0.083(9) -0.014(6) 0.013(6) 0.019(5)
C00R 0.040(6) 0.063(7) 0.066(8) -0.013(6) 0.009(6) 0.014(6)
C00S 0.070(8) 0.052(7) 0.077(8) -0.004(6) 0.000(7) 0.038(6)
C00T 0.055(7) 0.055(8) 0.144(15) -0.047(9) -0.015(9) 0.029(6)
Co01 0.075(6) 0.075(6) 0.024(6) -0.004(5) -0.004(5) 0.042(6)
Mn02 0.032(8) 0.035(5) 0.032(4) 0.006(3) 0.000 0.016(4)
loop_
_atom_type_symbol
_atom_type_description
_atom_type_scat_dispersion_real
_atom_type_scat_dispersion_imag
_atom_type_scat_source
C C 0.0181 0.0091 'International Tables Vol C Tables 4.2.6.8 and 6.1.1.4'
H H 0.0000 0.0000 'International Tables Vol C Tables 4.2.6.8 and 6.1.1.4'
Ca Ca 0.3641 1.2855 'International Tables Vol C Tables 4.2.6.8 and 6.1.1.4'
Co Co -2.3653 3.6143 'International Tables Vol C Tables 4.2.6.8 and 6.1.1.4'
F F 0.0727 0.0534 'International Tables Vol C Tables 4.2.6.8 and 6.1.1.4'
Mn Mn -0.5299 2.8052 'International Tables Vol C Tables 4.2.6.8 and 6.1.1.4'
O O 0.0492 0.0322 'International Tables Vol C Tables 4.2.6.8 and 6.1.1.4'
Zn Zn -1.5491 0.6778 'International Tables Vol C Tables 4.2.6.8 and 6.1.1.4'
loop_
_geom_angle_atom_site_label_1
_geom_angle_atom_site_label_2
_geom_angle_atom_site_label_3
_geom_angle
_geom_angle_site_symmetry_1
_geom_angle_site_symmetry_3
Ca02 Zn01 Ca02 101.0(6) . 3_665
O003 Zn01 Ca02 84.9(8) 7_655 3_665
O003 Zn01 Ca02 47.3(7) 7_655 .
O003 Zn01 Ca02 47.3(7) 4_655 3_665
O003 Zn01 Ca02 84.9(8) 4_655 .
O003 Zn01 O003 105.9(5) 7_655 4_655
O006 Zn01 Ca02 154.6(9) . 3_665
O006 Zn01 Ca02 82.5(3) 10_666 3_665
O006 Zn01 Ca02 82.5(3) . .
O006 Zn01 Ca02 154.6(9) 10_666 .
O006 Zn01 O003 114.2(3) . 7_655
O006 Zn01 O003 114.2(3) 10_666 4_655
O006 Zn01 O003 108.8(3) 10_666 7_655
O006 Zn01 O003 108.8(3) . 4_655
O006 Zn01 O006 105.3(6) . 10_666
Zn01 Ca02 Zn01 130.5(17) . 2_654
O003 Ca02 Zn01 99.3(15) 5_665 .
O003 Ca02 Zn01 36.5(3) 7_655 .
O003 Ca02 Zn01 36.5(3) 5_665 2_654
O003 Ca02 Zn01 99.3(15) 7_655 2_654
O003 Ca02 O003 79.8(16) 7_655 5_665
O003 Ca02 C00E 78.1(8) 5_665 12
O003 Ca02 C00E 82.0(9) 7_655 12
O003 Ca02 C00E 78.1(8) 7_655 .
O003 Ca02 C00E 82.0(9) 5_665 .
O003 Ca02 C00G 76.7(2) 7_655 4_655
O003 Ca02 C00G 149.9(14) 5_665 4_655
O003 Ca02 C00G 149.9(14) 7_655 9_665
O003 Ca02 C00G 76.7(2) 5_665 9_665
O004 Ca02 Zn01 161.7(12) 9_665 .
O004 Ca02 Zn01 161.7(12) 4_655 2_654
O004 Ca02 Zn01 62.7(4) 4_655 .
O004 Ca02 Zn01 62.7(4) 9_665 2_654
O004 Ca02 O003 161.2(15) 9_665 7_655
O004 Ca02 O003 87.3(5) 4_655 7_655
O004 Ca02 O003 87.3(5) 9_665 5_665
O004 Ca02 O003 161.2(15) 4_655 5_665
O004 Ca02 O004 108(2) 4_655 9_665
O004 Ca02 O008 99.8(8) 9_665 .
O004 Ca02 O008 88.9(7) 9_665 12
O004 Ca02 O008 99.8(8) 4_655 12
O004 Ca02 O008 88.9(7) 4_655 .
O004 Ca02 C00E 113.9(6) 9_665 .
O004 Ca02 C00E 113.8(6) 4_655 12
O004 Ca02 C00E 81.9(3) 9_665 12
O004 Ca02 C00E 81.9(3) 4_655 .
O004 Ca02 C00G 11.8(4) 4_655 4_655
O004 Ca02 C00G 120(2) 4_655 9_665
O004 Ca02 C00G 120(2) 9_665 4_655
O004 Ca02 C00G 11.8(4) 9_665 9_665
O008 Ca02 Zn01 107.9(10) . 2_654
O008 Ca02 Zn01 107.9(10) 12 .
O008 Ca02 Zn01 65.4(6) . .
O008 Ca02 Zn01 65.4(6) 12 2_654
O008 Ca02 O003 77.7(11) 12 7_655
O008 Ca02 O003 90.8(13) 12 5_665
O008 Ca02 O003 77.7(11) . 5_665
O008 Ca02 O003 90.8(13) . 7_655
O008 Ca02 O008 165(3) 12 .
O008 Ca02 C00E 14.3(4) 12 12
O008 Ca02 C00E 14.3(4) . .
O008 Ca02 C00E 156(2) . 12
O008 Ca02 C00E 156(2) 12 .
O008 Ca02 C00G 102.2(6) . 9_665
O008 Ca02 C00G 102.2(6) 12 4_655
O008 Ca02 C00G 84.1(5) . 4_655
O008 Ca02 C00G 84.1(5) 12 9_665
C00E Ca02 Zn01 51.1(4) . .
C00E Ca02 Zn01 116.1(10) 12 .
C00E Ca02 Zn01 116.1(10) . 2_654
C00E Ca02 Zn01 51.1(4) 12 2_654
C00E Ca02 C00E 154.0(19) . 12
C00G Ca02 Zn01 167.6(2) 4_655 2_654
C00G Ca02 Zn01 50.93(19) 4_655 .
C00G Ca02 Zn01 50.93(19) 9_665 2_654
C00G Ca02 Zn01 167.6(2) 9_665 .
C00G Ca02 C00E 75.0(3) 9_665 12
C00G Ca02 C00E 116.5(4) 4_655 12
C00G Ca02 C00E 116.5(4) 9_665 .
C00G Ca02 C00E 75.0(3) 4_655 .
C00G Ca02 C00G 131.1(18) 4_655 9_665
Zn01 O003 Ca02 96.2(5) 4_654 6_544
Zn01 O003 Mn02 98.0(4) 4_654 6_544
C00G O003 Zn01 115.8(6) . 4_654
C00G O003 Ca02 122.8(6) . 6_544
C00G O003 Co01 115.3(6) . 4_654
C00G O003 Mn02 124.0(6) . 6_544
Co01 O003 Zn01 1.0(5) 4_654 4_654
Co01 O003 Mn02 97.7(4) 4_654 6_544
C00G O004 Ca02 148.4(13) . 4_654
C00G O004 Mn02 143.9(9) . 4_654
Zn01 O006 Co01 1.0(5) . .
C00E O006 Zn01 127.6(8) . .
C00E O006 Co01 126.7(8) . .
C00E O008 Ca02 140.5(9) . .
C00E O008 Mn02 137.8(8) . .
C00F C00D C00G 120.1(10) . .
C00F C00D C00N 118.1(10) . .
C00N C00D C00G 121.8(9) . .
O006 C00E Ca02 98.4(7) . .
O006 C00E O008 123.4(10) . .
O006 C00E C00L 117.6(10) . .
O008 C00E Ca02 25.2(6) . .
O008 C00E C00L 119.0(10) . .
C00L C00E Ca02 144.0(8) . .
C00D C00F C00R 121.4(11) . .
O003 C00G Ca02 103.6(10) . 4_654
O003 C00G C00D 116.8(9) . .
O004 C00G Ca02 19.9(9) . 4_654
O004 C00G O003 123.0(9) . .
O004 C00G C00D 120.2(9) . .
C00D C00G Ca02 138.7(11) . 4_654
C00I C00H C00Q 118.7(9) . .
C00I C00H C00R 118.1(9) . .
C00R C00H C00Q 123.2(9) . .
C00N C00I C00H 121.0(10) . .
C00L C00J C00P 121.3(12) . .
C00M C00K C00P 117.0(11) . .
C00M C00K C00Q 120.0(10) . .
C00P C00K C00Q 123.0(10) . .
C00J C00L C00E 120.9(10) . .
C00J C00L C00S 118.0(10) . .
C00S C00L C00E 121.0(10) . .
C00K C00M C00S 122.5(12) . .
C00I C00N C00D 121.1(10) . .
F007 C00O F009 106.7(14) . .
F007 C00O F00C 106.1(13) . .
F007 C00O C00Q 112.0(11) . .
F009 C00O F00C 106.2(11) . .
F009 C00O C00Q 113.6(13) . .
F00C C00O C00Q 111.8(13) . .
C00J C00P C00K 121.0(12) . .
C00H C00Q C00K 109.4(9) . .
C00H C00Q C00T 106.8(9) . .
C00K C00Q C00T 111.8(10) . .
C00O C00Q C00H 113.1(10) . .
C00O C00Q C00K 106.4(9) . .
C00O C00Q C00T 109.4(12) . .
C00F C00R C00H 120.1(10) . .
C00M C00S C00L 120.2(12) . .
F005 C00T F00A 106.2(12) . .
F005 C00T F00B 109.0(13) . .
F005 C00T C00Q 113.3(10) . .
F00A C00T C00Q 110.3(12) . .
F00B C00T F00A 104.9(10) . .
F00B C00T C00Q 112.6(11) . .
O003 Co01 O003 107.8(7) 7_655 4_655
O006 Co01 O003 114.2(3) 10_666 4_655
O006 Co01 O003 108.8(3) . 4_655
O006 Co01 O003 114.2(3) . 7_655
O006 Co01 O003 108.8(3) 10_666 7_655
O006 Co01 O006 103.3(8) . 10_666
O003 Mn02 O003 86.8(11) 7_655 5_665
O004 Mn02 O003 166.3(5) 4_655 5_665
O004 Mn02 O003 88.4(2) 9_665 5_665
O004 Mn02 O003 166.2(5) 9_665 7_655
O004 Mn02 O003 88.4(2) 4_655 7_655
O004 Mn02 O004 99.0(12) 4_655 9_665
O008 Mn02 O003 95.9(7) . 7_655
O008 Mn02 O003 81.8(6) . 5_665
O008 Mn02 O003 95.9(7) 12 5_665
O008 Mn02 O003 81.8(6) 12 7_655
O008 Mn02 O004 96.2(6) 12 4_655
O008 Mn02 O004 85.9(5) . 4_655
O008 Mn02 O004 85.9(5) 12 9_665
O008 Mn02 O004 96.2(6) . 9_665
O008 Mn02 O008 176.8(16) 12 .
loop_
_geom_bond_atom_site_label_1
_geom_bond_atom_site_label_2
_geom_bond_distance
_geom_bond_site_symmetry_2
Zn01 Ca02 3.35(2) 3_665
Zn01 Ca02 3.35(2) .
Zn01 O003 2.005(8) 7_655
Zn01 O003 2.005(8) 4_655
Zn01 O006 1.902(8) 10_666
Zn01 O006 1.902(8) .
Ca02 Zn01 3.35(2) 2_654
Ca02 O003 2.48(4) 5_665
Ca02 O003 2.48(4) 7_655
Ca02 O004 2.09(3) 9_665
Ca02 O004 2.09(3) 4_655
Ca02 O008 2.161(10) .
Ca02 O008 2.161(10) 12
Ca02 C00E 3.232(16) .
Ca02 C00E 3.232(16) 12
Ca02 C00G 3.22(2) 4_655
Ca02 C00G 3.22(2) 9_665
O003 Zn01 2.005(8) 4_654
O003 Ca02 2.48(4) 6_544
O003 C00G 1.305(11) .
O003 Co01 1.979(10) 4_654
O003 Mn02 2.31(2) 6_544
O004 Ca02 2.09(3) 4_654
O004 C00G 1.252(11) .
O004 Mn02 2.22(2) 4_654
F005 C00T 1.308(17) .
O006 C00E 1.247(12) .
O006 Co01 1.928(10) .
F007 C00O 1.332(18) .
O008 C00E 1.257(12) .
O008 Mn02 2.144(8) .
F009 C00O 1.336(15) .
F00A C00T 1.355(13) .
F00B C00T 1.354(14) .
F00C C00O 1.339(14) .
C00D C00F 1.380(14) .
C00D C00G 1.471(13) .
C00D C00N 1.397(14) .
C00E C00L 1.467(13) .
C00F C00R 1.383(14) .
C00G Ca02 3.22(2) 4_654
C00H C00I 1.392(14) .
C00H C00Q 1.538(14) .
C00H C00R 1.405(14) .
C00I C00N 1.369(13) .
C00J C00L 1.379(15) .
C00J C00P 1.381(15) .
C00K C00M 1.374(16) .
C00K C00P 1.404(15) .
C00K C00Q 1.541(14) .
C00L C00S 1.398(15) .
C00M C00S 1.375(15) .
C00O C00Q 1.528(19) .
C00Q C00T 1.543(19) .
O1 O1 1.61(19) 8_556
Co01 O003 1.979(10) 4_655
Co01 O003 1.979(10) 7_655
Co01 O006 1.928(10) 10_666
Mn02 O003 2.31(2) 7_655
Mn02 O003 2.31(2) 5_665
Mn02 O004 2.22(2) 4_655
Mn02 O004 2.22(2) 9_665
Mn02 O008 2.143(8) 12
loop_
_refln_index_h
_refln_index_k
_refln_index_l
_refln_F_squared_meas
_refln_F_squared_sigma
0 1 0 632.64 31.4
0 1 0 608.54 31.4
1 -1 0 593.24 31.5
1 -1 0 659.23 32.1
1 0 0 645.14 31.8
1 0 0 671.23 32.1
0 -1 0 586.94 31.4
0 -1 0 597.84 31.4
-1 1 0 608.94 32
-1 1 0 611.74 31.5
-1 2 0 721.73 35.6
-1 2 0 719.33 36.1
1 -2 0 660.13 36.1
-1 2 0 723.73 36.1
-1 -1 0 701.33 36
-1 -1 0 627.74 36.1
1 1 0 702.93 36.2
1 1 0 748.03 36.2
2 -1 0 659.63 36
2 -1 0 717.73 36.2
2 -1 0 785.12 37.9
1 -2 0 662.03 35.9
1 1 0 752.02 35.8
-1 -1 0 675.43 35.7
1 -2 0 668.03 35.6
-2 1 0 693.13 37.4
-2 1 0 744.63 36.2
-2 1 0 663.23 36.1
2 -2 0 9668.33 462.55
-2 0 0 8967.3 462.45
2 -2 0 9063.39 461.45
-2 2 0 9048.89 462.45
0 -2 0 8567.14 461.45
0 -2 0 9349.46 461.55
0 2 0 9559.04 461.45
-2 0 0 9287.37 462.05
2 0 0 9319.57 462.55
-2 2 0 9532.85 461.65
2 -2 0 8827.82 461.65
2 0 0 9570.24 462.05
0 2 0 9999 461.65
3 -2 0 1078.79 52.19
2 1 0 1034.5 51.29
3 -2 0 921.21 52.09
1 -3 0 859.81 51.69
2 1 0 1097.89 52.69
-2 3 0 1030.5 52.99
-1 -2 0 925.71 51.69
-1 -2 0 918.51 52.09
-1 -2 0 1033.8 51.09
1 2 0 1069.49 51.69
1 2 0 1092.69 52.39
1 2 0 946.31 51.09
2 -3 0 876.61 51.99
2 -3 0 989 51.39
2 1 0 1121.89 52.79
2 -3 0 1053.99 52.59
1 -3 0 989.1 51.49
1 -3 0 1033 51.19
-2 -1 0 897.31 52.49
-2 -1 0 1003.4 52.59
-2 3 0 1067.99 52.09
-2 3 0 1140.89 51.59
-3 2 0 926.51 53.99
-2 -1 0 855.01 51.19
-3 1 0 1086.49 52.19
-3 1 0 942.21 52.39
3 -1 0 894.51 51.99
3 -1 0 1071.09 52.59
3 -1 0 1183.68 54.69
-1 3 0 1060.79 51.89
-1 3 0 1071.59 51.39
-1 3 0 1077.99 51.39
-3 2 0 1079.59 52.09
-3 1 0 872.61 53.89
0 3 0 3085.09 149.59
-3 3 0 2978 149.79
3 0 0 3127.29 151.38
3 -3 0 2545.15 149.29
0 3 0 3154.78 149.79
0 -3 0 2523.65 149.39
3 -3 0 3282.07 151.58
3 0 0 3175.48 150.68
2 2 0 286.47 18.3
-2 4 0 244.78 17.3
2 -4 0 248.58 15.9
-2 -2 0 248.58 16.5
-2 4 0 281.57 15.7
2 -4 0 229.18 16.9
-2 4 0 282.57 17.3
-4 2 0 284.57 17.3
2 2 0 250.97 16.6
2 2 0 281.47 16.3
4 -2 0 283.87 18.2
-1 4 0 14.7 3.7
-3 4 0 19.3 7.1
-1 4 0 27 6.2
3 -4 0 21.7 7.6
1 -4 0 2.2 6.5
3 -4 0 11.9 5.5
3 1 0 23.4 5.3
3 1 0 23.8 8.7
1 -4 0 13.2 5.7
3 1 0 24.4 7.2
4 -1 0 31.6 9.7
4 -1 0 30.4 9.5
-1 4 0 24.7 6.3
4 -3 0 22.9 8.9
1 -4 0 23.6 4.5
-4 3 0 27.9 7.5
-3 4 0 27.7 8
-1 -3 0 19.3 3.6
1 3 0 26.3 7
1 3 0 26.8 8.2
1 3 0 18.6 3.5
4 -3 0 29.3 7.5
-4 4 0 1210.58 63.69
0 4 0 1261.97 63.69
4 -4 0 1170.78 65.89
0 4 0 1236.08 63.29
4 0 0 1271.47 66.29
4 0 0 1203.28 64.49
-2 5 0 40.8 7.6
2 3 0 56.09 10.7
5 -3 0 49.8 11.5
-5 2 0 58.89 9.6
3 2 0 64.89 8.6
3 2 0 58.89 11.2
-5 3 0 64.19 10.4
-2 5 0 61.49 10.3
2 3 0 63.79 8.7
5 -3 0 49 10.1
3 -5 0 36.2 8.5
-3 5 0 56.49 9.8
-3 5 0 38 7.5
3 2 0 27 7.4
5 -2 0 48.9 10.3
2 -5 0 39.7 6.6
5 -2 0 58.39 12.2
4 1 0 1381.26 70.99
-5 4 0 1360.76 71.89
4 1 0 1390.16 73.89
5 -4 0 1296.67 74.59
1 4 0 1391.56 71.69
-1 5 0 1379.16 71.19
5 -4 0 1423.56 72.09
-4 5 0 1381.06 72.09
4 1 0 1404.16 73.09
5 -1 0 1425.26 73.49
-1 5 0 1381.16 71.89
5 -1 0 1341.87 74.99
1 4 0 1445.76 72.09
5 -5 0 1992.7 104.59
5 0 0 2047 106.19
5 0 0 2077.69 103.99
0 5 0 2116.59 105.09
0 5 0 2038.9 104.59
-5 5 0 1997.9 104.99
5 0 0 2072.39 108.09
6 -3 0 1055.89 62.19
6 -3 0 1125.09 59.79
3 -6 0 1145.19 58.49
-3 6 0 1083.89 58.59
-6 3 0 1116.49 58.79
3 3 0 1147.09 59.39
3 3 0 1081.99 57.69
-3 6 0 1051.19 57.09
2 -6 0 414.86 21.3
6 -4 0 407.96 25.1
-2 6 0 389.76 24.6
2 4 0 385.86 23.6
6 -2 0 393.16 28.7
2 4 0 413.96 25.3
-2 6 0 373.06 22.9
4 2 0 385.46 23
-6 4 0 396.76 24.7
6 -2 0 414.46 27.1
-4 6 0 381.56 23.4
-4 6 0 392.86 24.7
4 2 0 328.17 24.8
4 2 0 381.16 25.3
4 -6 0 343.17 25.8
2 4 0 380.26 21.3
6 -4 0 371.86 28.1
-5 6 0 112.99 14.1
6 -1 0 116.79 18.8
1 5 0 116.59 12.5
5 1 0 127.89 15.4
-1 6 0 117.69 11.8
6 -5 0 117.89 13.8
5 -6 0 87.99 16.2
6 -1 0 114.89 13.9
5 1 0 118.59 10.7
-1 6 0 113.39 12.1
6 -5 0 91.89 16.1
1 5 0 115.79 13.6
-6 5 0 113.79 13.4
5 1 0 113.39 15.8
6 -6 0 172.08 14.6
6 0 0 183.18 14.2
6 0 0 179.88 17.2
-6 6 0 188.28 15.9
0 6 0 192.48 15.2
0 6 0 184.58 16
6 0 0 141.69 20
-7 4 0 95.19 13.4
-3 7 0 96.09 13.9
3 4 0 91.39 12
4 3 0 93.59 12.1
7 -3 0 116.39 17.3
4 3 0 73.59 13.2
3 4 0 105.09 10.7
4 -7 0 104.79 14.5
7 -3 0 77.99 15.1
3 -7 0 96.19 11.4
3 4 0 101.09 14.2
-4 7 0 97.99 11.5
7 -4 0 90.79 16.5
-7 3 0 95.29 13.3
-3 7 0 97.39 11.1
4 3 0 98.29 14.4
-4 7 0 108.89 12.6
7 -4 0 104.49 15.3
2 5 0 16 10.2
5 -7 0 13 9.8
7 -2 0 6.4 11.6
-5 7 0 15.2 10.1
7 -5 0 2.6 11.2
7 -2 0 15 11.6
7 -5 0 18.2 10.7
2 5 0 13.6 9.2
-2 7 0 10.9 7.4
-2 7 0 16.3 10.1
5 2 0 13.2 8.7
5 2 0 21 11.9
5 2 0 9.4 7.6
-7 5 0 7.9 9.7
-6 7 0 73.99 12.4
7 -6 0 97.39 14.3
6 -7 0 53.79 13.2
6 -7 0 72.39 10.8
6 1 0 92.69 11
7 -1 0 55.89 14.7
6 1 0 64.79 13.4
7 -6 0 57.49 14.3
6 1 0 98.79 16.4
1 6 0 87.19 12.5
1 6 0 108.19 12.8
-1 7 0 77.89 13
7 -1 0 88.09 14.3
-7 6 0 80.49 13.2
-1 7 0 82.79 11.2
7 0 0 179.08 23.9
0 7 0 210.38 17.3
7 0 0 244.98 21.5
7 -7 0 178.58 23.7
7 0 0 254.87 17.5
0 7 0 258.27 19.3
-7 7 0 236.68 19.1
0 7 0 253.87 19
7 -7 0 223.18 18.3
8 -4 0 539.55 33.8
4 4 0 525.55 29.7
-4 8 0 409.16 27.8
-8 4 0 419.06 28
-4 8 0 480.65 28.5
4 4 0 435.76 28.8
-4 8 0 531.95 31.1
4 4 0 546.05 33.2
-8 4 0 528.65 31.1
4 -8 0 535.25 30.1
3 5 0 120.49 14.5
5 3 0 95.89 15.5
-8 5 0 72.79 11.1
-8 3 0 68.29 11
-5 8 0 70.89 10.4
5 -8 0 59.09 12
8 -5 0 98.69 16
8 -3 0 102.09 16.5
-5 8 0 91.99 14.1
5 3 0 83.59 12.4
-3 8 0 88.49 14.3
-3 8 0 78.49 11.1
5 3 0 81.99 15
-8 5 0 84.59 13.9
8 -3 0 47.7 14.7
3 5 0 103.79 16.3
-2 8 0 7.6 7.8
-2 8 0 -4.8 9.1
6 2 0 3.1 12.1
6 -8 0 -2.9 10.5
-6 8 0 1.6 10.5
8 -2 0 -6.5 12.4
6 2 0 10.4 10.9
2 6 0 11.7 9.8
-2 8 0 2.6 9.2
2 6 0 -0.5 10.2
8 -2 0 -5 11.6
8 -6 0 7.1 10.7
-8 6 0 -1.7 6
6 2 0 -0.5 7.7
8 -6 0 -0.9 13
-8 6 0 -0.9 9.6
-8 2 0 2.6 6.2
-6 8 0 3.9 6.8
2 6 0 1 9.2
-1 8 0 87.29 14.1
8 -1 0 78.09 15.5
7 -8 0 72.49 11.7
7 1 0 92.09 16.5
-1 8 0 99.39 14.9
-8 7 0 99.89 14.5
1 7 0 91.29 14.3
7 1 0 58.39 15.4
-7 8 0 91.69 14.3
-1 8 0 76.39 12.7
8 -7 0 54.89 16.4
8 -7 0 74.49 13.3
7 1 0 78.79 12.3
1 7 0 105.49 14.2
-7 8 0 82.49 12.1
1 7 0 102.29 13.6
8 -1 0 89.49 12.6
7 -8 0 68.99 16
8 0 0 547.55 35.7
0 8 0 582.34 34
-8 8 0 504.05 29.9
-8 8 0 532.55 33.4
8 -8 0 488.15 39.3
0 8 0 533.35 31.8
8 0 0 415.16 39.3
0 8 0 522.25 32.2
8 -8 0 442.96 32
8 0 0 588.14 32
-5 9 0 4.8 11.3
9 -5 0 8.5 14.1
9 -4 0 -9.1 14.6
5 4 0 8.1 13.7
-4 9 0 4.8 10
9 -5 0 -8.3 14.1
-4 9 0 1.2 7.1
-4 9 0 -0.4 5.9
-9 4 0 3.5 7.6
4 5 0 2.7 8.3
9 -4 0 9.8 13.6
5 4 0 1.8 8.9
-9 5 0 3.3 7.3
4 5 0 -0.3 11.3
4 5 0 -0.7 6.8
-5 9 0 9.9 6.6
-9 5 0 4.3 10
-4 9 0 6.3 6.5
-3 9 0 45.1 11
-9 6 0 47.5 8.8
3 6 0 57.29 13.7
-6 9 0 62.69 13.3
6 3 0 22.3 11.2
-9 3 0 46.5 9.2
-3 9 0 49.4 12.9
9 -6 0 31.1 16.6
-3 9 0 49.5 8.3
-6 9 0 47.8 8
-3 9 0 28.2 8.4
9 -3 0 39.1 17.8
-9 6 0 47.4 12.2
6 3 0 52.29 14.8
3 6 0 50.59 11.5
3 6 0 66.09 13.4
9 -6 0 49.4 14.5
6 3 0 51.59 10.8
9 -3 0 63.09 15.8
7 -9 0 -0.7 11.8
7 2 0 12 13.3
-9 7 0 8.5 11.8
7 2 0 5 8.8
-9 7 0 -3.7 6.6
-7 9 0 10.7 7.5
7 2 0 7.2 12.8
-2 9 0 3.5 11.2
9 -2 0 12 12.8
-7 9 0 3.9 9.9
7 -9 0 4 6.5
2 7 0 6.9 9.7
9 -7 0 14.5 12.1
9 -7 0 7.4 15.7
2 7 0 7.6 10.8
2 7 0 12.3 11.1
-2 9 0 -0.6 9
9 -2 0 -12.5 15.4
-2 9 0 6 8.5
-9 7 0 9.3 7.5
-9 2 0 1.7 7.7
8 1 0 4.4 9.8
8 1 0 6.3 14.9
1 8 0 1 9.7
-1 9 0 -3.4 8.2
1 8 0 2 9.6
9 -8 0 1.1 15.8
9 -1 0 5.1 13.4
-1 9 0 0.3 9.7
-9 8 0 -1.1 11
8 1 0 7.1 14.6
1 8 0 10 11.2
-9 8 0 6.5 7.1
8 -9 0 0.2 8.2
9 -1 0 -1.3 8.7
8 -9 0 -3.7 13.9
-8 9 0 -2.9 10.7
-1 9 0 -6.5 11.6
-8 9 0 1.6 6.7
-9 1 0 1.6 7.4
9 -8 0 6 11.1
-9 8 0 -3.4 7.2
9 -1 0 -3.8 16
0 9 0 0.7 9.8
9 0 0 10.3 8.8
9 0 0 -6.6 16.5
9 0 0 14.4 15.7
9 -9 0 -3.3 14.8
0 9 0 1.6 9.2
-9 9 0 7.1 12.4
-9 9 0 8.9 7.8
-9 0 0 -1.9 5.4
0 9 0 14.9 11.7
-9 9 0 0.7 6.3
-5 10 0 1031 60.29
5 5 0 1156.68 62.69
10 -5 0 1126.49 63.49
-10 5 0 1023.8 57.29
5 5 0 1056.99 59.09
-5 10 0 1042.3 56.99
4 6 0 68.09 15.6
10 -4 0 86.39 18.4
10 -6 0 88.99 18.3
-6 10 0 96.79 16.3
-6 10 0 101.29 12.2
-10 4 0 62.99 9.9
-4 10 0 95.49 16.6
10 -4 0 55.09 20.8
4 6 0 93.49 15.2
10 -6 0 54.99 19.6
-10 6 0 82.39 15.7
-10 6 0 82.19 13.9
-4 10 0 84.09 11.9
4 6 0 77.49 11.7
-4 10 0 78.49 13.2
6 4 0 89.19 14.3
6 4 0 100.89 18.4
-10 7 0 32 13.2
3 7 0 21.5 12.3
10 -7 0 18.1 18.4
3 7 0 28.7 12.7
3 7 0 35.2 11.1
10 -3 0 15.8 17.5
-3 10 0 32.5 8.4
-10 7 0 23.3 7.6
-3 10 0 31.1 11.5
-3 10 0 40.3 14.6
10 -3 0 26.5 15.9
-7 10 0 29.2 7.8
10 -7 0 37 14.8
-10 3 0 20.2 9
-7 10 0 40.8 14
7 3 0 27.8 15
7 3 0 29.1 11.7
10 -2 0 0.9 18.6
2 8 0 12.5 11.4
8 2 0 34.7 11.7
-10 8 0 36.9 8.6
2 8 0 41.2 13.1
2 8 0 28.2 11
-8 10 0 38.5 8.7
10 -2 0 25.4 11.1
-10 8 0 34.6 13.3
-10 2 0 28.3 8.6
10 -8 0 15.9 18.4
-2 10 0 16.6 7.3
-10 8 0 14.7 6.8
-2 10 0 32 13.2
10 -2 0 22.2 15.5
-2 10 0 37.8 11.6
8 2 0 38.4 15.4
-8 10 0 35.8 13.2
-10 9 0 124.09 14.1
-10 9 0 116.69 14.2
9 1 0 144.59 23.9
-9 10 0 115.49 13.2
-10 9 0 117.19 18.2
10 -1 0 123.99 16.6
10 -1 0 96.49 19.3
-9 10 0 131.89 18.7
-1 10 0 153.68 20.6
1 9 0 138.39 18.8
9 1 0 122.19 16.6
-10 1 0 119.09 15.4
-1 10 0 127.09 16.6
1 9 0 101.59 16.4
0 10 0 78.99 14.1
10 0 0 48.8 12.4
0 10 0 61.29 15.5
10 0 0 37.3 17
-10 0 0 32.1 8.1
-10 10 0 40.7 9.1
-10 10 0 46.8 8.7
-10 10 0 36.2 13.5
11 -6 0 -9.6 16.6
-11 6 0 17.7 7.5
6 5 0 1.6 7.3
11 -5 0 5.2 18.9
-6 11 0 18 8.2
5 6 0 18 10.3
5 6 0 23.6 12.7
6 5 0 35 16.3
-11 6 0 11 12.2
11 -5 0 9.2 14.7
-6 11 0 16.3 13.9
-6 11 0 -1.8 6.5
-5 11 0 10 9
-5 11 0 14.5 8.3
6 5 0 14.6 10.5
-5 11 0 16 13.2
5 6 0 10.1 14.6
-11 5 0 11.5 7.5
11 -6 0 5.3 14.8
-4 11 0 356.06 23.6
4 7 0 344.17 24.3
11 -7 0 264.67 34.9
-11 4 0 373.46 23.2
-4 11 0 355.36 23.2
-11 7 0 332.47 27.3
-11 7 0 308.77 22.2
4 7 0 358.66 26.6
7 4 0 383.86 31.4
-4 11 0 373.56 28.4
7 4 0 357.16 25.5
11 -4 0 245.18 36
11 -4 0 313.17 30.7
-7 11 0 347.77 27.7
-7 11 0 346.37 22.4
-8 11 0 33.7 12.1
-11 8 0 51.49 8.6
11 -3 0 47.8 17.8
8 3 0 56.19 19.3
-3 11 0 62.79 9.9
-11 8 0 38.3 14.1
-11 3 0 46.3 9.6
11 -8 0 1.3 17.9
-3 11 0 55.39 12.1
3 8 0 38.1 12.1
-3 11 0 51.39 15.6
3 8 0 47.7 11.6
-8 11 0 49.8 9.4
8 3 0 48.2 13.1
-11 9 0 154.28 15.3
9 2 0 138.89 22.8
-9 11 0 131.59 19.6
-9 11 0 186.58 15.4
-2 11 0 195.28 18
11 -2 0 105.59 21.7
9 2 0 174.18 18.3
-11 9 0 140.99 20.6
-2 11 0 164.28 21.6
-11 2 0 210.58 18.1
-11 9 0 173.08 16
-2 11 0 153.28 15.3
2 9 0 162.38 17.8
2 9 0 163.78 19.8
-11 0 0 141.69 16.9
-11 11 0 166.88 16
0 11 0 183.18 18.8
-11 11 0 176.98 16.4
6 6 0 486.65 29.7
-12 6 0 515.85 29.3
-6 12 0 400.26 28.2
-6 12 0 487.05 29.4
5 7 0 33.9 12.8
7 5 0 -2 23.1
-7 12 0 6.1 13.1
-5 12 0 9.1 12.4
-12 7 0 -1.3 12
7 5 0 23.7 10.7
3 9 0 44.5 12.5
-12 3 0 41.2 10.3
-3 12 0 45.6 9.6
-3 12 0 56.09 12.4
-9 12 0 48.1 9.9
-12 9 0 42.2 9.3
-2 12 0 12.4 11.3
-2 12 0 -1.5 7.8
-12 10 0 -0.8 7.6
-10 12 0 13.3 7.9
-12 2 0 14 9.8
-12 10 0 4.8 8
2 10 0 13.8 11.8
-11 12 0 33.8 9.6
-12 11 0 37.8 9.5
1 11 0 53.49 13.8
-12 11 0 28.9 9.3
-12 1 0 30.6 9.9
-1 12 0 43 11.6
-12 12 0 120.59 15.6
-12 0 0 95.79 15.8
-12 12 0 117.49 15.5
0 12 0 114.09 15.7
-13 6 0 278.67 21.5
6 7 0 252.77 21
-13 7 0 286.17 21.3
-6 13 0 215.98 20.3
-6 13 0 269.97 20.9
7 6 0 237.98 19.3
-7 13 0 290.37 20.1
5 8 0 673.23 41.3
-5 13 0 707.73 40.6
-8 13 0 725.53 40.8
-13 5 0 718.73 41.4
-13 8 0 684.83 40.7
-13 4 0 32.6 10.5
-9 13 0 25.1 9.5
-13 9 0 31.4 9.5
4 9 0 46.9 13.6
-4 13 0 35.3 10
-4 13 0 45 12.6
-13 10 0 190.28 18.3
-3 13 0 258.67 21.6
-3 13 0 228.28 19.9
3 10 0 235.28 22.3
-13 3 0 280.37 22.1
-13 10 0 259.37 20.7
-10 13 0 267.67 20.7
-13 11 0 51.49 10.5
-13 2 0 58.79 12
-11 13 0 62.19 10.1
-13 11 0 50.99 10
2 11 0 80.09 14.8
-2 13 0 53.69 12.4
-13 1 0 26 10.7
-1 13 0 47.8 13.6
-12 13 0 30.2 9.9
-13 12 0 34.3 9.9
1 12 0 41.8 13.9
-13 12 0 28.8 9.4
-13 13 0 482.05 30.2
-13 13 0 411.16 29.3
0 13 0 511.55 32.6
7 7 0 74.49 13.5
-7 14 0 45.3 11.2
-7 14 0 61.59 10.6
-14 7 0 64.89 10.8
-8 14 0 174.78 17.9
-6 14 0 179.18 18
-6 14 0 127.19 16.5
6 8 0 153.68 19.1
-14 6 0 183.18 18.6
-14 8 0 166.48 18
-14 5 0 23.1 9.8
-14 9 0 27.9 9.7
5 9 0 21.4 12.2
-5 14 0 16.4 9.4
-9 14 0 25.7 9.4
-5 14 0 16.3 11.1
-10 14 0 212.98 20.3
-4 14 0 202.28 19.8
-14 4 0 246.28 21.8
-14 10 0 218.18 19.8
4 10 0 195.88 21.6
-4 14 0 224.88 20.8
3 11 0 10.9 12.3
-3 14 0 13 12.3
-3 14 0 -4.6 9
-11 14 0 7.3 9.4
-14 11 0 2.9 7.9
-14 3 0 11.8 10.9
-14 11 0 11 9.3
-14 12 0 42.7 10
-2 14 0 64.89 13.5
-12 14 0 53.39 10.7
-14 12 0 66.89 11.7
-14 2 0 43.1 11.6
2 12 0 75.19 15.5
-14 13 0 5.4 9
-14 13 0 -1 9.2
1 13 0 8.5 12.2
-14 1 0 6.2 10.3
-1 14 0 9 13.2
-13 14 0 -2.1 9
-14 14 0 2.6 9.3
0 14 0 12.9 14
-14 14 0 1.1 7.7
0 -14 0 5.3 7.7
-15 8 0 140.69 17.7
-15 7 0 140.29 18.2
-7 15 0 131.09 18.1
-8 15 0 142.39 18
7 8 0 107.69 18.5
-6 15 0 292.67 23.4
-15 6 0 291.07 22.7
6 9 0 283.07 24.8
-6 15 0 230.58 22
-15 9 0 306.47 23.6
-9 15 0 314.97 24
-5 15 0 31.4 12.6
5 10 0 48.2 14.7
-5 15 0 27 11
-15 10 0 26.6 9.2
-10 15 0 31 10.3
-15 5 0 31.8 10.8
-15 4 0 26.4 11.8
-4 15 0 25.9 10.8
-15 11 0 30.9 10.2
-11 15 0 37.3 11
-4 15 0 57.49 14.6
4 11 0 36.9 14.4
-3 -12 0 -2.4 8.4
-12 15 0 4.8 9.7
-3 15 0 11 13.2
-3 15 0 -10.2 8
3 12 0 14.8 14.2
-15 3 0 4.5 10.8
-15 12 0 -1.4 7.4
-15 12 0 5.1 9.7
2 13 0 89.89 17.2
-2 -13 0 57.99 9.9
-2 15 0 65.39 14.6
-15 13 0 50.89 10.3
-15 2 0 69.19 13.7
-13 15 0 62.89 11.7
2 -15 0 42 8.6
-15 13 0 53.49 11.6
-15 14 0 11 9.2
-1 -14 0 19.7 10.3
-1 15 0 16.5 14
1 14 0 9.9 13.1
-15 1 0 6.2 9.8
15 -14 0 5.5 7.6
-14 15 0 13.1 10.3
1 -15 0 12.5 9.2
14 -15 0 7.1 8.3
-15 14 0 18.9 9.7
-15 15 0 6.2 9.2
0 15 0 0.8 14.2
0 15 0 10.8 13.6
0 -15 0 11.8 10.2
15 -15 0 8.3 9.9
-9 -7 0 2.2 6.7
-7 -9 0 1.6 7.1
-16 7 0 20.3 10.3
-9 16 0 34 11.3
7 -16 0 -2.7 9.1
7 9 0 22.8 13.2
-7 16 0 29.2 10.7
-16 9 0 36.7 10.8
-7 16 0 25.7 12.1
6 10 0 12.7 13.4
-10 -6 0 13 7.4
-16 10 0 15.6 9.8
-6 16 0 24.7 10.9
-10 16 0 26.8 11
-16 6 0 18.5 9.8
6 -16 0 -3.7 6.8
-6 16 0 16 12.2
10 -16 0 -4.3 10.3
-6 -10 0 12.6 7.8
-11 16 0 40.1 11.2
5 -16 0 32.8 8.2
-5 16 0 22.5 11.2
-5 -11 0 43.9 10.2
5 11 0 57.39 16.1
-11 -5 0 33 8.6
-16 11 0 29.1 9.8
-5 16 0 40.1 14.1
-16 5 0 45.8 12.5
16 -12 0 0.7 7
-4 16 0 10.5 13.5
-12 16 0 -1.5 10
4 -16 0 -1.5 9.4
12 -16 0 7 8
-4 -12 0 6 9.8
-16 12 0 4.4 10.4
-16 4 0 0.3 11.3
-4 16 0 -8.7 9.2
4 12 0 6.5 13.7
-12 -4 0 6.9 9.8
-16 13 0 24.6 11
3 -16 0 20.9 9.6
16 -13 0 21.7 8.9
-13 -3 0 33.4 11
3 13 0 23.4 11.4
13 -16 0 31.5 10.1
-13 16 0 13.4 10.4
3 13 0 30.4 15
-3 16 0 44.3 15
-3 -13 0 24.5 12.1
-16 3 0 30.1 12.3
-3 -13 0 35.9 11
-2 -14 0 42 12.5
-16 2 0 19.2 11.3
2 14 0 33.3 15.4
14 -16 0 28.1 10.9
16 -14 0 31.3 10.1
-2 -14 0 33.3 11.2
2 14 0 21.8 12
14 2 0 32.5 20.8
-14 16 0 41 11.8
-16 14 0 27.6 11.1
-2 16 0 39 14.4
2 -16 0 41.7 10.7
1 -16 0 9.9 10
-1 16 0 15.6 13.6
-16 15 0 6.1 9.1
-1 -15 0 16.1 11.3
15 -16 0 6.5 10.7
-15 16 0 8.6 10.5
-1 16 0 28.1 15
1 15 0 7.3 13.2
1 15 0 8 13.7
16 -15 0 15.5 10.6
-1 -15 0 28.3 11.1
15 1 0 12.1 20.1
0 16 0 76.29 15.2
0 -16 0 58.59 13.3
16 0 0 59.29 20.9
16 -16 0 46.6 11.8
0 -16 0 61.79 12.2
-16 16 0 35 10.8
0 16 0 50.49 16
-17 9 0 19.9 11
-9 -8 0 10.6 9.1
8 -17 0 9.6 9.6
-8 17 0 -0.6 10.9
-9 17 0 0.4 10.5
9 -17 0 13.7 9.6
17 -9 0 11.1 8.1
8 9 0 -1.8 10.9
-17 8 0 14 11.2
-8 -9 0 14.5 9.4
17 -8 0 13.6 8.2
17 -10 0 11.4 8.4
-7 17 0 3.8 12.5
-10 -7 0 -2.3 9.1
7 10 0 4.8 13.7
7 -17 0 1.7 9.3
-7 -10 0 -5.5 9.1
-7 17 0 3.5 10.8
-17 10 0 15 11
-17 7 0 9.2 10.2
10 -17 0 1 9.5
-10 17 0 9.6 11.2
-17 6 0 54.99 12.7
6 11 0 67.69 16.1
11 -17 0 77.99 11.8
-6 -11 0 81.89 12.1
-6 17 0 58.89 14.8
-6 17 0 65.29 12.9
6 -17 0 68.39 11.5
-11 17 0 64.19 12.9
17 -11 0 51.79 10.1
-11 -6 0 86.39 11.8
-17 11 0 49.3 12
-5 17 0 79.19 16.6
-12 -5 0 128.29 16.1
-17 12 0 143.49 19.8
5 -17 0 127.69 13.8
12 -17 0 115.39 14.6
5 12 0 127.29 20.9
17 -12 0 109.29 14.4
-17 5 0 138.29 21.9
-5 -12 0 132.09 15.2
-12 17 0 159.78 19.9
-4 17 0 19.1 12.9
-4 17 0 19.5 14.5
-13 17 0 10.7 10.8
4 13 0 15.4 13.8
13 -17 0 5.2 10.6
4 -17 0 16 10
-17 13 0 14.1 11.2
-13 -4 0 19.2 11.3
-4 -13 0 9.2 10.5
17 -13 0 16.5 9.9
4 13 0 12.7 14.8
-17 4 0 6.7 11.9
-17 14 0 9.4 10.7
-17 3 0 4.5 10.7
-3 17 0 21.3 13.2
3 14 0 6 12.1
-3 17 0 24.9 15
-14 17 0 16.1 11.3
14 3 0 7.3 22.9
3 14 0 3.1 14.3
17 -14 0 17.4 10.1
-3 -14 0 9.7 10.6
14 -17 0 3.2 10.7
3 -17 0 5.3 9.8
2 -17 0 107.99 13.1
15 -17 0 120.29 14.1
2 15 0 101.49 18.8
-2 17 0 108.19 18.1
-2 -15 0 112.09 13.7
17 -15 0 91.09 12.7
15 2 0 96.09 23.1
-2 17 0 108.89 15
2 15 0 104.89 16
17 -16 0 3 10.6
16 1 0 37.7 21.2
17 -1 0 22.3 19.8
1 -17 0 7.8 11
1 16 0 10.1 14.4
16 -17 0 13.5 10.7
1 16 0 4.8 12.3
1 -17 0 8.3 10.5
-1 -16 0 9 11.1
-1 17 0 15.4 12.9
-1 17 0 9.8 14.5
-16 17 0 3.2 9.8
0 -17 0 140.49 17.1
17 -17 0 125.19 16.2
17 0 0 151.28 23.9
0 17 0 129.99 17.5
-18 9 0 41 11.5
9 -18 0 53.09 11.1
-9 -9 0 64.79 10.8
18 -9 0 55.89 10.5
-9 18 0 51.59 13.1
-10 18 0 45.2 12.6
-10 -8 0 105.89 12.5
-18 10 0 59.99 12.3
8 -18 0 87.89 11.7
-8 18 0 85.19 14.3
10 -18 0 92.89 12.3
18 -8 0 87.39 11.8
-18 8 0 70.49 14
-8 -10 0 105.19 12.4
18 -10 0 69.29 11
-18 11 0 14.4 11.4
-7 18 0 -2.5 12.8
11 -18 0 4.7 10.2
-18 7 0 7.3 11.2
-7 18 0 4.5 11
7 -18 0 10.5 10.3
-7 -11 0 12.7 9.5
-11 -7 0 22.7 10.2
18 -11 0 3 9.6
-11 18 0 8.7 11
7 11 0 8 13.9
-12 -6 0 13.6 10.5
-18 12 0 4.6 10.7
-6 18 0 -4.5 10
6 -18 0 10.3 10.6
18 -12 0 -1.7 9.6
-6 18 0 10.8 13.4
-6 18 0 -11.4 9.2
12 -18 0 4.5 10.5
-12 18 0 4.3 11.1
6 12 0 5.1 11.6
6 12 0 -2.3 14.4
-18 6 0 13.9 12.1
-6 -12 0 2.5 9.7
-18 5 0 13.5 11.7
18 -13 0 12 9.9
-13 18 0 -0.5 11.2
-5 18 0 0.5 13.5
5 13 0 3.1 14.7
-5 18 0 7.1 11.6
13 -18 0 1.6 10.4
5 13 0 -5.4 13.1
-5 -13 0 13.4 10.4
-18 13 0 15.8 11.5
-13 -5 0 15.5 11.2
5 -18 0 -0.2 9.8
-14 -4 0 11.3 10.8
4 14 0 7.3 15.1
-4 18 0 8.1 14.7
18 -14 0 17.6 10.1
4 -18 0 6.2 9.7
-4 -14 0 11.6 10.5
-18 4 0 6.7 11
4 14 0 4.5 13.1
-4 18 0 35.4 13.4
14 4 0 20.4 22.7
-14 18 0 25.7 11.8
-18 14 0 8.5 10.2
14 -18 0 24.3 10.7
-3 18 0 10.7 14.1
15 -18 0 11.1 10.9
-15 18 0 3 10.4
3 -18 0 -3.6 10
18 -15 0 6.2 10.2
-3 -15 0 1.8 10.6
-3 18 0 19 12.6
15 3 0 -10.2 21.4
3 15 0 2.5 11.4
3 15 0 11.5 14.6
-16 18 0 14.3 10.4
2 16 0 9.1 14.5
2 16 0 24.6 13.4
-2 -16 0 15 10.9
2 -18 0 8.8 9.3
2 -18 0 17 11
18 -16 0 16.8 10.8
-2 18 0 26.8 14.8
18 -2 0 16.6 17.8
16 -18 0 23 11.2
16 2 0 18.5 21.1
-2 18 0 30.5 13
1 17 0 0.4 11
18 -17 0 -1.8 10.2
1 17 0 3.2 14.5
17 1 0 19.5 21.4
-1 18 0 11.9 14.2
-1 -17 0 3.8 10.8
18 -1 0 4.5 19.9
1 -18 0 7.2 10.4
17 -18 0 10.7 10.5
-1 18 0 4.1 11.3
18 0 0 32.7 20.6
0 18 0 33.2 11.5
18 -18 0 47.2 11.1
0 -18 0 44.4 11.8
0 18 0 12.4 14.4
-19 9 0 16.1 11
-10 19 0 7.2 12
-10 -9 0 10.8 10
19 -9 0 2.7 9.4
-9 19 0 0.5 11.4
-9 -10 0 3.9 9.4
-19 10 0 12.2 11.3
19 -10 0 -2.5 9.1
10 -19 0 0.9 10
9 -19 0 7.6 9.8
-19 8 0 12.7 11.7
8 -19 0 21.8 10.7
-11 19 0 20.3 11.8
19 -8 0 15.2 9.5
-8 -11 0 19 9.7
19 -11 0 21.9 10.3
-19 11 0 16.1 10.9
11 -19 0 33 10.6
-11 -8 0 18.3 9.9
-8 19 0 15.7 11.2
7 -19 0 48.5 11.5
-12 19 0 29.4 11.6
12 -19 0 58.79 11.3
-12 -7 0 41.7 11.1
19 -12 0 56.29 11.2
-7 -12 0 48 10.6
7 12 0 22.5 11.2
19 -7 0 46.3 10.9
-19 12 0 41.4 12.4
-19 7 0 29.8 12.3
6 -19 0 13.8 9.8
-13 -6 0 18.5 10.7
-6 19 0 21.4 11.6
13 -19 0 14.6 10.5
-6 -13 0 18.1 10
-19 13 0 14.2 11.2
-19 6 0 9.2 11.6
-6 19 0 -2.7 15.6
-13 19 0 8.6 11.6
19 -13 0 30.8 10.3
6 13 0 11.4 13.6
6 13 0 1.4 14.5
-19 14 0 8.9 9.6
-5 19 0 8.6 10.9
5 14 0 1.9 14.2
5 -19 0 0.7 9.3
19 -14 0 4.5 9.8
-5 19 0 -0.1 13.1
-14 -5 0 2 10.2
-19 5 0 9.2 11.3
5 14 0 -8.1 12.7
14 -19 0 5.1 10.1
-5 -14 0 10.1 10.1
14 5 0 17.4 22.3
-14 19 0 0.1 10.4
-4 19 0 55.59 12.9
19 -15 0 41.8 10.7
-4 -15 0 56.29 11.9
4 15 0 33 15.6
4 15 0 28 13.6
15 -19 0 41.7 10.8
4 -19 0 38.6 10.8
-15 19 0 23.2 10.8
15 4 0 19.7 21
-4 19 0 22.4 14
-3 -16 0 13.5 10.4
3 16 0 -3.2 13.5
16 3 0 33.9 21.5
-3 19 0 5 13
3 -19 0 11.6 10.6
16 -19 0 5.4 10
3 -19 0 0.3 7.5
19 -3 0 3.4 15.1
3 16 0 15.3 12.9
-16 19 0 -2.9 9.6
19 -16 0 8.8 10.3
-3 19 0 16.3 11
19 -2 0 26.8 17
2 17 0 0.4 12.7
-2 19 0 1.3 12.9
17 -19 0 12.7 9.8
19 -17 0 17 10.3
-2 19 0 26.3 12
2 -19 0 4.9 10.4
2 17 0 7.9 11.7
17 2 0 18.6 20.1
-2 -17 0 19.8 10.9
1 18 0 52.99 12.5
19 -18 0 68.49 11.5
-1 -18 0 57.49 11.6
-1 19 0 61.19 12.6
18 -19 0 60.99 11.2
19 -1 0 71.29 19.4
18 1 0 51.49 20.1
1 -19 0 57.99 11.7
19 0 0 -7.9 17.8
0 -19 0 6.4 9.7
19 -19 0 12.1 9.4
0 19 0 10.6 10.6
-10 -10 0 115.79 12.8
20 -10 0 90.39 11.5
-20 10 0 66.29 13.6
-10 20 0 68.69 13.3
10 -20 0 112.19 12.7
20 -9 0 41.8 10.1
-11 -9 0 35.2 10.5
-9 -11 0 54.59 11.2
-20 11 0 23.3 11.7
-11 20 0 12.6 11.1
20 -11 0 48.4 11
11 -20 0 36.4 10.4
-20 9 0 21 10.9
9 -20 0 46.2 11.1
-12 -8 0 6.1 10.5
8 -20 0 9.1 10.2
-20 12 0 -0.7 10.3
20 -12 0 0 9.6
8 12 0 -4.7 10.8
-12 20 0 2.9 11
12 -20 0 3.7 9.7
20 -8 0 3.3 9.3
-20 8 0 -0.8 11.1
-8 -12 0 8.2 9.7
7 -20 0 9.7 9.6
7 13 0 -4.8 11.8
-13 -7 0 9.3 10.9
-20 13 0 10.4 10.3
20 -7 0 3.3 9.1
-20 7 0 7.9 10.4
20 -13 0 7.8 9.5
-7 -13 0 4.3 9.4
13 -20 0 1 9.6
-13 20 0 7.1 11
-7 20 0 1.1 9.6
6 -20 0 3.1 9.2
-6 -14 0 9.9 9.6
-14 20 0 10.3 10.4
-6 20 0 -0.8 10.3
-14 -6 0 6.4 10.4
14 6 0 23.9 22
6 14 0 -1.4 12.4
20 -14 0 10.1 9.6
14 -20 0 2.1 9.5
5 -20 0 18.1 10
-5 20 0 31.5 11.8
15 -20 0 23.5 10
-5 -15 0 39.4 10.4
20 -15 0 24.2 10.1
-15 20 0 0.5 9.4
15 5 0 0.3 20.2
5 15 0 4.3 11.9
-4 -16 0 4.8 9.7
16 4 0 6.7 19.9
16 -20 0 14.2 9.6
20 -16 0 5.3 10
4 16 0 1.4 11.6
4 -20 0 -4.2 9.8
-4 20 0 6.6 11.8
-3 20 0 20.4 11
20 -17 0 15.1 9.8
17 -20 0 30.6 9.8
17 3 0 19.5 18.8
-3 -17 0 11 9.5
3 -20 0 19.6 10.4
3 17 0 4.4 10.9
-2 -18 0 6.9 9
2 -20 0 7.9 9.8
2 18 0 12.1 11.2
20 -18 0 11.1 9.5
-2 20 0 10.9 11.1
18 -20 0 -0.7 8.7
20 -2 0 1.9 13.2
18 2 0 7.1 18.9
1 19 0 41.1 11.1
20 -19 0 50.69 9.9
19 -20 0 46.5 9.5
20 -1 0 31.9 13.5
19 1 0 32.3 17.5
-1 -19 0 48.4 10.2
1 -20 0 51.69 10.5
-1 20 0 41.2 11
0 20 0 33.3 10.1
20 -20 0 46.3 9
0 -20 0 48.1 9.8
20 0 0 28.8 13.4
21 -11 0 8.4 9.4
-10 -11 0 3.2 9.4
21 -10 0 2.2 9.1
-21 10 0 10.6 9.6
11 -21 0 -7.1 9.4
10 -21 0 2.8 9.6
-11 -10 0 -5.2 9.6
-21 11 0 3.8 9.4
9 -21 0 5.2 9
-12 -9 0 2.1 10.3
-21 12 0 7 9.3
21 -12 0 -0.8 9.3
21 -9 0 7.5 8.7
-12 21 0 -3.3 12.8
-21 9 0 8.2 11.1
-9 -12 0 -4.6 9.2
12 -21 0 8 9.3
-13 21 0 -2.4 13.4
8 13 0 -9.2 8.4
-13 -8 0 3.5 10.7
13 -21 0 7.1 9.1
-8 -13 0 8.2 9.3
21 -13 0 2.4 9.1
21 -8 0 7.6 8.7
8 -21 0 4.2 8.7
21 -7 0 34.5 9.4
14 7 0 7.6 20
21 -14 0 33.5 9.8
7 14 0 8.6 11.3
-7 21 0 30.5 10.3
-7 -14 0 42.1 9.7
7 -21 0 31 9.5
14 -21 0 29.9 9.6
-6 21 0 3 10
21 -15 0 2.9 9.2
15 -21 0 9.2 8.8
21 -6 0 9.1 8.6
6 15 0 -9.3 11
6 -21 0 12.4 9.5
15 6 0 -9.1 18.5
-6 -15 0 12.1 8.9
21 -16 0 25 9.6
5 -21 0 32.3 10.1
-5 21 0 40.2 11.3
5 16 0 13.9 11.8
16 -21 0 19.7 8.9
21 -5 0 22.5 8.7
-5 -16 0 31.5 9.2
16 5 0 19.3 18.5
17 4 0 -2.4 17.8
-4 21 0 7.5 10.7
4 17 0 -7.5 9.9
17 -21 0 9.8 8.4
4 -21 0 -0.9 9.2
21 -17 0 2.5 9
-4 -17 0 -1.2 8.3
18 3 0 26 17.4
3 -21 0 27.3 9.7
18 -21 0 24.2 8.6
21 -18 0 22.7 9.2
-3 -18 0 26 9
-3 21 0 34.1 10.5
3 18 0 24.3 10
-2 21 0 16.6 9.2
2 -21 0 11.3 9
21 -19 0 5.7 8.2
19 2 0 9.6 15.6
19 -21 0 21.1 8.2
2 19 0 22.7 9.6
-2 -19 0 14.2 8.3
21 -20 0 -4.7 7.5
1 20 0 6.3 8.8
-1 21 0 8.7 9.1
20 1 0 4.3 11.2
20 -21 0 3.1 7.4
1 -21 0 6.4 8.2
-1 -20 0 4.6 7.9
21 -21 0 34.2 8
0 -21 0 26.2 8.3
0 21 0 10.7 8.2
11 -22 0 62.79 10.5
22 -11 0 56.59 10
-11 -11 0 48.6 10.8
22 -12 0 -2.6 8.4
22 -10 0 2.9 8.3
12 -22 0 0.4 8.7
-10 -12 0 -4.7 9.1
-12 -10 0 -2.3 9.9
10 -22 0 -5.8 8.1
-9 -13 0 3.9 8.6
22 -13 0 10.3 8.8
9 -22 0 7.2 8.3
13 -22 0 10.4 8.9
-13 -9 0 -3.4 9.8
22 -9 0 1.8 7.9
13 9 0 -2.3 20.7
14 -22 0 7.3 8.2
22 -8 0 2.3 7.9
-8 -14 0 4 8.7
8 14 0 -3.3 7.3
22 -14 0 1.3 8.4
14 8 0 -3.7 17.8
8 -22 0 2.3 8
-7 22 0 -0.2 8.3
15 7 0 -11.4 17.6
22 -15 0 7.9 8.7
-7 -15 0 6.8 8.6
22 -7 0 1.4 7.7
7 -22 0 3.6 8.6
15 -22 0 10 7.9
7 15 0 2.4 9.8
-6 22 0 6.9 9.3
-6 -16 0 5.8 8
6 16 0 -1.2 9.7
16 6 0 18.7 16.8
6 -22 0 5.8 9
22 -16 0 4.6 8.5
22 -6 0 3.8 7.6
16 -22 0 9.3 8
5 17 0 -0.4 9
17 5 0 -0.4 16.2
-5 22 0 1.4 8.4
22 -5 0 -2.3 7
22 -17 0 7.6 8.3
17 -22 0 8.8 7.7
-5 -17 0 7.3 7.7
5 -22 0 2.6 8.5
4 18 0 4.4 8.2
22 -18 0 1.4 8
-4 -18 0 4 7.5
4 -22 0 11.1 8.6
22 -4 0 8.9 7.2
-4 22 0 12.9 9.4
18 4 0 1.9 15.5
18 -22 0 7 7.2
-3 -19 0 1.6 7.4
22 -19 0 1.8 7.8
19 3 0 15.9 14.6
3 19 0 5.1 8.6
3 -22 0 -0.6 8.3
22 -3 0 0.2 6.8
19 -22 0 3.4 7
-3 22 0 3.3 9
22 -2 0 15.1 6.9
-2 -20 0 13.5 7.7
22 -20 0 19.3 7.6
20 2 0 1.3 14.4
2 20 0 16.5 8.8
-2 22 0 13.4 9.4
20 -22 0 15.8 7.4
2 -22 0 9.8 8.7
1 -22 0 14.1 8.6
21 -22 0 2.4 6.1
22 -1 0 15.2 7.1
-1 22 0 11.7 9.8
-1 -21 0 14 8.2
1 21 0 8.5 9.5
22 -21 0 7.2 5.9
11 -23 0 20.2 7.8
12 -23 0 23.9 8
-11 -12 0 22.4 9.6
-12 -11 0 15.7 9.5
23 -11 0 11.4 7.9
23 -12 0 10 7.8
-13 -10 0 -0.5 8.9
23 -13 0 11.9 8
23 -10 0 4.5 7.8
13 -23 0 7.2 7.8
-10 -13 0 1.1 8.4
13 10 0 -1.4 16.9
10 -23 0 1.4 7.4
23 -9 0 5.8 7.4
23 -14 0 3 7.6
-9 -14 0 -2.3 8.3
14 9 0 -4.5 16.2
9 -23 0 4.1 7.9
14 -23 0 4.7 7.8
23 -15 0 6.1 8.2
23 -8 0 -0.1 7.1
15 -23 0 -4.1 7.6
15 8 0 2 15.9
-8 -15 0 -2.8 7.8
8 -23 0 6.6 8.3
-7 -16 0 -0.9 7.6
-7 23 0 -6.5 7.9
7 16 0 0.9 7.1
23 -16 0 2.6 7.8
16 7 0 14.3 15.6
23 -7 0 9.2 7
16 -23 0 13.4 7.7
7 -23 0 9.4 8.5
6 -23 0 8.3 8.5
23 -6 0 -2.6 6.7
17 6 0 2.4 14.8
-6 -17 0 0.8 7.5
23 -17 0 0.9 7.5
17 -23 0 9.1 7
6 17 0 7.5 8.5
-6 23 0 -4 7.5
5 18 0 2.9 8.2
18 5 0 10.5 14.1
-5 23 0 10.9 8.9
23 -18 0 1.6 7.7
23 -5 0 1.4 6.8
5 -23 0 4.6 8.4
18 -23 0 9.1 7.2
-5 -18 0 9.2 7.6
4 -23 0 5.5 9
19 -23 0 -1.5 6.9
23 -4 0 4.4 6.9
23 -19 0 7.4 7.1
-4 23 0 5.8 9.3
19 4 0 4 10.7
-4 -19 0 1.6 7.9
4 19 0 0.9 8
3 -23 0 2.1 8.7
23 -3 0 3.1 6.5
23 -20 0 -0.9 5.5
3 20 0 12.9 9.4
20 -23 0 1.9 5.1
-3 -20 0 -0.4 8.4
-3 23 0 5.4 8.9
12 -24 0 12.5 7
24 -12 0 1.7 7.2
-12 -12 0 5.6 8.2
12 12 0 -6.2 15.8
13 11 0 -9.2 15.7
11 13 0 -10.2 18
13 -24 0 4 6.8
-11 -13 0 5 8.4
24 -11 0 -2.6 7
11 -24 0 5.4 7.4
24 -13 0 3.1 7.4
10 -24 0 -6.1 7.8
24 -14 0 8.6 7.6
-10 -14 0 3.4 8.3
24 -10 0 -0.8 7.5
14 10 0 2.1 15.5
14 -24 0 7.6 7.1
9 -24 0 3 8.2
24 -9 0 -9.4 6.9
15 -24 0 6 7.2
15 9 0 2.6 15.3
-9 -15 0 4.3 8
24 -15 0 -1.1 7.5
24 -8 0 -4.1 7
24 -16 0 2.3 7.6
8 -24 0 -0.6 8.4
16 8 0 -21.7 14.4
16 -24 0 4.1 7.5
-8 -16 0 -7.3 7.7
24 -7 0 -2 6.8
17 -24 0 4.1 7.2
24 -17 0 10 7.5
7 -24 0 0.1 8.8
-7 -17 0 -1.2 7.9
17 7 0 -5.1 14.7
18 -24 0 7.6 7.2
24 -18 0 -1.5 5.7
18 6 0 0.4 13.1
24 -6 0 6.9 6.2
-6 -18 0 5.5 8.8
6 -24 0 10.3 9.2
25 -13 0 0.8 5.2
12 -25 0 6 8.3
12 13 0 16.3 18.1
13 12 0 14.7 17.9
25 -12 0 2.3 4.8
13 -25 0 4.6 8
14 -25 0 15.1 7.5
25 -11 0 1.6 5
11 14 0 -10.3 18.1
11 -25 0 19 9
25 -14 0 -3.4 7.1
14 11 0 -4.3 18.6
-11 -14 0 27.3 9.6
15 -25 0 -1.3 6.6
-10 -15 0 -1.2 9.7
10 -25 0 5 9.3
10 15 0 -3 18.5
15 10 0 5.2 17.9
0 0 1 -0.2 2.2
0 0 -1 1 2.1
0 0 1 1.2 2.7
0 0 -1 1.3 2.5
0 -1 -1 23 2.9
1 -1 1 19.3 3.8
-1 1 1 15.3 3.3
0 1 1 20.6 2.7
1 0 -1 17 3.1
1 -1 -1 17.4 3.2
1 0 -1 20.9 2.5
-1 1 -1 11.8 3.6
0 1 1 14.8 2.8
-1 1 1 23.1 3.1
-1 1 -1 23.1 3.3
-1 1 1 18.1 2.7
0 -1 1 14.1 2.8
1 -1 -1 21.4 2.7
0 -1 1 18.9 4.3
-1 0 1 16.6 3.7
1 -1 1 19.6 3.8
-1 0 -1 14.3 3.7
0 1 -1 22.3 3.1
0 1 -1 24.2 4.1
1 0 1 13.2 3.3
0 -1 -1 19.6 3
1 0 -1 23.9 3.8
-1 0 1 12.6 3.2
1 0 1 22.6 4.2
0 1 -1 24.6 3.2
1 -1 -1 16.6 2.9
0 -1 1 16.8 3
-1 1 -1 24.4 4.6
1 -1 1 15.3 4.1
-2 1 -1 569.24 29.4
-1 2 1 534.85 29.4
-1 2 -1 581.74 29.7
-1 2 1 608.34 29.2
-1 -1 -1 549.65 28.8
2 -1 1 530.85 29.5
1 -2 -1 551.74 29.1
-1 -1 -1 534.55 29.4
2 -1 -1 561.74 30.1
1 1 1 579.84 28.8
1 1 1 585.14 29.5
2 -1 -1 547.35 29
1 1 1 560.44 29.3
-1 2 -1 499.55 29.3
-2 1 -1 554.04 30.8
-1 -1 1 535.25 29.2
-2 1 1 534.85 29.3
-1 -1 1 539.95 29.9
2 -1 -1 552.24 29.3
1 -2 1 556.54 29.8
1 1 -1 555.64 29.6
1 1 -1 585.64 29.2
2 -1 1 580.44 30.3
-2 1 1 609.84 29.1
-1 -1 1 553.84 28.9
1 1 -1 590.84 28.9
1 -2 -1 570.54 29.2
1 -2 1 579.54 29.4
-1 2 -1 573.14 29.4
1 -2 1 524.95 29.5
0 2 1 19.8 3.9
2 -2 -1 21.8 3.7
0 -2 1 13.2 5.4
2 -2 1 17.2 6
0 -2 1 13.1 5.7
2 0 -1 22.5 5.9
2 0 1 19.5 5.1
2 0 1 16.6 5.5
2 0 1 7.4 4.8
2 0 -1 23.1 5.4
-2 2 -1 18.7 4.7
0 -2 -1 12.2 4.3
0 2 1 12.1 2.9
0 2 -1 20.4 5.2
-2 2 1 19.2 4
-2 2 1 18.5 3.4
2 -2 -1 15.8 4.7
2 -2 -1 26.5 5.5
0 -2 1 11.6 3
2 0 -1 24 3.4
-2 2 -1 20.7 6
2 -2 1 15.6 5.9
2 -2 1 12.2 4.6
-2 2 -1 14.9 5.8
-2 2 1 14.1 5.3
0 -2 -1 10.6 4
-2 0 -1 10.9 5.6
0 2 -1 21 4.8
-2 0 1 17.6 5.6
-2 0 1 15.7 5.6
0 2 1 27.4 5.2
3 -1 1 396.36 22.3
1 -3 -1 396.66 20.6
2 -3 1 314.77 21.6
-1 3 -1 397.56 21.4
-3 1 1 316.97 21.8
1 -3 -1 335.47 20.9
1 2 1 412.06 21
1 2 1 390.46 21
2 -3 1 398.56 22
-2 3 1 304.57 22.1
-1 -2 1 323.27 20.8
-1 -2 1 388.06 21.1
2 1 -1 406.26 22.3
-3 2 -1 374.76 21.2
3 -2 -1 389.66 24.1
-2 -1 -1 328.97 22.1
3 -2 -1 336.77 21.2
1 2 1 421.76 21.3
3 -1 1 422.16 23.3
-1 3 -1 390.66 21.3
2 1 -1 418.46 21.7
3 -2 -1 393.76 21.4
-2 3 1 420.06 21.4
2 1 -1 419.56 20.8
1 -3 -1 367.26 19.7
-2 3 -1 412.56 22.3
-2 3 -1 353.26 22.7
3 -1 -1 430.86 22.6
2 1 1 411.16 22.7
3 -1 -1 344.77 21.6
1 -3 1 326.47 22.1
-1 -2 -1 363.76 22
2 1 1 395.66 21.1
2 -3 -1 429.56 22.3
-2 3 -1 393.46 22.1
3 -1 -1 402.36 24.6
1 2 -1 398.86 22.2
1 2 -1 399.66 20.9
-3 2 1 425.56 21.7
-1 3 1 345.07 21.3
3 -2 1 416.56 23.6
2 -3 -1 399.36 19.9
-3 1 -1 411.26 22.1
2 -3 -1 353.16 21.8
-1 3 1 408.36 21.7
1 2 -1 400.66 21.6
-2 -1 1 347.87 20.9
1 -3 1 429.16 21.3
2 1 1 407.06 22.3
-3 2 1 355.86 21.7
-1 -2 -1 326.57 21.1
2 -3 -1 387.36 19.7
-1 3 1 406.46 20
3 -3 -1 34.7 8.2
3 -3 -1 13.2 5.7
3 -3 1 7.4 6
3 -3 1 36.4 7.7
3 0 -1 43 8.2
0 -3 1 5.4 5.5
-3 3 -1 40.7 7.1
0 3 1 35.1 5.7
0 3 -1 38.5 7.1
3 0 1 38.4 7.8
-3 3 -1 6 5.7
0 -3 -1 33.5 6.4
3 0 1 39.8 7.9
0 -3 -1 13.1 4.6
0 -3 1 21.3 3.7
-2 4 -1 476.25 27.9
2 -4 1 522.35 27.8
-2 4 1 493.85 25.6
4 -2 1 509.85 30.3
4 -2 -1 502.75 28.3
2 2 -1 497.55 27.2
2 2 -1 506.15 27.1
-2 4 1 489.15 27.8
2 -4 -1 498.45 27.2
-2 4 -1 491.05 27.7
4 -2 -1 491.15 31.8
-4 2 -1 496.45 28
2 2 1 503.25 27.9
4 -2 1 482.75 28.3
2 2 1 493.45 27.1
-4 2 1 505.85 27.8
2 -4 -1 462.25 25.5
2 2 -1 495.65 28.6
2 2 1 511.95 28.2
1 -4 -1 85.69 8.4
-1 4 -1 94.09 9.7
-1 4 -1 96.59 10.7
3 1 -1 103.09 12.4
1 3 1 97.79 9.7
1 -4 -1 93.79 7.7
4 -1 1 112.29 13.8
4 -3 -1 113.39 15.8
1 3 1 108.29 9.9
4 -3 -1 90.19 10.9
-3 4 1 87.09 11.1
3 1 -1 98.19 8.7
4 -1 1 95.29 11.9
-4 3 -1 90.59 10.6
1 3 1 99.39 9.2
3 -4 1 103.99 12.5
3 -4 -1 78.79 7.3
1 3 -1 98.89 11.4
4 -1 -1 101.69 10.9
-1 4 1 114.09 7.9
1 -4 1 109.59 8.5
4 -1 -1 85.89 15.9
3 1 1 102.19 13
1 3 -1 91.99 7.6
-3 4 -1 98.89 11.3
-1 4 1 100.89 10.2
3 1 1 110.09 11.9
-4 3 1 101.69 10.3
-3 4 -1 87.89 11.5
3 1 1 97.19 9
1 3 -1 97.39 11.1
3 -4 -1 95.89 12.9
3 -4 -1 93.29 7.9
4 -3 1 116.09 15.5
4 -4 -1 162.48 12.8
0 4 1 167.18 12.6
-4 4 1 169.18 12.8
0 -4 1 169.78 9.9
4 0 1 153.68 15.4
4 0 -1 151.88 17.3
4 0 -1 165.28 15.6
4 -4 -1 174.28 17.8
0 4 -1 164.58 13.2
4 -4 1 180.08 17.9
0 4 1 138.19 10.2
0 4 -1 167.48 13.3
4 0 1 203.68 17.8
4 0 -1 170.38 11.6
-4 4 -1 161.98 13.3
0 -4 1 164.08 9.8
0 4 1 163.38 12.2
3 2 -1 162.48 13.1
3 2 -1 174.88 15.8
-2 5 -1 171.78 14
3 2 -1 198.88 14.9
-5 2 1 167.58 14.2
-3 5 1 159.38 14.1
5 -3 -1 173.98 15.3
2 3 1 168.48 13.1
3 -5 1 194.08 16.1
2 3 1 188.38 14.6
2 3 1 177.78 14.3
5 -2 1 178.48 15.1
5 -3 -1 164.78 19.2
-5 3 -1 167.08 14.1
-2 5 -1 175.48 14.8
5 -2 1 194.88 20.9
2 -5 -1 174.88 12.5
2 3 -1 215.88 16.4
-5 3 1 203.98 16
2 3 -1 201.68 15.1
5 -2 -1 200.68 22.3
2 -5 1 233.68 15.8
3 2 1 209.48 17.1
3 2 1 224.28 16.9
-2 5 1 211.18 15.7
3 2 1 206.18 13.9
5 -2 -1 230.48 17.2
-3 5 -1 209.98 15.4
-2 5 1 203.08 12.9
3 -5 -1 212.98 16.4
5 -3 1 234.58 20.5
2 3 -1 211.38 13.6
5 -3 1 221.48 17.1
-3 5 -1 214.48 15.5
-5 2 -1 208.48 16
1 4 1 150.98 13.3
-1 5 -1 131.29 12.6
4 1 -1 137.99 14.3
-1 5 -1 133.19 13
1 -5 -1 131.29 9.4
4 -5 1 160.58 16.2
5 -4 -1 138.99 19.3
4 1 -1 126.49 10.9
5 -1 1 125.69 15
5 -4 -1 135.59 13.8
1 4 1 123.59 13
4 1 -1 143.29 15.4
5 -1 1 137.79 17.8
1 4 1 125.69 10.6
-4 5 1 136.29 13.4
-5 4 -1 130.09 13.2
4 -5 -1 135.19 15.8
1 4 -1 124.59 12.3
1 4 -1 111.59 8.1
5 -4 1 142.49 16.9
1 -5 1 125.79 9.7
1 4 -1 127.79 13.1
4 1 1 133.99 15
4 1 1 128.79 11.1
5 -1 -1 124.79 13.5
4 -5 -1 121.49 10.5
-5 4 1 123.89 12.5
5 -1 -1 122.99 17.3
-4 5 -1 126.79 13.6
-4 5 -1 123.69 13.2
4 1 1 153.18 16
-1 5 1 155.28 10.6
-1 5 1 124.89 12.5
5 0 -1 137.99 19.1
-5 5 -1 141.39 13.7
5 0 1 151.78 11.9
5 0 1 188.68 20
5 0 1 156.88 17.1
0 5 -1 156.68 13
0 5 1 139.99 10
0 5 1 168.38 12.6
5 -5 -1 162.78 19.3
5 -5 -1 150.58 13.5
0 5 -1 143.29 14.1
0 5 1 152.88 13.4
5 0 -1 148.49 15.5
-5 5 1 145.49 13.5
5 0 -1 150.88 12.1
5 -5 1 151.78 18.6
3 3 1 99.09 13.3
3 3 -1 93.79 11
3 -6 1 80.79 12.3
-3 6 1 84.99 12.3
6 -3 1 112.69 16.5
-6 3 1 89.39 12.2
-3 6 -1 85.09 11.1
6 -3 1 83.79 12.7
3 -6 -1 95.29 11.2
-3 6 1 83.89 8.4
3 3 -1 104.29 15.2
-6 3 -1 83.89 12.3
3 3 1 72.39 11.3
-3 6 -1 84.29 12.3
3 3 1 78.79 10.7
3 3 -1 108.09 10.6
6 -3 -1 101.99 16.6
6 -3 -1 75.49 13
2 4 1 90.09 12.1
4 2 -1 72.39 10.4
4 -6 1 74.79 12
-2 6 -1 64.99 11.4
4 2 -1 114.19 15.2
-2 6 -1 90.59 12
6 -2 1 80.59 14.7
2 -6 -1 66.89 7.9
6 -4 -1 78.29 15
6 -2 1 77.49 12.6
4 2 -1 98.79 13.7
6 -4 -1 69.39 12
-4 6 1 80.69 11.2
-6 4 -1 73.49 12.3
2 4 1 63.89 10.6
2 4 1 64.29 11
-4 6 -1 90.99 12.2
-2 6 1 96.89 9
6 -2 -1 96.89 14.9
4 -6 -1 107.29 14.3
-6 4 1 101.59 12.6
-2 6 1 84.19 12.7
2 4 -1 96.69 8.4
6 -2 -1 96.99 16.2
2 4 -1 100.39 12.6
4 2 1 90.79 13.7
4 2 1 81.19 14.2
2 -6 1 88.49 9.3
4 2 1 84.19 10.4
2 4 -1 100.19 13.1
-4 6 -1 92.89 11.8
6 -4 1 108.19 12.5
6 -4 1 133.49 17.4
6 -1 1 21.7 12
-1 6 -1 25.2 8.9
5 1 -1 39.8 8
6 -1 1 34.3 11.5
1 5 1 43 9.2
-5 6 1 48 11.1
1 5 1 41.6 10.3
-6 5 -1 29.1 9.4
-1 6 -1 39 10.1
1 5 1 19.2 5.1
5 1 -1 24.6 10.9
6 -5 -1 30.9 10.2
5 -6 1 33.3 11.6
5 1 -1 34 10.8
6 -5 -1 22.6 11.3
5 -6 -1 43.2 8.2
-5 6 -1 56.59 10.1
-1 6 1 42.1 7.6
6 -5 1 49.3 13.8
-1 6 1 48.9 10.3
-6 5 1 43.1 10.1
6 -1 -1 38 12.4
1 5 -1 40.2 9.6
1 5 -1 59.59 10.5
6 -1 -1 45 11.2
5 -6 -1 47.8 11.7
5 1 1 65.09 9.3
5 1 1 36.7 10.3
5 1 1 47.3 12.1
6 -5 1 53.29 10.5
6 0 1 79.69 15.5
-6 6 1 77.49 11.7
6 -6 -1 74.89 12.1
-6 6 -1 74.59 11.9
6 0 1 83.09 14.7
0 6 -1 67.99 11.2
6 -6 1 62.79 13
0 6 1 79.29 10.2
6 0 -1 80.89 14.6
6 0 -1 61.89 10.3
6 0 1 60.29 9.6
0 6 1 68.89 11.2
6 -6 -1 61.69 13.3
6 0 -1 42.3 12.7
0 6 -1 66.39 11.2
4 3 -1 207.38 16.5
-7 4 -1 214.78 17.8
-4 7 1 212.18 17.7
3 4 1 236.08 18.5
7 -3 1 233.08 20.6
4 -7 1 195.58 17
3 -7 -1 224.48 15.1
7 -3 1 212.58 23.6
-3 7 -1 190.38 16.6
4 3 -1 226.98 19.5
7 -4 -1 214.38 24.5
7 -4 -1 221.88 19.2
-3 7 -1 207.08 18
3 4 1 205.28 16.1
4 3 -1 225.98 17
4 -7 -1 298.47 20.4
4 3 1 234.28 21.4
7 -4 1 292.57 22.5
4 3 1 286.17 21.8
3 4 -1 289.67 22.1
4 3 1 276.47 19
-4 7 -1 275.57 19.5
3 4 -1 285.57 17.3
-7 4 1 276.47 20.5
-3 7 1 257.47 16.7
7 -3 -1 273.47 28.8
-4 7 -1 280.07 20.7
7 -3 -1 300.17 21.6
-3 7 1 273.57 20.3
3 4 -1 284.97 19.6
-7 3 -1 274.47 20.4
7 -4 1 320.27 28.2
7 -5 -1 186.58 22.9
5 2 -1 193.78 15.5
-7 5 -1 200.78 17.5
7 -2 1 181.98 19.6
2 -7 -1 162.38 11.6
5 2 -1 203.28 20.2
-2 7 -1 186.28 16.4
5 2 -1 208.78 19.2
5 -7 1 179.28 17.6
7 -2 1 210.48 25.2
2 5 1 180.98 16.4
-2 7 -1 187.68 16.7
-5 7 1 187.28 17.3
7 -5 -1 182.48 18.6
5 -7 -1 170.58 12.7
5 2 1 178.18 14.3
2 5 -1 177.48 17
7 -2 -1 165.08 24.9
7 -2 -1 173.38 19.3
5 2 1 180.58 17.1
-5 7 -1 177.38 16.1
5 -7 -1 190.58 18.6
-5 7 -1 174.48 16
-7 5 1 172.98 16.9
2 5 -1 177.38 16.2
7 -5 1 193.78 21.8
5 2 1 172.58 19.9
7 -5 1 182.28 17.3
-2 7 1 166.28 16.7
-2 7 1 156.28 12.5
-1 7 -1 75.59 11.8
6 1 -1 62.29 9.7
-7 6 -1 63.99 11.3
-6 7 1 79.29 12.3
1 6 1 66.19 11.1
6 -7 1 38.5 10.6
6 1 -1 72.59 13.9
1 6 1 83.69 12.2
7 -1 1 87.99 15.8
7 -1 1 69.59 15.4
6 1 -1 55.69 13.4
1 6 1 45 10.2
7 -6 -1 61.49 15
7 -6 -1 62.49 12.3
-1 7 -1 75.99 12.9
7 -1 -1 60.49 14.7
6 1 1 91.39 17.3
1 6 -1 73.59 12.5
7 -1 -1 78.59 15.3
6 1 1 63.99 10.7
7 -1 -1 67.39 10.6
-1 7 1 70.19 11.6
-1 7 1 77.59 10.5
-1 7 1 55.89 10.6
7 -6 1 50.69 12.5
6 -7 -1 72.89 13.9
1 6 -1 52.69 10.1
-6 7 -1 69.59 11.2
-7 6 1 78.79 12.4
6 1 1 63.99 12.7
7 -6 1 73.59 12.2
1 6 -1 83.39 12.3
6 -7 -1 67.59 10.8
-7 7 -1 107.79 14.7
7 0 -1 74.99 16.2
0 7 -1 115.19 14
0 7 -1 118.99 15.5
0 7 1 125.09 14.6
7 0 -1 107.49 16.7
-7 7 1 107.09 14.3
7 -7 -1 90.39 16.2
7 0 1 125.49 17.2
0 7 1 127.39 13.3
0 7 1 90.89 14.7
7 0 -1 117.59 13.1
7 0 1 120.99 20.8
0 7 -1 88.29 13.4
7 -7 1 112.29 14.1
7 -7 -1 94.89 13.5
7 -7 1 101.79 17.2
7 0 1 127.19 12.9
4 4 1 88.69 12.1
4 4 -1 98.19 11.5
-4 8 -1 86.69 12.8
-8 4 -1 67.49 10
4 -8 -1 93.29 12.4
-4 8 -1 68.89 9.9
8 -4 1 99.29 17.2
-8 4 1 82.79 11.7
-8 4 1 94.99 14
4 4 -1 101.69 12.8
4 4 1 103.49 14.4
8 -4 1 101.39 17
8 -4 -1 93.29 19.2
4 4 -1 111.19 17.4
8 -4 -1 102.89 16.4
-8 4 -1 87.69 13
-4 8 1 93.59 13.9
-4 8 -1 81.29 12.2
-4 8 1 100.09 12
5 3 -1 31.3 9.5
8 -3 1 29 13.3
-3 8 -1 26.9 9.5
8 -5 -1 24.1 14.5
-8 3 1 18.7 7.8
5 3 -1 34.1 12.8
5 -8 1 8.3 8.2
8 -5 -1 23.6 11.6
-5 8 1 41.7 11.6
8 -3 1 28.4 14
-8 5 -1 19.5 9.5
3 5 1 20.3 9.1
-8 5 -1 20.1 7.7
-3 8 -1 34.1 11.4
-5 8 1 26.3 7.2
3 5 1 43.5 12.2
5 3 -1 33.6 9.3
8 -3 -1 45.7 14.5
-8 3 -1 31.5 7.8
3 5 -1 57.99 11.2
-5 8 -1 33.7 7.8
5 3 1 46.4 13.7
3 5 -1 21.3 7.7
8 -5 1 37.8 12.9
3 5 -1 36.3 10.8
-3 8 1 49.6 12.2
-5 8 -1 45.1 10.4
8 -3 -1 37.9 16.5
-3 8 1 26 6.9
-8 5 1 48.9 11.1
5 -8 -1 33.6 9.8
5 3 1 55.89 10.3
-5 8 -1 45.9 12.2
-8 5 1 43.6 8.5
8 -5 1 43.1 13.2
6 2 -1 67.79 11.6
-6 8 1 56.99 8.3
8 -2 1 69.89 16.7
-2 8 -1 30.1 10.4
-2 8 -1 40.7 11
-8 6 -1 56.69 12.7
-8 2 1 30.8 7.3
8 -6 -1 50.29 17.2
2 6 1 57.89 12.3
2 6 1 45.6 11.1
6 2 -1 50.59 12.6
2 6 1 80.19 13.6
-8 6 -1 29.4 7.6
6 2 -1 56.29 15.4
-2 8 -1 50.39 12
-6 8 1 65.09 13
8 -2 1 42.3 13.3
8 -6 -1 47.8 12.9
8 -6 1 100.59 15.4
6 2 1 76.89 11.7
-2 8 1 67.89 9.2
8 -2 -1 47.9 16.2
6 2 1 53.69 11.7
6 -8 -1 93.99 14.7
-8 2 -1 53.39 9.3
-6 8 -1 72.09 9.4
6 2 1 84.19 15.1
-2 8 1 89.09 13.7
-6 8 -1 107.99 15.2
2 6 -1 83.39 12.3
8 -2 -1 87.29 16.5
-8 6 1 71.59 12.7
-8 6 1 58.99 9.1
-2 8 1 72.39 11.2
8 -6 1 57.49 13.1
2 6 -1 81.99 14
2 6 -1 81.39 12.7
-1 8 -1 25.9 12.2
-1 8 -1 23.6 10.6
-1 8 -1 24.1 11.7
-8 7 -1 22 11.6
-7 8 1 23.8 7.4
7 -8 1 17.3 11
7 1 -1 14.6 8.9
1 7 1 27.7 9.5
7 1 -1 8 12.7
-7 8 1 21.6 10.5
-8 7 -1 9.4 6.7
7 1 -1 25.1 13.3
-8 7 -1 9.7 6.4
8 -7 -1 23.9 11.6
8 -7 -1 21.6 15.9
1 7 1 25.9 10.5
8 -1 1 27.6 9.6
1 7 1 19 9.9
8 -1 1 25.6 14.1
8 -1 1 12.8 12.4
8 -1 -1 41.5 15.4
-1 8 1 39.2 11.7
-8 7 1 17.2 7.1
-1 8 1 39.1 11.9
1 7 -1 39.3 11.3
-7 8 -1 32.8 8.8
-8 7 1 34.1 11.2
1 7 -1 39.1 10.8
7 -8 -1 24 14
8 -1 -1 37 16.7
7 1 1 30.8 12.8
7 1 1 27.1 11.3
8 -7 1 36.1 11.9
7 1 1 41.6 9.8
8 -7 1 15 12
1 7 -1 40.9 12.8
-1 8 1 26.9 8.3
8 -1 -1 34 9.5
-7 8 -1 38.3 11.9
-8 8 -1 30.2 11.1
-8 8 -1 30.5 8.8
8 -8 -1 34.4 15.9
8 0 -1 28 16.6
8 -8 1 15.6 12.5
8 0 1 46.6 10.6
0 8 1 36.8 9.8
0 8 -1 23.9 10.8
8 -8 1 27.6 11
8 0 1 29.4 13.1
8 0 1 29.5 13.6
8 0 -1 42.2 11
0 8 1 34.9 11.9
0 8 -1 28.3 12
8 0 -1 35.2 15.9
0 8 1 29.1 11.5
-8 8 1 33.7 7.3
0 8 -1 38.4 12.3
-8 8 1 43.2 12.6
-9 4 1 100.79 13.3
9 -5 -1 120.09 18.5
-4 9 -1 94.69 13.8
4 5 1 88.39 13.9
9 -5 -1 116.19 23.2
-5 9 1 130.09 13.6
9 -4 1 89.69 17.5
-9 5 -1 105.69 16
4 5 1 138.99 18.6
5 4 -1 116.19 20
5 4 -1 111.49 14.1
-4 9 -1 85.39 13.9
-4 9 -1 104.19 16.2
9 -4 1 110.99 18.5
-9 5 -1 85.29 14.4
-5 9 1 102.99 16
5 4 1 151.38 15.5
9 -4 -1 160.18 21.1
-9 5 1 143.89 17.1
5 4 1 171.98 20.3
9 -5 1 165.78 21
-5 9 -1 157.68 18.4
4 5 -1 132.59 14.7
-9 5 1 153.48 14.7
-5 9 -1 139.69 14.4
9 -4 -1 196.58 31.6
4 5 -1 153.98 17
-9 4 -1 133.59 16.2
4 5 -1 166.98 20
-4 9 1 182.78 15.2
-5 9 -1 153.18 16
-4 9 1 168.18 18
6 3 -1 90.39 14.3
6 3 -1 87.39 16.9
-3 9 -1 72.59 12.5
3 6 1 100.49 13.1
-3 9 -1 67.49 11.6
9 -3 1 96.19 18.5
-9 3 1 88.09 12.8
-3 9 -1 56.79 9.5
6 3 -1 84.09 16.7
3 6 1 80.39 13.4
9 -6 -1 82.39 15.7
-6 9 1 100.19 11.6
9 -6 -1 89.69 21
-9 6 -1 78.69 10.8
3 6 1 109.69 16.7
9 -3 1 59.39 15.1
-6 9 1 95.09 14.7
-9 6 -1 91.49 14.7
-3 9 -1 114.09 16.5
-6 9 -1 60.09 10
-9 3 -1 41.9 10
3 6 -1 74.19 14.1
-3 9 1 81.69 12.3
3 6 -1 48.2 12.7
-9 6 1 53.59 8.7
9 -6 1 52.59 14.8
-6 9 -1 60.59 12.7
-3 9 1 69.59 14.6
9 -3 -1 46.1 15.6
6 3 1 68.99 15
-3 9 1 52.79 11.8
6 3 1 66.49 11.8
6 -9 -1 28.7 11.2
9 -6 1 33.4 14.1
-9 6 1 61.29 13.4
3 6 -1 55.89 11.1
9 -3 -1 60.99 20.8
-7 9 1 239.88 17.5
9 -2 1 205.78 25.1
-9 2 1 216.28 18.5
9 -2 1 226.58 22.7
9 -7 -1 272.47 32.4
7 2 -1 241.88 19.3
7 2 -1 242.78 23.6
-9 7 -1 199.28 18.3
-2 9 -1 214.78 19.5
-7 9 1 226.88 19.6
9 -7 -1 178.98 20.9
2 7 1 222.48 19.4
-2 9 -1 241.48 21.9
-2 9 -1 205.88 19.5
2 7 1 217.58 19.3
7 2 -1 210.38 24.6
-9 7 -1 237.08 21.5
2 7 1 230.88 19.4
2 7 -1 217.88 19.5
-9 7 1 203.58 16.8
-2 9 1 215.28 18.6
-9 2 -1 212.68 18.6
-2 9 1 223.78 20.8
7 2 1 237.68 18.6
2 7 -1 223.28 19.9
9 -7 1 245.48 22.5
-7 9 -1 233.98 20
-2 9 1 184.88 16
9 -2 -1 237.88 25.1
9 -7 1 183.98 25.2
-7 9 -1 220.48 18.2
7 2 1 249.28 24.3
7 2 1 178.68 22.4
2 7 -1 243.78 21.7
-9 7 1 232.18 20.9
9 -2 -1 246.08 33.3
7 -9 -1 193.78 23.4
9 -1 1 43.4 16.5
-1 9 -1 65.49 12.3
-1 9 -1 62.59 12.9
-1 9 -1 73.29 15.2
-9 1 1 48.4 8.7
1 8 1 70.79 13.4
8 1 -1 74.29 13.1
9 -1 1 82.49 18
8 1 -1 38.9 15.8
-9 8 -1 55.79 9.4
-8 9 1 63.79 14.3
-9 8 -1 60.49 9.7
-8 9 1 79.59 12.2
8 1 -1 78.59 18.3
9 -1 1 59.19 11.6
-9 8 -1 68.99 14.3
9 -8 -1 72.79 19.5
1 8 1 92.49 13.9
1 8 -1 41.7 13
9 -1 -1 57.19 11.4
8 -9 -1 37 15.8
-1 9 1 69.09 14.7
-9 1 -1 54.09 9.8
-8 9 -1 36.3 8.6
9 -8 1 33.1 14.8
-8 9 -1 68.59 14.5
1 8 -1 50.49 13
-9 8 1 53.59 9
9 -1 -1 31 18.3
-9 8 1 45.1 13.1
8 1 1 53.89 11.5
9 -1 -1 74.49 18.7
9 -8 1 44.7 13
-9 8 1 39.1 7.7
-1 9 1 46.3 11.2
1 8 -1 56.69 11.9
8 1 1 33.3 14.1
8 1 1 52.59 15.3
0 9 -1 -3.7 10.4
9 -9 -1 -11.9 15.4
9 -9 1 2 10.5
9 0 1 3.7 13.7
-9 0 -1 3.4 6.3
-9 9 1 3.6 6.2
0 9 1 -4.1 10.6
0 9 -1 8.1 12.3
9 0 -1 -16.9 14.9
0 9 -1 2 11.9
9 -9 1 1.4 13.4
9 0 1 0.9 9.9
-9 9 -1 4.5 12.4
-9 0 1 -5.2 5.2
9 0 1 -5.4 13.1
0 9 1 12.1 11.1
-9 9 1 1.4 6.1
-9 9 -1 -0.4 7.2
9 0 -1 5.9 9.4
-9 9 1 3 11.6
9 0 -1 -7.1 14
-9 9 -1 -0.3 6.6
-5 10 1 439.76 27.1
10 -5 -1 503.45 44.6
-5 10 -1 461.05 27.9
5 5 -1 470.45 30.4
-5 10 1 451.05 31.4
5 5 -1 396.66 27.3
5 5 1 444.36 29.6
-10 5 -1 452.25 28.9
-5 10 -1 445.56 30.7
-10 5 -1 452.15 31.5
5 5 1 500.45 34.3
-10 5 1 442.76 27.7
10 -5 1 488.95 35.6
10 -5 -1 441.86 34.4
5 5 -1 532.25 34.6
-4 10 -1 75.89 15.2
-4 10 -1 70.79 10.7
4 6 1 71.69 15.9
10 -4 1 83.49 19.8
4 6 1 59.29 11.3
-10 4 1 65.79 10.2
-10 6 -1 54.29 10.1
-4 10 -1 76.99 12.2
-6 10 1 95.29 13.4
10 -4 1 38.3 15.3
-10 6 -1 42.5 12.9
-6 10 1 62.49 15.2
6 4 -1 65.79 16.7
4 6 1 59.89 13.3
6 4 -1 74.29 13.6
10 -6 -1 34.6 14.4
10 -6 -1 43.5 20.4
-4 10 1 87.89 11.5
4 6 -1 69.89 14.5
-10 6 1 55.09 9
10 -4 -1 39.2 20.8
-4 10 1 61.19 11
-10 6 1 57.59 13.3
-10 4 -1 59.59 10.5
-6 10 -1 74.89 15.6
-4 10 1 64.29 14
4 6 -1 52.89 13.9
10 -4 -1 71.79 18.4
-6 10 -1 54.79 9.4
10 -6 1 63.49 15.3
10 -6 1 44.9 16.9
6 4 1 61.09 16.7
4 6 -1 56.89 11.5
6 4 1 48 10.8
-10 3 1 249.18 20.2
-3 10 -1 259.47 23.9
-10 7 -1 253.77 23
3 7 1 241.28 20.3
-7 10 1 255.77 23.4
3 7 1 232.98 22
7 3 -1 276.67 27.7
-10 7 -1 248.38 20
7 3 -1 259.97 21.6
10 -3 1 277.37 27.3
-3 10 -1 248.98 20.6
3 7 1 261.77 22.6
-7 10 1 281.27 19.4
10 -7 -1 307.77 36.5
10 -3 1 227.28 29.9
-3 10 -1 244.18 19.8
7 3 1 310.07 26.6
3 7 -1 296.27 25.6
-10 7 1 313.27 21.5
3 7 -1 299.77 21.5
10 -7 1 216.38 29.7
10 -3 -1 317.77 38.2
-10 7 1 289.67 24.5
-3 10 1 292.57 25.1
10 -7 1 316.17 26.9
10 -3 -1 305.17 27.5
-7 10 -1 308.67 21.8
-7 10 -1 290.17 23.5
7 3 1 310.07 22.7
-10 3 -1 301.67 22.4
3 7 -1 268.17 22.9
-3 10 1 319.27 21
-3 10 1 270.87 21.7
-2 10 -1 169.68 18.2
-10 8 -1 148.69 19.9
2 8 1 152.58 18.4
10 -2 1 97.49 21.7
10 -8 -1 160.28 30
8 2 -1 162.48 17.6
-10 8 -1 146.99 15.1
-8 10 1 145.59 19.4
10 -2 1 151.08 17
10 -2 1 166.08 21.7
2 8 1 147.59 15.6
-10 2 1 165.88 16.7
-2 10 -1 177.18 21
-10 8 -1 150.08 16.3
-8 10 1 165.98 14.2
8 2 -1 165.68 22.5
8 2 1 181.18 22.4
2 8 -1 181.68 20
-2 10 1 204.58 21.4
8 2 1 177.48 18
10 -2 -1 191.28 25.4
2 8 -1 169.68 20.5
-8 10 -1 177.68 20
-2 10 1 187.58 16.1
-10 2 -1 192.68 18.1
10 -2 -1 174.48 33.9
-2 10 1 176.08 17.9
10 -2 -1 180.88 18.1
-8 10 -1 202.08 17.7
-10 8 1 169.48 21.2
2 8 -1 196.48 19.3
-10 8 1 193.28 17.2
-9 10 1 32.7 13.1
1 9 1 33 13.1
-1 10 -1 37.1 11.7
-9 10 1 30.2 7.5
-10 9 -1 28.7 8.7
-1 10 -1 31.7 13.9
1 9 1 39.4 11.6
-10 9 -1 29.8 13.2
-10 1 1 29 8.1
10 -1 1 35.8 16.2
10 -1 1 -0.6 15.2
9 1 -1 38.4 12.1
9 1 -1 47.7 19.3
-10 9 -1 32.1 8.9
10 -1 1 31.8 11.8
10 -9 -1 -8.3 15.6
-9 10 -1 15.4 13.1
1 9 -1 -0.5 11.6
-10 9 1 17.5 7.4
-1 10 1 33.2 11.9
-10 1 -1 22.6 9.1
1 9 -1 26.2 13.4
9 1 1 19.8 11.5
10 -1 -1 30.4 18.3
10 -1 -1 17.7 10.8
10 -9 1 -11.7 12.5
-10 9 1 20.9 12.8
-10 9 1 27.6 8.5
-9 10 -1 21 8
10 -1 -1 -19.1 16.3
-1 10 1 25.4 14
1 9 -1 25.1 12.4
9 1 1 15.2 14.7
10 0 1 182.28 18.7
0 10 -1 176.58 21.3
0 10 -1 209.28 19.9
-10 10 -1 192.68 16.8
10 0 1 188.48 26
-10 10 1 186.88 16.1
-10 10 -1 182.78 21.4
10 0 -1 157.58 23.9
-10 10 1 208.68 16.9
0 10 1 189.48 17.1
-10 0 -1 169.38 16.7
0 10 1 177.68 20.8
-10 10 -1 207.68 16.3
-11 6 -1 52.59 9.6
11 -5 1 41 17.7
-5 11 -1 56.09 15.2
-6 11 1 87.79 13.2
11 -5 1 16.9 16.2
-6 11 1 66.29 15.4
6 5 -1 62.89 17.2
5 6 1 77.59 14.9
6 5 -1 65.09 11
-5 11 -1 53.69 10.1
5 6 1 80.29 12.6
-5 11 -1 52.69 10.6
6 5 -1 57.39 12.8
11 -6 -1 67.49 24
-6 11 1 29.5 8.8
-11 6 -1 51.09 14.2
5 6 1 33.2 14.9
-11 5 1 55.99 9.2
6 5 1 65.19 17.9
-5 11 1 48.2 13.7
5 6 -1 40.7 14.4
11 -6 1 31 15.9
-6 11 -1 55.29 15.4
5 6 -1 64.69 14.8
-5 11 1 66.99 10
-6 11 -1 48.2 9.1
-5 11 1 55.19 11.3
-11 5 -1 57.69 10.8
11 -5 -1 17.6 20.6
5 6 -1 68.19 12.3
6 5 1 53.49 12.5
-11 6 1 46.3 8.9
-11 7 -1 87.59 16.7
11 -4 1 96.09 19
-4 11 -1 105.69 14.9
-4 11 -1 108.19 15
-4 11 -1 137.09 19.7
-11 4 1 110.29 13.7
4 7 1 124.39 17.6
7 4 -1 108.79 16.3
4 7 1 104.09 15.4
-7 11 1 102.89 17.4
-7 11 1 122.89 14.3
7 4 -1 133.19 21.8
11 -7 -1 77.39 23.1
-11 7 -1 99.19 14.9
4 7 -1 107.39 14.4
7 4 1 103.69 15.5
-11 4 -1 99.49 15.3
4 7 -1 103.49 16.8
7 4 1 99.89 20
-4 11 1 84.19 16.2
-4 11 1 100.49 13.6
-11 7 1 72.99 14.9
-4 11 1 103.49 14.6
-7 11 -1 89.09 13.1
-11 7 1 89.89 12.5
4 7 -1 61.69 15.4
-7 11 -1 113.09 18.1
11 -4 -1 64.09 24.5
8 3 -1 66.29 13.4
-3 11 -1 90.09 14.1
-11 8 -1 56.29 9.9
3 8 1 57.89 12.7
-8 11 1 70.89 9.8
-8 11 1 48.2 13.9
-3 11 -1 71.29 11
-3 11 -1 90.99 18.1
8 3 -1 53.79 17.2
11 -3 1 57.59 18
-11 3 1 63.09 10.2
3 8 1 86.29 13.6
-11 8 -1 39.6 13.5
-11 3 -1 98.69 15.8
-3 11 1 90.49 13.4
-11 8 1 77.79 12.2
8 3 1 56.99 16.3
11 -3 -1 47.8 18.5
-3 11 1 92.39 13.2
-3 11 1 72.99 16.4
8 3 1 78.99 14
3 8 -1 61.89 13.8
-8 11 -1 83.19 16.3
-11 8 1 66.49 15.7
-8 11 -1 91.89 14.6
3 8 -1 98.39 14.1
-9 11 1 416.86 23.8
2 9 1 301.07 26.5
-11 9 -1 316.87 28.3
-2 11 -1 409.06 25.9
-11 9 -1 369.86 24.1
11 -2 1 261.87 31
9 2 -1 344.97 32.5
-11 9 -1 371.16 23.5
2 9 1 332.87 23.5
11 -2 1 315.97 25.4
-2 11 -1 316.07 28.2
-2 11 1 350.36 23
-11 9 1 332.17 22.6
2 9 -1 315.67 23.6
-2 11 1 330.07 22.2
9 2 1 252.27 30
9 2 1 313.37 25.2
-9 11 -1 383.06 23.6
-11 2 -1 385.06 24.7
-11 9 1 282.47 21.4
-11 11 1 61.09 9.3
-11 11 -1 43.2 9.1
-11 0 1 34.2 8.9
-11 0 -1 41.4 9.4
-11 11 -1 43.1 9.5
-11 11 1 37.4 8.4
0 11 1 66.09 13
-12 6 -1 63.29 10.2
-6 12 1 65.19 9.8
-6 12 -1 63.69 10.6
6 6 1 27.9 12.1
6 6 -1 64.99 12.1
-6 12 -1 46.6 10
6 6 1 64.39 11.4
-6 12 1 54.79 11.1
-12 6 1 77.29 10.4
5 7 1 87.69 14.3
7 5 -1 12.1 10.9
7 5 -1 42.1 9.2
-12 7 -1 5.7 12.3
-5 12 -1 62.39 11.4
5 7 1 19.4 12.3
-5 12 -1 69.19 10.5
7 5 -1 -4 16
-7 12 1 4.4 17.1
-5 12 -1 9.4 12.6
-12 7 1 77.19 10.6
-5 12 1 57.39 9.6
-5 12 1 92.79 13.4
-12 5 -1 88.69 12.1
5 7 -1 65.19 12.5
-7 12 -1 66.69 10.4
-4 12 -1 56.29 10.2
8 4 -1 -3.9 24.7
-4 12 -1 5.9 13.9
4 8 1 71.89 13
4 8 1 5.9 10.7
-12 4 1 58.79 9.9
-12 8 -1 1.1 13.4
-4 12 1 48.8 11.8
-12 8 1 34.2 8.4
4 8 -1 6 12.5
-8 12 -1 49.4 10.3
4 8 -1 39.6 11.8
8 4 1 7.8 10.3
-12 4 -1 42.4 10.5
-4 12 1 28.2 8.4
-12 9 -1 109.39 15.1
3 9 1 93.19 16
-12 3 1 112.19 16
-12 9 -1 89.79 13.3
-3 12 -1 104.59 16.4
-3 12 -1 94.79 15.2
-9 12 1 119.49 14.7
-12 9 1 101.89 14.4
-9 12 -1 106.29 13.8
-12 3 -1 104.69 15
3 9 -1 136.29 17.1
-3 12 1 105.59 15.6
-3 12 1 89.39 14
-12 10 -1 45 9.4
-2 12 -1 102.29 15.7
-12 10 -1 54.99 9.7
2 10 1 77.49 13.2
-10 12 1 71.59 10.5
-12 2 1 62.39 10.6
-12 2 -1 96.19 14.8
-2 12 1 90.69 15.3
-2 12 1 65.29 9.9
-12 10 1 94.89 14.3
-10 12 -1 95.99 14.6
-12 10 1 70.49 10.3
2 10 -1 128.19 16.6
-1 12 -1 94.39 15.6
-12 1 1 95.29 12.9
-12 11 -1 109.29 15.2
-12 11 -1 103.29 15.2
1 11 1 101.19 15.1
-11 12 1 92.19 14.4
-11 12 -1 71.99 11.2
-1 12 1 80.29 14
-12 1 -1 66.29 11.6
1 11 -1 104.49 16.7
-12 11 1 56.19 9.8
-12 11 1 49.2 9.7
-12 0 -1 193.78 19.8
-12 0 1 154.18 19
0 12 1 224.98 20.7
0 12 -1 225.48 21.7
-12 12 -1 201.18 18.3
-12 12 1 196.18 18
-12 12 -1 220.98 19.2
-12 12 1 215.88 18.7
-7 13 1 10.7 9.1
-6 13 -1 19.9 10.2
-13 6 1 16.2 8.6
-13 7 -1 9.7 9
6 7 1 15 10.7
-7 13 1 9.1 8.2
-6 13 -1 13.8 9.2
7 6 -1 8.4 9.8
-13 7 1 9 8.4
-13 6 -1 12.2 8.4
-6 13 1 9 8.5
-7 13 -1 14.3 9.3
-7 13 -1 -1.9 9.1
-6 13 1 16 10.3
7 6 1 -0.6 8.9
6 7 -1 10.7 11.1
-13 5 1 128.19 16.3
-5 13 -1 115.19 16.7
-13 8 -1 124.59 15
-8 13 1 125.99 15.8
-5 13 -1 103.99 16.3
5 8 1 120.49 16.5
-5 13 1 108.99 13.8
-5 13 1 108.09 15.7
5 8 -1 114.29 16.9
-8 13 -1 123.19 16.3
-13 5 -1 113.79 16.8
-13 8 1 112.89 15.5
-13 4 1 34.9 10
-13 9 -1 36.2 10
4 9 1 36.9 12.3
-4 13 -1 38.9 12.6
-9 13 1 24.6 9
-4 13 -1 25.8 10.2
-4 13 1 20.4 8.6
-13 9 1 35.5 9.5
-4 13 1 25.3 11.5
-13 4 -1 31.8 10.4
-9 13 -1 23.4 9.7
4 9 -1 37.7 13.6
-3 13 -1 33.8 10.2
3 10 1 46.8 12.6
-3 13 -1 34.8 12.8
-10 13 1 45.7 10
-13 3 1 57.69 11.1
-13 10 -1 41.1 9.2
-13 10 -1 45.8 10
-3 13 1 43.6 11.7
-13 3 -1 57.59 12.1
3 10 -1 44.2 14.6
-10 13 -1 63.89 11.2
-3 13 1 29.5 9.1
-13 10 1 46.2 9.9
-2 13 -1 156.58 17.4
2 11 1 141.19 18.1
-13 11 -1 118.59 15.5
-13 2 1 126.79 17.8
-13 11 -1 144.69 17.5
-11 13 1 132.49 16.5
-2 13 1 137.59 16.9
-11 13 -1 121.79 16.1
2 11 -1 126.29 18.6
-13 11 1 120.59 15.7
-2 13 1 77.39 11.5
-13 11 1 97.39 15.1
-13 2 -1 117.29 18.1
1 12 1 53.09 12.9
-13 12 -1 40.6 9.9
-13 1 1 45.5 11.5
-12 13 1 55.29 11.3
-1 13 -1 74.39 15.5
-13 12 -1 37.2 9.6
-13 12 1 40.8 9.7
1 12 -1 94.99 16.5
-13 1 -1 41.8 11.5
-13 12 1 66.49 11
-12 13 -1 55.59 10.6
-13 13 -1 13.3 8.9
0 13 -1 22.2 13.2
-13 0 1 -0.2 8.9
-13 13 1 5.7 8.9
-13 13 -1 13.4 8.3
0 13 1 23.3 12.8
-13 0 -1 4 8.8
-13 13 1 14.6 8.8
7 7 1 22.2 11.7
-7 14 -1 6.7 9.7
-7 14 -1 22.5 9
-7 14 1 26.1 9.7
7 7 -1 15.5 11.4
-14 7 -1 18.6 9.8
-14 7 1 29.6 9.2
-7 14 1 25.8 10.7
-14 8 -1 131.09 17.3
-6 14 -1 96.89 15.7
-6 14 -1 131.99 16.9
-14 6 1 121.49 16.5
6 8 1 118.49 17.1
-8 14 1 125.19 16.8
-6 14 1 91.29 15.2
-6 14 1 86.09 14.9
-14 8 1 105.59 15.7
-8 14 -1 115.89 16.9
-14 6 -1 113.69 15.7
6 8 -1 121.29 16.4
-5 14 -1 34.1 10.3
-9 14 1 35.1 9.9
5 9 1 45.8 13.8
-5 14 -1 38.2 12.4
-14 9 -1 32.2 9.4
-14 5 1 42.9 10.4
-5 14 1 42 12
-9 14 -1 38.8 10.7
5 9 -1 47.2 14
-5 14 1 27.1 9.3
-14 9 1 35.7 9.4
-14 5 -1 30.8 10
4 10 1 290.47 24.9
-4 14 -1 308.87 24.5
-14 10 -1 314.57 23
-14 4 1 310.87 24.4
-10 14 1 308.27 23.7
-4 14 -1 314.47 25.1
-4 14 1 284.37 22.4
-14 10 1 273.17 22.6
-14 4 -1 318.57 25.2
-4 14 1 274.37 22.8
4 10 -1 290.87 25
-10 14 -1 310.47 23.3
-3 14 -1 31.4 10.1
-14 3 1 51.09 11.1
-14 11 -1 44.3 9.9
-3 14 -1 66.59 14.8
-14 11 -1 61.59 11.9
-11 14 1 49.4 11.3
3 11 1 59.39 13.3
3 11 -1 88.59 17.1
-14 3 -1 73.29 13.1
-3 14 1 93.49 15.2
-3 14 1 53.09 11
-14 11 1 56.49 10.5
-11 14 -1 54.09 10.1
2 12 1 21.5 12.4
-12 14 1 30 10.6
-14 2 1 44 11.8
-2 14 -1 42 14.6
-14 12 -1 27.1 9.5
-14 12 -1 31 10.6
2 12 -1 43.9 14.2
-2 14 1 43.4 13.1
-14 12 1 37.3 9.8
-12 14 -1 48.1 10.8
-14 12 1 33.9 9.5
-14 2 -1 47.2 12.2
-13 14 1 23.9 10.1
-1 14 -1 24.7 13.9
1 13 1 31.5 13.1
-14 13 -1 17.4 9.5
-14 1 1 24.9 11.4
-14 13 -1 23 9.2
-13 14 -1 25 9.7
-14 13 1 26.1 10.2
-14 13 1 15.4 9.5
1 13 -1 21.1 13.6
-14 1 -1 24.7 11
-1 14 1 37.6 13.3
0 14 -1 7.4 14.1
0 -14 -1 2.3 6.8
0 14 1 14.8 12.3
0 -14 1 7.3 7.9
-14 14 -1 0.4 9.3
-14 14 1 -1.7 7.7
0 14 -1 3.1 11.9
-14 14 1 -7.1 9.3
14 -14 1 -1.1 7.1
-14 14 -1 3.4 7.8
-7 15 -1 12.3 11.1
8 7 -1 22.7 11.3
-8 15 1 25.4 10.5
-15 8 -1 39.2 11
7 8 1 18.9 12.3
-15 7 1 32.6 10.3
-7 15 -1 17.5 10.1
-8 15 1 -2.9 9.3
-7 15 1 24.8 10
-7 15 1 26.9 11.8
-8 15 -1 32 11.2
-15 8 1 25.1 9
-15 7 -1 23.9 10.3
7 8 -1 36.1 13.4
-9 15 1 13 9.7
-15 9 -1 14.9 9.7
6 9 1 18.1 13.1
-6 15 -1 18.5 12
-15 6 1 12.4 8.9
-6 15 -1 10.3 9.9
-15 9 1 12.7 9.3
-15 6 -1 8.5 10.5
6 9 -1 11.6 12.4
-6 15 1 5 11.5
-9 15 -1 10.8 9.7
-6 15 1 1.6 8.7
-15 10 -1 43.1 11.7
-5 15 -1 36.2 13.5
-10 15 1 35.1 10.5
-15 5 1 27.3 10
-5 15 -1 32 10.9
5 10 1 39 14.3
-10 15 -1 32.8 10.7
-5 15 1 31.6 13.1
-15 5 -1 27.5 11.9
-5 15 1 19.6 10.2
-15 10 1 20.6 9.1
5 10 -1 42.9 14.6
4 11 1 77.29 16
-4 15 -1 60.69 14.6
-11 15 1 43.7 10.7
-15 11 -1 59.99 12
-4 15 -1 37.4 11.2
-15 4 1 66.79 13.2
-11 15 -1 52.59 11.3
4 11 -1 73.89 16.1
-4 15 1 69.09 14.3
-4 15 1 37.6 10.8
-15 11 1 46.9 10.3
-15 4 -1 50.49 12.3
-3 -12 1 1.1 8.9
-3 15 -1 -5.4 11.8
-15 12 -1 22.8 8.9
-12 15 1 41.9 11
-15 12 -1 48.8 11.2
-12 -3 -1 -2.4 8.2
-3 15 -1 46.3 14.5
-15 3 1 50.49 12.2
12 -15 1 -0.5 9.7
3 12 1 54.39 14.3
-3 15 1 68.69 15.2
-15 12 1 62.09 11.9
-15 3 -1 40.3 11.7
3 12 -1 64.59 16.9
-12 15 -1 48.8 11.5
-13 -2 -1 181.38 16.8
2 13 1 242.08 23.5
-13 15 1 231.08 21.4
-15 13 -1 226.78 21.2
-15 13 -1 197.48 19.8
-2 -13 1 173.38 15.8
-15 2 1 200.68 22.3
-15 13 1 134.49 17
2 -15 1 152.18 13.1
2 13 -1 139.49 14.6
-2 -13 -1 109.49 12.5
-1 15 -1 9.2 11
-15 14 -1 12.2 9.2
14 1 -1 13.2 18
14 -15 1 27.7 10.3
-15 14 -1 6.9 8.8
-14 15 1 5.7 10.6
-15 1 1 3.2 10.4
1 14 1 17.6 14.1
-1 -14 1 11.5 9.9
-1 15 -1 7.7 14.5
1 -15 -1 6.6 9.1
-14 15 -1 19.8 10.3
1 14 -1 22.6 15.3
15 -14 1 23 9.8
1 14 -1 13.1 14.2
-15 14 1 16.7 9.6
-1 15 1 14.2 12.9
-15 1 -1 5.8 10.2
-15 14 1 5.2 9.5
1 -15 1 19.9 9.3
-1 -14 -1 6.2 9.9
-1 -14 -1 11.4 11
0 -15 -1 135.09 16.2
0 15 1 156.58 20.7
0 15 -1 136.69 17.5
-15 15 -1 119.39 17.6
0 -15 -1 102.29 14.3
15 0 -1 154.08 21.7
15 -15 1 113.39 16
0 -15 1 111.59 15.3
0 15 -1 155.88 21.3
-16 8 -1 10.7 9.9
8 8 -1 -1.9 11.6
16 -8 1 2.6 7.4
-8 -8 -1 -1 6.8
-8 16 1 7.1 10.3
-8 16 -1 10.7 10.6
8 8 1 -1.6 10.2
-8 16 1 1.1 9.8
8 -16 1 2.8 6.8
-16 8 1 12.2 9.1
-7 16 -1 52.89 12
-16 9 -1 34.8 10.7
7 9 1 38.5 13.6
-7 16 -1 20.5 12.1
-9 -7 -1 13.2 7.3
-16 7 1 45 11.6
-9 16 1 38.1 10.7
-7 16 1 21.3 10.2
-16 7 -1 50.49 11.9
-7 16 1 18.8 11.8
-16 9 1 29.7 10
7 -16 1 4.8 7.1
7 9 -1 35.1 14
-9 16 -1 33.8 10.9
-7 -9 -1 6.9 7.2
-6 -10 1 0.2 7.7
-16 10 -1 24.2 10.7
-6 16 -1 29.5 12.9
-10 16 1 15.8 10.2
-16 6 1 32.7 10.9
6 10 1 32.1 14.2
-10 -6 -1 21.2 8.2
10 -16 1 16.5 8.2
-6 16 -1 25.2 11
16 -10 1 2.3 6.7
6 10 -1 41.2 14.9
-10 16 -1 43.5 11.6
-6 -10 -1 23.8 8.1
-6 16 1 30 10.9
-6 16 1 22.2 12.1
-16 6 -1 22.9 10.3
6 -16 1 21.6 8.2
-16 10 1 34.4 11
-16 11 -1 72.69 12.5
-5 16 -1 89.09 13.6
5 11 1 91.49 16.6
-5 -11 1 79.19 11.2
-16 5 1 117.89 19.4
-11 -5 -1 110.39 11.9
-5 16 -1 97.19 16.1
-11 16 1 122.79 18.9
11 -16 1 74.99 11.1
-16 5 -1 97.59 14.8
5 -16 1 84.49 10.7
-16 11 1 107.19 17.5
5 11 -1 111.29 18.2
-5 -11 -1 85.09 11
16 -11 1 56.49 9.8
-11 16 -1 69.29 12.1
-5 16 1 87.29 13.7
-5 16 1 89.79 16
12 -16 1 217.48 19.4
4 12 1 246.48 24.3
-4 -12 1 231.68 19.5
-12 16 1 278.27 23.8
-12 -4 -1 219.88 19
-16 4 1 308.77 25.2
-16 12 -1 265.67 23.6
-4 16 -1 265.27 24.5
-4 -12 -1 226.98 17.9
4 12 -1 239.08 24.6
-4 -12 -1 214.88 18.7
4 -16 1 212.88 17.4
16 -12 1 213.68 17.1
-4 16 1 195.28 21.7
-4 16 1 244.98 22.9
-16 12 1 271.27 22.9
-12 16 -1 276.17 22.9
3 13 1 18.1 13.6
-3 16 -1 4.9 11.6
3 -16 -1 0 9.3
16 -13 -1 -1.7 11
-13 -3 -1 -1.2 10.5
-16 3 1 2.9 11.1
-16 13 -1 3.9 10
-3 -13 1 -3 9.8
-16 13 -1 -1.1 8.3
-13 16 1 0.8 10.9
13 -16 1 3.8 10.1
-3 16 -1 17.1 14.6
-16 13 1 10.1 10.4
13 -16 -1 -2.3 7.6
-3 -13 -1 11.3 10
16 -13 1 8.2 9.6
3 13 -1 6.2 13.2
-13 -3 1 13 10.2
-3 16 1 3.8 12.8
-13 16 -1 13.2 10.6
-16 3 -1 9.4 11.4
3 13 -1 0.9 14.1
-3 -13 -1 11.2 12.9
3 -16 1 8.1 9.4
-2 16 -1 91.39 17.9
14 2 -1 59.79 22.7
2 14 1 72.29 15.9
-16 14 -1 50.79 12.5
2 -16 -1 74.19 11.8
-14 16 1 70.49 13.4
14 -16 1 98.09 13.1
-2 16 -1 129.89 16.5
-2 -14 1 106.49 13.2
2 14 -1 48.9 14.5
2 14 -1 36.8 15.3
14 2 1 -2.8 23.6
-14 16 -1 40.2 10.8
16 -14 1 65.99 11.5
-16 14 1 53.19 12.1
16 -2 -1 -6.1 20.3
2 -16 1 59.49 11
14 -16 -1 32.2 9.2
-2 16 1 68.39 16.3
-16 2 -1 27.2 12.2
-2 -14 -1 69.29 12.2
-2 -14 -1 41.8 12.2
15 1 -1 83.09 22.6
-1 16 -1 92.19 17.2
1 15 1 65.39 16
16 -15 -1 79.29 11.4
-16 15 -1 42.7 10.4
15 -16 1 109.29 13.4
-1 -15 1 103.49 13.2
-1 16 -1 63.29 13.6
-15 16 1 59.39 12.7
1 -16 -1 75.69 14.5
1 -16 -1 103.89 13.2
-1 -15 -1 100.89 16.2
1 15 -1 108.59 18.9
-15 16 -1 120.99 18.3
1 -16 1 108.29 13.5
1 15 -1 111.59 15.1
16 -15 1 126.59 14.3
-1 16 1 131.59 20.8
-1 -15 -1 128.59 14.5
15 -16 -1 106.19 13
16 -1 -1 103.69 23
0 -16 -1 53.09 11.8
0 -16 1 52.79 11.6
0 16 -1 49.9 15.5
16 -16 1 61.69 12.3
-16 16 1 22.7 10.2
16 -16 -1 45.9 11.3
-16 16 -1 31.5 10.4
0 16 -1 54.99 14.3
16 0 -1 57.59 22.8
0 -16 -1 61.29 15.5
0 16 1 57.09 16.1
8 -17 -1 28.2 8.7
-8 17 -1 38.5 11.9
-9 17 1 41.2 12.8
-8 -9 1 41.5 9.9
9 -17 1 53.09 10.4
17 -8 1 31 9.7
-17 8 1 30.9 10.8
17 -9 -1 3.4 9.7
8 9 1 -2.1 15.4
-9 -8 -1 35.9 9.6
-17 9 -1 36.6 10.8
-9 17 -1 32.5 11.3
9 -17 -1 21.8 8.4
8 9 -1 14 12.2
17 -9 1 33 9.7
8 -17 1 52.39 10.6
-8 -9 -1 47.5 10.4
-17 9 1 44.9 11.8
-17 8 -1 37.3 11.5
-9 -8 1 47.2 10.1
-8 17 1 34.8 11.9
7 10 1 28.4 14.6
7 -17 -1 15.8 8.8
-10 17 1 27.3 12
-17 7 1 24.9 11.5
-7 17 -1 9.5 12.8
-17 10 -1 17.7 10.6
-7 17 -1 25.3 11.5
-10 -7 -1 14.8 9.4
-7 -10 1 29.4 10.1
10 -17 1 25.9 10
17 -10 -1 0 8.1
7 -17 1 19.6 9.6
17 -10 1 12.9 9.1
-7 17 1 10 11.2
-7 17 1 21.9 12.9
-7 -10 -1 18 9.4
7 10 -1 22.6 14.9
-17 7 -1 27.8 11.2
-10 -7 1 23 9.4
10 -17 -1 7.1 8.2
-17 10 1 30.6 10.5
-10 17 -1 22.2 11.7
-6 17 -1 15.1 11
-6 17 -1 10.1 13.4
11 -17 1 10.3 9.9
-11 -6 -1 18.8 10.1
-11 17 1 18 12
17 -11 -1 4.2 7.4
-17 6 1 7.9 11.3
6 -17 -1 10.8 9.7
-17 11 -1 9.7 9.9
-6 -11 1 19.8 10
6 11 1 14.5 14.3
17 -11 1 21.1 10.1
-17 6 -1 6.9 10.9
-11 17 -1 13 11.2
6 11 -1 6.4 14.7
-6 -11 -1 3.9 9.8
11 -17 -1 14 8.6
-6 17 1 2.8 11.1
-11 -6 1 13.4 9.5
-6 17 1 13.6 13.2
6 -17 1 12.4 9.8
-17 11 1 16.3 10.9
12 -17 1 7.1 9.9
5 12 1 -9.4 9.8
-17 5 1 11.4 11.5
-5 17 -1 17.1 14.2
17 -12 -1 6 7.5
-5 17 -1 -6.7 9.2
-5 17 -1 -10.5 10.9
5 -17 -1 7.9 10
-17 12 -1 7.4 9.9
5 12 1 15.3 14.7
-5 -12 1 10.3 10.3
-12 -5 -1 11.3 10.8
-12 17 1 8.6 11.1
-17 5 -1 2.2 11.6
-12 17 -1 11 10.6
-5 17 1 4.5 10.8
-12 -5 1 0.3 10
5 12 -1 0.8 12.9
5 12 -1 9.2 15.3
-17 12 1 13.9 10.9
-5 -12 -1 8.9 10.4
5 -17 1 -6 9.7
12 -17 -1 3.3 9
17 -12 1 7.2 9.9
-5 17 1 17.9 13.8
4 13 1 -9.1 11.3
4 13 1 1.3 14.6
-17 13 -1 8.2 10.8
-17 4 1 -1.1 11.4
-4 17 -1 2.6 14.1
-4 17 -1 4.3 12.2
13 -17 1 4.5 10.5
-13 17 1 5.8 11.1
4 -17 -1 6.4 9.7
-4 -13 1 0.3 10.3
-13 -4 -1 11.7 10.9
17 -13 -1 14.4 8.4
-4 17 1 19.2 13.7
4 13 -1 5.5 13.6
-17 4 -1 3.5 11.5
-4 -13 -1 10.7 10.5
4 13 -1 6.9 14.9
4 -17 1 10.6 9.9
17 -13 1 8.6 9.9
-13 17 -1 14.5 10.9
-13 -4 1 11.2 10.9
13 -17 -1 11.9 10
-17 13 1 9.4 10.7
-3 -14 1 2.5 10.9
-17 3 1 -5.4 11.4
-3 17 -1 16.1 11.6
14 3 -1 27.2 21.9
14 -17 1 9.8 10.9
3 -17 -1 8 9.9
3 14 1 4.8 12.1
3 14 1 15.9 14.7
-3 17 -1 10.6 14.6
17 -14 -1 0.8 9.1
-14 17 1 5.9 11.2
3 -17 -1 0.7 9.6
-17 14 -1 -0.1 10.6
3 14 -1 15.4 14.5
-17 3 -1 11.3 11.6
-3 -14 -1 12.8 13.8
-3 17 1 26.1 14.9
17 -14 1 16.3 10.3
14 -17 -1 14.7 10.6
3 14 -1 20.4 15.8
17 -3 -1 -1 17.2
-14 17 -1 20.7 10.7
-17 14 1 6.4 11
-3 -14 -1 18.5 11.3
3 -17 1 12.4 9.9
17 -15 -1 11.8 10.3
-2 17 -1 22.1 15.1
15 2 -1 29.6 21.6
15 -17 1 18.4 11.6
-2 -15 1 30.3 11.4
2 15 1 11.9 15
2 15 1 40.3 13.6
-2 17 -1 29.4 14.1
2 -17 -1 8.7 12.6
-15 17 1 9.3 11.1
2 -17 -1 12.6 10.9
-2 17 1 6.2 13.5
-2 -15 -1 4.5 12.5
15 2 1 33.5 21
-2 -15 -1 19.3 11.2
2 15 -1 7.2 15
2 15 -1 8.9 14.2
2 -17 1 5.3 9.9
15 -17 -1 14.9 10.7
17 -2 -1 35 22.1
-15 17 -1 13.5 10.3
17 -15 1 19.4 10.8
-1 -16 1 125.39 14.1
1 -17 -1 86.59 15.5
16 -17 1 115.19 13.8
1 16 1 83.39 14
-1 17 -1 121.09 17
1 16 1 76.19 16.8
1 -17 -1 101.19 13.9
16 1 -1 100.69 23.4
-1 17 -1 107.99 18.3
17 -16 -1 89.69 12.8
16 -17 -1 100.79 13.5
17 -1 -1 128.59 24.3
17 -16 1 123.39 16.4
1 -17 1 134.99 14.4
1 16 -1 106.49 15.4
1 16 -1 133.09 22.1
16 1 1 162.88 22.3
-1 -16 -1 158.08 17.7
-1 -16 -1 123.99 16.8
-1 17 1 133.99 16.9
0 17 -1 24.3 13
0 17 1 33.6 12.6
17 0 -1 16.5 21.2
0 17 -1 32.9 15.6
17 0 1 23.7 16.8
17 -17 -1 15.3 10.2
0 -17 -1 17.7 11.4
0 -17 -1 12.1 11.7
0 17 1 22.6 14.9
0 -17 1 28 11.1
17 -17 1 35.8 11.4
-18 9 -1 35.2 12
-18 9 1 25.2 11.5
9 -18 -1 18.1 10.3
-9 -9 1 39.7 10.4
18 -9 -1 18.5 8.9
18 -9 1 32.7 10
9 -18 1 22.5 10.5
-9 18 -1 28 11.6
-9 -9 -1 29.4 9.8
-9 18 1 18.7 11.8
-10 -8 -1 33.8 10.6
-10 18 1 11.9 11.9
18 -10 -1 23 8.8
-18 8 1 21.7 11.1
8 -18 -1 32.5 10.5
-18 10 -1 31.6 11.8
-8 18 -1 21 11.2
10 -18 1 29.2 10.1
-8 -10 1 30.1 9.8
18 -8 1 31.9 10
18 -10 1 39.5 10.4
-18 8 -1 32.1 11.6
-8 -10 -1 46.2 10.6
-10 -8 1 35.3 10.6
-8 18 1 27.8 12.1
-18 10 1 27.6 11.7
-10 18 -1 32.4 12.2
18 -8 -1 31.1 9.6
8 10 -1 0.2 15.3
10 -18 -1 30.3 10.3
8 -18 1 34.9 9.9
-11 -7 -1 61.89 11.5
7 -18 -1 50.99 11.4
-7 18 -1 31.7 11.5
7 11 1 -4.9 13.4
-11 18 1 42.5 13.1
11 -18 1 58.99 11.5
18 -11 -1 38.1 9.9
-18 11 -1 29.7 10.7
-18 7 1 29.6 11.4
-7 -11 1 65.99 11.4
-11 18 -1 49 12.5
-7 -11 -1 50.19 10.4
7 -18 1 52.79 11.1
7 11 -1 23.7 14.4
18 -11 1 56.09 11.4
-7 18 1 41.1 12.6
-18 11 1 41 11.5
-11 -7 1 66.19 11.4
-18 7 -1 40 12.8
11 -18 -1 50.79 11
-12 -6 -1 24.1 11.3
-18 12 -1 14.8 11
12 -18 1 12.9 10.4
18 -12 -1 13.9 9.5
-18 6 1 16.3 12.1
-6 -12 1 16.3 10.3
-6 18 -1 -3.8 10.4
-6 18 -1 9.2 12.8
-12 18 1 20.6 11.9
6 -18 -1 5.1 10
6 12 1 20.4 14.7
6 12 1 -5.3 9.6
-6 18 -1 -10.4 8.9
6 -18 1 3.5 9.8
-18 6 -1 9.9 11.8
6 12 -1 -0.3 15.2
18 -12 1 25.6 10.5
-12 -6 1 17.8 10.7
-12 18 -1 7.4 11.2
-18 12 1 9.7 10.5
-6 -12 -1 15.2 9.8
6 12 -1 8.7 12.2
-6 18 1 10.7 13.5
-6 18 1 -3.8 10.1
12 -18 -1 3.4 10.2
-5 18 -1 39.7 15
-13 -5 -1 95.89 13.3
5 13 1 46 13.5
13 -18 1 57.89 11.5
5 13 1 45.1 15.8
-18 13 -1 45.2 12.2
-5 -13 1 78.29 12.3
5 -18 -1 66.59 11.5
-18 5 1 42.5 13.3
18 -13 -1 60.59 10.9
-5 18 -1 66.49 13.7
-13 18 1 55.29 13.5
5 -18 1 47.8 11.1
-5 18 1 48.8 15.7
-13 -5 1 61.59 12.3
5 13 -1 57.89 17.6
5 13 -1 38.2 14
-18 5 -1 56.19 14.7
-5 -13 -1 84.39 12.5
13 -18 -1 63.59 11.7
-18 13 1 44.6 12.7
18 -13 1 57.39 11.2
-13 18 -1 40.9 11.9
4 14 1 9.2 15.1
-18 14 -1 6.2 10.9
4 14 1 5.2 13.1
4 -18 -1 3.5 10.1
-4 18 -1 -0.6 14.5
14 4 -1 10.5 21.3
14 -18 1 6.2 10.8
-4 -14 1 0.9 10.3
-14 18 1 2.2 11.6
4 -18 -1 -0.4 9.6
-18 4 1 10.2 11
-4 18 -1 16.5 12.9
18 -14 -1 11.2 9.7
14 -18 -1 11.4 10.5
4 14 -1 16.7 14.4
-4 -14 -1 -4.7 10.4
4 14 -1 18.9 16
-18 14 1 3.9 10.3
18 -14 1 15.9 10.3
4 -18 1 -1.8 9.3
-18 4 -1 15.8 11.2
-4 18 1 17.9 15.1
-14 18 -1 0.2 10.8
18 -4 -1 15.5 16.8
-14 -4 1 19.1 11.1
-15 18 1 49.9 12.7
-3 -15 1 85.29 12.9
-3 18 -1 95.49 13.8
3 -18 -1 89.29 13
-3 18 -1 81.39 17.5
3 15 1 68.99 17.3
3 15 1 68.99 14.5
18 -15 -1 73.19 11.9
3 -18 -1 92.99 15.1
15 -18 1 123.59 13.8
15 3 -1 53.29 21.9
-3 18 1 117.89 15.2
18 -15 1 114.99 13.5
-3 18 1 64.19 16.1
3 15 -1 100.29 19.4
18 -3 -1 138.09 23.2
15 -18 -1 100.29 13.1
-3 -15 -1 109.89 13.5
15 3 1 96.99 22.7
3 -18 1 107.99 13.1
3 15 -1 73.39 15
18 -16 -1 12.8 10.3
-16 18 1 0 9.7
16 2 -1 16.7 21.3
2 16 1 23.1 14.7
2 -18 -1 19.2 11.3
-2 18 -1 15.9 15.1
2 16 1 17.3 12.1
-2 18 -1 37.8 14
-2 -16 1 24.7 11.3
2 -18 -1 24.6 13.7
16 -18 1 22.9 11.3
2 16 -1 6.7 13.4
2 -18 1 13.3 10.6
18 -2 -1 34.3 22.4
16 -18 -1 24.3 10.6
-16 18 -1 7.6 10
-2 18 1 20.4 13.1
-2 18 1 17.9 14.6
2 16 -1 8 15.3
16 2 1 13.9 20.9
-2 -16 -1 16.8 11
18 -16 1 3 10.6
-1 -17 1 21 10.9
-1 18 -1 15.4 15.3
18 -17 -1 6.2 9.9
1 17 1 24.8 13
1 17 1 15.6 14.4
1 -18 -1 30.8 11.4
18 -1 1 -7.6 22.4
-1 18 -1 14.1 11.8
17 -18 1 16.1 10.8
1 -18 -1 14.7 11.3
17 1 -1 38.2 20.9
18 -1 -1 2.4 20.5
-1 18 1 19.6 14.7
-1 18 1 17.3 12.8
1 17 -1 11.8 11.9
18 -17 1 23.9 10.8
1 -18 1 12.9 10.8
-1 -17 -1 7.1 10.9
17 1 1 34.1 20.3
17 -18 -1 7.2 10.1
1 17 -1 9.7 15.4
0 18 1 107.29 14.5
18 -18 1 104.49 12.9
18 0 -1 69.89 21.3
18 0 1 94.49 17.9
0 18 -1 93.49 13.9
0 -18 -1 92.79 13.3
0 -18 1 82.19 12.6
18 -18 -1 83.39 12.2
-10 -9 -1 12.4 9.8
-9 -10 1 13 9.6
-10 19 1 10 12.2
19 -9 1 15.3 9.7
19 -10 -1 5.8 9
10 -19 1 5.8 10.1
-19 10 -1 1.8 10.7
9 -19 -1 18.9 10.8
-19 9 1 4.2 11.1
-9 19 -1 10 10.8
19 -9 -1 11.6 9.2
-9 -10 -1 18 9.9
-19 9 -1 13.1 11.1
10 -19 -1 13.6 10.1
-10 19 -1 16.3 11.1
-9 19 1 6.6 11.7
9 -19 1 21.8 9.9
-19 10 1 23.2 12.2
-10 -9 1 24.1 10
19 -10 1 21.9 9.8
-8 19 -1 37.7 11.1
-11 19 1 45.4 13.1
-8 -11 1 70.89 11.3
11 -19 1 82.29 12
-19 11 -1 41.2 12.2
-11 -8 -1 71.09 11.6
-19 8 1 60.69 13.9
19 -11 -1 68.79 11.2
8 -19 -1 64.69 11.9
19 -8 1 83.99 11.9
19 -8 -1 58.29 10.7
-19 8 -1 47.3 13.3
8 -19 1 69.49 11.9
-11 -8 1 58.79 10.9
-11 19 -1 51.99 12.7
-19 11 1 38.6 12.2
19 -11 1 48.8 10.9
-8 -11 -1 58.89 11.2
11 -19 -1 67.89 11.6
-8 19 1 40.5 12.7
-19 12 -1 32.3 12
-12 19 1 42.7 12.6
12 -19 1 79.49 12
-12 -7 -1 59.39 11.9
19 -12 -1 51.09 10.7
19 -7 1 66.69 11.6
-19 7 1 56.59 13.7
-7 -12 1 56.49 10.9
7 -19 -1 65.89 11.8
19 -7 -1 40.9 10.4
-12 -7 1 45.6 11.1
7 12 -1 26.9 12.7
7 -19 1 67.19 11.8
-12 19 -1 33.1 11.2
12 -19 -1 50.79 11.1
-7 -12 -1 55.39 10.9
-19 7 -1 37.4 13
-19 12 1 46.5 13
19 -12 1 42.8 10.8
7 12 -1 0.1 17.1
-6 -13 1 8.2 9.6
-6 19 -1 11.4 11.4
13 -19 1 24.4 10.6
-13 -6 -1 22 11.5
6 13 1 -1.8 13.9
-19 6 1 15 11.8
-19 13 -1 21.8 11.6
6 -19 -1 20.1 10.2
-13 19 1 5.7 11.9
6 13 1 -2.2 12.5
19 -13 -1 20.1 9.6
6 13 -1 -1.9 14
-6 -13 -1 9.8 9.6
-19 6 -1 9.4 11.3
6 -19 1 15.2 9.9
-19 13 1 13.3 11.8
6 13 -1 -1.4 13.4
-13 -6 1 6.2 10.8
-6 19 1 5.2 11.8
-6 19 1 -3.3 13.4
13 -19 -1 12.8 10.1
19 -13 1 7.6 9.8
-13 19 -1 7.3 11
14 -19 1 7.2 10.3
-19 5 1 8.6 11.2
-5 -14 1 11.4 9.8
-19 14 -1 6.8 9.3
19 -14 -1 7 9.5
-5 19 -1 -5.3 14
5 14 1 -3.5 12
14 5 -1 17.1 20.8
-14 19 1 2.9 11.5
5 -19 -1 1 9.5
-5 19 -1 13.2 12.2
5 -19 -1 14.3 10.3
-14 -5 -1 11.2 10.9
5 14 1 4.2 13.2
19 -14 1 -2.8 9.7
5 14 -1 4.7 14.5
5 14 -1 -7.5 13.1
14 -19 -1 6 10.1
-19 5 -1 14.6 10.8
-14 -5 1 17.4 10.8
19 -5 -1 2.4 15
-14 19 -1 11.5 10.6
-5 19 1 -1.5 12.9
-19 14 1 8.8 9.7
-5 19 1 1.1 11.5
5 -19 1 1.9 9.2
-5 -14 -1 14.3 10
15 4 -1 2.7 19.8
4 15 1 9.5 12.3
-4 19 -1 17.7 13.2
19 -15 -1 16.4 10.1
15 -19 1 14.8 10.4
-4 -15 1 8.9 10
4 15 1 3.6 13.7
-4 19 -1 -3.4 13.6
4 -19 -1 7.3 11.2
-15 19 1 7.5 11
4 -19 -1 12.8 10.6
19 -15 1 3.3 10
4 15 -1 15.2 14.9
-4 19 1 6.8 11.5
-15 19 -1 16 10.4
-4 -15 -1 18.5 10.4
4 15 -1 8 13
-4 19 1 1.4 13.8
4 -19 1 7.6 9.7
19 -4 -1 3.3 19
15 -19 -1 4.9 10.1
15 4 1 14.4 20.8
3 -19 -1 79.99 12.9
16 3 -1 45.5 20.6
16 -19 1 89.99 12.7
3 16 1 36.4 12.6
19 -16 -1 58.49 11.1
-3 19 -1 91.39 14.7
-3 -16 1 85.69 12.6
3 -19 -1 63.09 14.4
16 3 1 78.49 22.4
3 -19 1 96.99 12.9
19 -16 1 98.69 12.9
16 -19 -1 67.89 11.5
19 -3 -1 106.59 21.6
-3 -16 -1 92.89 12.9
-3 19 1 120.99 15.4
3 16 -1 56.69 14.1
17 -19 1 28.1 10.7
2 -19 -1 25.5 11.3
2 17 1 22.7 12.4
2 17 1 -5 12
-2 -17 1 19.7 10.6
-2 19 -1 0.3 13.5
19 -17 -1 24 10
17 2 -1 21.6 20.2
2 -19 -1 26.4 11.2
-2 19 -1 25.8 12.1
-2 19 1 -4.2 12.1
-2 -17 -1 23 10.9
19 -2 -1 9.7 19.5
17 -19 -1 16.8 9.6
2 17 -1 0.4 12.6
2 -19 1 15.9 10.4
-2 19 1 23.9 11.2
19 -17 1 20.2 10.4
17 2 1 14.1 20.1
2 17 -1 10.6 12.2
18 1 -1 -6.6 18.4
18 -19 1 3.4 9.7
-1 19 -1 8 11.6
1 -19 -1 7.6 10.6
19 -18 -1 2.1 9
-1 -18 1 -0.6 9.9
1 18 1 2.4 10.2
18 1 1 -1.8 18.2
19 -1 -1 -10.1 18.9
19 -18 1 -8 9.6
1 -19 1 0.4 10
18 -19 -1 8.5 8.8
-1 19 1 7.4 10.4
-1 -18 -1 11.4 10.4
1 18 -1 7.1 12
19 0 -1 0.7 18
0 19 -1 6.8 10.8
19 -19 -1 20.6 8.9
19 0 1 -0.1 13.9
0 -19 1 19.1 9.8
0 19 1 16.7 11.1
0 -19 -1 18.8 10
19 -19 1 14.1 9.6
10 -20 1 14.5 9.8
20 -10 -1 18.8 9
-10 -10 1 20.4 9.7
-10 -10 -1 31.5 10.4
-20 10 -1 11.6 11.3
-10 20 -1 4.4 10
-10 20 1 3.2 11.4
20 -10 1 13.7 9.7
10 -20 -1 21.3 10.4
-20 10 1 18.3 11.3
20 -11 -1 7.6 9.6
-11 -9 -1 -0.7 10
-11 20 1 7.5 11.4
-9 -11 1 -0.3 9.1
11 -20 1 4.7 9.6
-20 11 -1 9.7 11.2
9 -20 -1 -1.3 10.2
20 -9 1 5.9 9.3
-9 20 -1 -2.5 12.3
-20 9 1 14.4 11.2
-9 -11 -1 12.9 9.9
11 -20 -1 4.4 9.9
20 -11 1 7.7 9.9
-11 -9 1 10.4 9.7
-9 20 1 -3.5 9.3
-11 20 -1 0.8 10.3
-20 9 -1 15.7 10.5
-20 11 1 13.5 10.9
9 -20 1 -0.3 10.1
20 -9 -1 1.6 8.6
-20 12 -1 15.2 10.5
-8 -12 1 20.9 9.4
-12 20 1 22.9 12.2
-20 8 1 11.3 10.6
-12 -8 -1 33.7 11.4
20 -8 1 32 10
8 -20 -1 30.6 10.4
12 -20 1 29.6 10.2
20 -12 -1 25.2 9.7
20 -8 -1 22.2 9.4
12 -20 -1 41.9 10.5
-8 -12 -1 41.5 10.5
20 -12 1 39 10.5
-20 8 -1 19.2 10.9
-12 -8 1 45.2 11.2
-12 20 -1 19 11.1
-20 12 1 21.9 11.3
8 12 -1 -6.1 8.8
8 -20 1 24.7 10.3
20 -7 1 33.8 10.1
-7 20 -1 9.5 9.5
13 -20 1 28.6 10.4
-7 -13 1 32.9 9.9
20 -13 -1 12.4 9.4
-20 7 1 6.1 9.8
-13 -7 -1 29.6 11.5
7 -20 -1 24.5 9.7
7 13 1 15.6 12.4
-13 20 1 10.7 11.7
-20 13 -1 13.8 9.4
-7 -13 -1 32.9 10
7 -20 1 22.6 9.8
20 -7 -1 15.3 8.9
-7 20 1 16.8 10.6
-20 7 -1 12.7 9.9
-20 13 1 13.9 9.7
-13 -7 1 27.1 11.2
7 13 -1 2 12.6
-13 20 -1 19.2 11.2
13 -20 -1 18.8 10
20 -13 1 30.7 10.2
6 -20 -1 27 10
-6 -14 1 29.1 9.8
14 -20 1 19.3 10
6 14 1 21.3 11.9
-6 20 -1 22.5 11.7
-14 20 1 12.4 11
20 -14 -1 24.9 9.7
14 6 -1 -0.5 19.9
-6 -14 -1 14.6 9.6
-14 -6 1 18.6 10.7
6 14 -1 9.1 13.2
20 -6 -1 6.6 8.7
-6 20 1 18.4 10.9
20 -14 1 21.1 10
6 -20 1 18.9 9.7
14 -20 -1 16.3 9.8
-14 20 -1 7.9 10.2
5 -20 -1 132.19 13.7
5 15 1 105.49 15.2
-5 -15 1 106.59 12.6
20 -15 -1 90.99 12.2
15 5 -1 46.6 21
15 -20 1 114.19 15
-5 20 -1 85.49 13.2
20 -15 1 107.09 14.6
5 -20 1 139.69 13.6
15 5 1 71.19 21.7
-5 20 1 106.69 14.2
-5 -15 -1 131.69 13.5
15 -20 -1 110.29 12.5
5 15 -1 99.89 15.1
16 4 -1 20.6 19.3
4 16 1 31.5 12.4
-4 20 -1 34.4 12.2
20 -16 -1 33.7 10
4 -20 -1 17.9 9.9
-4 -16 1 32.1 10.1
4 -20 -1 29.1 11.2
16 -20 1 44.4 10.3
-4 -16 -1 38.5 10.7
16 -20 -1 27.1 9.4
20 -4 -1 30.8 15.7
4 -20 1 32.2 10.4
4 16 -1 35.2 13.2
20 -16 1 39.5 10.6
16 4 1 23.5 20.5
-4 20 1 34.3 11.6
3 -20 -1 -2.1 10.2
20 -17 -1 7.7 9.3
3 17 1 -5.3 11.2
3 -20 -1 -7.9 10.1
-3 -17 1 9 9.6
17 3 -1 -3 18.7
-3 20 -1 5.8 10.7
17 -20 1 11 9.4
17 -20 -1 2.6 8.5
20 -17 1 5 9.6
-3 -17 -1 0.8 9.4
3 -20 1 -8.1 9.4
-3 20 1 9.6 10.4
3 17 -1 4.3 11.5
17 3 1 -0.4 18.7
20 -3 -1 17.5 16.3
20 -18 -1 47.6 10.1
2 -20 -1 59.59 11.6
18 -20 1 73.99 11
2 18 1 58.09 11.5
-2 -18 1 74.39 11.2
-2 20 -1 79.39 12.2
18 2 -1 42.2 18.5
2 18 -1 35.5 11.2
2 -20 1 54.89 10.8
18 2 1 51.79 18.5
-2 20 1 70.89 11.8
-2 -18 -1 53.89 10.5
20 -2 -1 61.89 18
18 -20 -1 26.9 9
20 -18 1 70.59 10.8
1 -20 -1 15.2 9.8
1 19 1 13.6 9.4
19 -20 1 15.8 8.5
20 -19 -1 9.9 8.1
-1 20 -1 17.7 10
-1 -19 1 17.2 9.1
19 1 -1 10.6 17.1
1 -20 1 18 9.2
19 -20 -1 3 7.9
-1 -19 -1 12.4 9.3
19 1 1 3.4 12.9
1 19 -1 1.8 9.9
20 -19 1 15.8 8.8
20 -1 -1 11.6 16.3
-1 20 1 23.2 10
20 -20 -1 6.7 7.4
0 20 1 3.1 9.2
20 -20 1 17.3 8.2
0 -20 -1 1.3 8.1
20 0 -1 11.1 15.6
0 20 -1 5.1 8.7
0 -20 1 2.8 8.4
-11 -10 -1 11.6 10.2
21 -11 -1 10.3 9.1
11 -21 1 11.6 9.8
-21 10 1 8.6 9
-21 11 -1 8.8 8.9
21 -10 1 15.6 9.6
-10 -11 1 4.2 9.3
10 -21 -1 5.9 9.8
-21 10 -1 9.7 8.8
21 -10 -1 5.6 8.9
11 -21 -1 13.3 9.9
-11 -10 1 5.4 9.8
10 -21 1 4.3 9.5
21 -11 1 15.1 9.8
-21 11 1 4.6 8.7
-10 -11 -1 3.4 9.3
9 -21 -1 80.49 10.9
-12 -9 -1 74.19 12.5
-9 -12 1 37.9 10.2
21 -9 1 61.09 10.4
21 -12 -1 50.99 10.1
-21 9 1 9.9 17.1
12 -21 1 52.29 10.3
-9 -12 -1 49.2 10.3
9 -21 1 61.69 10.4
-12 -9 1 46.4 11.4
-21 9 -1 11.2 13
12 -21 -1 46 10.6
21 -9 -1 32.6 9.2
21 -12 1 42.5 10.1
-8 -13 1 15.9 9.5
21 -13 -1 8.5 9
8 -21 -1 27.9 9.4
-13 21 1 -4.1 13.8
13 -21 1 17.8 9.5
-13 -8 -1 16.1 10.8
13 8 -1 13.4 22.6
21 -8 1 29.1 9.4
8 13 1 -4.7 9.4
-8 -13 -1 19.3 9.7
-8 21 1 -7.4 7.6
13 -21 -1 7.5 9.1
21 -8 -1 12.4 8.3
-13 -8 1 9.6 10.6
8 13 -1 8.5 9.3
8 -21 1 30.6 9.5
21 -13 1 17.6 9.5
7 14 1 8.6 10.9
21 -7 1 16.3 8.9
7 -21 -1 21.4 9.3
21 -14 -1 21.8 9.1
-7 -14 1 28.1 9.6
14 -21 1 30 9.7
-7 21 -1 23.9 9.4
14 7 -1 23.8 20
21 -14 1 19.5 9.4
-7 21 1 11 10.2
-7 -14 -1 18.5 9.1
7 -21 1 24.5 9
14 -21 -1 27.7 9.2
7 14 -1 6.9 11.7
21 -7 -1 7.1 8.2
14 7 1 24.3 21
15 6 -1 -0.5 18.6
-6 21 -1 8.6 10
6 -21 -1 14.7 9.9
-6 -15 1 10.5 8.9
21 -15 -1 9.1 9
21 -6 1 15.7 8.7
6 15 1 1.1 10.9
15 -21 1 3.6 9.1
21 -15 1 6.8 9
21 -6 -1 16.8 8.1
15 6 1 23.4 18.8
15 -21 -1 14 8.7
6 15 -1 1.5 11.7
6 -21 1 13.4 9.4
-6 21 1 28.8 10.6
-6 -15 -1 3.3 8.8
16 5 -1 19 18.3
5 16 1 4.3 10.2
-5 -16 1 13 8.8
21 -16 -1 4 8.9
5 -21 -1 1.3 10
21 -5 1 8.1 8.4
-5 21 -1 20.8 10.6
16 -21 1 14.7 8.9
5 -21 -1 11.2 10.1
21 -16 1 10.7 9.2
16 -21 -1 10.6 8.1
16 5 1 -10.9 17.7
-5 -16 -1 4.4 8.7
5 16 -1 -0.9 11
-5 21 1 9.3 10.2
21 -5 -1 9.5 7.7
5 -21 1 17.1 9.7
17 -21 1 35.2 9.1
4 -21 -1 28.9 10.3
17 4 -1 2.5 17.3
-4 21 -1 42.3 10.9
4 17 1 19.2 10
-4 -17 1 29.1 9.1
21 -17 -1 20.5 9
4 -21 -1 2.3 7.5
4 17 -1 11.6 10.6
17 -21 -1 22.7 8.1
17 4 1 14.1 17.9
21 -17 1 23.1 9.4
-4 21 1 24.2 10.6
-4 -17 -1 16.7 9
4 -21 1 26.2 9.8
21 -4 -1 -3.1 11.5
18 3 -1 4.8 16.3
3 -21 -1 16.5 9.7
18 -21 1 15.1 8.4
-3 -18 1 16.9 8.5
-3 21 -1 16.2 9.6
21 -18 -1 14.3 8.2
3 18 1 -3 9.5
-3 -18 -1 22.9 8.9
21 -18 1 19.6 9
-3 21 1 16.6 10.3
18 -21 -1 18.7 7.6
3 18 -1 27.4 10
18 3 1 11.8 16.3
3 -21 1 19.5 9.5
21 -3 -1 10.2 11.2
19 -21 1 4.1 7.9
19 2 -1 18.3 15.7
2 -21 -1 6.7 9
21 -19 -1 3.8 7.5
2 19 1 7.3 9
-2 21 -1 4.2 9
-2 -19 1 -0.4 8
-2 21 1 7.4 9.4
-2 -19 -1 -0.6 7.9
21 -19 1 14 8.2
19 -21 -1 3.3 7.1
2 19 -1 5.6 9.4
21 -2 -1 -0.6 11
2 -21 1 0.5 8.1
19 2 1 -1.2 12.4
-1 -20 1 0.3 7.7
21 -20 -1 5.5 7
20 -21 1 8.2 7.6
20 1 -1 1.2 14.2
1 20 1 0.6 8.5
-1 21 -1 14.4 9.1
1 -21 -1 6.1 8.1
21 -20 1 12.8 7.5
-1 -20 -1 4.5 7.7
21 -1 -1 8.1 10
-1 21 1 10.9 8.9
20 -21 -1 4.4 6.9
1 -21 1 5.7 8.1
1 20 -1 7.5 8.6
0 -21 1 7.8 7.8
21 0 -1 1.7 12.9
0 -21 -1 13.1 8
21 -21 1 14 7.6
0 21 -1 12.3 9.3
0 21 1 13.2 8.2
21 -21 -1 -1.1 5
11 -22 -1 34.7 9.2
11 -22 1 25.2 9.3
22 -11 -1 30.7 8.6
22 -11 1 32.7 9.5
-11 -11 1 25.1 10
-11 -11 -1 39.2 10.3
-10 -12 1 5 9.2
12 -22 1 10.6 8.9
-12 -10 -1 13.1 9.9
10 -22 -1 15.2 8.3
22 -12 -1 3.2 8.1
22 -10 1 8.1 8.9
22 -10 -1 13.1 8.2
22 -12 1 -5.5 8.5
12 -22 -1 2.1 8.8
-12 -10 1 10.4 10.2
10 -22 1 11.3 8.4
-10 -12 -1 -1.9 8.9
13 -22 1 53.99 10.1
9 -22 -1 38 9.2
-9 -13 1 39.1 9.7
-13 -9 -1 44.8 10.6
13 9 -1 -2.6 17.8
22 -9 1 44.5 9.3
22 -13 -1 31.2 9
9 -22 1 32.7 8.8
22 -13 1 32.5 9.1
-9 -13 -1 38.4 9.6
13 -22 -1 32.2 9.2
-13 -9 1 40.4 10.6
22 -9 -1 30.3 8.5
14 8 -1 7.7 17.8
22 -8 1 4.9 8.1
22 -14 -1 8.2 8.2
-8 -14 1 -3.8 8.5
8 -22 -1 2.1 8.4
14 -22 1 5.6 8.4
14 -22 -1 4.7 8.3
-8 -14 -1 5.4 8.8
14 8 1 -7.5 18.6
8 14 -1 1.1 8.2
-8 22 1 -2.8 8.2
22 -14 1 -8.1 8.4
22 -8 -1 5.8 7.4
8 -22 1 4.4 7.9
-7 22 -1 1.8 7.6
22 -7 1 17.1 8.1
-7 -15 1 16.2 8.8
22 -15 -1 13.3 8.5
7 -22 -1 23.5 9.5
15 7 -1 -8.8 17.3
7 15 1 14.7 9.7
15 -22 1 9.7 8.3
22 -7 -1 14.7 7.3
-7 22 1 4 8.7
7 -22 1 15.6 8.8
15 -22 -1 15.9 8
15 7 1 -10.1 17.3
7 15 -1 9.9 10.3
-7 -15 -1 19.4 8.8
22 -15 1 18.3 8.6
22 -16 -1 14.1 8.4
-6 -16 1 11.7 7.9
6 -22 -1 23.9 9.7
16 -22 1 23 8.3
16 6 -1 10.2 17.2
-6 22 -1 20.3 9.4
22 -6 1 22.3 8
6 16 1 16.3 9.8
22 -16 1 25.7 8.8
22 -6 -1 14.2 7.1
16 -22 -1 16.6 7.3
-6 22 1 31.3 9.2
6 16 -1 12.7 10
6 -22 1 29 9.4
16 6 1 8.6 17.2
-6 -16 -1 17.3 8.7
22 -17 -1 4.3 7.8
-5 -17 1 11.7 8
17 -22 1 11.5 7.8
17 5 -1 -3.9 15.7
5 17 1 10.6 8.8
5 -22 -1 3.1 8.5
-5 22 -1 -0.5 8.6
22 -5 1 8.7 7.7
17 5 1 -2.9 15.6
-5 -17 -1 16.9 8
-5 22 1 16.2 9.2
22 -17 1 8.2 8.3
5 -22 1 12.7 8.7
22 -5 -1 7 6.5
5 17 -1 8.6 9.6
17 -22 -1 1.7 6.9
-4 -18 1 14.7 7.8
22 -4 1 1.4 7.2
4 -22 -1 14.9 8.9
-4 22 -1 5 8.4
22 -18 -1 12.1 7.5
18 -22 1 12.5 7.5
18 4 -1 6.5 15.4
4 18 1 11 8.5
22 -4 -1 10.8 6.5
4 -22 1 12.9 8.7
-4 22 1 12.1 9.2
-4 -18 -1 8.3 7.7
18 4 1 2.8 15.2
4 18 -1 9.4 9.1
18 -22 -1 10.1 7
22 -18 1 15.7 7.9
-3 22 -1 9.8 9
-3 -19 1 1.1 7.3
19 3 -1 -2 14.1
22 -19 -1 7.5 6.7
3 -22 -1 7.7 8.7
19 -22 1 8.7 7.2
3 19 1 7.7 8.5
22 -3 1 9.2 7.1
19 3 1 -0.2 15.7
3 -22 1 4.5 8.2
3 19 -1 7.6 8.7
-3 22 1 2.9 8.9
-3 -19 -1 3 7.3
19 -22 -1 1.7 6.6
22 -3 -1 3.7 6.3
22 -19 1 5.8 7.8
2 20 1 7.2 8.5
2 -22 -1 7.6 8.3
22 -20 -1 -3.8 7.6
-2 22 -1 14.1 9.4
22 -2 1 3.7 7
20 -22 1 6.7 7.3
20 2 -1 8.5 12.2
-2 -20 1 5.1 7.7
2 20 -1 11.6 8.8
-2 -20 -1 7 7.6
22 -20 1 9.5 7.7
-2 22 1 19.4 9.3
20 -22 -1 0.6 5.1
22 -2 -1 7.2 5.9
2 -22 1 14.2 7.8
1 -22 -1 7.9 9
-1 -21 1 1.4 7.9
-1 22 -1 10.1 9.6
1 21 1 4.2 9.6
21 -22 1 1.9 7.5
22 -1 1 4.5 7.6
1 -22 1 0.2 8.6
-1 22 1 19.1 10.2
1 21 -1 10.4 10.1
22 -21 1 1 7.9
22 -1 -1 2.9 5.6
-1 -21 -1 3.1 8.2
12 -23 1 21.8 8
12 11 -1 -4.1 17.9
-11 -12 1 9.7 9.3
11 -23 -1 20.8 7.8
23 -12 -1 23.4 7.7
23 -11 1 12.6 8.1
-12 -11 -1 26.8 9.3
-11 -12 -1 12.5 9.2
-12 -11 1 16.1 9.4
12 -23 -1 16.7 7.6
23 -12 1 27.1 8.3
23 -11 -1 16 7.5
11 -23 1 13.4 7.6
13 -23 1 50.89 8.8
13 10 -1 12.7 16.9
23 -10 1 31.7 8.5
-13 -10 -1 36.8 9.4
10 -23 -1 45.1 8.6
-10 -13 1 33.6 9
23 -13 -1 32.9 8.1
13 -23 -1 21.5 8
-10 -13 -1 31.2 9.2
23 -10 -1 26.1 7.8
10 -23 1 41.3 8.2
13 10 1 17.5 18.5
23 -13 1 37.2 8.3
-13 -10 1 24.5 9.4
-9 -14 1 5.2 8.1
23 -9 1 0.5 7.8
14 9 -1 5.3 16.9
23 -14 -1 10.5 7.5
9 -23 -1 16.3 8
14 -23 1 12.5 8.1
23 -9 -1 6.9 7.1
14 -23 -1 10.5 7.5
23 -14 1 5.4 7.6
9 -23 1 8.4 7.7
-9 -14 -1 0.9 8.3
14 9 1 -2.5 16.3
-8 -15 1 17 8
15 8 -1 19.4 16.2
23 -8 1 23.2 7.6
23 -15 -1 25.2 7.9
15 -23 1 18.7 8.1
8 -23 -1 30.1 8.8
15 8 1 2.5 16.7
8 -23 1 33.4 8.7
-8 -15 -1 34.9 8.7
23 -15 1 33.5 8.6
23 -8 -1 24.3 7.3
15 -23 -1 24.4 7.3
16 7 -1 -0.3 15.1
23 -7 1 2.2 7
7 -23 -1 13.3 8.7
7 16 1 -3.9 7.9
-7 -16 1 8.8 7.8
23 -16 -1 14.8 7.4
16 -23 1 2.1 7.3
16 -23 -1 6.2 6.9
-7 23 1 0.4 6.1
7 -23 1 7.2 8.5
16 7 1 17.6 15.8
23 -16 1 3.9 8
-7 -16 -1 4.6 7.8
23 -7 -1 -1.3 6.2
7 16 -1 2.1 8
23 -17 -1 8.7 6.6
23 -6 1 26.5 7.3
17 -23 1 22.1 7.3
-6 23 -1 6.8 6.5
17 6 -1 -4.2 14.6
6 -23 -1 21.5 8.9
6 17 1 16.2 7.8
-6 -17 1 23 7.5
6 17 -1 15.5 8.3
23 -17 1 23 7.9
6 -23 1 15.2 8.4
17 6 1 6 14.9
-6 23 1 9.6 8.4
17 -23 -1 21.7 7.3
23 -6 -1 16.8 6.4
-6 -17 -1 21 8
5 18 1 7 8
18 5 -1 5.9 14.5
-5 23 -1 5.1 8.2
18 -23 1 18.4 7.3
5 -23 -1 15.5 8.8
23 -18 -1 -0.5 5.4
-5 -18 1 1 7.2
23 -5 1 5.1 6.9
5 -23 1 11.6 8.5
5 18 -1 7.5 8.3
23 -5 -1 2.7 5.8
-5 -18 -1 8.7 8
18 5 1 -8.4 11.9
-5 23 1 8.8 8.9
23 -18 1 4.4 8
18 -23 -1 10.1 6.5
-4 23 -1 13.4 8.9
-4 -19 1 6.1 7.6
23 -4 1 5.3 6.9
19 -23 1 9.2 7.3
4 19 1 13.8 8.2
19 4 -1 3.5 13.6
4 -23 -1 12.5 9
-4 23 1 11.2 8.6
4 19 -1 9.2 8.3
23 -19 1 10.7 7.5
-4 -19 -1 5.1 8.3
23 -4 -1 1.5 4.4
19 -23 -1 -0.8 7.2
4 -23 1 5 8.7
-3 -20 1 13.3 8.1
-3 23 -1 10.1 10.1
3 -23 -1 15.3 9.2
20 -23 1 17.5 7.7
23 -3 1 -0.3 7.7
20 3 -1 -1.4 10.5
3 20 1 6.9 9
-3 -20 -1 6.1 8.7
3 20 -1 4.2 9.2
-3 23 1 6.2 9.8
23 -20 1 3.4 7.9
3 -23 1 13.2 9.3
24 -12 1 34.3 7.7
24 -12 -1 18.4 6.1
12 12 -1 3.7 16.2
-12 -12 1 31.2 8.6
-12 -12 -1 46.9 9.1
12 12 1 15.1 17.1
12 -24 -1 28.4 7.6
12 -24 1 37.2 7.7
24 -11 1 8 7.3
13 11 -1 -12.4 15.8
24 -13 -1 6.5 5.6
13 -24 1 8 7
-11 -13 1 8.3 8.3
11 -24 -1 10.8 7.5
24 -11 -1 4.3 5.8
11 -24 1 10.9 7.3
11 13 -1 4.1 17
-11 -13 -1 2.3 8.4
13 11 1 -1.2 15.3
13 -24 -1 3 6.9
24 -13 1 -0.7 7.2
24 -14 -1 -0.5 5.1
-10 -14 1 5.3 8.2
24 -10 1 10 7.1
10 -24 -1 14.5 8.1
14 10 -1 6.5 15.8
14 -24 1 15.6 7.2
24 -14 1 12.3 7.5
24 -10 -1 6.7 5.6
14 10 1 -2 15.5
-10 -14 -1 7.2 8.5
14 -24 -1 4.6 6.7
10 -24 1 9.2 7.9
10 14 -1 24 19.3
9 -24 -1 13 8.3
24 -9 1 22.2 7.8
15 -24 1 28.3 7.9
24 -15 -1 -0.7 6.3
-9 -15 1 9.2 8.1
15 9 -1 8.8 15
9 -24 1 24.4 8.6
15 -24 -1 17.1 6.8
24 -15 1 24.3 7.8
24 -9 -1 3.9 4.9
15 9 1 2.2 14.7
-9 -15 -1 22.7 8.9
24 -8 1 4.6 7.3
-8 -16 1 0.5 7.6
8 -24 -1 8.6 8.6
16 -24 1 3 7.5
16 8 -1 0.1 15.3
-8 -16 -1 -0.9 8.3
8 -24 1 3.7 8.3
16 8 1 -7.4 14.8
16 -24 -1 4.8 6
24 -8 -1 -1.3 5
24 -16 1 7.1 8
17 -24 1 21 8
24 -7 1 18.5 7.6
17 7 -1 -2.8 14.5
-7 -17 1 9.5 8
7 -24 -1 16.4 8.7
24 -17 1 15.5 8
-7 -17 -1 16.8 8.7
17 -24 -1 -0.6 5.3
7 -24 1 17.3 9.1
17 7 1 1 13.1
18 6 -1 2.9 15.6
18 -24 1 9.8 8.2
24 -6 1 1.3 7.9
-6 -18 1 6.4 8.5
6 -24 -1 11.4 9.2
-6 -18 -1 2.8 9
6 -24 1 -4 9.2
24 -18 1 -1.8 8.1
25 -12 1 4.5 7.6
12 13 1 -9.7 18.3
13 -25 1 -0.9 8.1
13 12 -1 15.2 19
12 -25 -1 0.4 5.2
13 -25 -1 -0.2 5
12 13 -1 1.9 18.5
12 -25 1 2.1 8.4
25 -13 1 7.5 7.9
13 12 1 8.6 18.1
11 -25 -1 0.9 5.3
-11 -14 1 6.4 9.1
11 14 1 9.3 18.3
14 11 -1 -5.9 18.4
25 -11 1 7.2 7.7
14 -25 1 13.9 8.1
25 -14 1 3.7 8
11 14 -1 11.2 18
-11 -14 -1 5.1 9.8
11 -25 1 10.7 9.2
14 11 1 -2.2 16.8
10 15 1 15 20
15 10 -1 -12.1 18.2
15 10 1 5.3 16.7
10 15 -1 4.2 19.1
0 0 -2 -0.1 1.8
0 0 -2 0.1 4
0 0 -2 -0.5 4.3
0 0 2 -0.4 4.7
0 0 2 -4.4 5.1
1 -1 2 838.62 46.5
-1 0 2 844.82 46.1
-1 0 -2 956.7 46.3
0 -1 2 869.01 44.9
-1 1 2 829.52 45.4
0 -1 -2 915.21 46.1
1 -1 -2 889.21 44.3
-1 1 2 929.91 44.4
1 0 -2 952 46.1
0 1 2 898.91 44.6
0 1 -2 939.31 46.1
0 1 2 787.42 46.1
0 -1 -2 942.11 44.6
1 0 -2 911.21 44.5
1 0 2 906.31 45.3
-1 1 -2 895.61 45.2
1 0 2 818.82 46.2
1 0 -2 957.2 46.4
0 1 -2 930.81 45.1
-1 1 -2 922.41 46.4
0 -1 2 755.92 46.1
1 -1 2 867.31 45.3
1 -1 -2 912.71 46.2
-1 1 2 779.02 46.3
1 -1 -2 927.91 45.5
0 -1 2 810.82 46
0 1 -2 910.41 46.2
0 1 2 910.41 45.7
0 -1 -2 932.21 45.6
-2 1 -2 1234.28 60.59
1 -2 -2 1110.19 58.79
-1 2 -2 1218.68 59.49
-1 2 2 1202.48 58.89
1 1 2 1176.78 58.79
2 -1 -2 1073.99 58.69
1 -2 -2 1157.88 58.69
1 1 -2 1209.18 58.99
2 -1 2 1076.09 59.59
-1 2 2 1094.39 58.59
1 -2 -2 1197.58 59.99
-1 2 -2 1221.18 60.39
2 -1 -2 1175.28 60.39
2 -1 -2 1208.68 59.69
-1 -1 2 1144.49 58.89
2 -1 2 1171.08 60.89
1 1 -2 1190.48 60.19
-2 1 2 1060.59 59.69
1 -2 2 1084.89 59.49
-2 1 -2 1234.18 59.49
1 1 -2 1260.97 60.09
0 -2 -2 576.94 31.2
2 -2 -2 606.14 32.7
0 2 -2 621.64 32
-2 2 2 605.94 31.1
2 0 -2 591.04 32.6
0 2 -2 603.94 31.7
2 0 -2 631.24 32.8
0 2 2 610.74 31.7
-2 2 -2 593.54 32
0 2 -2 600.84 32.7
0 2 2 591.24 31.3
2 -2 2 568.04 32.9
-2 2 2 583.14 31.5
2 0 2 594.74 33.5
0 2 2 610.64 31.3
2 -2 -2 656.53 31.4
0 -2 2 537.15 31.6
2 -2 -2 589.94 31.4
-2 2 -2 586.34 32.9
0 -2 -2 633.64 32.3
2 0 -2 649.34 31
1 -3 -2 357.56 19.7
-1 3 2 527.95 28.1
-3 1 -2 524.95 28.7
2 1 2 500.55 28.8
-3 2 2 534.25 28.3
-2 3 -2 530.05 29.8
2 1 2 511.85 27.7
3 -1 -2 528.05 29.4
-2 3 -2 511.55 29.1
2 -3 -2 541.25 29.4
1 2 -2 526.35 30
1 2 -2 536.55 28.6
3 -2 2 533.25 30.7
-1 3 2 556.44 27
2 1 2 498.25 29.5
3 -1 -2 533.15 30.4
1 -3 2 524.45 29.2
1 2 -2 539.65 28.7
-1 3 2 517.65 26.9
3 0 2 1831.62 94.09
3 -3 -2 1822.42 93.99
3 0 2 1868.31 94.69
3 0 -2 1922.61 92.39
3 0 -2 1801.62 94.09
-3 3 -2 1895.21 94.39
-3 3 2 1571.14 92.09
0 3 2 1889.41 92.69
3 0 -2 1822.32 94.09
0 3 -2 1834.12 93.09
-3 3 2 1835.72 92.79
0 3 -2 1851.51 94.09
3 -3 -2 1795.32 92.19
0 3 2 1896.81 92.89
3 -3 2 1836.22 94.49
-3 3 -2 1910.61 93.69
2 -4 -2 1060.29 54.29
-4 2 -2 1039.2 54.39
4 -2 2 1002.9 55.79
2 2 -2 1033.7 53.99
-2 4 -2 986.5 54.39
2 2 2 1023.8 54.39
4 -2 -2 1018.6 55.79
2 2 -2 996.3 54.89
-2 4 -2 1012.9 54.59
2 2 2 1028.3 54.59
2 -4 2 1112.39 54.79
2 2 2 1038 53.49
-2 4 2 1085.09 54.09
-4 2 2 1031.3 53.79
2 2 -2 1053.69 53.79
4 -2 -2 1056.09 54.49
1 3 2 665.03 35.9
-3 4 2 671.43 35.7
3 1 -2 648.04 36.1
-4 3 -2 660.73 36
4 -1 2 667.03 37.9
4 -3 -2 663.03 35.4
1 3 2 646.64 35
3 -4 2 709.63 37
1 3 2 617.34 35.5
4 -1 2 661.03 37.1
-1 4 -2 632.24 36.2
-1 4 -2 654.13 35.9
4 -3 -2 665.63 37.8
3 1 -2 623.74 36.9
3 1 -2 667.73 35
1 -4 -2 653.93 35.2
-3 4 -2 636.14 34.6
1 3 -2 610.34 33.1
3 1 2 636.54 35
1 3 -2 609.04 33.6
1 -4 2 683.63 34
4 -1 -2 630.44 36.1
-1 4 2 565.44 31.8
1 3 -2 605.54 35.1
4 -3 2 602.54 35.5
4 -1 -2 623.34 35.2
-3 4 -2 633.84 35.2
-1 4 2 641.24 33.6
3 -4 -2 634.74 34.7
3 1 2 589.54 34.4
3 1 2 587.54 32.8
-4 3 2 630.04 33.6
-4 4 2 144.89 12.4
4 0 -2 150.58 15.2
0 4 -2 146.09 13.4
4 0 2 135.19 14.6
4 -4 2 160.08 15.6
4 0 -2 156.28 11
4 0 -2 147.69 14.6
0 4 2 124.19 11.2
-4 4 -2 155.38 13.3
4 0 2 158.08 15.1
0 4 2 156.28 11.8
0 4 -2 147.09 12.6
-4 4 -2 151.98 15.7
4 -4 -2 145.89 11.1
4 -4 -2 150.38 15.4
5 -3 -2 683.33 38
2 3 2 722.13 38
-5 3 -2 670.33 38.1
5 -2 2 695.23 39.2
-2 5 -2 674.13 38.3
-2 5 -2 678.43 38
3 -5 2 712.03 38.4
3 2 -2 681.43 37.3
5 -2 2 671.63 39.8
2 -5 -2 689.83 37
3 2 -2 661.53 39
-3 5 2 680.83 37.5
5 -3 -2 663.93 41
2 3 2 697.13 37.7
2 3 2 663.93 36.9
3 2 -2 689.23 36.9
2 3 -2 598.44 33
-3 5 -2 595.44 34.6
2 3 -2 589.04 33.9
3 2 2 585.74 34.8
3 2 2 602.74 32.9
2 -5 2 647.34 34
-5 3 2 612.44 33.8
5 -2 -2 628.04 35.1
-5 2 -2 617.34 34.3
-3 5 -2 596.54 34.3
5 -3 2 586.24 36.1
5 -2 -2 585.84 36.7
3 2 2 586.84 34.6
-2 5 2 634.74 34.1
2 3 -2 610.34 35.3
3 -5 -2 645.44 34.3
5 -1 2 431.16 27.9
1 4 2 458.05 26.4
1 4 2 426.26 26
4 1 -2 452.65 25.7
5 -4 -2 475.65 26.5
1 -5 -2 454.05 25.3
1 4 2 459.45 26.8
-5 4 -2 452.75 27.2
4 -5 2 477.85 28.5
4 1 -2 428.06 28.1
5 -4 -2 448.06 29.3
4 1 -2 444.86 27.8
-4 5 2 464.95 26.8
-1 5 -2 455.95 27.2
-1 5 -2 443.36 27.1
5 -1 2 470.45 30
4 1 2 347.07 21.2
-5 4 2 365.16 22.1
4 -5 -2 347.37 19.2
1 -5 2 392.26 21.8
-4 5 -2 374.06 24.2
-4 5 -2 376.06 23.7
4 1 2 359.96 24.2
5 -1 -2 378.46 26.5
1 4 -2 381.76 22.9
4 -5 -2 390.36 24.3
4 1 2 374.16 24.2
1 4 -2 353.66 20.6
-1 5 2 375.36 22.5
5 -4 2 373.56 25.8
-1 5 2 320.07 19.7
5 -1 -2 369.76 25
1 4 -2 358.16 23.4
0 5 -2 1637.64 85.19
5 0 -2 1639.14 86.79
5 0 2 1598.74 86.49
5 0 2 1634.14 87.09
5 -5 -2 1743.93 87.49
5 -5 -2 1572.24 83.69
5 -5 2 1635.84 86.99
-5 5 2 1645.14 84.99
5 0 -2 1671.13 84.09
0 5 2 1623.64 83.89
-5 5 -2 1648.34 85.59
5 0 -2 1640.74 86.79
0 -5 2 1667.23 83.59
0 5 -2 1628.64 85.69
0 5 2 1685.13 84.99
6 -3 -2 250.87 23
-6 3 -2 260.17 19
3 3 2 237.28 17.1
3 -6 2 263.27 18.9
6 -3 -2 250.97 20.3
6 -3 2 269.97 20.5
3 3 2 252.17 18.6
3 3 -2 256.17 17.7
-3 6 2 263.57 18.9
3 3 2 243.88 18.8
6 -3 2 260.97 23
3 3 -2 247.98 19.2
3 3 -2 254.87 17.2
-6 3 2 252.07 18.4
3 -6 -2 261.67 17.8
-3 6 -2 252.07 18.8
-3 6 -2 258.67 18.8
-6 4 -2 687.13 39.1
4 2 -2 697.33 37.6
2 -6 -2 674.73 36.8
4 2 -2 676.03 38.3
2 4 2 633.84 37.4
2 4 2 684.83 38.2
-2 6 -2 668.03 38.9
6 -4 -2 706.03 42.4
6 -4 -2 682.93 38.8
4 2 -2 678.43 39.8
6 -2 2 713.63 42.1
2 4 2 675.73 37.9
6 -2 2 691.93 40.4
-2 6 -2 667.93 38.7
4 -6 2 696.83 39.7
-4 6 2 695.43 38.6
2 -6 2 643.44 34.6
6 -4 2 618.44 36.3
-4 6 -2 624.14 36.2
2 4 -2 628.34 36.9
6 -2 -2 623.04 37.1
-2 6 2 617.64 35.4
4 2 2 661.93 36.8
-6 4 2 598.04 35.3
4 2 2 615.24 37
4 2 2 591.84 34.1
4 -6 -2 665.13 36.1
2 4 -2 627.64 35.5
2 4 -2 585.94 33.3
-4 6 -2 627.34 36.2
6 -4 2 628.84 39.1
6 -2 -2 601.24 39.1
6 -1 2 462.45 30
6 -5 -2 453.65 27.8
1 5 2 473.05 28.4
1 5 2 443.96 27.5
1 5 2 447.76 27
-6 5 -2 468.45 29
6 -1 2 464.15 32
-1 6 -2 485.85 29
5 -6 2 496.25 31.1
6 -5 -2 527.85 33.6
5 1 -2 473.95 31.2
5 1 -2 479.85 27.3
-1 6 -2 449.86 28.8
-5 6 2 436.86 27.8
5 1 -2 454.05 29.8
1 -6 2 413.76 23.2
-6 5 2 394.56 25.1
1 5 -2 424.76 25.8
6 -1 -2 428.46 23.9
5 1 2 417.06 27.9
-5 6 -2 405.56 27
-5 6 -2 406.86 25.8
-1 6 2 412.66 25.4
5 -6 -2 433.56 27.7
6 -1 -2 416.66 28.3
5 1 2 417.26 28.2
1 5 -2 409.96 27
6 -1 -2 402.46 29
5 -6 -2 364.36 22
-1 6 2 388.96 22.5
5 1 2 394.56 24
6 -5 2 428.86 29.9
0 6 -2 40.9 10.5
6 0 2 57.19 9.1
6 -6 -2 28.7 11.2
-6 6 2 40.9 10.1
6 0 -2 52.39 9
6 0 2 44.4 12.5
0 6 -2 52.89 10.7
-6 6 -2 48 10.8
6 -6 2 33.2 11.9
6 -6 -2 37.4 8.1
6 0 -2 43.8 12.6
0 6 2 36.3 6.9
6 0 2 41.5 11.8
0 6 2 30.1 7.5
6 0 -2 41.8 12.1
0 6 2 42.9 9.7
-3 7 -2 401.16 26.6
7 -4 -2 437.76 28.2
4 -7 2 393.26 27.3
3 -7 -2 398.76 24.5
3 4 2 399.46 26.2
4 3 -2 415.76 25.3
-3 7 -2 379.76 26.2
4 3 -2 420.26 25.4
7 -4 -2 437.56 32.3
7 -3 2 416.16 28.1
-7 4 -2 407.96 26.7
-4 7 2 415.56 26.2
3 4 2 436.66 26.8
3 4 2 389.06 25
7 -3 2 442.16 32.2
4 3 -2 399.76 27.6
-4 7 -2 424.66 27.6
3 4 -2 442.36 27
7 -4 2 442.16 29.1
7 -3 -2 443.46 34.3
-7 4 2 426.26 26.9
-4 7 -2 431.76 27.8
4 -7 -2 463.05 27.3
7 -4 2 433.26 31.4
4 3 2 420.06 28.1
-7 3 -2 414.16 27.4
3 4 -2 408.26 24.8
3 4 -2 410.46 27.9
-3 7 2 432.06 27.3
4 3 2 448.66 28.3
4 3 2 409.86 25.7
7 -3 -2 456.25 29.5
3 -7 2 410.96 26.5
7 -2 2 1040.6 58.09
7 -2 2 1085.69 60.89
2 -7 -2 981.4 53.89
2 5 2 1021.6 55.89
-7 5 -2 1074.39 57.09
-2 7 -2 1022.7 56.59
-5 7 2 1060.49 56.69
5 2 -2 1080.39 58.69
-2 7 -2 1037 56.69
5 2 -2 1052.69 55.49
2 5 2 1005 55.09
7 -5 -2 902.11 56.19
5 -7 2 1097.99 58.29
2 5 2 1011.8 55.69
7 -5 -2 1098.39 61.69
5 2 -2 1023 56.49
7 -5 2 959.7 52.09
5 2 2 848.62 51.19
5 -7 -2 1023.3 51.89
2 5 -2 756.42 47.1
5 2 2 951.7 52.69
7 -5 2 954.1 54.89
-7 5 2 940.41 50.49
5 2 2 894.31 49.2
-5 7 -2 915.31 50.99
7 -2 -2 977.2 52.99
2 5 -2 920.11 50.19
2 5 -2 902.71 51.29
7 -2 -2 893.91 54.79
-5 7 -2 905.51 50.79
-2 7 2 935.21 50.59
-6 7 2 47.6 10.7
6 -7 2 41.6 12.9
7 -6 -2 29.3 13.1
7 -1 2 41.1 14.3
-7 6 -2 42.2 11.6
1 6 2 37 9.5
1 6 2 35.5 9.3
6 1 -2 35.3 11
-1 7 -2 45.4 12
7 -6 -2 22.9 9.2
-1 7 -2 32.9 9.4
7 -1 2 47.8 13.8
-1 7 -2 45.1 11.8
6 1 -2 49.9 14.5
6 1 -2 36.5 9.2
7 -1 -2 21.3 8.2
-6 7 -2 8.9 6.8
6 -7 -2 14.3 10.6
7 -1 -2 21.6 13.8
-1 7 2 16.2 9.5
1 6 -2 13.5 9.7
-7 6 2 13.4 9.5
1 6 -2 21.2 11.3
7 -1 -2 3.9 13.2
-1 7 2 24.4 6.1
7 -6 2 13.1 12.5
6 1 2 18.8 12
1 6 -2 13 9.1
6 1 2 35.9 12.5
-6 7 -2 19 9.7
6 1 2 21 8.1
-7 7 2 90.19 13.9
7 0 2 101.39 17.7
0 7 2 82.09 13.5
7 0 -2 74.69 15.7
7 0 -2 80.89 12.1
7 0 -2 106.99 17.3
7 0 2 84.89 11.8
7 -7 -2 80.79 16.2
-7 7 -2 74.39 10.2
7 0 2 107.89 17.8
-7 7 -2 72.59 13
7 -7 2 76.79 15.7
0 7 -2 84.69 14.8
0 7 -2 94.89 14.3
0 7 2 100.89 13.1
0 7 -2 90.39 14.7
0 7 2 76.49 10.2
-4 8 -2 393.66 26.4
8 -4 2 402.46 31.2
4 4 -2 359.16 23.4
4 -8 -2 341.07 24
4 4 2 432.66 27.4
-4 8 -2 362.36 24.4
-8 4 -2 376.56 25.1
-8 4 -2 388.96 26.2
8 -4 -2 433.86 35.8
4 4 -2 387.36 27
-4 8 -2 395.36 25.8
8 -4 2 413.06 29.2
-8 4 2 330.77 23.3
4 4 2 317.97 26.3
8 -4 -2 419.06 29.1
4 4 2 363.36 24
-4 8 2 370.26 23.6
-4 8 2 377.86 25.7
4 4 -2 430.56 25.5
-8 5 -2 131.89 16.2
-5 8 2 137.99 16.6
5 3 -2 129.49 17.3
8 -5 -2 151.48 24.1
-8 5 -2 127.79 15.7
-8 3 2 115.59 13.4
8 -3 2 137.59 21.4
-3 8 -2 126.49 15.9
3 5 2 135.19 14.6
8 -5 -2 120.79 17.6
-3 8 -2 133.09 16
5 3 -2 135.09 14.4
-5 8 2 138.29 14.1
5 -8 2 101.19 17.6
8 -3 2 151.98 19.7
5 3 -2 141.69 14.7
3 5 2 153.18 16.1
5 -8 -2 138.29 17
8 -3 -2 173.38 27.5
3 5 -2 148.99 17.1
-5 8 -2 157.78 16.1
-8 3 -2 150.58 15.1
-8 5 2 154.48 14.4
8 -5 2 179.08 19.8
3 5 -2 148.99 15
-3 8 2 167.18 17.4
3 5 -2 167.98 16.9
-5 8 -2 160.38 17
5 3 2 124.69 19.1
-5 8 -2 158.38 17.7
-8 5 2 162.88 16.5
5 3 2 157.78 14.8
5 3 2 173.88 19.2
8 -3 -2 189.78 20.8
8 -5 2 146.69 21.7
-3 8 2 163.18 14.9
2 6 2 55.79 11.4
-2 8 -2 54.99 13.3
-2 8 -2 50.19 11.7
2 6 2 43.7 10.9
6 2 -2 74.59 16.5
8 -6 -2 35.7 11.5
2 6 2 56.99 12.2
-2 8 -2 36.6 11.9
8 -6 -2 60.99 17.6
6 -8 2 43.4 13.6
8 -2 2 48.5 16.9
6 2 -2 52.39 11.1
-6 8 2 47.2 12.5
-8 2 2 43.2 8.4
-6 8 2 50.69 8.7
8 -2 2 46.6 13.7
6 2 -2 43.9 11
-8 6 -2 43.8 8.9
-8 6 -2 56.79 13.6
-2 8 2 34 7.9
2 6 -2 59.39 14.4
8 -6 2 64.09 17.1
8 -2 -2 41.2 15.6
-2 8 2 42.5 11.9
6 2 2 55.89 10.1
-6 8 -2 46.6 8.8
6 -8 -2 44.9 12.5
6 2 2 60.19 14.5
-6 8 -2 46.7 11.1
-8 6 2 57.49 12.8
-8 6 2 41.8 8.2
8 -6 2 61.79 14.2
2 6 -2 81.29 13.3
-8 2 -2 48.6 9.7
6 2 2 40.5 13.3
2 6 -2 65.19 12.3
8 -2 -2 49.9 15.3
7 1 -2 210.68 22.3
1 7 2 225.38 19.2
-8 7 -2 217.48 17.5
7 1 -2 225.08 18
-1 8 -2 209.48 20.4
8 -1 2 220.78 25.9
-1 8 -2 222.88 18.6
-7 8 2 222.08 19.5
8 -7 -2 255.87 29
7 -8 2 239.38 25.9
1 7 2 215.58 17.7
7 1 -2 218.58 23.1
-7 8 2 220.38 17
-8 7 -2 219.68 18.4
-1 8 -2 236.18 21.4
8 -1 2 230.88 24.2
8 -1 2 249.08 18
-8 7 -2 239.48 20.7
1 7 2 197.58 18.9
7 1 2 197.38 21.1
1 7 -2 196.08 20.4
8 -1 -2 210.58 16.8
-8 7 2 186.58 18.4
-8 1 -2 166.28 16.1
-7 8 -2 190.38 17.2
1 7 -2 204.08 19.9
-8 7 2 176.08 16.2
7 1 2 228.78 25.2
8 -7 2 226.78 27.2
1 7 -2 190.28 17.2
7 -8 -2 207.08 23.1
-1 8 2 184.38 17.6
-1 8 2 195.68 18.6
8 -7 2 216.58 19.4
8 -1 -2 173.08 27.1
8 -1 -2 196.98 22.7
-7 8 -2 187.48 18.6
7 1 2 193.68 15.5
-8 8 -2 7.2 11.4
-8 8 2 18.8 7.1
0 8 2 -2.6 6.5
-8 8 -2 0 5
8 0 2 -1.4 8.7
8 0 -2 4.5 8.9
0 8 -2 -6.4 10.1
0 8 -2 6.5 10.8
8 -8 -2 -1.3 13.7
0 8 2 6.5 9.4
8 0 2 11.8 15.3
-8 8 2 -1 6.2
8 0 -2 2.6 15.3
0 8 2 11.3 10.7
-8 8 -2 10 8.3
-8 0 -2 2.5 4.6
8 0 -2 -12.8 14
8 0 2 7 12.3
0 8 -2 10.6 12.4
-8 8 2 1 11
8 -8 2 13.2 14.1
-9 5 -2 42.2 10.2
9 -5 -2 56.39 20.6
-4 9 -2 35.7 11.4
9 -5 -2 40.2 14.7
5 4 -2 51.59 12.1
-9 4 2 55.59 9.8
9 -4 2 40.5 15.6
-9 5 -2 37.1 11.3
-5 9 2 58.19 9.4
9 -4 2 28.8 15.7
-5 9 2 34.1 12
-4 9 -2 48.1 13.1
4 5 2 52.89 10.9
4 5 2 50.19 13.2
5 4 -2 48.1 14.4
-4 9 -2 48.8 10.3
4 5 -2 58.49 11.3
-9 5 2 63.09 12.9
5 4 2 62.09 15.2
9 -5 2 43.1 18.1
4 5 -2 47.1 14.9
-9 4 -2 47.3 10.5
9 -4 -2 37.8 20.2
-4 9 2 40.9 12.6
9 -5 2 53.89 15.7
5 4 2 43.7 10.5
-9 5 2 47.4 8.9
9 -4 -2 51.39 16.3
-5 9 -2 45.9 12.4
-5 9 -2 34.5 10
-4 9 2 52.89 9.2
4 5 -2 54.69 13.5
-5 9 -2 56.39 14.3
9 -3 2 247.38 30.1
-9 6 -2 221.98 19.6
9 -6 -2 264.27 33.1
3 6 2 223.68 19.9
-3 9 -2 213.38 18.5
-6 9 2 229.88 21.5
6 3 -2 170.88 18.7
9 -3 2 221.18 22.8
-3 9 -2 188.18 18.4
-9 6 -2 222.08 21
6 3 -2 237.18 19.2
-3 9 -2 225.48 20.7
9 -6 -2 199.08 21.9
3 6 2 200.18 17.5
3 6 2 272.07 21.7
-9 3 2 236.58 19
-6 9 2 261.97 18.2
-3 9 -2 204.58 19.6
6 3 -2 231.08 22.6
6 -9 -2 208.18 22.3
3 6 -2 250.57 20.7
-3 9 2 258.07 22.3
-3 9 2 238.88 18.8
3 6 -2 270.27 20.7
-9 3 -2 253.27 21
-3 9 2 266.87 19.4
-6 9 -2 236.88 22
-6 9 -2 254.27 20.1
-9 6 2 279.97 22.4
-6 9 -2 261.47 22.5
3 6 -2 268.97 24.1
-9 6 2 277.77 20.2
6 3 2 250.87 19.9
6 3 2 273.27 23.9
9 -6 2 282.47 25
6 3 2 212.48 24.9
9 -6 2 283.77 31
9 -3 -2 291.37 27
9 -3 -2 278.17 34.9
-9 7 -2 870.81 48
9 -7 -2 929.11 58.09
9 -2 2 891.91 53.09
-9 2 2 832.22 46.9
-2 9 -2 861.61 50.29
-7 9 2 869.41 49.99
-2 9 -2 826.82 50.49
-7 9 2 836.42 46.7
-9 7 -2 900.11 50.99
-9 7 -2 869.21 46.8
-2 9 -2 821.02 48.3
7 2 -2 902.41 49
7 2 -2 947.21 53.89
2 7 2 842.02 49.1
9 -2 2 944.61 57.79
2 7 2 845.02 48
7 2 -2 745.73 50.19
7 2 2 799.32 46.3
9 -7 2 863.91 54.19
9 -7 2 849.52 49.6
2 7 -2 825.02 48
-2 9 2 816.02 45.9
7 -9 -2 727.33 49.4
-2 9 2 824.92 48.1
2 7 -2 862.31 49.9
2 7 -2 840.62 46.5
9 -2 -2 853.01 45.9
-9 7 2 783.42 45.2
-9 2 -2 798.12 45.4
9 -2 -2 857.41 52.09
-7 9 -2 779.42 47.8
-7 9 -2 841.52 45.2
9 -2 -2 895.61 57.59
-9 7 2 805.62 48.3
7 2 2 819.92 52.29
7 2 2 859.81 50.89
-2 9 2 768.72 44.5
-1 9 -2 114.89 17.3
-9 8 -2 114.79 18
9 -1 2 124.49 20.6
8 -9 2 100.19 18.9
9 -8 -2 129.59 22
9 -1 2 136.79 26.2
1 8 2 120.19 16.8
-8 9 2 138.69 14.3
9 -1 2 130.39 15.3
-8 9 2 109.79 17.9
-1 9 -2 110.99 16.9
-9 8 -2 119.19 15.5
8 1 -2 138.69 23.5
-1 9 -2 123.19 19.1
8 1 -2 121.39 15.3
1 8 2 124.19 16.4
8 1 -2 103.29 20.2
-9 8 -2 113.69 14.7
-9 1 2 128.19 15.2
9 -8 2 144.59 18.8
-9 8 2 115.69 12.4
9 -1 -2 101.49 21.8
1 8 -2 134.79 17.6
9 -1 -2 146.09 15.9
-8 9 -2 134.99 14.3
8 -9 -2 92.79 18
9 -1 -2 154.58 24.3
-9 1 -2 131.59 15.7
-9 8 2 121.89 18.3
8 1 2 133.89 15.2
8 1 2 139.89 23.5
-1 9 2 146.69 18.2
-9 8 2 152.28 14.3
-1 9 2 131.99 16.3
1 8 -2 129.99 20
1 8 -2 162.38 19.3
9 -8 2 135.19 22.2
-8 9 -2 144.29 17.9
8 1 2 147.69 21.7
-1 9 2 99.49 12.9
-9 0 -2 107.39 13.1
-9 9 -2 123.59 15.6
-9 9 2 125.99 14.4
-9 9 -2 121.69 14.3
9 0 -2 119.39 16.1
9 0 2 135.59 16.2
0 9 2 135.49 17.9
9 0 2 136.49 21.7
9 0 -2 97.99 20.5
-9 9 2 112.19 17.4
0 9 -2 122.19 18.6
0 9 -2 117.99 17.8
0 9 2 113.79 15.9
-9 9 -2 133.89 19.1
0 9 -2 139.09 18.2
-9 9 2 123.79 13.6
10 -5 -2 145.59 21.6
10 -5 -2 126.69 24.7
-5 10 -2 138.79 19
-10 5 2 165.28 15.5
5 5 -2 149.29 15.2
10 -5 2 151.18 23.2
-5 10 2 158.28 18.7
5 5 2 159.68 21.2
-5 10 2 138.69 15.3
-10 5 -2 143.39 16
5 5 2 141.79 16.2
5 5 -2 172.68 18.4
-10 5 -2 137.79 18.7
10 -5 2 134.99 24
-5 10 -2 146.59 17
5 5 -2 154.48 19.8
-5 10 2 178.28 14.9
4 6 2 51.69 13.6
-10 4 2 43.3 9.8
10 -6 -2 -8.5 13.5
-6 10 2 47.5 14.3
4 6 2 30 11
10 -4 2 35.2 16.7
-4 10 -2 35.7 13.4
-4 10 -2 31.5 11.2
6 4 -2 18.8 8.1
10 -4 2 27.7 15
-10 6 -2 38.4 13.9
-4 10 -2 10.7 9.7
-4 10 -2 25.3 9.8
-6 10 2 42.2 8.7
6 4 -2 43.8 16.5
4 6 2 50.49 14.1
10 -6 -2 14.1 20.6
6 4 -2 53.99 13.2
-10 6 -2 24.4 9
6 4 2 45 11.8
10 -4 -2 41.3 17
4 6 -2 41.6 13.7
10 -6 2 31 16.5
10 -4 -2 15.8 19
-10 6 2 41.7 12.7
-10 6 2 46.6 9
-10 4 -2 50.09 11
-6 10 -2 40.6 14.3
10 -6 2 47.4 16.2
-4 10 2 58.09 12.1
4 6 -2 33.3 14.5
-4 10 2 50.99 8.7
4 6 -2 44.1 10.6
6 4 2 50.49 16.3
-6 10 -2 35.6 9.2
-4 10 2 57.19 14.3
7 3 -2 137.99 16.6
3 7 2 125.29 16.1
3 7 2 134.39 17.7
7 3 -2 140.29 20.9
-10 7 -2 123.29 16.7
-3 10 -2 124.29 18.4
-7 10 2 158.98 14
-7 10 2 135.09 17.2
10 -3 2 114.19 21.9
-3 10 -2 135.29 16.7
10 -3 2 111.59 20.4
-10 3 2 150.88 16.6
10 -7 -2 137.69 25.3
-3 10 -2 132.19 16
-10 7 -2 105.59 12.8
-10 7 -2 122.99 18.6
-10 7 2 178.18 17.4
-7 10 -2 149.88 16.9
3 7 -2 159.58 18.8
7 3 2 155.48 17.1
-3 10 2 172.08 17.3
10 -3 -2 147.49 27.2
-7 10 -2 142.79 17.6
-10 7 2 164.98 19.7
10 -3 -2 154.58 24.2
10 -7 2 136.99 23.5
-3 10 2 173.18 16.3
-3 10 2 168.48 19.9
-10 3 -2 167.08 18.3
3 7 -2 149.09 17.9
7 3 2 168.28 23.1
10 -7 2 171.78 22.2
3 7 -2 170.88 22.6
2 8 2 188.78 18.4
10 -2 2 200.88 18.8
-8 10 2 194.98 20.5
-10 8 -2 222.58 17.8
-8 10 2 228.18 17.5
8 2 -2 205.28 19.2
-10 8 -2 205.78 22.1
10 -2 2 184.78 25.7
-10 8 -2 183.48 18.9
-10 2 2 217.08 18.8
-2 10 -2 192.18 22.3
8 2 -2 198.18 26
-2 10 -2 201.78 20.1
2 8 2 209.18 20.2
10 -8 -2 170.38 31
10 -2 2 166.78 26.1
10 -8 2 178.18 25.8
-2 10 2 216.58 19
-10 2 -2 222.98 19.7
-10 8 2 198.68 22
2 8 -2 203.58 22.6
2 8 -2 212.38 18.8
-2 10 2 231.78 17.8
10 -2 -2 199.48 18.5
2 8 -2 214.28 21.5
10 -2 -2 168.98 32.6
10 -2 -2 184.78 26.6
-10 8 2 218.18 18.7
-2 10 2 233.38 22.1
-8 10 -2 216.58 21.5
-8 10 -2 215.98 17.6
8 2 2 225.28 19.5
8 2 2 205.08 25.7
-1 10 -2 101.49 15.7
9 1 -2 66.39 19.6
9 1 -2 53.99 12.6
1 9 2 87.49 13.6
1 9 2 62.19 14
-10 9 -2 83.09 11.5
-10 9 -2 60.19 14.8
10 -1 2 36.5 15.7
-10 1 2 75.19 10.8
-1 10 -2 81.79 16.3
-10 9 -2 72.59 10.8
-9 10 2 68.79 9.8
-9 10 2 30.9 13.3
10 -1 2 57.69 12.5
-9 10 -2 67.39 10.9
-1 10 2 90.89 13.7
-10 1 -2 75.19 11.2
10 -1 -2 52.19 19.5
9 1 2 41.4 16.7
1 9 -2 66.89 14.9
-10 9 2 53.89 8.6
-10 9 2 27 13.4
-1 10 2 55.29 8.9
9 1 2 48.1 11.9
-9 10 -2 49.3 14.6
1 9 -2 72.19 13.4
-10 9 2 72.19 10.4
-1 10 2 68.49 15.5
10 0 -2 3.4 10.1
-10 10 -2 2.2 7.5
10 0 2 8.7 10.3
0 10 -2 8.2 13
-10 10 -2 0.4 7.5
0 10 -2 4.5 13.2
0 10 2 11.4 10.7
-10 10 2 4.7 7.2
0 10 2 1.9 12.2
-10 0 -2 3.5 7.8
-10 0 2 4.4 7.4
-10 10 2 16.3 8.1
-10 10 -2 1.7 12
10 0 -2 2.3 17.3
10 0 2 -1.5 16.4
-6 11 2 134.69 14.7
-5 11 -2 96.09 14.5
-11 5 2 133.79 15.8
-11 6 -2 98.59 16.1
-5 11 -2 89.09 13.6
6 5 -2 89.39 15.1
-6 11 2 77.29 15.6
-11 6 -2 107.19 17.8
11 -5 2 63.19 17.9
-5 11 -2 118.29 18.7
6 5 -2 107.99 18.7
6 5 -2 103.99 13.6
11 -6 -2 46.3 21.2
5 6 2 102.79 14.1
-6 11 2 85.89 13.4
11 -5 2 68.79 17.1
5 6 2 96.89 16.2
11 -6 2 63.69 18.2
-5 11 2 104.79 17.4
-5 11 2 133.39 13.5
5 6 -2 116.39 17.6
-5 11 2 117.09 15.3
-11 6 2 113.39 15.6
5 6 -2 125.79 14.9
11 -5 -2 72.99 25
5 6 -2 92.89 18.8
-6 11 -2 116.09 19.2
-6 11 -2 109.79 15.7
6 5 2 122.39 15.8
-11 5 -2 124.19 15.4
11 -7 -2 107.29 25.2
-7 11 2 190.48 15.3
4 7 2 161.48 16.7
11 -4 2 165.18 26
-4 11 -2 166.28 17.4
-11 7 -2 164.08 20.8
7 4 -2 127.89 17.3
4 7 2 189.68 19.5
-11 7 -2 133.19 15.9
11 -4 2 129.69 25.5
7 4 -2 183.28 24.6
-4 11 -2 152.98 20.5
-4 11 -2 176.78 17.8
-11 4 2 197.58 18
11 -7 2 123.59 24.8
-4 11 2 198.48 17.9
7 4 2 178.28 18.2
-11 4 -2 209.88 19.5
4 7 -2 157.58 18.4
4 7 -2 131.99 22.1
-7 11 -2 176.58 21.6
-4 11 2 212.08 17.1
-7 11 -2 184.78 17.7
-4 11 2 151.68 20
-11 7 2 199.78 17.6
4 7 -2 186.58 17.9
-11 8 -2 12.8 8.8
3 8 2 14.2 10.5
-3 11 -2 13.9 12
-11 3 2 29.1 8.7
-3 11 -2 20.9 13.9
-3 11 -2 7.3 9.1
11 -3 2 -11.4 13
11 -3 2 3.7 16.8
8 3 -2 8.4 10.1
-8 11 2 1.2 11.1
3 8 2 16.3 10.7
8 3 -2 8.9 15
-11 8 -2 24.9 13.9
-8 11 2 21.2 8.4
-11 8 -2 8.7 7.5
-3 11 2 30.6 11.4
3 8 -2 17.8 11.6
-11 8 2 1.6 12.8
-3 11 2 8.8 12.9
-8 11 -2 8.2 12.3
8 3 2 9.5 15.5
-11 3 -2 18.3 9
3 8 -2 18 11.6
-8 11 -2 26 9
11 -8 2 -12.6 10.9
-11 8 2 23.1 8.8
8 3 2 13.6 11
-3 11 2 29.2 8.2
11 -3 -2 -1.6 15.8
3 8 -2 0.3 13
11 -2 2 -11.6 22.4
9 2 -2 45.6 18.6
11 -2 2 34.9 16.9
11 -2 2 25.2 10.5
-2 11 -2 13.1 12.8
2 9 2 6.6 10.6
-11 9 -2 39.1 13.6
-11 9 2 87.19 12.1
1 10 2 153.48 17.5
-11 1 2 141.59 16.9
-1 11 -2 172.48 19.7
-11 10 -2 162.88 16.4
-11 10 -2 146.89 16.5
-10 11 2 132.19 15.1
-10 11 -2 166.28 16.8
-11 10 2 123.99 14.5
1 10 -2 169.68 19.7
-11 1 -2 149.19 17
-1 11 2 174.98 17.7
-11 10 2 146.39 16.6
-1 11 2 122.59 14.4
0 11 2 10.1 10.1
-11 0 2 -3.7 8.2
-11 11 -2 3.7 8.5
-11 11 2 3.7 8.1
0 11 -2 3.7 11.7
-11 11 2 -3 7.8
-11 0 -2 6.8 8.5
-11 11 -2 5.7 8
-6 12 2 4.3 7.2
-12 6 2 8.6 7.7
6 6 2 1.7 9.5
12 -6 -2 -31.6 15.9
-6 12 -2 6.7 14.2
6 6 -2 8 10.4
-6 12 -2 -4.3 9
-6 12 2 4.3 9.5
12 -6 2 -6.1 11.6
-6 12 -2 0.3 8.6
-12 6 -2 -0.8 8.5
-5 12 -2 4.6 22.4
12 -5 2 -8.8 21.6
7 5 -2 82.89 12.3
-12 7 -2 79.69 11.4
-5 12 -2 82.99 11.9
-7 12 2 45.4 10.1
-5 12 -2 53.59 12.1
-12 7 2 63.89 9.9
-5 12 2 55.39 11.7
-7 12 -2 59.29 10.2
-5 12 2 45.4 9.5
-12 5 -2 69.29 12
5 7 -2 69.39 12.8
-4 12 -2 31.6 10.4
-4 12 -2 47.2 13.3
-8 12 2 38.8 8.6
-12 4 2 37.3 10.1
-12 8 -2 38.4 10.4
4 8 2 34.1 11.7
-4 12 2 39 9.2
-8 12 -2 33.5 9.1
-12 4 -2 39.2 10.9
-4 12 2 47.6 11.9
4 8 -2 37.1 12.8
-12 8 2 30.4 9.3
-3 12 -2 80.39 15
-9 12 2 58.79 9.9
-12 9 -2 77.39 11.7
-3 12 -2 47.4 10.7
3 9 2 78.69 13.5
-12 9 -2 44.1 9.2
-12 3 2 55.79 10.1
-9 12 -2 98.69 12.4
-12 3 -2 65.89 12.1
-12 9 2 80.79 11.3
-3 12 2 52.49 9.8
-3 12 2 97.59 13.9
3 9 -2 68.89 14.2
2 10 2 37.9 12.3
-12 10 -2 26.2 9.2
-10 12 2 26.4 8.5
-12 10 -2 31.7 9.3
-12 2 2 23 8.8
-2 12 -2 42.6 14.2
-12 10 2 4.1 7.2
-12 10 2 8.5 8.4
-2 12 2 16.1 8.3
-12 2 -2 14.4 9.6
2 10 -2 25.6 13.2
-2 12 2 20.8 11.5
-10 12 -2 19.8 9.5
-12 11 -2 130.89 16.2
-1 12 -2 139.39 19.2
1 11 2 111.19 16.6
-12 1 2 121.29 16.7
-12 11 -2 101.89 15.4
-11 12 2 120.09 15.1
-1 12 2 115.29 14.8
-12 11 2 88.59 13.9
1 11 -2 140.09 19.4
-11 12 -2 107.09 15.8
-12 1 -2 100.89 16.6
-12 11 2 126.49 15.6
-12 12 -2 9.8 8.8
-12 0 2 7.9 8.8
0 12 2 18.9 12
-12 12 2 10.9 8.7
-12 12 -2 7.2 8.8
-12 12 2 10.9 8.7
0 12 -2 17.5 14
-12 0 -2 16.2 9.5
7 6 -2 7.1 10.1
-13 7 -2 12.9 8.7
-7 13 2 6.8 8.5
-13 6 2 4.6 8.4
-6 13 -2 12.9 10.6
-7 13 2 9.8 9.7
6 7 2 -3 10.6
-6 13 -2 -0.2 9.2
-6 13 2 13.7 10.5
-13 6 -2 7.6 9.6
7 6 2 -2.3 7.9
6 7 -2 13.8 11.3
-13 7 2 8 7.7
-6 13 2 9.6 8.6
-7 13 -2 5.2 8.9
-13 8 -2 37.4 10.6
-5 13 -2 25.3 10.1
-8 13 2 -0.7 10.3
-5 13 -2 33.3 11.9
-8 13 2 25.8 9
-13 5 2 30.1 8.8
5 8 2 35.7 12.3
-8 13 -2 40.8 10.8
-13 5 -2 31.6 9.9
-5 13 2 35.9 11.9
5 8 -2 38.8 13.2
-13 8 2 27.5 9.3
-5 13 2 25.2 9.5
-13 9 -2 223.28 19.4
-4 13 -2 213.18 20.4
-4 13 -2 215.28 20.8
-9 13 2 214.08 18.1
-13 4 2 230.88 20.1
4 9 2 212.68 20.5
-4 13 2 251.27 20.8
-4 13 2 242.68 21.4
-13 4 -2 272.27 23
-13 9 2 261.77 20.1
4 9 -2 260.07 23
-9 13 -2 259.57 21.5
-10 13 2 71.09 11
-3 13 -2 53.79 11.5
-13 3 2 98.79 16
3 10 2 80.89 13.3
-13 10 -2 71.99 11.9
-13 10 -2 57.39 10.4
-3 13 -2 107.09 16.5
-10 13 -2 106.89 13.2
3 10 -2 115.99 18.7
-3 13 2 97.49 16.1
-3 13 2 75.29 11.5
-13 10 2 93.09 15.2
-13 3 -2 83.89 13.2
2 11 2 13.4 10.2
-13 11 -2 10.7 8.4
-13 11 -2 6.7 8.5
-2 13 -2 26.5 13.5
-11 13 2 8.3 8.7
-13 2 2 14.8 9.4
-13 11 2 -1.8 8
-2 13 2 -7.3 8.3
-11 13 -2 11.3 9.3
-2 13 2 22.9 11.8
-13 2 -2 7.8 9.2
2 11 -2 18.4 14.2
-13 11 2 8.8 8.6
1 12 2 35.6 12.8
-1 13 -2 47.5 14.9
-13 1 2 13.9 9.4
-13 12 -2 38.9 10.2
-13 12 -2 24.4 9.9
-12 13 2 23.2 9.6
-13 1 -2 13.7 10.1
-1 13 2 -6.7 6
-13 12 2 11.5 8.7
-1 13 2 17.1 11.7
-13 12 2 5 8.5
-12 13 -2 11 9.2
1 12 -2 26.5 14.7
-13 0 -2 5.7 8.7
-13 0 2 -0.9 8.9
-13 13 -2 6.9 8.6
-13 13 -2 8.1 9.2
-13 13 2 6.7 8.3
0 13 2 9 11.1
-13 13 2 -1.7 9
0 13 -2 15.6 14.3
7 7 2 -0.8 9.9
-7 14 -2 3.1 9.8
-14 7 -2 2.2 9.6
-14 7 2 5.8 8.4
-7 14 2 11.9 10.8
7 7 -2 9.9 11.4
-7 14 -2 -1.6 8.6
-7 14 2 5.2 9
-14 8 -2 96.69 13.6
-6 14 -2 83.19 14.3
-8 14 2 107.99 13.3
8 6 -2 65.39 12.5
6 8 2 87.39 14.2
-14 6 2 88.79 12.4
-6 14 -2 85.69 13.1
-8 14 -2 111.69 13.8
-14 6 -2 69.69 11.8
6 8 -2 89.09 15.8
-6 14 2 73.79 11.5
-6 14 2 67.49 12.9
-14 8 2 94.19 15.4
-5 14 -2 37.6 13.1
-14 9 -2 32.4 9.7
5 9 2 49.1 13.6
-5 14 -2 35.8 11.1
-9 14 2 28.1 8.9
-14 5 2 49.6 10.9
5 9 -2 60.29 15.4
-9 14 -2 50.89 11.6
-5 14 2 36.1 10.2
-14 5 -2 32.8 10.5
-14 9 2 48.7 10.4
-5 14 2 46.2 13.2
-4 14 -2 76.19 15.3
-4 14 -2 54.69 11.7
-14 4 2 62.39 10.9
4 10 2 73.69 15.2
-10 14 2 63.49 11.4
-14 10 -2 52.79 10.6
-4 14 2 71.59 13.7
4 10 -2 65.49 14.9
-14 4 -2 65.59 12.6
-14 10 2 81.39 12.1
-10 14 -2 69.49 11.6
-4 14 2 45.4 10.4
-3 14 -2 135.49 19.7
-11 14 2 138.69 17.1
-14 11 -2 103.99 16.7
-14 3 2 139.39 18.3
-14 11 -2 137.69 18.1
3 11 2 137.89 18.8
3 11 -2 110.79 17.2
-14 11 2 105.49 15.1
-11 14 -2 110.89 16.9
-14 3 -2 117.29 19.1
-3 14 2 115.49 17.3
-2 14 -2 22.3 13.6
-14 12 -2 23.3 10.5
2 12 2 37.7 14.1
-14 2 2 14.8 10.3
-12 14 2 23.7 10.5
-14 12 -2 15.6 8.9
-14 12 2 10.1 8.8
-14 12 2 21.3 9.5
2 12 -2 35.6 15.5
-12 14 -2 32.8 10.3
-2 14 2 33.3 12.5
-14 2 -2 24.2 11.6
-14 13 -2 21.1 9.8
1 13 2 12 12.6
-13 14 2 9 10.2
13 -14 2 -1 8.8
-14 1 2 4.9 10.3
-14 13 -2 12.8 9.8
-1 14 -2 18.6 14.3
-13 14 -2 16.4 9.1
1 13 -2 8.6 14.6
1 13 -2 -4.9 10.6
-14 13 2 14.5 9.5
-1 14 2 26.1 13.4
-14 13 2 3.3 9.3
-14 1 -2 16.6 11
14 -13 2 -0.4 9
-14 14 2 -2 7.7
-14 14 -2 9.5 9.4
-14 14 -2 14.2 9.5
0 14 -2 24.9 15
-14 14 2 8.4 9.8
0 14 -2 13.3 13.3
0 -14 2 3.8 8
0 14 2 24.1 13.7
14 -14 2 10 9.4
0 -14 -2 -2.2 9.8
14 0 -2 -4 16.9
-7 15 -2 144.39 18.7
7 8 2 116.59 18.1
-15 8 -2 148.09 19
8 7 -2 123.79 17.5
-8 15 2 151.08 18
-15 7 2 151.18 18.4
-15 7 -2 160.28 19.9
-8 15 -2 168.28 19.4
-15 8 2 169.58 18.8
-7 15 2 129.29 17.9
7 8 -2 134.79 19.6
-7 15 2 166.28 18.7
-9 15 2 56.79 11.4
6 9 2 38.2 13.4
-15 9 -2 72.89 12.8
-6 15 -2 54.29 12
-6 15 -2 36.8 12.7
-15 6 2 42.2 10.5
-9 15 -2 76.19 12.8
6 9 -2 80.09 16.5
-6 15 2 63.19 13.6
-15 9 2 61.69 11.9
-15 6 -2 48.6 11
-6 15 2 37.2 10.4
-10 15 2 212.88 21
-15 5 2 239.38 21.4
-5 15 -2 204.68 21.5
5 10 2 210.48 21.4
-15 10 -2 199.38 20.9
-5 15 -2 173.28 20.4
-10 15 -2 260.57 22.4
-5 15 2 236.98 21.5
5 10 -2 244.08 24
-15 10 2 241.88 21.7
-5 15 2 238.38 22
-4 15 -2 58.29 14.9
-11 15 2 78.69 13.1
-15 11 -2 71.59 12.4
4 11 2 56.79 14.2
-15 4 2 60.29 11.8
-4 15 -2 54.59 11.2
-15 4 -2 125.19 20.5
-15 11 2 110.19 17.2
4 11 -2 123.79 20.8
-4 15 2 111.69 17.8
-4 15 2 84.19 12.8
-11 15 -2 127.09 17.5
-15 12 -2 50.39 9.9
12 -15 2 41.3 9.6
-12 -3 -2 24.9 9.1
-15 12 -2 81.39 12.6
-12 15 2 75.79 12.3
-3 15 -2 103.79 17.3
-15 3 2 62.69 12.1
-3 15 2 45.1 10.5
-3 -12 -2 36.5 11.4
15 -12 2 42.2 9
-13 15 2 37.2 12.1
-15 13 -2 25.5 11.1
-2 15 -2 38.7 15.4
2 13 2 37.9 13.8
13 2 -2 51.89 20
-2 -13 2 35.7 9.1
-15 13 -2 24.9 9.4
-13 -2 -2 40.6 10.4
-15 2 2 42.1 12.3
13 -15 2 34.9 10.7
2 -15 2 52.59 9.4
-15 13 2 46.5 11.3
-2 15 2 68.39 15
-13 15 -2 40.9 10.4
2 13 -2 58.19 12.9
15 -13 2 57.69 10.7
2 13 -2 93.19 18.3
-15 2 -2 42 12.1
-2 -13 -2 73.89 14.3
-1 -14 2 72.79 11.6
-1 15 -2 65.79 17.1
1 14 2 68.59 15.5
-15 14 -2 33.9 10.1
-1 15 -2 63.59 15.2
1 -15 -2 56.79 12.8
14 -15 2 66.09 12.3
-14 15 2 57.39 12.6
14 1 -2 66.49 22.6
1 -15 -2 36.1 9.1
-15 14 2 22.2 10.5
-1 15 2 43.3 13.8
1 14 -2 52.89 15.8
-1 -14 -2 55.89 10
-14 15 -2 54.39 11.5
-1 -14 -2 48.4 13.2
15 -14 2 53.89 11.1
15 -1 -2 67.69 21.5
-15 14 2 28.8 10.7
1 14 -2 67.69 17.5
1 -15 2 49.1 10.4
0 -15 2 22.5 10.4
0 -15 -2 14.2 13.3
15 0 -2 29.4 22.8
0 -15 -2 23.9 10.5
-15 15 -2 18 10
0 15 -2 6 13.4
-15 15 2 6.1 10.3
0 15 -2 29.2 15.6
0 15 2 33 14.1
15 -15 2 15.9 11
-16 8 -2 15.5 9.9
16 -8 2 15.2 8.1
-8 -8 -2 0.8 6.8
8 8 -2 12.1 11.9
-8 16 -2 9.5 10.2
-8 16 2 -3 10
8 -16 2 4 8.1
-8 16 2 2.3 10.8
-16 8 2 18.1 10.1
-16 7 2 109.89 17.5
9 -16 2 89.19 12.1
7 9 2 98.39 16.4
-7 16 -2 122.29 19.6
-9 16 2 118.49 18.6
-16 9 -2 112.89 18.4
-7 16 2 130.09 18.7
-16 7 -2 159.68 20.5
16 -9 2 108.39 13.9
7 9 -2 141.79 21
-9 16 -2 185.28 19.9
-7 16 2 155.18 19.5
-16 9 2 167.68 19.3
-10 -6 -2 42.4 9.1
-6 16 -2 48.8 12.1
-16 10 -2 53.29 12.5
-16 6 2 49.7 11.5
-6 16 -2 41.3 13.3
6 10 2 63.19 15.2
10 -16 2 43.4 9.7
-10 16 2 37.9 11.6
-16 10 2 35 10.1
-6 -10 -2 10.3 7.2
16 -10 2 34.5 9.5
-6 16 2 35.8 13.7
6 -16 2 38.4 8.8
6 10 -2 34 14.7
-10 16 -2 33.2 10.5
-16 6 -2 44.4 12.5
-6 16 2 36.7 11.6
11 -16 2 36.4 10.6
-11 -5 -2 31.9 9.7
-16 5 2 36.4 11.4
-5 16 -2 36.4 14.2
-5 16 -2 29.2 10.7
-16 11 -2 43 12.1
-11 16 2 44.8 12.2
-5 -11 2 13.7 8.4
5 11 2 42 14.9
-5 16 2 47.2 14.5
-11 16 -2 50.19 10.9
-5 -11 -2 49.1 9.3
-16 5 -2 68.89 14.5
5 11 -2 53.89 17.1
-5 16 2 24.9 10.9
-16 11 2 49.9 11.4
16 -11 2 56.89 10.6
5 -16 2 51.49 10.2
-5 -11 -2 57.09 13
4 12 2 117.39 20
-16 12 -2 123.49 19.6
12 -16 2 118.79 15
-4 16 -2 137.09 21.5
-12 16 2 128.09 19.2
-12 -4 -2 108.69 15
-16 4 2 127.09 20.1
-4 -12 2 115.59 13.2
-16 4 -2 151.08 22.2
16 -12 2 113.29 14.4
4 12 -2 156.48 21.5
-4 -12 -2 120.09 13.9
-16 12 2 154.58 19.6
-4 -12 -2 101.89 14.8
4 12 -2 108.29 16.6
-4 16 2 142.09 20
4 -16 2 138.29 13.5
-12 16 -2 141.69 18.7
-16 3 2 27.4 11.8
-3 -13 2 40.9 11.1
13 3 -2 54.19 21.7
3 -16 -2 24.7 8.8
3 13 2 41.8 14.7
13 -16 2 41.1 11.7
-16 13 -2 41.8 12.1
-13 -3 -2 52.79 11.8
-13 16 2 37.4 12.8
-3 16 -2 48.9 16.1
-3 16 -2 66.59 13.8
-16 3 -2 32.4 12.6
-16 13 2 29 10.9
-3 -13 -2 39.3 13.7
3 -16 2 39.1 10.1
-13 16 -2 45.3 11.4
16 -13 2 34.5 10.7
-3 -13 -2 49.6 10.8
16 -3 -2 7.8 17.3
3 13 -2 27.6 15.7
3 13 -2 40.9 15.1
-3 16 2 29.5 14.4
-2 -14 2 48.8 11.7
-16 14 -2 26.8 10.3
2 -16 -2 54.59 14.1
14 -16 2 50.09 12.5
-16 14 -2 21 9
-14 16 2 42.9 12.6
-2 16 -2 36.1 15.9
-2 16 -2 63.29 15.3
2 -16 -2 44 10.8
14 2 -2 43.7 21.4
2 14 2 33.7 14.9
-16 14 2 51.19 11.8
-16 2 -2 36.6 12.5
2 14 -2 62.29 17.2
2 14 -2 63.09 16.1
-2 16 2 67.79 15.8
16 -2 -2 75.69 23.6
-2 -14 -2 77.09 16
-14 16 -2 48.8 11.7
-2 -14 -2 70.59 12.6
2 -16 2 73.99 11.6
16 -14 2 80.19 12.4
-15 16 2 -3.1 10.7
15 -16 2 7.8 11.2
-16 15 -2 9.4 8.7
-1 -15 2 4.9 10.5
-1 16 -2 11.8 15.3
-1 16 -2 25.8 13.9
16 -15 -2 -4.1 10.7
1 -16 -2 5.1 10.9
1 -16 -2 12.2 14.2
1 15 2 21.6 14.2
15 1 -2 12.6 22.1
16 -15 2 9.6 11
15 -16 -2 -2 8.2
-1 16 2 22.1 14.4
-15 16 -2 6.2 9.7
16 -1 -2 25.8 22.9
-1 -15 -2 8.8 10.8
1 15 -2 19.6 14.2
-16 15 2 -4 11.3
1 15 -2 16.5 15.4
1 -16 2 1.4 9.9
-1 -15 -2 6.4 14
0 16 -2 18.6 16
16 -16 -2 -0.4 7.6
0 16 -2 -3.3 14.6
0 -16 -2 -2.5 10.8
-16 16 -2 5.5 8.7
0 -16 2 4.9 10.7
16 0 -2 18.1 22.3
-16 16 2 -7.6 8.9
0 -16 -2 6 13.6
0 16 2 11.4 13.9
16 -16 2 5.3 11.2
9 -17 2 112.49 14.4
-8 -9 2 114.19 14.4
-9 17 2 154.58 20.2
-17 8 2 166.68 20.5
17 -8 2 119.49 14.5
-8 17 -2 154.88 20.7
-17 9 -2 149.09 19
-9 -8 -2 129.09 14.2
-8 17 2 97.99 14.6
-8 -9 -2 100.29 11.7
-17 8 -2 126.49 20
8 9 -2 66.99 14.9
8 -17 2 99.39 13.3
-17 9 2 120.19 19.6
17 -9 2 101.39 13.6
-9 -8 2 94.89 11.3
7 -17 -2 -0.8 7.8
-7 17 -2 0 12
-17 10 -2 34.1 11.6
-10 -7 -2 27.4 10.1
10 -17 2 29.2 10.1
-7 17 -2 24.8 11
-10 17 2 22.4 11.4
-17 7 2 35.8 11.9
7 10 2 16.5 13.1
-7 -10 2 23.5 9.9
-7 17 2 43.6 12.8
-7 17 2 42.2 13.7
-7 -10 -2 57.59 10.9
-17 7 -2 38.5 12.5
7 -17 2 52.99 10.5
17 -10 2 67.69 11.1
-10 17 -2 61.39 12.7
-17 10 2 36 11.4
-10 -7 2 47.1 10
7 10 -2 46.8 15.5
-6 -11 2 156.08 16.9
-6 17 -2 126.29 20.8
-17 11 -2 181.48 21.3
6 11 2 155.88 21.9
-11 -6 -2 158.78 16.1
-17 6 2 181.48 22
11 -17 2 165.08 16.2
-11 17 2 189.48 21.7
-6 17 -2 184.98 20.5
-17 11 2 192.08 21.6
17 -11 2 173.68 16.1
-11 17 -2 224.48 21.3
-11 -6 2 140.59 15.3
6 -17 2 159.28 15.4
-6 17 2 164.38 21.4
6 11 -2 183.78 23.2
-6 -11 -2 154.78 15.8
-17 6 -2 169.58 22.8
5 -17 -2 57.99 10.8
-12 17 2 47.7 13
5 12 2 50.59 15.3
-17 5 2 38.9 12.1
12 -17 2 89.89 12.9
-5 17 -2 58.99 15.9
-17 12 -2 38 11.9
-12 -5 -2 75.79 12.2
-5 -12 2 76.19 12.4
17 -5 -2 0.3 19.9
-12 17 -2 49.4 12.2
-5 17 2 32.2 14.3
-12 -5 2 46.4 11
5 -17 2 45.9 10.5
5 12 -2 58.39 17.4
12 -17 -2 -4.5 12
5 12 -2 40.5 14.9
-5 -12 -2 30.2 10.6
-17 5 -2 37.6 12.7
-5 17 2 16 11.1
17 -12 2 47.6 11
-17 12 2 30.6 12
13 -17 2 55.09 12
4 -17 -2 48.7 11.2
-13 -4 -2 61.99 12.6
-4 -13 2 75.59 12.2
-13 17 2 35.8 12.6
4 13 2 47 16.1
13 4 -2 34.5 22.5
4 -17 -2 56.89 13
-17 13 -2 47.7 12.2
-4 17 -2 73.09 14.1
-4 17 -2 64.89 17.3
-17 4 2 36.2 12.2
17 -4 -2 84.09 21.2
17 -13 2 68.69 11.6
-13 -4 2 59.99 11.9
-4 17 2 46 14.3
4 13 -2 46.6 15.8
-17 13 2 36.9 11.6
4 13 -2 66.59 17.9
-13 17 -2 40.9 11.1
-17 4 -2 34.1 12.5
4 -17 2 49.3 10.8
-4 -13 -2 72.49 12.3
-4 -13 -2 77.39 15.6
3 -17 -2 31.7 11
-3 -14 2 53.69 12.2
3 -17 -2 43.6 13.8
-17 14 -2 26.2 10.7
-17 3 2 10 11.1
14 3 -2 46.5 22.2
3 14 2 31.1 15.2
14 -17 2 52.69 12.5
-14 17 2 33 12.7
-3 17 -2 40.7 16.5
-3 17 -2 48.1 13.4
3 14 -2 12.9 13.5
3 14 -2 29.8 16.3
-17 3 -2 19.7 11.6
17 -3 -2 66.19 22.4
-17 14 2 17 10.8
3 -17 2 45 10.6
-14 17 -2 40 11
-3 17 2 39.1 15.2
17 -14 2 47.9 11.3
-3 -14 -2 42.4 11.5
-3 -14 -2 30.7 12.4
15 -17 2 10.5 11.4
15 2 -2 25.5 21.8
2 -17 -2 2.4 11.1
-2 17 -2 22.5 12.7
2 15 2 16 14.2
-2 17 -2 31.4 16.5
17 -15 -2 1.5 7.7
2 -17 -2 12.7 13.5
-2 -15 2 20.1 11.1
-15 17 2 3.9 11.5
-2 17 2 29.7 14.6
15 2 2 -7 27.2
-2 -15 -2 13.7 12.6
17 -2 -2 29.6 22.2
15 -17 -2 8.6 8.7
-2 -15 -2 12 11.1
17 -15 2 16.8 10.8
2 15 -2 4.4 12.9
2 15 -2 15.8 15.7
2 -17 2 5.2 9.8
-15 17 -2 18.9 10.7
16 -17 2 21.1 11.6
-1 17 -2 19.7 14.2
17 -16 -2 17.3 9.2
-1 17 -2 22.7 16.4
-17 16 -2 0.1 12.1
16 1 -2 26 21.7
-16 17 2 -1.7 9.8
1 16 2 30.1 15
1 -17 -2 20 11.8
-1 -16 2 17.9 10.8
1 -17 -2 29.3 14.2
-16 17 -2 7.7 9.2
1 16 -2 14.5 15.6
-1 -16 -2 9 11.4
-1 17 2 30.1 15.1
-1 -16 -2 13.5 11.5
17 -16 2 20.6 11.4
16 -17 -2 16.9 9.5
1 -17 2 14.1 10.3
17 -1 -2 24.8 21.4
1 16 -2 -2.4 14.2
0 17 -2 6.1 13.2
-17 17 -2 -0.4 11.1
0 17 2 -0.2 14.2
0 -17 2 7.3 10
17 0 -2 12.8 20.5
0 -17 -2 -3.1 11.1
0 -17 -2 5 12
17 -17 2 9 11.1
17 -17 -2 9.1 9.6
0 17 -2 4.2 14.9
18 -9 2 24.8 10
18 -9 -2 3.1 8.3
-9 -9 -2 37.1 10.4
-18 9 2 25 11.1
9 -18 -2 20.9 9.4
-9 18 2 17.1 12
-9 -9 2 34.2 10.3
-18 9 -2 21.8 11.6
-9 18 -2 20.3 11
9 -18 2 29.8 10.2
10 -18 2 112.99 12.9
-10 -8 -2 80.19 11.6
-10 18 2 61.49 13.8
-8 18 -2 65.49 13
18 -8 2 117.89 13
-8 -10 2 81.29 11.6
-18 10 -2 57.39 13.4
8 -18 -2 86.69 12
-18 8 2 71.39 13.5
-18 10 2 56.39 12.6
-18 8 -2 67.09 14.5
-8 -10 -2 76.99 11.3
-10 18 -2 79.59 13.4
-10 -8 2 94.69 12.2
18 -10 2 91.19 11.7
8 -18 2 86.99 11.7
-8 18 2 45.1 13
10 -18 -2 66.59 10.8
-18 11 -2 23.4 11.6
-18 7 2 21.7 11.4
-7 18 -2 10.2 10
7 -18 -2 43.5 11.3
18 -11 -2 1.7 8.3
11 -18 2 28.1 10.8
-7 -11 2 28.8 10.3
-11 -7 -2 27.6 10.6
-11 18 2 23.2 12.3
7 11 2 -3.4 15.2
7 11 -2 28.4 14.7
-7 -11 -2 27.9 10
-18 7 -2 27.8 12.4
11 -18 -2 16.6 9.3
-18 11 2 17.1 11.1
-11 18 -2 16.7 10.5
18 -11 2 36.7 10.6
-7 18 2 7.2 12.1
7 11 -2 -8.2 9.8
-7 18 2 13 11.9
-11 -7 2 25.1 10.2
18 -7 -2 3.3 7
7 -18 2 23.9 10.4
12 -18 2 36.9 11.3
-18 12 -2 20.7 11.3
-12 -6 -2 36.2 11.4
18 -12 -2 3.5 7.6
-6 18 -2 5.2 13.4
-6 18 -2 -5.9 11.1
-6 -12 2 20.2 10.6
-18 6 2 19.8 11.9
6 -18 -2 -1.1 9.4
6 -18 -2 31.1 10.7
6 12 2 -8.9 8.7
-12 18 2 19.6 12.2
6 12 2 18.3 13.6
-6 18 2 8.8 11.5
6 12 -2 20.7 15.4
18 -12 2 36.4 10.8
12 -18 -2 22 9.5
18 -6 -2 10.3 13.5
-18 12 2 26 11.3
-6 18 2 25.7 13.9
6 12 -2 14.8 14.1
-6 -12 -2 33 10.3
-12 -6 2 43.7 11.6
-12 18 -2 19.1 10.6
6 -18 2 35.9 10.4
-18 6 -2 28.5 12.6
-18 5 2 6.1 11.5
18 -13 -2 1.9 7.6
5 13 2 11.9 14.6
13 5 -2 18.5 23
5 -18 -2 -5.7 11.6
-5 -13 2 -4.8 10.5
-18 13 -2 13.1 10.5
13 -18 2 15.6 10.7
5 13 2 6.7 12.6
-13 -5 -2 11.5 11.4
5 -18 -2 9.2 10.3
-13 18 2 -4.3 11.4
-5 18 -2 13.5 14.9
-5 18 -2 18.8 12.5
5 13 -2 6.1 14.8
-5 18 2 19 14.8
-5 -13 -2 4.2 10
18 -5 -2 23.9 17.8
5 -18 2 11 9.8
-18 5 -2 5.7 12
-18 13 2 17.3 11.4
18 -13 2 16.9 10.3
5 13 -2 6.6 15.7
13 -18 -2 23.8 9.8
-13 18 -2 20.3 11
-13 -5 2 26.2 11.6
-18 14 -2 7.9 10.2
4 -18 -2 13.2 10.9
-18 4 2 -1.1 10.8
-4 18 -2 19.4 12.6
-4 18 -2 17.6 16.4
4 14 2 17.6 14.7
14 4 -2 22.1 20.4
4 -18 -2 18.2 13
4 14 2 9.4 12.2
14 -18 2 22.8 11
-14 18 2 13.4 12
18 -14 -2 6.2 8.4
-4 -14 2 11.1 10.7
-4 -14 -2 8.9 10.3
4 14 -2 4.3 13.3
18 -4 -2 14.6 21.6
-18 14 2 1.4 10.1
18 -14 2 13.8 10.3
4 -18 2 9.6 9.1
-4 18 2 21.7 15
-18 4 -2 18 11.4
4 14 -2 15.4 15.2
-14 18 -2 5.1 9.8
14 -18 -2 13.6 9.5
-3 -15 2 10.6 10.6
15 -18 2 19.7 11.2
-15 18 2 10.1 11.5
3 15 2 18.5 14.3
3 15 2 15.6 12
18 -15 -2 9.6 9.4
3 -18 -2 15 13.9
-3 18 -2 18.9 13
-3 18 -2 15.1 14.6
3 -18 -2 20.3 11.5
15 3 -2 32.8 20.8
3 -18 2 11.1 9.5
-3 -15 -2 17.9 10.8
15 -18 -2 13.6 9.4
-3 18 2 9.7 14.2
18 -15 2 17.9 10.7
15 3 2 24.4 20.1
3 15 -2 1 13.5
18 -3 -2 17.8 21.8
3 15 -2 -2.1 15
-15 18 -2 12.9 9.8
-2 18 -2 25.8 14.9
-2 -16 2 27.6 10.9
2 -18 -2 22.3 11.6
2 16 2 29.9 12.6
16 -18 2 38.6 12
16 2 -2 7.8 20.2
-2 18 -2 40.3 13.2
2 -18 -2 30.4 14
2 16 2 27.2 15.1
18 -16 -2 24.3 10
2 -18 2 8.3 10.2
18 -2 -2 37.8 21.2
-2 18 2 12.3 13.8
-2 -16 -2 23.9 11.1
-2 -16 -2 4.9 11.7
-16 18 -2 10 9.3
18 -16 2 7.5 10.8
16 2 2 3.5 16.7
16 -18 -2 8.3 9.3
2 16 -2 17.2 14.6
2 16 -2 22 13.4
17 1 -2 33.2 19.8
18 -17 -2 7.8 9.6
1 -18 -2 22.4 11.5
1 17 2 6.2 14
17 -18 2 8.4 10.9
1 -18 -2 7.1 13.3
-1 -17 2 7.1 10.4
-1 18 -2 30.1 13.5
1 17 2 15.1 11.1
-1 18 -2 11.5 14.4
18 -1 -2 19.2 21.3
-1 18 2 10.3 14
-1 -17 -2 -2.3 10.7
1 17 -2 18.8 13.2
-1 -17 -2 -2.2 12.6
17 1 2 -5.9 24
-1 18 2 19.5 11.8
1 -18 2 16.2 10.5
18 -17 2 19.9 11
1 17 -2 20 14.9
17 -18 -2 7.4 9.4
0 18 2 3.2 12.9
18 -18 2 14.5 10.6
0 -18 -2 3 10.7
18 -18 -2 10.9 9.1
0 18 -2 11.6 11.2
0 -18 2 25.8 11
0 18 2 26.1 12.3
0 -18 -2 10.7 12.2
18 0 -2 0.7 19.8
0 18 -2 -0.3 12.7
19 -9 2 17.3 10
19 -10 -2 12.6 8.4
-19 10 -2 18.8 11.5
-9 -10 2 18 9.8
-10 19 2 3.2 12
-9 19 -2 11.2 10.7
-10 -9 -2 26.7 10.3
9 -19 -2 25.4 10.6
10 -19 2 21 10.3
-19 9 2 10.8 10.7
-19 9 -2 10.6 11.2
-10 -9 2 24.4 10.3
19 -9 -2 12.6 7.9
-19 10 2 13.4 10.9
10 -19 -2 15.1 9.9
19 -10 2 26.2 10.2
-10 19 -2 20.8 11.4
-9 -10 -2 18.1 10.1
9 -19 2 26.2 10.2
-9 19 2 6.2 11.9
-8 19 -2 0.7 9.1
-8 -11 2 33.2 10.2
8 -19 -2 20.4 10.7
11 -19 2 22.3 10.2
-11 19 2 32.5 12.9
19 -11 -2 29.7 9.4
-11 -8 -2 34.5 11
-19 11 -2 15.9 10.9
-19 8 2 14.7 11.5
19 -8 2 33.2 10.2
8 -19 2 36 10.7
-19 8 -2 20 11.4
11 -19 -2 27.5 9.9
-8 19 2 28.1 12.3
19 -11 2 40.6 10.9
19 -8 -2 21.4 8.7
-19 11 2 21.7 11.5
-11 -8 2 27.4 10.3
8 11 -2 -5 12.9
-8 -11 -2 32.2 10
-7 -12 2 22.6 9.9
-19 12 -2 22 11.5
-12 -7 -2 25.3 11
19 -7 2 16.1 10
-19 7 2 18.3 11.9
19 -12 -2 20.2 8.9
7 12 2 -7.8 9.9
12 -19 2 20.8 10.4
7 -19 -2 36.2 10.7
7 -19 -2 5.9 9.7
-12 19 2 18.1 12.8
-19 7 -2 18.8 11.5
19 -12 2 28.4 10.4
19 -7 -2 14.3 14.4
-7 -12 -2 14.9 9.7
7 -19 2 18.5 10.2
19 -7 -2 10.1 8.6
12 -19 -2 21.2 9.7
-12 -7 2 31.8 11.3
7 12 -2 -1.6 13.4
-7 19 2 -13.4 10.3
-12 19 -2 10.9 11.1
7 12 -2 -8.9 12.9
-19 12 2 20.5 11.8
-19 13 -2 4.2 10.6
13 -19 2 6.5 10.6
6 -19 -2 -2.4 9.9
6 -19 -2 8.3 11.4
-6 -13 2 -2.5 9.6
13 6 -2 -10 21.7
-13 19 2 2.2 11.8
-6 19 -2 11.3 10.8
-19 6 2 10.7 11.8
19 -13 -2 11.8 8.9
-13 -6 -2 1.7 11
6 13 2 -8.6 12.1
-19 13 2 10.3 11
-19 6 -2 2.6 11.9
-13 -6 2 19.8 11.2
-13 19 -2 10.7 10.9
13 -19 -2 2.7 9.1
19 -13 2 8.8 9.9
6 13 -2 -0.3 13.4
6 -19 2 14.8 9.7
19 -6 -2 6.5 16.7
6 13 -2 2.8 13.2
-6 -13 -2 -1.6 9.5
-6 19 2 -1.2 13.3
5 -19 -2 1.6 10.5
5 14 2 -3 13.9
-5 19 -2 3.8 12.3
5 -19 -2 5.7 12.7
5 14 2 -3.6 12.2
-19 14 -2 14.2 9.4
14 -19 2 2 10.2
-5 -14 2 20.3 10.1
19 -14 -2 14.6 9.2
-14 19 2 2.5 11.2
14 5 -2 21.5 20.7
-5 -14 -2 7.2 9.9
-19 14 2 0.3 9.8
-5 19 2 -0.2 13
-14 19 -2 4.8 10.3
5 14 -2 6.5 14.2
5 -19 2 -2 9.1
14 -19 -2 4.5 9.3
5 14 -2 7.8 13
19 -14 2 0.8 10
-19 5 -2 19 12
19 -5 -2 15.8 18.4
4 15 2 -1.4 12.5
-4 -15 2 3.7 9.8
4 15 2 -1 12.4
15 4 -2 5.3 20.8
-4 19 -2 -0.3 13.7
-15 19 2 2.2 10.6
4 -19 -2 8.8 11
-4 19 -2 4.1 12.2
4 -19 -2 9 12.8
15 -19 2 -2.7 10.2
19 -15 -2 15.9 9.7
4 -19 2 5.3 9.7
4 15 -2 10.5 14.1
-4 19 2 2.3 13.5
-15 19 -2 1.6 9.3
15 4 2 10.8 20.9
19 -4 -2 -6.1 18
4 15 -2 6.6 13.6
15 -19 -2 16.9 9.3
19 -15 2 1.8 9.9
-4 -15 -2 8.4 10.4
16 -19 2 55.29 11.2
3 -19 -2 35.6 13.1
-3 -16 2 40.9 11.1
16 3 -2 31.9 20.2
19 -16 -2 41.8 10.3
-3 19 -2 52.59 12.9
3 16 2 44.5 12.7
-3 19 -2 3.5 14.6
3 -19 -2 49.4 12.1
16 3 2 43 20.4
3 16 -2 34.1 13.7
3 16 -2 11.8 13.6
-3 19 2 50.39 12.3
16 -19 -2 30.5 9.6
19 -16 2 51.39 11.4
3 -19 2 43.5 10.9
19 -3 -2 53.09 20.5
-3 19 2 6.3 13
-3 -16 -2 50.89 11.5
2 -19 -2 -1.1 10.9
2 17 2 6.5 10.5
2 17 2 -2.9 14
-2 19 -2 13.9 11.5
2 -19 -2 0.2 10.7
17 2 -2 20.1 19.8
19 -17 -2 4.8 9.2
-2 -17 2 5.7 10.2
17 -19 2 0 10.2
-2 19 2 -2 12.7
2 -19 2 9 10.1
2 17 -2 -0.7 12.1
17 2 2 -3.6 15.6
19 -2 -2 1.4 19.4
-2 -17 -2 7.3 10.3
-2 19 2 6.2 11.2
17 -19 -2 9.4 8.8
19 -17 2 9.3 10.2
2 17 -2 12.2 12.1
19 -18 -2 4.8 8.9
1 18 2 15.1 10.4
-1 -18 2 9.9 10.1
18 -19 2 14.3 10.1
18 1 -2 36.6 18.9
1 -19 -2 9.5 10.6
-1 19 -2 5.2 11.2
1 -19 -2 -5.5 11.4
18 -19 -2 7.9 8.4
19 -18 2 6.9 9.8
-1 -18 -2 5.6 10.4
1 -19 2 4.5 9.9
19 -1 -2 4 18.2
-1 19 2 8.6 10.6
1 18 -2 11.5 12
0 -19 -2 7.2 9.9
0 19 -2 6.7 10.7
0 19 2 9.6 10.8
19 0 -2 -1.2 17.5
0 -19 2 5.3 9.5
19 -19 -2 9.7 8
19 -19 2 3.7 9.3
-10 -10 2 67.59 11.1
-10 20 2 28.5 11.7
-20 10 2 40.6 12.8
-20 10 -2 29.8 11.1
20 -10 -2 52.09 10.2
20 -10 2 63.89 10.7
10 -20 -2 55.89 11
-10 -10 -2 78.39 11.3
10 -20 2 51.19 10.7
-20 11 -2 27.8 11.2
-11 -9 -2 58.39 11.6
9 -20 -2 35.8 10
20 -11 -2 39.5 10
20 -9 2 69.49 11.3
-20 9 2 32.4 12.6
11 -20 2 50.09 10.8
-9 -11 2 55.59 11
-11 20 2 31.6 13
-11 -9 2 44 11
-20 11 2 40.6 12.9
11 -20 -2 35.1 10.3
-9 -11 -2 47.2 10.7
-11 20 -2 24.4 10.4
9 -20 2 53.19 11.2
-20 9 -2 30.4 12.1
20 -11 2 52.09 11.1
20 -9 -2 44.1 9.6
8 -20 -2 24.2 9.8
-20 8 2 21.2 11.4
-12 20 2 21.5 11.9
8 -20 -2 0.4 8.9
20 -12 -2 27.6 9.4
20 -8 2 39 10.4
-8 -12 2 18.4 9.6
12 -20 2 37.5 10.4
-20 12 -2 11 10.9
-12 -8 -2 50.89 12
-20 12 2 20.5 11.8
-8 -12 -2 44.2 10.4
-12 -8 2 38.4 11.4
20 -12 2 55.69 10.8
12 -20 -2 31.5 9.7
20 -8 -2 27.3 9
-20 8 -2 31.1 11.1
8 -20 2 41.7 10.8
20 -8 -2 -2.8 10.8
-12 20 -2 24.7 10.4
8 12 -2 31.7 11.9
7 13 2 19.3 10.4
13 7 -2 0 19.8
-13 -7 -2 31 11.7
-13 20 2 16.2 11.8
7 -20 -2 28.3 9.8
-7 -13 2 36.6 10.1
-7 20 -2 -7.5 8.8
-20 7 2 3.1 10.3
20 -13 -2 18.6 9.2
7 -20 -2 17 11
13 -20 2 35.6 10.5
20 -7 2 44 10.2
-20 13 -2 14.1 9.8
-7 -13 -2 31.1 9.9
-7 20 2 18.2 10.7
-20 13 2 5.6 10
7 13 -2 17.6 12.9
7 -20 2 43.7 10.3
20 -7 -2 27.2 9
-13 -7 2 41.2 11.6
20 -7 -2 26 15.7
-13 20 -2 15.7 10.5
20 -13 2 46.4 10.7
-20 7 -2 14 10.6
13 -20 -2 24.4 9.2
-6 20 -2 4.5 10.9
14 -20 2 -1.3 9.8
6 -20 -2 12 10.5
20 -14 -2 9.1 9.1
6 14 2 6.7 11.3
14 6 -2 16.6 20.3
6 -20 -2 10.3 11.6
-14 20 2 -5 10.4
-6 -14 2 13.2 9.4
-6 -14 -2 6.4 9.3
-14 20 -2 6.1 9.4
6 -20 2 3.1 8.7
14 -20 -2 7.6 8.7
20 -14 2 5.2 9.6
20 -6 -2 -11.2 8.1
-6 20 2 6.4 11.3
6 14 -2 -8.1 13.3
20 -6 -2 -1.8 17
5 -20 -2 46.4 13.1
15 -20 2 54.29 11.1
-5 -15 2 40.7 10.3
20 -15 -2 32.7 9.8
5 -20 -2 42 11.4
5 15 2 30.9 12.5
15 5 -2 24.1 20.2
-5 20 -2 43.9 12.4
5 -20 2 61.89 10.9
20 -15 2 81.89 11.6
-5 20 2 79.79 12.6
15 -20 -2 44.1 9.5
15 5 2 27.3 20.6
-5 -15 -2 47.3 10.6
20 -5 -2 52.19 18.1
5 15 -2 46.7 13.6
16 4 -2 -7.6 19.1
4 -20 -2 18.2 11
4 16 2 8.2 10.3
4 -20 -2 -6.6 11.6
20 -16 -2 3.1 8.9
-4 20 -2 17.3 11.3
-4 -16 2 6.5 9.6
16 -20 2 -2.4 9.3
-4 20 2 15.2 11.9
20 -4 -2 -0.3 16.8
4 16 -2 4.4 12.6
4 -20 2 7.9 9.5
16 -20 -2 8.8 8.3
16 4 2 -3 19.4
20 -16 2 8.2 9.8
-4 -16 -2 -0.7 9.4
3 -20 -2 20.6 10.8
3 17 2 12.1 11.2
17 -20 2 24.3 9.9
17 3 -2 8.9 18.2
3 -20 -2 9.4 10.9
20 -17 -2 9.4 8.9
-3 20 -2 23.2 11.1
-3 -17 2 16 9.6
17 3 2 38.3 18.2
3 17 -2 19.2 12.1
17 -20 -2 22.8 8.8
20 -3 -2 13.8 17
-3 20 2 32.6 11.1
20 -17 2 20.3 9.9
-3 -17 -2 16.4 9.6
3 -20 2 13.4 9.7
20 -18 -2 9.6 8.2
-2 -18 2 7.1 9.2
2 -20 -2 9 10.3
-2 20 -2 17.3 11.4
18 -20 2 16.7 9.2
18 2 -2 -0.4 17.6
2 18 2 13.3 9.9
2 -20 -2 3.2 10.5
2 -20 2 9.8 9.6
2 18 -2 6.9 10.6
-2 20 2 8.3 10.3
20 -2 -2 12.7 15.7
20 -18 2 1.8 9.3
18 -20 -2 8.7 7.8
18 2 2 -3.4 19
-2 -18 -2 -3.2 8.4
19 1 -2 32.5 16.5
20 -19 -2 6.3 7.2
1 -20 -2 9.1 9.7
1 19 2 7.9 9.6
-1 20 -2 22.6 9.9
-1 -19 2 9 8.7
19 -20 2 9 8.1
-1 20 2 2.9 9.5
1 19 -2 7.3 10
19 -20 -2 7.3 7.2
20 -1 -2 -4 16
-1 -19 -2 1.7 9
20 -19 2 4.5 8.5
1 -20 2 3.1 9.1
0 -20 -2 6.7 8.7
0 -20 2 8.3 8.4
20 0 -2 8.4 15.5
0 20 -2 9.2 9.3
0 20 2 13.9 9.4
20 -20 -2 -3.9 6.6
20 -20 2 7.1 7.9
-11 -10 -2 14.3 10.4
-21 10 2 3.6 10.7
21 -10 2 6.8 9.5
-21 11 -2 15.4 10
10 -21 -2 2.6 8.6
-10 -11 2 1.6 9.3
11 -21 2 9.1 10.1
21 -11 -2 8.5 8.5
21 -11 2 -0.8 9.3
-10 -11 -2 1.9 9.6
-21 11 2 4.8 9.8
10 -21 2 3.4 9.5
11 -21 -2 7.7 9.1
-21 10 -2 13.1 10.6
21 -10 -2 12.1 8.7
-11 -10 2 12.3 9.8
21 -9 2 13.7 9.2
12 9 -2 6.3 22.5
21 -12 -2 14.6 8.8
-12 -9 -2 25.6 10.7
-9 -12 2 19.5 9.7
9 -21 -2 16.6 8.7
12 -21 2 21 9.5
-9 -12 -2 9 9.4
9 -21 2 14.8 9.6
21 -12 2 10.7 9.3
21 -9 -2 9.4 8.5
12 -21 -2 9.4 8.8
-12 -9 2 16.6 10.9
-13 -8 -2 16.1 10.6
13 8 -2 7.6 19
8 -21 -2 19.9 8.9
21 -13 -2 20.7 8.7
21 -8 2 30.6 9.3
8 -21 -2 1.7 9.1
13 -21 2 20.8 9.6
-8 -13 2 21.5 9.7
21 -13 2 20.3 9.6
21 -8 -2 0.9 11.6
-8 21 2 0.8 7.9
21 -8 -2 13.6 8.1
8 -21 2 21.3 9.1
-8 -13 -2 12.9 9.4
13 -21 -2 8.2 8.1
8 13 -2 -1.2 10.5
-13 -8 2 12.9 10.8
21 -7 2 16.6 9.1
7 14 2 14.6 10.2
14 7 -2 21.7 19
14 -21 2 20.1 9.4
-7 -14 2 16.3 9.2
21 -14 -2 11.6 8.6
-7 21 -2 -0.2 8
7 -21 -2 3.5 9.1
7 -21 -2 6 9.3
21 -14 2 13.3 9.1
14 -21 -2 15.5 8.2
7 -21 2 -0.2 8.4
21 -7 -2 4.8 7.7
-7 21 2 13.7 9.8
-7 -14 -2 12.3 9.4
21 -7 -2 -2.4 10.5
7 14 -2 12.1 12.2
6 -21 -2 12.5 10.2
15 -21 2 12.4 9.1
21 -6 2 16 9
-6 21 -2 7.2 10.2
6 15 2 12.2 10.7
21 -15 -2 9.8 8.6
6 -21 -2 18.1 10.8
-6 -15 2 0.6 8.9
15 6 -2 6.2 18.6
21 -15 2 7.7 9
21 -6 -2 11 14.4
-6 21 2 15.9 10.6
6 -21 2 4 8.9
15 6 2 -4 19
15 -21 -2 9.3 7.7
6 15 -2 7.3 12.2
-6 -15 -2 10.7 9
21 -6 -2 7.1 7.6
-5 21 -2 20.6 10.2
5 16 2 22.3 10.3
21 -5 2 42.6 9.6
5 -21 -2 27.4 10.5
16 -21 2 31.2 9.3
21 -16 -2 29.1 8.9
-5 -16 2 15.3 9.1
5 -21 -2 24.8 11.4
16 5 -2 14.1 17.6
5 -21 2 12.8 9.1
5 16 -2 12.2 10.9
16 -21 -2 12.7 7.8
21 -16 2 17.2 9.2
-5 -16 -2 20.2 9.3
21 -5 -2 13.5 15.4
16 5 2 10.1 18.8
-5 21 2 18 11.2
21 -5 -2 16.2 7.6
4 -21 -2 12.4 9.7
17 4 -2 19 17.6
-4 -17 2 17.1 8.7
4 17 2 17.9 9.7
21 -17 -2 13.4 7.9
-4 21 -2 25.6 10.6
17 -21 2 26.6 9.2
4 -21 -2 21.4 10.3
21 -17 2 16.4 9.1
17 -21 -2 24.8 7.8
21 -4 -2 8.6 15
-4 -17 -2 17.4 8.8
17 4 2 24.7 17.4
21 -4 -2 18.3 7.1
-4 21 2 26.4 10.1
4 -21 2 24.2 9.6
4 17 -2 11.5 10.5
21 -18 -2 4.7 6.9
18 3 -2 0.7 16.2
18 -21 2 18.4 8.5
3 18 2 16.9 9.6
-3 -18 2 20.8 8.5
3 -21 -2 8.6 9.8
-3 21 -2 11.3 9.6
3 -21 2 15.3 9.3
21 -3 -2 -1 14.3
18 3 2 -2 15
21 -18 2 23.7 8.9
-3 21 2 14.7 9.6
-3 -18 -2 18.7 8.8
18 -21 -2 17.6 7.2
3 18 -2 1.5 9.7
-2 -19 2 29.9 8.5
19 2 -2 13.6 15
2 19 2 18.9 9.1
-2 21 -2 39.3 9.7
2 -21 -2 53.89 10.2
19 -21 2 33.8 8.6
21 -2 -2 11.9 13.8
21 -19 2 40.6 8.9
-2 -19 -2 36.5 8.7
-2 21 2 35.3 9.6
2 -21 2 31.8 8.8
2 19 -2 28.4 9.6
20 1 -2 -8.3 13.9
-1 -20 2 -3.1 7.1
-1 21 -2 1.4 8.5
1 -21 -2 5.6 8.2
1 20 2 5.4 8.7
20 -21 2 8.5 7.3
21 -1 -2 0.9 12.3
-1 -20 -2 8.3 8.2
1 20 -2 12.5 9.2
-1 21 2 11.1 9.2
1 -21 2 -3.9 7.4
21 -20 2 5.4 7.6
0 21 2 10.7 8.9
0 -21 2 14.8 7.7
21 -21 2 14.1 7.6
0 -21 -2 14.9 8.2
21 0 -2 7.1 11.2
0 21 -2 24.2 9.3
22 -11 2 37.8 9.5
22 -11 -2 16.5 7.8
-11 -11 2 19.6 9.8
11 -22 -2 29.6 8.3
11 11 -2 24.3 20.7
-11 -11 -2 33.1 10.5
11 -22 2 39.6 9.6
10 -22 -2 4.5 7.7
-12 -10 -2 3.2 9.9
-10 -12 2 7.1 9.2
22 -10 2 5 8.8
22 -12 -2 3.3 7.6
12 -22 2 -0.8 8.7
12 10 -2 11.3 18.8
-10 -12 -2 -4.6 9.3
10 -22 2 12.8 8.4
22 -10 -2 4.3 7.6
22 -12 2 6.5 8.6
-12 -10 2 10.5 9.9
12 -22 -2 2.3 7.6
-9 -13 2 11.5 8.8
22 -13 -2 8.4 7.7
-13 -9 -2 9.7 9.7
13 -22 2 16.6 8.8
9 -22 -2 12.1 8
22 -9 2 13.8 8.2
13 9 -2 5.4 19.2
22 -9 -2 11.1 7.6
22 -13 2 7.3 8.4
-13 -9 2 7.5 9.8
-9 -13 -2 10 8.8
9 -22 2 14.4 8.1
13 -22 -2 3.9 8
14 8 -2 10.2 18.5
-8 -14 2 9.6 8.8
22 -14 -2 7.8 7.8
14 -22 2 15.5 8.8
8 -22 -2 19 8.9
22 -8 2 10.3 8.3
22 -8 -2 13.4 7.4
-8 22 2 -6 6.6
8 -22 2 5.2 7.9
-8 -14 -2 14 8.7
22 -14 2 13.1 8.6
8 14 -2 12.9 9.3
14 8 2 2.9 19.9
14 -22 -2 10.9 7.7
22 -7 2 2.8 8
7 -22 -2 9.9 9.2
22 -15 -2 5.4 7.3
15 7 -2 15.6 18.2
7 15 2 3 7.8
-7 22 -2 -2.1 6.3
15 -22 2 3.7 8
-7 -15 2 0.8 8.6
22 -15 2 1.7 8
7 -22 2 -5.4 7.9
15 -22 -2 4.8 7.3
22 -7 -2 2.3 6.6
-7 22 2 0.4 8.1
15 7 2 2.5 18
-7 -15 -2 0.6 8.3
7 15 -2 -4.4 10
-6 22 -2 8.1 8.1
6 -22 -2 1.5 7.2
6 16 2 8.6 9.4
22 -6 2 6.2 7.9
6 -22 -2 8.1 9.3
22 -16 -2 -4.6 6.6
-6 -16 2 9.6 8.1
16 -22 2 14.7 8.1
16 6 -2 8.7 16.3
6 16 -2 12 10.1
16 6 2 -3.9 17.1
16 -22 -2 9.7 7
22 -6 -2 -0.7 13.7
-6 22 2 10.9 9.2
22 -16 2 9.1 8.4
22 -6 -2 7.9 6.3
-6 -16 -2 14 8.7
6 -22 2 -1.6 8.4
17 5 -2 12.4 15.7
22 -5 2 6.9 7.6
5 17 2 12.4 9
5 -22 -2 0.1 9
5 -22 -2 1.9 7.2
-5 22 -2 2.4 8.6
17 -22 2 12.2 7.9
22 -17 -2 -1.1 7.9
-5 -17 2 -1.1 7.3
17 5 2 -9.6 15.2
22 -17 2 1.7 7.8
-5 22 2 2.9 9.6
22 -5 -2 10.1 5.9
17 -22 -2 5.5 6.1
22 -5 -2 -1.7 9.7
5 -22 2 7.3 8.4
-5 -17 -2 5.7 8.3
5 17 -2 -7.7 9
4 18 2 5.7 8.5
18 -22 2 8.9 7.6
-4 -18 2 10 7.4
22 -4 2 3.9 7.2
18 4 -2 -1.4 14.6
4 -22 -2 4.4 8.6
-4 22 -2 13.2 9
4 18 -2 8.3 8.7
18 -22 -2 -2.9 6.8
4 -22 2 0.8 8.3
22 -4 -2 -0.8 11.1
22 -4 -2 3.6 5
-4 -18 -2 4.3 7.9
22 -18 2 7 7.9
-4 22 2 17.4 9.3
19 -22 2 26.8 7.7
-3 -19 2 15.1 7
22 -3 2 25.7 7.4
3 19 2 27.4 8.2
19 3 -2 6.3 14
3 -22 -2 26.6 9.1
-3 22 -2 27.5 9.6
3 -22 2 17 8.2
22 -3 -2 2.3 9.6
-3 22 2 15.4 8.9
-3 -19 -2 22.8 8.1
3 19 -2 24.3 9.2
22 -3 -2 2.5 7.4
22 -19 2 19.6 7.9
22 -2 2 4.3 7.4
-2 -20 2 1.9 7.2
20 -22 2 0.5 7
2 -22 -2 1.1 8.3
2 20 2 4.4 8.4
-2 22 -2 8.4 9.2
20 2 -2 0.8 12.6
-2 -20 -2 6.5 8.2
22 -20 2 3.3 7.8
2 -22 2 2.2 7.9
-2 22 2 13.2 8.8
2 20 -2 8.3 8.9
22 -1 2 10.9 8.1
21 -22 2 26.5 7.9
-1 -21 2 13.7 8
1 -22 -2 24 8.6
21 1 -2 4.3 7.5
1 21 2 25.5 9.6
-1 22 -2 15.6 10.5
-1 22 2 16.4 9.8
1 -22 2 15.9 8.4
1 21 -2 16.8 9.9
22 -21 2 29.6 8.3
-1 -21 -2 19.2 8.5
12 11 -2 4.6 17.5
23 -11 2 -0.4 7.5
12 -23 2 17.1 7.9
-11 -12 2 2.9 8.8
11 -23 -2 10.4 7
23 -12 -2 -0.4 6.4
-12 -11 -2 12.4 9.2
23 -12 2 11.8 7.9
12 -23 -2 7.6 6.8
-12 -11 2 12.8 9.4
-11 -12 -2 7.4 9.3
11 -23 2 16.5 7.8
23 -11 -2 0.6 6.7
11 12 -2 7.5 17.6
10 -23 -2 25.8 7.7
23 -10 2 19.9 8.1
23 -13 -2 0.2 9.2
13 -23 2 26.3 8.4
13 10 -2 -7.4 17.4
-10 -13 2 18.7 8.9
23 -10 -2 5.2 6.2
10 13 -2 7 20.2
10 -23 2 17.5 7.8
13 -23 -2 15 7
-10 -13 -2 17 8.9
23 -13 2 22.9 8
14 9 -2 9 16
-9 -14 2 3.6 8.1
9 -23 -2 19.5 7.9
14 -23 2 19.6 7.9
23 -9 2 19.4 7.9
23 -9 -2 2.7 6.3
9 -23 2 19.2 7.7
23 -14 2 7 7.7
14 -23 -2 12.5 6.7
-9 -14 -2 14.2 8.6
14 9 2 14.5 16.8
15 -23 2 7 7.7
15 8 -2 -8.5 15.7
-8 -15 2 6 7.9
23 -8 2 6.8 7.8
8 -23 -2 4.1 8
23 -15 2 3.7 8
23 -8 -2 3.7 9.4
8 -23 2 7.5 8.2
-8 -15 -2 4.7 8.1
15 -23 -2 2.8 6.5
15 8 2 -10.1 15.9
23 -7 2 7.6 7.1
16 7 -2 5.2 15.1
16 -23 2 9.5 7.4
-7 -16 2 13.6 7.4
7 -23 -2 12 8.3
7 -23 2 8.6 8.3
7 16 -2 5.2 8.1
-7 23 2 2.2 6.3
16 -23 -2 0.3 5.3
16 7 2 6.5 15.5
-7 -16 -2 5.8 7.9
23 -16 2 16.9 7.9
6 17 2 -3.8 6
-6 -17 2 -2 7.1
17 6 -2 4.2 14.8
23 -6 2 4.2 6.9
-6 23 -2 -0.6 6.1
17 -23 2 0.6 7
6 -23 -2 -2.3 8.4
-6 -17 -2 11.3 8
23 -17 2 3.7 7.4
-6 23 2 10.9 8.6
17 6 2 3.5 12
6 -23 2 8 8.3
6 17 -2 2.6 8.4
18 -23 2 21.2 7.5
-5 23 -2 15.3 7.2
-5 -18 2 7 7.3
5 -23 -2 16.8 8.9
18 5 -2 4.2 14
23 -5 2 25 7.6
5 18 2 13 7.4
5 -23 2 15.8 8.4
-5 23 2 23.3 8.4
5 18 -2 17.5 8.4
-5 -18 -2 27.5 8.5
23 -18 2 22.5 8.2
4 -23 -2 5.2 8
-4 23 -2 -2.3 8.4
4 19 2 8.9 8.5
23 -4 2 2.5 7.3
-4 -19 2 1 7.5
19 4 -2 -0.5 14.3
19 -23 2 0.1 7.5
23 -19 2 0.8 8.4
-4 -19 -2 -1.1 8.7
-4 23 2 7.7 9.3
4 -23 2 -0.9 8.3
4 19 -2 3.2 9.1
20 -23 2 7.2 7.8
-3 -20 2 10.6 8.3
3 20 2 11.2 9.3
-3 23 -2 9.2 9.5
20 3 -2 -2 11.8
3 -23 -2 1.6 5.5
23 -20 2 16.3 8.4
3 20 -2 15.1 10.1
3 -23 2 13.9 9.1
-3 23 2 16.7 10
-3 -20 -2 17.2 9.1
-12 -12 2 9.3 8.1
12 -24 2 6.6 7.4
12 12 -2 0.7 16.4
24 -12 2 6 7.1
12 -24 -2 6.3 5.7
13 11 -2 -6.5 16.6
24 -11 2 18.5 7.4
-11 -13 2 7.2 8.2
11 -24 -2 15.5 6.7
13 -24 2 6.6 7.2
24 -13 2 10.3 7.3
13 -24 -2 -0.6 4.7
11 -24 2 13.9 7.4
13 11 2 -4.3 15
11 13 -2 2 16.3
-11 -13 -2 10.2 8.8
24 -10 2 1.4 7.3
10 -24 -2 4.9 7.2
14 -24 2 9.9 7.6
14 10 -2 0.9 16.5
-10 -14 2 4.3 8.3
-10 -14 -2 -2.2 8.7
14 -24 -2 -0.2 7.3
10 14 -2 12.9 17.6
14 10 2 -2.6 15.4
24 -14 2 -0.6 7.5
10 -24 2 -2.8 7.7
-9 -15 2 2.6 7.8
9 -24 -2 7.4 7.1
24 -9 2 3 7.6
15 -24 2 5.9 7.8
15 9 -2 -5.5 15.7
9 15 -2 2.3 16.9
-9 -15 -2 -3.7 8.8
24 -15 2 -4.3 7.8
15 9 2 8.5 14.6
9 -24 2 -2.3 8.1
-8 -16 2 4.9 7.9
16 -24 2 9.2 7.4
16 8 -2 -3.1 16
8 -24 -2 4.3 6.8
24 -8 2 -0.9 7.7
-8 -16 -2 10.2 9
24 -16 2 2.7 8
16 8 2 -2.7 12.3
8 -24 2 13 8.7
8 16 -2 16.4 16.6
17 -24 2 5.8 7.9
-7 -17 2 7.3 7.9
24 -7 2 4.8 7.9
17 7 -2 -7.6 16.4
7 -24 -2 -0.7 5.9
7 -24 2 10.7 9.1
24 -17 2 7.8 8.1
-7 -17 -2 10.7 9.6
7 17 -2 -7.1 17.1
-6 -18 2 -2.3 8.4
18 6 -2 -9.4 16.8
24 -6 2 7.2 8.2
18 -24 2 2.9 8.1
-6 -18 -2 1.3 9.6
6 -24 2 1 9.4
24 -18 2 0.7 8.9
13 -25 2 4.5 8
13 12 -2 15.9 18.1
12 13 2 -7.3 17.2
12 -25 2 -0.2 8.7
13 12 2 -13.5 17.1
12 13 -2 2.6 17.6
11 14 2 3.8 19.5
14 11 -2 -2.7 18.5
14 11 2 8.7 17
11 14 -2 5 18.9
0 0 -3 -0.8 6.5
0 0 -3 -1 5.3
0 0 3 -0.7 2.6
0 0 3 -0.4 3.9
-1 0 -3 1.8 6.8
1 0 -3 -1 5.4
0 1 3 3.1 3
0 -1 -3 1.6 6.1
1 -1 3 3.5 4.8
0 1 -3 -0.8 5.7
1 -1 -3 0 5.5
-1 1 -3 -1.9 6.3
1 0 3 0.8 4.3
0 1 3 -1.5 4.4
1 0 3 -5.5 4.1
0 -1 -3 2.8 6.1
-1 1 3 1.7 4.3
0 1 -3 -1.5 4.6
-1 1 -3 2.7 4.3
1 0 -3 -2.8 6.7
-1 0 3 -1 3.6
0 -1 3 1.1 3.5
1 -1 -3 0.3 6.3
0 1 -3 -1 7.5
0 1 3 8.1 3.6
-2 1 -3 70.09 10.5
-1 2 3 37.5 5
2 -1 -3 39.4 3.9
2 -1 -3 55.69 8.6
2 -1 -3 33.9 4.9
1 -2 -3 39.5 5
1 1 -3 46.7 8.7
1 1 3 40.2 5.8
-2 1 -3 53.29 6.7
-1 2 -3 54.79 7.7
1 -2 -3 60.89 8.5
2 -1 -3 57.39 8.6
1 1 -3 35.7 6.1
1 1 3 40.8 6
-1 -1 3 32.7 5.4
1 -2 -3 44.7 6.6
1 1 -3 42.6 7.6
2 -1 3 59.99 9.6
2 -2 -3 171.58 13.9
0 2 -3 178.18 14.8
2 -2 3 171.08 15.4
2 -2 -3 155.68 10.3
-2 2 3 185.78 10.5
0 2 3 163.98 11.3
-2 2 -3 181.18 15.2
2 0 -3 181.68 14.4
2 0 -3 179.18 10.5
0 2 -3 174.58 12.2
2 -2 -3 188.48 12.6
-2 2 -3 171.88 12.3
2 0 -3 185.38 14.7
2 0 3 167.98 14.6
3 -1 3 58.99 10.7
1 -3 -3 64.29 10
3 -2 -3 60.09 9.5
-3 2 -3 92.99 12.2
1 2 3 54.89 7.4
2 -3 3 72.39 12.1
1 2 3 80.19 8.9
3 -2 -3 70.59 11.6
2 1 -3 60.59 7.8
-1 3 -3 66.19 9.5
2 1 -3 64.19 10.7
-3 2 -3 58.79 9.7
2 -3 -3 71.29 9.7
2 1 3 64.29 11.6
-2 3 -3 72.49 10.1
2 -3 -3 66.79 7.2
2 1 3 80.99 9.9
3 -1 -3 74.89 6.4
1 2 -3 70.49 12
-2 3 -3 69.59 10.2
1 2 -3 73.19 10.3
-3 2 3 71.39 7.7
-3 1 -3 72.19 8.7
3 -1 -3 76.29 11.6
2 1 3 77.39 7.2
3 -1 -3 70.89 11
1 2 -3 71.59 8.4
3 -2 3 73.49 12.3
3 -3 -3 432.36 26.2
0 3 -3 428.76 24.7
3 0 -3 442.76 23.7
-3 3 -3 448.86 26.7
3 -3 -3 455.95 24.1
3 0 3 443.36 27.3
3 0 -3 431.66 26.2
0 3 3 430.76 24.2
0 3 -3 421.66 26.2
3 -3 3 436.76 26.7
-3 3 -3 459.45 25.4
-3 3 3 432.76 23.8
0 3 3 417.06 24.1
3 0 -3 406.86 25.8
2 2 3 86.59 10.3
-2 4 -3 86.49 11.1
2 2 3 72.59 11.8
-4 2 -3 83.79 10.2
2 2 -3 81.29 12.9
4 -2 3 89.09 14
2 -4 3 82.69 12.7
-2 4 -3 87.99 11.3
2 2 -3 83.69 9.9
2 2 3 83.79 8.3
2 2 -3 81.29 10.4
4 -2 -3 87.69 12.8
4 -2 -3 78.79 10.2
2 -4 -3 91.39 10.6
1 3 3 352.76 21
-1 4 -3 359.36 24.1
-1 4 -3 361.76 22.1
4 -3 -3 375.56 24.3
3 1 -3 356.76 23.9
3 1 -3 360.46 21
-4 3 -3 357.46 22.4
3 1 -3 355.16 22.9
-3 4 3 386.66 21.8
1 3 3 362.96 22.1
1 -4 -3 389.96 22.7
4 -1 3 354.96 25
3 -4 3 373.06 24.2
4 -3 -3 372.26 21.8
-4 3 3 426.76 24.7
3 -4 -3 449.46 26.8
-1 4 3 446.26 24.7
1 -4 3 443.06 26.5
1 3 -3 434.16 26.7
4 -1 -3 463.95 27.6
3 1 3 424.56 24.1
3 1 3 438.56 26.4
-1 4 3 429.96 23.5
4 -1 -3 412.26 26.1
1 3 -3 464.75 25.7
1 3 -3 455.45 25.2
4 -3 3 419.36 27.7
3 1 3 430.06 27.1
4 -1 -3 459.65 23.7
3 -4 -3 404.36 22.6
-3 4 -3 427.56 27.4
-3 4 -3 436.66 25.5
-4 4 3 194.18 14.4
4 -4 -3 190.68 16.3
0 4 -3 205.78 15.2
4 0 -3 191.98 16
4 0 -3 187.68 16.7
-4 4 -3 200.58 15.6
-4 4 -3 193.78 16.9
4 0 -3 198.48 13.5
0 4 -3 198.58 16.3
4 0 3 201.28 17.5
0 4 3 208.68 13.9
4 -4 -3 207.88 13.3
4 -4 3 204.28 17.6
4 0 3 201.78 16.7
0 4 3 205.28 13.8
5 -3 -3 89.99 12.8
2 -5 -3 92.99 11.1
2 3 3 78.69 11
3 2 -3 89.99 10.4
2 3 3 95.99 9.4
2 3 3 88.49 11.9
3 2 -3 93.49 11.5
5 -3 -3 87.99 11.5
5 -2 3 83.39 13.1
-2 5 -3 87.59 13.3
3 2 -3 82.79 12.6
5 -2 3 86.49 13.3
-2 5 -3 85.49 12.1
-5 3 -3 94.19 11.7
3 -5 3 104.39 13.7
-3 5 3 118.59 11.5
-2 5 3 47.6 8.5
2 3 -3 44.3 11.2
2 3 -3 31.2 7.1
3 -5 -3 34.9 8
5 -3 3 31.2 9.8
3 2 3 31.6 6.7
3 2 3 37.9 9.1
-5 2 -3 36.5 8.9
-3 5 -3 45.3 10.3
5 -2 -3 31.7 9.4
-3 5 -3 31.5 9.5
-5 3 3 34.4 8
2 -5 3 23.6 7.8
5 -2 -3 26.3 9
2 3 -3 51.59 9.2
3 2 3 34.7 8.1
1 -5 -3 81.89 10.6
-1 5 -3 79.19 12.3
4 1 -3 90.49 12.2
-5 4 -3 89.39 12.3
5 -1 3 80.79 14.3
1 4 3 94.29 10.9
4 -5 3 91.49 13.4
4 1 -3 91.09 10.2
5 -1 3 81.09 12.2
1 4 3 80.39 10.8
-1 5 -3 83.89 13.4
-4 5 3 80.29 10.1
1 4 3 115.69 12.6
5 -4 -3 82.49 9.9
5 -4 -3 85.89 13
4 1 -3 78.49 12.3
4 1 3 89.99 12.7
-5 4 3 87.69 11.5
5 -1 -3 95.49 13.8
-4 5 -3 90.39 11.8
1 -5 3 91.29 12.1
5 -1 -3 91.49 13.7
4 -5 -3 112.19 13.5
4 1 3 86.99 13.3
4 1 3 85.69 9.5
-1 5 3 73.89 7.5
-1 5 3 101.49 10.7
1 4 -3 83.69 14.6
1 4 -3 92.09 10.2
5 -1 -3 87.69 9
5 -4 3 90.89 13.2
-4 5 -3 99.39 14.2
1 4 -3 92.39 10.9
-5 5 3 830.42 44.9
5 0 3 787.22 43.9
5 0 3 809.92 47.1
5 0 -3 861.21 44.1
5 0 3 829.22 47.8
0 5 -3 806.02 46.3
-5 5 -3 854.11 46.1
5 0 -3 828.02 46.8
0 5 -3 794.82 45.3
0 5 3 770.42 43.6
5 -5 -3 832.02 43.2
5 -5 3 862.51 48
5 -5 -3 870.51 47.6
-5 5 -3 851.41 47.1
5 0 -3 843.42 47.2
0 5 3 837.12 44.9
3 3 -3 1.2 8.5
-3 6 -3 12.9 9.8
6 -3 -3 9.3 10.4
-6 3 -3 -1.3 8
3 -6 3 8.5 7.3
3 3 3 11.1 9.1
-6 3 -3 1.5 4.2
3 -6 -3 4.4 6.6
6 -3 -3 9 9.7
3 3 3 -0.1 7.1
3 3 -3 3.1 9.3
-3 6 -3 7.9 8.5
3 3 -3 6.5 6.8
6 -3 3 12.1 9.2
3 3 3 7.8 6.6
6 -3 3 2 8.5
-3 6 3 11.4 8.6
-4 6 3 1377.16 68.59
6 -4 -3 1297.77 71.19
2 4 3 1300.07 69.19
-2 6 -3 1254.77 68.69
6 -4 -3 1154.98 68.09
2 4 3 1201.58 68.29
4 2 -3 1309.87 68.89
4 -6 3 1380.36 70.39
2 -6 -3 1327.87 68.19
-6 4 -3 1385.36 69.59
-2 6 -3 1293.97 69.59
4 2 -3 1330.27 70.39
4 2 -3 1310.47 67.79
2 4 3 1269.77 67.69
6 -2 3 1359.56 70.79
6 -2 3 1244.38 70.99
-4 6 -3 1420.56 74.89
-4 6 -3 1451.65 74.19
2 4 -3 1380.76 74.99
4 2 3 1395.46 74.59
4 2 3 1377.06 74.89
4 2 3 1399.16 72.39
2 4 -3 1355.06 73.19
2 4 -3 1375.06 72.49
6 -4 3 1359.26 75.89
6 -2 -3 1424.16 76.29
6 -2 -3 1420.96 74.79
2 -6 3 1315.27 73.39
-6 4 3 1371.66 72.99
4 -6 -3 1528.75 74.69
-2 6 3 1418.86 73.29
5 1 -3 407.56 26.4
5 1 -3 401.56 27.4
5 1 -3 410.06 24.3
-6 5 -3 369.76 25.8
-1 6 -3 402.96 26.7
-5 6 3 393.16 24.8
6 -5 -3 386.86 24
1 5 3 359.96 23.9
5 -6 3 411.66 28.1
-1 6 -3 389.26 25.6
1 5 3 412.36 24.8
1 5 3 414.26 25.8
6 -5 -3 417.36 29.3
6 -1 3 390.36 28.8
6 -1 3 390.06 27.9
1 -6 3 476.15 27.7
-1 6 3 488.35 27.7
5 1 3 442.86 30.1
1 5 -3 461.95 28.4
5 -6 -3 477.15 30.2
6 -5 3 449.56 31.7
5 1 3 447.66 30.3
-6 5 3 441.26 27.7
6 -1 -3 471.15 30.9
6 -1 -3 463.65 31.3
-5 6 -3 450.45 30.2
1 5 -3 463.25 29.5
5 1 3 446.26 26.6
6 -1 -3 460.65 26.4
-5 6 -3 463.45 28.9
6 0 -3 258.87 22
-6 6 -3 298.37 21.4
0 6 -3 261.77 22
0 6 -3 278.47 20.4
6 0 3 281.17 24
6 -6 -3 292.37 23.6
6 0 -3 275.07 22.2
-6 6 3 279.87 20.1
0 6 -3 247.88 19.8
0 -6 3 263.67 18.5
0 6 3 300.07 19.8
6 0 3 282.87 18.5
6 0 3 272.67 23.1
-6 6 -3 260.77 18.8
6 -6 3 277.87 23.4
6 0 -3 292.77 18.7
0 6 3 263.57 19.6
-7 4 -3 196.38 18.1
4 3 -3 210.28 16.3
4 -7 3 191.38 18.5
-4 7 3 166.98 16.6
-4 7 3 221.98 17.2
7 -4 -3 192.08 18.7
-7 4 -3 187.48 16.3
7 -3 3 189.78 21.5
-7 3 3 177.58 15.8
3 4 3 210.68 17.2
-3 7 -3 226.58 18.1
7 -3 3 212.88 20.2
7 -4 -3 194.88 23
3 4 3 197.98 17.7
3 -7 -3 187.08 15.7
4 3 -3 196.08 19.5
-3 7 -3 198.88 18.6
4 3 -3 211.58 17
3 4 3 204.68 15.5
3 4 -3 213.48 16.5
4 -7 -3 271.17 19.9
3 4 -3 253.37 21.6
3 4 -3 266.57 19.3
4 3 3 251.67 20.1
7 -3 -3 247.78 23.2
4 3 3 250.27 17.5
7 -4 3 247.58 22.5
-7 4 3 211.28 17.5
3 -7 3 231.18 19.1
-3 7 3 218.88 18.3
-3 7 3 281.87 20
-7 4 3 244.58 18.5
-4 7 -3 243.28 20.1
3 4 -3 248.28 17.2
-7 3 -3 250.07 19.6
-4 7 -3 214.78 17.5
7 -4 3 260.77 20.6
-7 3 -3 256.47 19.1
7 -3 -3 247.68 22
-4 7 -3 247.68 20.8
4 3 3 239.28 20.2
-5 7 3 243.88 18.7
5 2 -3 245.08 21.4
2 5 3 228.98 18.5
-7 5 -3 229.48 18.4
2 -7 -3 196.98 16
7 -5 -3 195.78 17.8
7 -2 3 212.88 21.5
2 5 3 214.08 17.8
5 -7 3 237.78 21.3
-7 2 3 196.48 16.4
7 -2 3 237.38 22.1
-2 7 -3 234.98 19.3
-5 7 3 200.48 17.4
7 -5 -3 232.58 24.3
5 2 -3 236.08 17.3
-7 5 -3 222.78 19.8
5 2 -3 252.67 19.1
2 5 3 253.17 18.2
-2 7 -3 223.38 19.2
5 2 3 250.87 21.3
7 -2 -3 216.08 23.3
7 -2 -3 211.88 21
2 -7 3 187.48 16
-5 7 -3 209.38 19.7
-2 7 3 239.68 18.4
-2 7 3 187.58 16.4
2 5 -3 192.48 14.4
2 5 -3 218.98 18
5 -7 -3 233.38 20.4
-7 2 -3 201.68 17.4
-7 5 3 198.48 17.4
2 5 -3 210.28 17.5
-7 5 3 192.58 16.2
-5 7 -3 191.48 15.7
-5 7 -3 211.68 17.7
2 5 -3 222.48 19.3
7 -5 3 209.28 22.8
5 2 3 217.88 20.4
5 2 3 216.88 16
-6 7 3 1204.08 61.49
-7 6 -3 1249.38 62.59
1 6 3 1067.29 59.69
-7 6 -3 1058.89 58.89
-6 7 3 968 58.59
6 1 -3 1205.48 60.29
6 1 -3 1170.28 63.89
1 6 3 1119.39 60.89
7 -1 3 1188.28 64.09
-1 7 -3 1173.98 61.79
6 -7 3 1310.27 65.09
6 1 -3 1183.78 62.69
7 -1 3 1104.29 64.39
-1 7 -3 1047 59.49
7 -6 -3 1190.68 65.49
1 6 3 961.8 59.79
-1 7 -3 1169.08 62.59
-7 6 -3 996.6 59.59
6 1 3 1221.38 65.49
7 -1 -3 1190.08 60.89
-1 7 3 1173.68 62.19
-6 7 -3 1213.98 63.39
-7 6 3 1139.49 61.99
-7 6 3 975.6 60.19
1 6 -3 1077.29 60.69
6 1 3 1109.39 60.79
7 -1 -3 1175.18 65.09
6 1 3 1136.99 64.59
1 6 -3 1161.18 63.99
-6 7 -3 1142.99 60.79
7 -6 3 1176.68 66.19
1 6 -3 1170.68 62.69
7 -1 -3 1144.49 65.59
6 -7 -3 1230.38 65.09
7 -7 -3 239.88 24.7
7 0 -3 244.28 23.9
7 0 -3 237.98 22.9
7 -7 3 232.18 25.1
-7 7 3 251.47 19.8
7 0 3 223.48 17.5
0 7 -3 244.28 20.4
7 0 -3 232.88 18
-7 7 -3 222.58 20.8
0 7 -3 211.88 18
7 0 3 227.48 21.7
0 7 -3 219.28 20.3
-7 7 -3 226.28 18.4
7 0 3 241.48 24.9
0 7 3 237.08 19.8
4 4 3 123.19 13.4
-4 8 -3 123.59 14.6
4 4 3 109.09 16.3
-8 4 -3 128.79 15.6
-4 8 3 126.69 15.3
-4 8 3 114.19 15.2
4 4 -3 129.59 18.5
8 -4 -3 93.19 17.3
4 -8 -3 98.29 13.9
8 -4 3 123.89 19.9
4 4 -3 133.09 15.4
-8 4 3 135.69 13.7
8 -4 3 132.09 17.4
-8 4 -3 117.29 14.5
4 4 -3 117.99 13.3
4 4 -3 111.79 13.5
8 -4 -3 114.49 17.9
4 4 3 128.99 17
-4 8 -3 119.99 16.6
4 -8 3 82.89 15.1
-4 8 -3 112.49 16.3
5 3 -3 284.67 20.2
8 -5 -3 283.37 29.1
8 -3 3 263.07 25.6
5 -8 3 240.68 23.2
-8 3 3 295.17 20.4
3 5 3 280.47 21.4
-3 8 -3 241.18 18.8
-8 5 -3 277.57 20.1
-3 8 -3 278.97 22.4
-5 8 3 288.47 22.2
5 3 -3 279.37 24.2
3 5 3 215.68 20
3 5 3 284.57 20.3
-3 8 -3 270.77 21.9
-8 5 -3 283.57 22.2
8 -3 3 272.87 23.9
-5 8 3 264.67 20.1
5 3 -3 250.67 20.8
8 -5 -3 225.18 21.9
3 5 -3 153.58 15.6
3 5 -3 145.79 16.1
-8 5 3 175.38 15
3 5 -3 150.08 20.2
-5 8 -3 154.88 14.7
8 -3 -3 126.79 22.2
-5 8 -3 156.08 17.9
8 -5 3 167.08 23.7
-8 3 -3 172.68 17.2
-8 5 3 152.88 16.3
8 -3 -3 151.48 20.7
5 3 3 142.69 18.8
5 3 3 157.98 18.2
-3 8 3 175.88 17.1
5 3 3 148.29 14.8
5 -8 -3 143.59 17.6
-5 8 -3 152.08 18
-3 8 3 134.69 16.1
8 -5 3 178.78 18.8
2 6 3 471.15 28.7
8 -2 3 462.45 32.8
2 6 3 401.86 27.3
-8 6 -3 444.16 30.2
6 2 -3 445.16 31.7
-2 8 -3 446.66 30.5
6 2 -3 435.76 27.8
-2 8 -3 439.96 29.5
8 -6 -3 473.45 36.1
8 -2 3 440.86 34.9
-6 8 3 408.86 28.2
-8 6 -3 453.05 28.3
6 -8 3 424.86 32.5
6 2 -3 419.96 29.7
-6 8 3 429.86 26.7
-2 8 -3 385.46 27.3
-8 2 3 431.16 26.4
-8 6 -3 406.66 25.9
-2 8 3 464.45 32
-2 8 3 572.44 34
6 -8 -3 577.84 36.7
8 -6 3 551.74 39.9
-6 8 -3 540.75 34.3
6 2 3 576.14 37.1
6 2 3 551.84 32.4
6 2 3 547.65 36.4
8 -2 -3 518.85 39.8
8 -2 -3 568.04 38
8 -2 -3 552.14 31.9
2 6 -3 565.24 34
-6 8 -3 529.45 32.2
-6 8 -3 550.04 35.5
-8 6 3 523.35 33.5
-8 2 -3 549.65 32.9
2 6 -3 541.65 32.9
-8 6 3 548.05 32.4
2 6 -3 565.94 36.6
8 -6 3 543.85 35.7
-1 8 -3 437.36 29.9
8 -1 3 441.36 31.8
-1 8 -3 407.06 27.3
8 -1 3 435.16 35.4
8 -1 3 440.26 27.2
-8 7 -3 450.95 27.2
7 1 -3 439.66 27.7
7 -8 3 458.65 34.6
7 1 -3 417.26 30.8
1 7 3 426.66 28.7
-7 8 3 414.26 25.9
-8 7 -3 461.45 30.6
-8 1 3 403.06 26.3
7 1 -3 432.06 31.8
-1 8 -3 419.06 30.3
-8 7 -3 414.36 27
-7 8 3 460.25 29.1
8 -7 -3 475.15 36.1
7 1 3 360.06 23.5
-7 8 -3 358.76 26.2
7 -8 -3 389.56 30
-8 7 3 354.26 25.7
1 7 -3 337.77 24.5
8 -7 3 374.76 32.4
7 1 3 392.46 30.9
-1 8 3 297.37 23.2
-7 8 -3 358.66 22.9
7 1 3 352.86 28.9
1 7 -3 346.77 26
8 -1 -3 292.67 30.2
8 -1 -3 357.76 23.4
1 7 -3 331.17 26.5
-1 8 3 366.96 25.4
-8 1 -3 361.36 23.9
8 -1 -3 358.76 30.1
-8 7 3 357.06 22.9
-8 8 3 617.84 36.4
8 0 3 613.74 43.2
8 0 -3 666.93 38
0 8 -3 680.33 41.9
8 0 -3 627.54 43.3
-8 8 3 606.94 36.2
-8 0 -3 550.34 36.2
-8 8 -3 673.03 41
8 -8 3 628.74 45.7
-8 8 -3 676.73 37.1
8 -8 -3 681.43 44.6
0 8 -3 670.53 40.6
8 0 3 720.93 46.7
0 8 3 664.73 39.7
8 0 -3 749.33 45.1
-8 8 3 646.04 39.7
8 0 3 710.93 38.5
-8 8 -3 580.24 36.5
0 8 -3 679.53 38.7
-9 5 -3 942.91 55.29
5 4 -3 969.6 57.39
9 -4 3 1010.2 58.39
-4 9 -3 916.01 54.99
5 4 -3 906.21 51.89
-4 9 -3 922.51 54.99
9 -4 3 962.9 60.89
-5 9 3 969.8 51.89
-5 9 3 987.3 54.99
-9 4 3 948.31 52.09
-4 9 -3 982.5 52.39
4 5 3 992.3 55.29
-9 5 -3 978.7 53.09
5 4 -3 959.9 54.39
4 5 3 976.7 53.69
9 -5 -3 1088.09 62.99
5 4 3 1016.7 57.39
-4 9 3 1077.19 56.49
-5 9 -3 1028.7 59.29
4 5 -3 1014.2 56.19
9 -5 3 1000.6 63.29
9 -4 -3 1086.99 66.09
-5 9 -3 1066.79 59.49
9 -4 -3 955.4 61.19
-9 5 3 1057.49 56.69
-5 9 -3 1058.89 56.49
4 5 -3 1049.59 60.69
9 -5 3 1103.29 62.19
-9 4 -3 1063.39 57.49
4 5 -3 1088.29 58.99
5 4 3 1115.19 60.49
-4 9 3 1050.69 58.59
3 6 3 338.27 24.1
-6 9 3 386.06 24.1
9 -3 3 357.56 34.1
-3 9 -3 375.96 24.3
-9 6 -3 356.26 25.5
9 -3 3 351.96 29
-9 6 -3 298.77 21.9
-9 6 -3 338.57 26.9
9 -6 -3 371.46 35.1
-6 9 3 370.76 27
-3 9 -3 334.97 27.4
3 6 3 378.26 26.6
-3 9 -3 376.36 27.2
-3 9 -3 337.27 24.2
-9 3 3 382.36 23.7
6 3 -3 363.86 28.3
6 3 -3 390.16 25.3
-3 9 3 338.17 25.3
-9 3 -3 324.77 22.8
-6 9 -3 282.87 23.8
-6 9 -3 314.87 25.8
-3 9 3 322.77 21.7
6 3 3 248.08 26.7
-9 6 3 344.47 22.2
9 -6 3 292.77 29.7
3 6 -3 316.57 26.5
-9 6 3 313.97 23.6
3 6 -3 321.57 22.3
9 -3 -3 350.26 34.2
9 -6 3 324.07 27.5
6 3 3 349.27 27.8
3 6 -3 327.47 24.9
9 -3 -3 343.37 30
-6 9 -3 330.87 22.1
6 3 3 329.07 23
2 7 3 843.82 49.99
2 7 3 824.22 48.1
7 2 -3 874.21 49.6
9 -2 3 916.41 57.49
-2 9 -3 872.61 49.3
9 -7 -3 973.8 58.19
-7 9 3 894.21 50.89
-2 9 -3 866.61 51.49
-7 9 3 844.12 47.3
9 -2 3 818.02 53.19
7 2 -3 950.5 54.89
-2 9 -3 877.71 51.99
-9 7 -3 875.51 49.2
-9 2 3 900.21 48.5
-9 7 -3 848.52 51.59
-9 7 -3 886.21 48
9 -2 -3 1031.1 63.09
-9 7 3 995.2 56.39
-9 7 3 951.6 53.59
9 -7 3 1028.1 63.09
2 7 -3 1043.3 57.09
-2 9 3 1006.8 56.59
2 7 -3 1034 58.99
7 2 3 966.9 60.19
-7 9 -3 937.51 56.99
9 -7 3 925.31 57.49
9 -2 -3 1032 60.99
-9 2 -3 1031.3 54.89
-7 9 -3 991.8 53.99
2 7 -3 1035.6 55.09
7 2 3 991.9 55.09
7 2 3 992.3 59.19
-2 9 3 988.4 53.89
9 -2 -3 1001.6 54.59
9 -1 3 246.58 25.9
9 -8 -3 241.88 29.8
8 1 -3 259.67 21
9 -1 3 233.38 30.3
-8 9 3 226.98 21.9
-9 8 -3 257.77 23.9
-1 9 -3 274.27 24.3
-9 8 -3 273.07 20.6
1 8 3 274.77 21.1
8 1 -3 240.88 25.6
-9 1 3 277.07 21
-8 9 3 281.17 19.9
-1 9 -3 248.28 24.5
1 8 3 271.57 22.6
9 -1 3 283.47 21.2
-1 9 -3 292.57 22.7
-9 8 -3 245.28 20
9 -1 -3 293.87 28.6
-8 9 -3 232.68 22.7
-1 9 3 273.17 19.6
-1 9 3 273.97 22.6
1 8 -3 247.98 22.4
8 -9 -3 182.98 24.7
-1 9 3 249.48 20.4
8 1 3 230.88 28
1 8 -3 234.88 23.9
-9 8 3 241.48 17.6
9 -1 -3 199.78 27.8
-9 8 3 206.38 21.5
-8 9 -3 264.37 19.1
9 -1 -3 227.88 18.8
8 1 3 254.37 20
-9 8 3 278.07 20.2
-9 1 -3 278.87 20.4
9 -8 3 216.58 22
1 8 -3 271.67 21.5
8 1 3 257.57 25.9
9 -8 3 249.48 30.8
0 9 -3 125.49 16.3
0 9 3 68.09 9.7
9 0 3 80.39 18.2
-9 9 -3 78.69 13.5
0 9 3 94.09 15.3
0 9 -3 91.19 17
-9 0 -3 80.99 13.2
0 9 3 100.09 16.3
9 0 -3 92.39 21.6
-9 9 -3 71.09 10.5
-9 9 3 104.89 13.2
-9 9 -3 78.29 16.3
-9 9 3 115.29 14.9
9 0 3 84.29 14
-9 0 3 66.49 10.3
0 9 -3 63.19 15.5
-5 10 -3 2.8 11
10 -5 3 12.6 14.3
-5 10 -3 1.7 8.8
5 5 -3 15.1 11.8
-10 5 3 7.9 8
5 5 3 1.2 8
-5 10 -3 6.7 12.7
5 5 -3 4 9.1
10 -5 3 -8.5 14.6
-5 10 -3 -2.1 7.4
-10 5 -3 -2 8.3
10 -5 -3 8.9 16.3
-5 10 3 20.8 9
5 5 -3 3.6 12.9
5 5 3 12.5 10.1
5 5 3 14.5 12.6
10 -5 -3 -4.2 15.9
-5 10 3 -2.2 11.5
-4 10 -3 28.7 13.3
4 6 3 37.1 12.8
-10 6 -3 30.1 13.2
6 4 -3 19.7 8.9
-10 4 3 43.2 9.9
-4 10 -3 25.6 9.3
10 -4 3 20.9 16.1
6 4 -3 35.2 11.5
-4 10 -3 34.2 11.6
10 -4 3 27.9 15.3
-4 10 -3 10.7 10.6
6 4 -3 18.3 14.1
-10 6 -3 21.3 9.1
-6 10 3 24.8 12.5
-6 10 3 26.1 8.2
10 -6 -3 7.5 17.7
4 6 3 28.1 10.8
4 6 3 -2.4 12.3
10 -4 -3 13.7 16.4
-6 10 -3 35.1 9.8
-4 10 3 38.3 12.8
-6 10 -3 8 11.2
6 4 3 33.5 15
10 -4 -3 -1.9 14.7
10 -6 3 31.1 14.9
10 -6 3 34.9 18.8
-4 10 3 37.4 8.6
4 6 -3 37.4 16.8
4 6 -3 43.1 12.3
-10 6 3 35.5 8.7
6 4 3 21.8 10
-6 10 -3 36.3 13.5
4 6 -3 27.7 11.2
-10 4 -3 43.9 10.9
-7 10 3 241.38 18.6
3 7 3 192.58 18.8
10 -3 3 222.78 26.3
10 -3 3 187.98 30.5
-3 10 -3 204.98 19.3
3 7 3 225.68 20.7
-10 7 -3 192.98 21
10 -7 -3 193.58 30.5
7 3 -3 206.48 24.7
-3 10 -3 196.58 18.3
-10 3 3 226.28 19.4
-3 10 -3 203.38 21.8
7 3 -3 159.38 17.4
-10 7 -3 208.98 17.2
-10 7 -3 204.68 19.7
-10 3 -3 179.48 18.7
10 -7 3 125.09 23.6
10 -7 3 160.08 22.2
3 7 -3 153.68 17.9
-3 10 3 178.98 16.6
10 -3 -3 119.69 23.6
7 3 3 169.08 16.9
3 7 -3 154.28 18.3
-10 7 3 163.18 17.3
-3 10 3 133.79 18.4
-7 10 -3 150.48 16.8
-7 10 -3 142.29 18.2
3 7 -3 179.28 22.6
7 3 3 149.99 22.2
-10 8 -3 36.2 14.2
10 -2 3 5.3 18
10 -2 3 25.9 16.6
-8 10 3 0.7 11.6
8 2 -3 41.9 18.1
8 2 -3 4.7 10.3
2 8 3 49.9 12.1
-10 8 -3 46.5 9.7
-2 10 -3 2.6 13
-2 10 -3 30.6 13.4
2 8 3 32 11.5
-10 8 -3 30.9 10.2
10 -2 3 22.3 10.4
-8 10 3 44.5 8.5
-10 2 3 44.4 9.8
-2 10 -3 60.79 14.1
2 8 -3 68.99 14.4
-8 10 -3 39.5 13.8
2 8 -3 37.3 13.4
10 -8 3 14 12.9
-10 2 -3 46.5 10.7
-2 10 3 52.99 11.2
2 8 -3 32.5 15.5
-8 10 -3 62.79 10.8
-2 10 3 45.6 9.2
8 2 3 33 15.5
-10 8 3 0.4 14.5
-2 10 3 15.8 12.3
8 2 3 41.6 11.1
10 -2 -3 23.5 16.4
-10 8 3 66.39 10.5
1 9 3 219.08 18.8
-10 9 -3 273.87 21.2
-9 10 3 216.48 18.3
-1 10 -3 262.37 20.8
-9 10 3 282.27 19.2
-10 9 -3 168.68 22.4
-10 9 -3 279.77 20.2
10 -1 3 189.28 27
-10 1 3 276.27 20.7
10 -1 3 173.18 19.5
-9 10 -3 130.79 19.2
9 1 3 121.49 15.7
9 1 3 102.09 19.8
-10 9 3 168.78 14.3
0 10 -3 547.95 32.5
-10 10 3 472.65 28.6
-10 10 3 485.95 29.9
-10 10 -3 539.35 30.3
0 10 3 485.95 29.8
-10 10 -3 455.75 29.4
0 10 3 380.86 27.6
-10 0 3 425.66 29.5
-10 0 -3 428.26 29
-6 11 3 96.49 13.2
-5 11 -3 71.49 10.5
-5 11 -3 38.8 14.4
5 6 3 24.7 12.4
6 5 -3 83.19 13.4
-11 5 3 90.99 13.9
-5 11 -3 58.09 11.7
11 -5 3 30.4 16.6
5 6 3 98.19 13.4
11 -6 -3 23 19.6
6 5 -3 38.3 16.4
-11 6 -3 88.79 11.9
11 -6 3 0.7 15.6
-6 11 -3 35.6 13
11 -5 -3 1.3 18.4
11 -6 3 11.6 15.1
5 6 -3 42.9 15
6 5 3 31.5 10.5
11 -4 3 16.7 15.9
7 4 -3 30.4 16.3
-11 7 -3 56.49 11.3
7 4 -3 46.4 10.3
-11 4 3 58.59 10.1
-11 7 -3 15.1 13
-11 7 -3 38.4 8.1
-4 11 -3 55.49 11.1
-7 11 3 64.19 10.4
-4 11 -3 60.29 13.6
4 7 3 67.49 12.5
-11 4 -3 55.09 10.6
4 7 -3 8.3 11.8
-7 11 -3 8.9 10.2
-11 7 3 45.2 9.1
4 7 -3 -1.4 15.1
11 -7 3 0.1 15.7
7 4 3 10.8 9.5
-7 11 -3 49.1 10
-11 8 -3 44.7 10.6
-11 3 3 48.3 10.2
3 8 3 59.69 12.6
-11 8 -3 33.2 8.9
-3 11 -3 64.09 13.4
-8 11 3 54.29 9.4
-3 11 -3 58.39 10.9
-3 11 3 58.99 10.2
-3 11 3 67.79 13.3
3 8 -3 48.8 13.5
-11 3 -3 64.79 12.1
-8 11 -3 42 9.6
-11 8 3 41.3 9.3
-11 2 3 89.69 14.7
-11 9 -3 97.99 13.5
2 9 3 113.19 15.2
-11 9 -3 90.89 15.1
-9 11 3 114.49 15.2
-2 11 -3 119.49 16.5
-2 11 3 90.49 14.5
2 9 -3 112.69 15.9
-2 11 3 139.39 16.5
-11 2 -3 87.89 13
-11 9 3 68.59 11.2
-9 11 -3 98.79 12.7
-10 11 3 74.89 11
-10 11 3 61.29 10.7
1 10 3 94.89 14.3
-1 11 -3 124.79 17.7
-11 10 -3 95.89 12.9
-11 10 -3 96.89 15.2
-11 1 3 81.09 12.2
-10 11 -3 96.59 12.4
1 10 -3 93.39 15.3
-11 10 3 65.39 10.6
-11 1 -3 80.79 12.2
-1 11 3 99.79 14.8
-1 11 3 79.19 10.9
-11 0 3 18.2 9.3
0 11 3 25.8 11.2
-11 11 -3 12.2 8.4
-11 11 3 11.6 8.2
-11 11 3 14.8 9.5
-11 0 -3 17.5 9
0 11 -3 21 14.3
-11 11 -3 16.8 9
6 6 3 3.9 9.7
-12 6 3 15.6 9.5
-6 12 3 21.2 8.6
-6 12 3 8.1 10.5
6 6 -3 12.8 10.6
-6 12 -3 -2.1 9.1
-12 6 -3 22.2 10
-6 12 -3 13.7 9.7
7 5 -3 26.2 9.9
-5 12 -3 12.6 10.9
-7 12 3 30.1 11
-12 5 3 25.1 8.9
-5 12 -3 17.6 10
5 7 3 25.9 11
-12 7 -3 16.9 9.9
-7 12 3 34.9 9.6
-12 5 -3 13.1 10.1
-5 12 3 40.3 12.5
-5 12 3 20.3 8.1
-7 12 -3 14.8 8.6
-12 7 3 31.2 10
5 7 -3 30.4 12.5
-12 4 3 127.59 15.4
4 8 3 106.19 16.1
-4 12 -3 102.59 16.4
-8 12 3 131.59 15.9
-12 8 -3 102.79 14.4
-4 12 -3 108.29 16.7
-12 8 -3 108.99 17.5
-8 12 -3 95.39 12.8
-12 8 3 83.99 14.5
-4 12 3 112.29 15.3
-4 12 3 89.89 15
4 8 -3 125.69 16.9
-12 4 -3 95.69 15.9
-9 12 3 18 9.1
-12 3 3 18.2 9.8
-3 12 -3 0.6 8.7
-12 9 -3 15.9 10.1
3 9 3 10 11.6
-3 12 -3 15.5 13
-12 9 -3 9.6 8.3
-3 12 3 12.5 11.4
3 9 -3 16.2 13.7
-12 3 -3 10.7 10.4
-12 9 3 5.4 8.1
-3 12 3 18.1 9.2
-9 12 -3 14.6 8.2
-2 12 -3 -1.8 8.4
-2 12 -3 27.1 13.3
2 10 3 32.1 12.3
-10 12 3 18.6 8.7
-12 2 3 28 10.1
-12 10 -3 14.7 9.9
-12 10 -3 24.9 9.3
-2 12 3 25.8 10.6
-12 2 -3 33.8 11
-2 12 3 17.2 8.6
2 10 -3 31.5 14.9
-12 10 3 29.2 10.3
-10 12 -3 13.6 9.6
-11 12 3 278.77 20.9
-12 11 -3 300.67 22.2
-12 1 3 257.67 21.9
1 11 3 262.67 22.5
-12 11 -3 269.37 21.7
-1 12 -3 291.07 24.9
-11 12 3 209.88 20.1
-1 12 3 239.98 20.9
1 11 -3 292.17 23.8
-11 12 -3 297.77 22.4
-12 11 3 303.27 22.6
-1 12 3 273.07 22.4
-12 1 -3 273.57 22.3
-12 11 3 217.08 19.6
-12 12 3 177.98 18.1
-12 12 3 121.49 16.3
-12 12 -3 164.28 17.6
-12 12 -3 173.58 17.9
-12 0 -3 145.79 17.7
-12 0 3 124.29 17.4
0 12 -3 182.38 21.5
0 12 3 189.38 19.2
-7 13 3 23.6 11.4
-7 13 3 20.9 8.5
-13 7 -3 29.6 11.2
-13 6 3 29.4 10.2
-6 13 -3 36 11.1
7 6 -3 23 11.1
6 7 3 28.2 10.8
-6 13 -3 21.8 11.2
-7 13 -3 22 10.2
6 7 -3 30.9 11.9
-6 13 3 21.6 11.8
-13 6 -3 25.7 10.8
-6 13 3 29.2 8.8
-13 7 3 27.8 9.4
-13 8 -3 8.7 10.2
-8 13 3 8.6 9.2
-5 13 -3 1.8 9.2
-13 5 3 10.4 8.3
8 5 -3 14.2 9.3
-13 8 -3 1 6.6
-5 13 -3 14.9 12
-8 13 3 2.9 9.8
5 8 3 12.4 11.1
-13 5 -3 5.3 10.5
-8 13 -3 7 9
-5 13 3 16.8 12.1
5 8 -3 10.4 12.4
-13 8 3 11.6 9.4
-5 13 3 18.8 9.4
-13 4 3 79.39 12.1
4 9 3 80.29 14.3
-4 13 -3 51.09 11.5
-13 9 -3 85.79 13.5
-4 13 -3 62.39 14.6
-13 9 -3 50.29 10
-9 13 3 81.29 12.3
-13 4 -3 77.49 13.8
-9 13 -3 41.8 10.1
-4 13 3 71.79 13.4
-13 9 3 58.09 10.5
4 9 -3 72.19 15.6
-4 13 3 67.09 11.1
3 10 3 49.7 13.2
-10 13 3 54.29 10.9
-13 10 -3 38.1 9.2
-13 10 -3 38.7 11.4
-3 13 -3 50.39 14.4
-3 13 -3 29.6 9.9
-13 3 3 35.6 9.9
3 10 -3 72.19 16.7
-3 13 3 52.49 12.5
-13 3 -3 47.5 11.7
-3 13 3 43.9 10.5
-13 10 3 48.6 10.8
-10 13 -3 52.79 11.2
-2 13 -3 105.19 17.8
-13 11 -3 61.89 12.1
-13 11 -3 44.4 9.9
-11 13 3 66.29 11.6
2 11 3 95.79 15.5
-13 2 3 57.39 11.4
-13 2 -3 82.19 13.3
2 11 -3 128.69 19.3
-2 13 3 74.59 11.8
-11 13 -3 91.39 12.5
-13 11 3 66.29 11.7
-2 13 3 99.59 14.9
-13 12 -3 25.2 9.8
-1 13 -3 50.09 15.9
-13 1 3 27.8 10.2
-13 12 -3 32.3 9.5
-12 13 3 28.7 10.4
1 12 3 32.4 12.1
-13 12 3 32.8 10
-12 13 -3 40.7 10.7
-13 1 -3 19.9 10.3
-1 13 3 50.79 13.9
1 12 -3 41.5 16.3
-13 12 3 13.3 8.8
-13 13 -3 93.59 15.4
-13 13 3 103.19 17.3
0 13 -3 126.39 21.3
-13 13 -3 138.79 18.1
-13 0 -3 93.89 16.4
-13 13 3 117.49 17.4
0 13 3 140.99 17.9
-14 7 3 72.89 12
-14 7 -3 88.79 13.8
-7 14 -3 70.69 12.8
-7 14 3 67.79 13.3
-7 14 3 55.29 10.8
7 7 -3 66.19 13.5
8 6 -3 23.3 10.5
-14 8 -3 46.2 11.9
-6 14 -3 23.4 10.4
-8 14 3 18.1 10.9
-6 14 -3 27.2 12.2
-14 6 3 29.8 10
-8 14 3 22.3 9.8
6 8 3 41.3 12.8
-14 6 -3 41.7 11
6 8 -3 52.19 14.1
-8 14 -3 28.2 10.3
-6 14 3 42.8 10.9
-6 14 3 40.4 12.1
-14 8 3 46 10.8
-5 14 -3 66.49 12.6
-14 5 3 64.89 11
-14 9 -3 71.39 12.9
5 9 3 59.69 13.6
-5 14 -3 61.89 14.6
-9 14 3 76.09 12.5
-9 14 -3 81.29 12.7
-14 9 3 49.2 10.8
-5 14 3 57.49 13.3
-14 5 -3 53.99 11.9
-5 14 3 46 10.7
5 9 -3 76.69 16.1
-10 14 3 73.49 12.3
-14 10 -3 54.09 12
-14 10 -3 46.4 10.1
-4 14 -3 85.49 16.4
4 10 3 75.29 14.4
-4 14 -3 41.3 11.4
-14 4 3 73.39 12.5
-14 4 -3 67.89 13.3
4 10 -3 85.89 17.2
-10 14 -3 66.49 12.2
-14 10 3 49.9 10.6
-4 14 3 57.99 11.5
-4 14 3 89.69 15.5
-14 3 3 22.3 10.4
-3 14 -3 50.19 15.9
-14 11 -3 27.6 10.7
-11 14 3 31.5 10.1
-14 11 -3 25.8 9.3
3 11 3 25.8 12
-3 14 3 9.2 9.7
-3 14 3 13.1 11.8
-14 11 3 27.7 10.5
3 11 -3 19.1 15.7
-14 3 -3 14.4 10.7
-11 14 -3 21.9 9.6
-2 14 -3 141.99 22.4
-14 12 -3 117.29 16.7
-14 2 3 125.79 18.9
2 12 3 125.29 18.5
-12 14 3 127.59 17.9
-14 12 -3 126.89 18.4
-14 2 -3 134.69 20.3
-12 14 -3 143.39 17.9
2 12 -3 147.79 22.3
-2 14 3 142.89 18.6
-14 12 3 138.69 18.4
-13 14 3 100.59 13.6
-14 13 -3 114.29 18.3
13 -14 3 54.59 10.6
-14 13 -3 116.89 17
13 1 -3 62.99 19.7
-14 1 3 72.79 12.6
1 13 -3 84.59 14.2
-14 13 3 69.29 11.5
-1 -13 -3 47.8 11.2
14 -1 -3 -0.8 18.6
14 -13 3 61.79 10
0 14 -3 73.19 14.8
-14 14 3 35.5 10.8
0 14 -3 75.29 17.8
14 -14 3 65.19 11.7
14 0 -3 68.69 22.8
0 -14 3 10 7.9
0 -14 -3 65.39 13.9
0 14 3 46.2 13.5
-14 14 -3 34 9.8
-8 15 3 62.89 13.4
-15 8 -3 78.89 12.8
-8 15 3 70.99 12.1
-15 7 3 85.39 12.6
8 7 -3 82.59 13.9
7 8 3 55.89 12.8
-7 15 -3 57.59 11.9
-7 15 3 61.89 11.4
7 8 -3 85.09 15.3
-7 15 3 81.89 14.7
-15 8 3 63.39 10.8
-8 15 -3 52.79 11.3
-15 7 -3 72.99 13.2
-15 6 3 16.1 9.1
-6 15 -3 16.7 10.8
-6 15 -3 14.1 12.7
6 9 3 22.9 13
-9 15 3 1.9 9.3
-15 9 -3 14 10.9
9 6 -3 0.8 8.5
-15 6 -3 14.5 11.1
-6 15 3 16.5 12.3
-6 15 3 8.7 10.2
-15 9 3 16.4 9.8
-9 15 -3 22.3 10.8
6 9 -3 9.9 12.7
-15 10 -3 11.9 10.2
-5 15 -3 16 13.3
-10 15 3 4.3 10.1
5 10 3 17 13.4
-15 5 3 12.7 9.2
-5 15 -3 13.5 10.5
5 10 -3 8.7 14.2
-15 5 -3 6.5 10.6
-5 15 3 -1.2 9.6
-5 15 3 8.3 12.3
-10 15 -3 6.7 9.8
-15 10 3 7 9.2
-15 11 -3 4.2 8
-15 4 3 4.2 10.7
-4 15 -3 0.2 8.6
-4 15 -3 2.9 14.2
11 -15 3 0.6 7.8
4 11 3 -0.1 12.4
-11 15 3 -6.8 10
-15 11 -3 1.3 9.3
-11 15 -3 18.3 10.3
-4 15 3 3 9.3
-15 11 3 6.3 8.9
-15 4 -3 7 11.4
15 -11 3 10.9 8.2
4 11 -3 20.7 14.6
-4 15 3 22.6 13.2
-4 -11 -3 5.2 10.2
12 3 -3 -1.5 18.8
-15 12 -3 7.3 8.7
-12 15 3 -1.9 10
-15 12 -3 14.5 10.5
-3 15 -3 13.3 14.6
3 -15 -3 1.7 10.3
3 12 3 8.6 12.8
-12 -3 -3 3.5 8.2
-15 3 3 4 10
12 -15 3 9.6 9.7
3 12 -3 -5.5 11.5
-15 3 -3 11.4 11.6
15 -12 3 17.5 9.7
-12 15 -3 1.2 9.2
-3 15 3 3 11.8
-15 12 3 5 10.1
-3 -12 -3 10.9 12.5
3 -15 3 -2.3 7.2
3 12 -3 7.8 14.7
-3 15 3 -5.3 9.3
15 -3 -3 -7.3 20.2
2 13 3 9 12.9
-2 15 -3 16.5 12.4
-15 2 3 4.5 10.6
-2 -13 3 3 8
-13 15 3 5.5 10.6
13 2 -3 17.9 20.7
-15 13 -3 12.3 8.8
13 -15 3 16 11.3
-2 15 -3 16 15.3
-15 13 -3 16 10.6
2 -15 -3 11.5 11.9
2 13 -3 52.39 17
-15 2 -3 35.2 12.1
2 13 -3 39.9 15.8
-15 13 3 30.6 11.2
-2 -13 -3 49.7 14.3
-13 15 -3 25 9.9
2 -15 3 23.3 8.8
-2 15 3 25 12.5
15 -2 -3 51.89 22.3
15 -13 3 38.3 10.9
1 -15 -3 105.09 15.6
14 -15 3 99.29 13.6
-1 -14 3 76.89 12.1
-1 15 -3 83.29 18.2
14 1 -3 102.29 23.1
1 14 3 106.19 17.8
-1 15 -3 115.99 17.5
15 -1 -3 107.29 23.7
-1 -14 -3 80.69 14.5
-14 15 -3 74.29 12.7
1 14 -3 83.59 18.4
1 -15 3 82.19 11.4
-1 15 3 120.19 17.8
15 -14 3 111.99 13.8
1 14 -3 116.79 17.6
0 15 3 27 14.3
0 -15 3 6.6 10.1
15 0 -3 25.4 23.4
0 -15 -3 16.4 9.5
-15 15 -3 13.5 9.5
-15 15 3 0.1 9.9
0 15 -3 28.7 16.2
15 -15 3 21.3 11.6
0 15 -3 6.8 13.8
0 -15 -3 22.2 12.8
-16 8 3 31.9 11.1
-8 -8 -3 0.8 6.6
8 -16 3 18.6 8.7
8 8 -3 24.8 11.9
16 -8 3 30.2 9.5
-16 8 -3 22 11.3
-8 16 -3 28.8 11.2
-8 16 3 20.3 10.7
-8 16 3 16 12.2
-7 16 -3 -1.3 10.8
-9 16 3 -3.5 10.2
-9 -7 -3 4 7
9 7 -3 -0.8 9.2
-16 9 -3 10.3 10.7
9 -16 3 3.3 8.7
-7 16 -3 13.1 10.6
-16 7 3 12 9.7
7 9 3 2 11.3
-16 9 3 20.5 10.9
-7 16 3 2.7 10.4
-16 7 -3 14.8 10.5
-9 16 -3 19.5 10.4
-7 16 3 13.4 12.7
-7 -9 -3 -0.7 6.6
16 -9 3 14.9 9.2
7 9 -3 19.6 13.2
7 -16 3 6.5 8.3
6 10 3 37.8 13.5
-6 16 -3 34.6 13.5
-10 16 3 20.9 10.7
-16 6 3 42.2 11.5
10 -16 3 32.6 10.3
-6 16 -3 43.7 11.7
-10 -6 -3 28.6 8.3
-16 10 -3 32 10.4
-10 16 -3 46.1 11.7
6 -16 3 43.1 9.6
-16 6 -3 25.9 11.8
-6 16 3 38.9 13.5
-6 16 3 26.1 11
16 -10 3 37 10.1
-16 10 3 26.5 10.3
-6 -10 -3 28.1 10.8
6 10 -3 49.2 15.4
5 11 3 14.6 13.1
5 -16 -3 -1.7 9.6
-5 16 -3 15.4 9.9
-5 -11 3 -1.9 9.4
-5 16 -3 18.5 14.7
11 -16 3 39.9 10.9
-16 11 -3 12.7 10.1
-11 -5 -3 24.7 9.8
-16 5 3 23.9 10.3
-11 16 3 17.6 11.4
16 -11 3 45.5 11.2
-11 16 -3 26.1 10.6
5 11 -3 34.1 15.6
5 11 -3 -6.6 11.2
-16 5 -3 12.5 10.8
-5 16 3 15.7 10.7
-5 16 3 29.1 13.4
-5 -11 -3 33.4 12.7
5 -16 3 29.4 9.6
-16 11 3 24.2 10.9
16 -5 -3 4.6 19.3
-4 16 -3 26 15.8
-4 16 -3 -2.6 13
4 12 3 12.7 13.4
-16 4 3 12.1 10.6
12 4 -3 16 22.1
4 -16 -3 7.7 11.1
-12 16 3 16.9 11.7
-12 -4 -3 8.7 11
-16 12 -3 4.1 10.5
-4 -12 3 7.3 9
12 -16 3 9.4 10.7
4 12 -3 40.1 16.8
16 -12 3 15.7 10.6
-16 12 3 14.4 10.2
4 -16 3 33.4 10.2
-4 16 3 28 14
16 -4 -3 33.1 22.2
-16 4 -3 21 13
-4 16 3 8.6 10.3
-4 -12 -3 27.4 13.1
4 12 -3 13.4 15.1
-4 -12 -3 8.4 7.9
-12 16 -3 23.4 10.8
3 -16 -3 122.19 15.3
-13 16 3 133.29 21.3
13 -16 3 139.59 16.3
-3 -13 3 128.09 15.4
-13 -3 -3 132.49 15.8
-16 13 -3 141.79 21.5
-16 3 3 150.08 21.8
13 3 -3 94.69 22.6
3 13 3 140.69 20.2
-3 16 -3 179.58 23.4
-3 16 -3 142.29 17.6
-3 -13 -3 112.69 13.5
-3 -13 -3 141.99 16.7
16 -13 3 107.09 14.7
-3 16 3 137.79 20.6
3 13 -3 106.69 17.4
-13 16 -3 138.39 18.8
3 13 -3 100.29 18.8
3 -16 3 114.49 12.7
-16 3 -3 70.79 14.6
-16 13 3 82.39 13.7
16 -3 -3 188.08 25.2
14 -16 3 22.6 11.6
-2 16 -3 20.4 15.5
-2 16 -3 25 14.2
2 14 3 9.4 13.4
-2 -14 3 5.3 10.6
-16 14 -3 7.1 8.7
-16 14 -3 13.1 10.4
2 -16 -3 4.8 12.6
2 -16 -3 17.3 9.3
-16 2 3 -2 12.5
-14 16 3 5.7 11.6
14 2 -3 52.09 22.1
2 -16 3 9.2 9.8
2 14 -3 -5.6 15.1
-2 -14 -3 14.8 14
-2 -14 -3 11.3 10.3
-14 16 -3 13.7 9.9
16 -14 3 6.9 10.9
-16 14 3 11 10.1
-16 2 -3 17 12.3
2 14 -3 9.5 15.6
-2 16 3 17.2 14
16 -2 -3 24.1 23.7
-15 16 3 2.8 10.9
-1 16 -3 19.3 14.3
1 -16 -3 19.9 13.8
1 -16 -3 12.4 10.6
15 1 -3 33.2 21.9
-1 16 -3 18.6 15.1
15 -16 3 18.8 11.7
-16 15 -3 11.7 9.1
-1 -15 3 21.5 10.8
1 15 3 15.1 14.1
-1 -15 -3 20.4 14.4
16 -15 3 15.2 11.5
-1 16 3 20.5 13.9
1 -16 3 19.6 10.5
-1 -15 -3 13.5 11
1 15 -3 15.5 15.4
-15 16 -3 9.1 9.2
1 15 -3 18.4 14.7
16 -1 -3 26 23.3
16 -16 3 58.39 12.9
0 16 3 38.4 15.2
0 -16 -3 49.5 14.3
0 16 -3 55.99 15.4
0 16 -3 48.3 17
0 -16 -3 48.7 12.4
0 -16 3 51.59 11.7
16 0 -3 16.4 21.1
-8 17 -3 29.4 11.3
-9 17 3 16.2 12
-17 8 3 13.1 9.9
-9 -8 -3 10.8 9.3
-8 -9 3 1.9 7.3
17 -8 3 24.2 10.7
9 -17 3 25 10
-17 9 -3 19.9 10.9
-17 8 -3 10.3 11.4
17 -9 3 20.5 9.9
8 -17 3 21.4 10
-8 17 3 2.5 10.6
-9 17 -3 16.1 10.9
-17 9 3 15.7 10.3
8 9 -3 13.2 12.4
-9 -8 3 -1.2 7.1
-8 -9 -3 10.7 8.7
-8 17 3 4.1 11.9
-10 -7 -3 41.8 10.5
10 -17 3 39.8 10.9
-17 10 -3 43.9 12.2
7 -17 -3 8.3 9.2
-7 17 -3 33.1 11.3
-10 17 3 40.9 12.8
-17 7 3 46.4 12.3
-7 -10 3 32.1 9.2
7 -17 3 53.39 10.6
-7 17 3 30.3 11.9
-7 -10 -3 54.59 10.2
17 -10 3 47.1 10.9
-17 7 -3 34.6 11.4
-10 17 -3 34.2 11.5
-7 17 3 41.5 13.8
17 -7 -3 10.3 14.1
-17 10 3 33.9 10.6
7 10 -3 57.99 15.5
-11 -6 -3 123.29 13.9
-17 6 3 120.79 20
6 11 3 103.49 17.5
6 -17 -3 105.89 14.6
11 -17 3 117.89 13.3
-11 17 3 68.19 13.8
-6 -11 3 111.59 14.1
-17 11 3 90.39 14.2
6 11 -3 95.89 18.3
-17 6 -3 59.59 13.2
-6 17 3 68.19 15.4
6 -17 3 101.49 12.6
17 -6 -3 68.59 19.3
-11 17 -3 117.89 18.7
6 11 -3 94.59 15.1
-6 -11 -3 109.99 12.4
17 -11 3 125.79 13.8
5 -17 -3 64.49 14
12 5 -3 71.39 23.8
5 12 3 61.39 16.1
-5 17 -3 28.2 14.8
12 -17 3 65.49 11.9
-17 12 -3 35.7 11.9
-17 5 3 51.99 13.2
-12 -5 -3 57.09 12.5
-12 17 3 40 13
-5 -12 3 58.59 11.9
5 -17 3 28.5 10.7
-5 17 3 35.5 14.9
5 12 -3 40.7 16.6
-17 5 -3 42.3 13.8
-5 17 3 22.6 11.6
-12 17 -3 41.4 11.6
5 12 -3 19.3 13.2
-17 12 3 26.5 11.7
17 -12 3 47.6 11.7
-5 -12 -3 41.3 13.3
-5 -12 -3 48.1 10.9
17 -5 -3 21.4 20.3
-13 17 3 13.5 11.8
-17 13 -3 10.2 11.2
-4 -13 3 6.2 11
13 -17 3 3.5 11.3
4 13 3 0.9 14
-4 17 -3 3.2 14.8
4 -17 -3 4.2 8.8
4 -17 -3 4.8 12.6
-13 -4 -3 0.7 10.6
13 4 -3 17.1 22.8
-17 4 3 6.6 11.4
-4 17 -3 -0.4 12.6
17 -4 -3 13.8 23.1
-4 -13 -3 9.2 9.9
-17 4 -3 8.1 12.3
-13 17 -3 9.6 9.8
4 -17 3 3.1 9.8
4 13 -3 14.6 15.6
-4 17 3 -9.2 10.7
17 -13 3 -2.1 10.3
4 13 -3 -3.7 14.6
-4 17 3 9.3 14
-13 -4 3 2.9 8.5
-4 -13 -3 14.9 12.2
-17 13 3 10.7 11
14 3 -3 44.5 22.1
-3 17 -3 85.79 17.9
3 -17 -3 92.49 15.1
-3 -14 3 94.39 13.2
3 14 3 74.49 16.7
3 -17 -3 68.69 12.3
-3 17 -3 100.19 14.7
-14 17 3 61.69 13.8
14 -17 3 100.69 14
-17 14 3 40.1 11.9
3 -17 3 75.89 11.2
-3 -14 -3 86.99 12.6
17 -14 3 74.49 12.5
3 14 -3 60.19 15.5
-14 17 -3 44.3 10.9
-3 -14 -3 56.99 13.2
-17 3 -3 24.8 12.1
17 -3 -3 99.69 23.6
3 14 -3 62.89 16.9
-3 17 3 49.1 15
15 -17 3 9 11.5
-2 -15 3 12.8 11.2
2 15 3 9.8 14.7
2 -17 -3 10 12.6
2 -17 -3 11.9 10.9
-15 17 3 0.2 11.5
-2 17 -3 19.2 15.3
15 2 -3 30.2 20.5
-2 17 -3 16.3 13
-2 -15 -3 5.1 13.3
2 -17 3 6.5 9.8
-2 17 3 14.1 13.8
17 -2 -3 42.1 22
-2 -15 -3 16.9 11.2
17 -15 3 -4.8 10.5
-15 17 -3 12.7 9.4
2 15 -3 3.2 13.9
2 15 -3 4.7 14.9
16 -17 3 6.7 11.3
-1 17 -3 6.4 14.6
-17 16 -3 1.3 11.9
-1 -16 3 -2.9 10.3
16 1 -3 24.9 20
-1 17 -3 19.2 13.8
1 16 3 10.9 14.5
-16 17 3 -6.3 12.6
1 -17 -3 8.9 11.2
1 -17 -3 8 12.9
1 16 -3 11.2 15.4
1 16 -3 3 12.6
-1 -16 -3 7.5 11.2
-16 17 -3 7.7 9.2
17 -1 -3 8.9 21.5
1 -17 3 1.9 10.2
-1 -16 -3 7.4 12.6
17 -16 3 17.2 11.5
-1 17 3 23.6 14.6
0 17 -3 9.8 13.1
0 -17 3 -4.3 10.5
0 17 -3 5.9 14.1
0 -17 -3 -0.9 11.2
17 0 -3 16.7 20.2
17 -17 3 6.1 11.3
0 -17 -3 16.2 13.3
0 17 3 23.1 14.9
9 -18 -3 8.2 8.8
-9 -9 -3 12 9.8
9 -18 -3 -0.3 10.2
9 -18 3 7.2 9.9
18 -9 -3 0.3 11.8
18 -9 3 3.8 9.7
-18 9 3 4.8 11.4
-9 18 3 -4.7 11.5
-18 9 -3 2.5 10.8
-9 18 -3 7.7 10.7
-9 -9 3 1.5 9.4
18 -10 -3 -2.9 12.7
-8 -10 3 35 10.1
-10 18 3 32.3 12.7
18 -8 3 50.29 11.2
-10 -8 -3 35.7 10.3
-8 18 -3 21.1 10.9
-18 10 -3 26.6 11.8
10 -18 3 38.5 10.6
8 -18 -3 26.2 11.6
-18 8 3 31.9 12.3
8 10 -3 -1.5 12.9
10 -18 -3 -0.6 9.3
-10 -8 3 29.2 10.1
18 -8 -3 45.7 16.7
18 -10 3 17.4 10.2
-18 10 3 19.3 11.7
8 -18 3 20.4 9.7
-8 18 3 11.6 11.7
-10 18 -3 25 11.2
-8 -10 -3 12.5 9.5
-18 8 -3 18.1 12.2
-11 -7 -3 13 10.6
-18 11 -3 10.6 11.6
-7 -11 3 15.7 10.2
7 -18 -3 0.5 7.8
-18 7 3 6.1 11.7
7 -18 -3 17.8 12.5
11 -18 3 14 10.5
-11 18 3 -3.1 11.8
-7 18 -3 7 9.6
-7 18 3 1 11.7
7 11 -3 11.5 13.8
18 -7 -3 7.9 19.1
7 -18 3 18.8 10.2
-18 7 -3 15.5 12.1
-7 -11 -3 15 9.4
18 -11 3 10.1 10.8
-18 11 3 15.1 11.7
-7 18 3 10.3 12.6
-11 -7 3 16.4 10
-11 18 -3 20 10.6
7 11 -3 2.3 12.1
-12 -6 -3 10.1 11.4
12 6 -3 18.3 23.3
-12 18 3 -10.7 11.5
-6 -12 3 23.4 10.7
-18 12 -3 16.3 11.8
12 -18 3 11.1 10.6
-18 6 3 6.1 11.6
6 -18 -3 14 9
-6 18 -3 -6.3 15
6 12 3 -5.8 12.9
6 -18 -3 8.5 12.5
6 -18 3 1.3 9.6
6 12 -3 -6.2 13.9
-12 18 -3 9.8 10.4
18 -12 3 3.7 10.4
-18 12 3 12.4 11.8
-18 6 -3 3.9 12.5
-6 -12 -3 16.7 9.4
-6 18 3 13 13.4
-6 18 3 -9.7 10.5
-12 -6 3 9.4 10.8
6 12 -3 10.5 14.7
18 -6 -3 11.6 19
13 -18 3 51.29 11.4
-18 5 3 38.2 12.8
5 13 3 33.9 14.4
-13 -5 -3 69.09 12.8
-5 -13 3 62.89 11.9
13 5 -3 42.2 21.9
-13 18 3 29.3 13.3
5 -18 -3 55.19 13.4
-5 18 -3 47.6 12.7
5 -18 -3 43 10.7
-18 13 -3 23.9 11.7
-5 18 -3 10.2 12.9
-18 13 3 38.2 12.4
-13 18 -3 33.1 10.7
18 -13 3 60.89 11.8
-18 5 -3 25.4 12.9
5 13 -3 39.5 13.8
5 -18 3 32.1 10.3
18 -5 -3 70.29 20.8
5 13 -3 47.9 16.7
-5 -13 -3 58.49 11.3
-13 -5 3 68.59 12.2
-18 4 3 -2.6 14.3
-14 18 3 -0.3 11.8
4 -18 -3 20.3 13.5
4 14 3 7.2 13.8
14 4 -3 13.3 21.2
-18 14 -3 11.1 10
4 -18 -3 14.2 10.6
14 -18 3 5.1 10.6
-4 18 -3 7.6 13.6
-4 18 -3 9.4 12.1
-4 -14 3 2.1 10.6
-18 4 -3 17.9 12.1
4 14 -3 -5.3 14.1
-18 14 3 3.5 10.3
4 14 -3 5.6 15.3
18 -4 -3 -17.6 21.2
18 -14 3 -4.9 10.1
-4 -14 -3 2.5 13
-4 -14 -3 -2.3 10
-4 18 3 16 14
-14 18 -3 12.5 10.2
4 -18 3 3.5 9.1
3 -18 -3 -2.4 13.3
-3 18 -3 11.5 14
3 -18 -3 12.6 11.3
3 15 3 0.8 13.6
-15 18 3 1.3 11.4
15 -18 3 6.2 11.6
-3 18 -3 6.5 13.2
-3 -15 3 11.3 10.9
15 3 -3 6.7 21.3
18 -15 3 10.1 10.5
3 -18 3 3.7 9.6
3 15 -3 -1.5 14.5
-3 18 3 16.2 13.9
3 15 -3 -3.9 12.1
18 -3 -3 7.4 21.8
-15 18 -3 9.5 9.5
-3 -15 -3 2.8 10.6
-3 -15 -3 3.9 12.7
2 16 3 6.1 13.8
16 2 -3 14.9 20
2 -18 -3 -6 12.4
-2 18 -3 13.5 13.7
-2 -16 3 7.6 10.7
16 -18 3 8.9 11.2
-2 18 -3 26.1 13.4
2 -18 -3 -2.1 10.7
-2 -16 -3 -0.2 11.8
2 16 -3 9.1 15.4
-2 -16 -3 3.5 10.9
-16 18 -3 4.9 8.3
2 -18 3 2.2 9.9
-2 18 3 7.4 14.1
18 -2 -3 -10.3 19.9
18 -16 3 2 10.9
2 16 -3 7.8 12
17 -18 3 8.8 11
17 1 -3 8.5 19.3
-1 18 -3 12.9 13.2
-1 18 -3 11.5 12.2
1 17 3 -4.4 13.1
1 -18 -3 2.4 10.9
1 -18 -3 3.5 12.6
-1 -17 3 6.4 10.6
1 17 -3 1.5 13.1
-1 -17 -3 12.5 11.2
18 -1 -3 -8 20.1
1 17 -3 0 12.4
1 -18 3 4.9 10.3
18 -17 3 1.6 10.6
-1 18 3 6.5 13.3
-1 -17 -3 8.9 11.4
0 18 3 20.9 12.2
0 18 -3 -1.3 13.7
18 0 -3 17.1 19.7
0 18 -3 18.9 12.2
18 -18 3 20.2 10.8
0 -18 3 19.2 10.5
0 18 3 -1.3 14.2
0 -18 -3 13.9 11.7
0 -18 -3 7 10.8
-9 19 -3 4.2 9.5
-9 -10 3 4 9.9
-19 10 -3 4.6 10.9
-10 19 3 0.3 12.1
19 -9 3 1.9 9.6
19 -10 -3 10.2 12.1
9 -19 -3 7.2 9.5
-19 9 3 4.7 10.7
9 -19 -3 7.2 11
-10 -9 -3 12.8 10
10 -19 3 -5.6 9.3
-19 10 3 8.4 11.3
-9 19 3 1.2 11.6
19 -9 -3 7.2 14.2
-10 -9 3 22 10.2
10 -19 -3 14.1 8.7
-19 9 -3 19.6 12
-10 19 -3 17.8 10.7
10 -19 -3 13.2 9.8
-9 -10 -3 12.9 9.9
9 -19 3 16.9 9.3
19 -10 3 7 9.8
11 -19 3 8.1 9.7
-19 8 3 9.4 11.7
-11 -8 -3 6.7 10.6
8 -19 -3 10.3 9.1
-19 11 -3 3.8 11.5
-11 19 3 3.1 12.3
-8 -11 3 17.7 10.1
19 -11 -3 2.5 11.2
19 -8 3 10.6 9.9
8 -19 -3 -8.4 12
8 11 -3 -7.2 10.5
-19 11 3 5.8 10.8
-19 8 -3 5 11
-11 19 -3 11.3 10.3
8 -19 3 16.8 9.8
-8 -11 -3 6 9.6
19 -8 -3 13.3 16.5
11 -19 -3 1.7 8
-11 -8 3 15.1 10.5
19 -11 3 10 10.5
-8 19 3 -9.7 11.3
11 -19 -3 0.3 9.6
7 -19 -3 22.6 9.7
12 -19 3 44.6 11.2
12 7 -3 17.2 22.7
-12 -7 -3 49.6 11.8
19 -7 3 46.3 10.8
7 -19 -3 55.79 14.4
-19 7 3 37.4 12.8
-7 -12 3 44.3 10.8
-12 19 3 20.6 13
7 12 3 -9.4 13
-19 12 -3 23.3 11.6
-7 -12 -3 56.09 10.8
-12 19 -3 32.5 11.4
-19 7 -3 25 12.2
7 12 -3 1.2 19.2
19 -7 -3 43.3 18.7
19 -12 3 36.2 11
7 -19 3 34.4 10.5
7 12 -3 41.2 14
-12 -7 3 55.79 11.9
-19 12 3 32.4 12.7
13 6 -3 22.4 22.3
13 -19 3 55.19 11.8
-6 19 -3 53.79 12.1
-19 6 3 18.8 11.2
-13 19 3 33.3 12.8
6 -19 -3 51.59 13.4
6 13 3 37.4 12.9
-19 13 -3 32.2 11.4
6 -19 -3 50.39 10.7
-6 -13 3 71.59 11.8
-13 -6 -3 77.79 12.8
-6 19 3 -1.7 13.9
-19 13 3 32.8 12
-6 -13 -3 35.7 10.1
-13 -6 3 50.19 11.9
6 -19 3 37.7 10.1
6 13 -3 6.3 12.8
-19 6 -3 37.3 12.9
-13 19 -3 37.9 11.1
6 13 -3 26.3 14.6
19 -6 -3 26.4 19
19 -13 3 61.29 11.5
-5 -14 3 22.7 10.6
-19 14 -3 20.5 16.5
-14 19 3 5.1 11.7
-5 19 -3 18.7 12.3
14 -19 3 17.4 10.9
5 -19 -3 33.6 13.3
5 14 3 -2.5 12.3
14 5 -3 15.6 20.9
5 -19 -3 10.9 10.6
-14 19 -3 11.9 9.7
19 -14 3 15.1 10.6
-5 19 3 -2.4 12.5
5 14 -3 8.8 13.7
5 14 -3 5 13.6
14 -19 -3 -4.6 7.2
-19 14 3 -0.7 9.2
19 -5 -3 10.6 19
-5 -14 -3 15.2 9.9
5 -19 3 13.7 9.2
-4 -15 3 30.8 10.8
4 15 3 21 12.7
15 4 -3 19.5 19.9
4 -19 -3 21.2 11.2
-4 19 -3 24.5 12.4
4 15 3 -3.3 15
15 -19 3 28.9 11.1
4 -19 -3 27.5 12.9
19 -15 3 19.8 10.5
-4 19 3 -6 12.8
4 -19 3 12.3 9.5
15 4 3 22.6 18.1
4 15 -3 8.5 13.2
-4 -15 -3 22.2 10.2
15 -19 -3 -3.6 6.9
-15 19 -3 9.2 9.7
4 15 -3 3.4 12.8
19 -4 -3 23.3 19.4
16 3 -3 15.3 19
16 -19 3 7 10.3
3 -19 -3 11.7 10.8
-3 19 -3 25.6 13.4
3 -19 -3 5.3 12.1
3 16 3 10.9 11.6
-3 -16 3 3.5 10.3
19 -3 -3 18.5 18.5
-3 19 3 -0.5 12
3 16 -3 10.8 12.8
-3 -16 -3 -1.3 10.2
16 -19 -3 -1.5 7.4
3 -19 3 11.7 10.1
-16 19 -3 -0.1 8.1
19 -16 3 14.5 10.7
16 3 3 -6.8 19.8
3 16 -3 -2.9 12.1
-2 -17 3 3.5 10.2
-2 19 -3 13.5 12.2
2 -19 -3 -2.6 12.2
2 17 3 1.3 10.2
17 2 -3 7.3 18.4
2 -19 -3 1.3 10.6
17 -19 3 2.1 10.3
2 17 -3 3.2 11.6
-2 -17 -3 -4.3 10
19 -17 3 2 10
2 -19 3 2.2 9.8
19 -2 -3 -6 18.3
18 -19 3 16 10.1
18 1 -3 12.7 17.5
-1 -18 3 10.2 10.1
-1 19 -3 21.5 11.4
1 18 3 14.7 10.2
1 -19 -3 21.5 10.3
1 -19 -3 22.7 10.9
1 18 -3 11 11.2
1 -19 3 13.1 10
-1 19 3 21.8 10.5
-1 -18 -3 2.5 9.7
19 -18 3 22.1 10.1
19 -1 -3 -4.7 17.2
0 -19 -3 8.1 9.6
19 0 -3 6.7 16.5
0 19 3 16.5 10.1
0 -19 3 22.2 9.9
0 19 -3 11.2 10.4
19 -19 3 17.9 9.8
-10 -10 -3 4.3 9.8
-10 -10 3 4.2 10
20 -10 -3 11.5 13.1
-10 20 3 -8.2 10.3
10 -20 3 7.9 9.5
10 -20 -3 8.1 10.3
10 -20 -3 5.1 9.2
20 -10 3 10.9 9.6
-20 10 3 2.1 10.7
-20 10 -3 0.4 10.8
-20 11 -3 7.6 10.8
-20 9 3 11.3 11.2
20 -11 -3 2.9 10
9 -20 -3 10.1 9.3
-11 20 3 -2 11.2
20 -9 3 16.4 10
9 -20 -3 3.4 11.7
11 -20 3 6.6 9.6
-11 -9 -3 7.7 10.4
-9 -11 3 19 10.1
11 -20 -3 -1.1 8.7
9 -20 3 15.4 10.1
20 -11 3 5.9 10
-20 9 -3 7.1 10.6
-20 11 3 14.6 11.1
-9 20 3 -6.7 9.7
-11 -9 3 8.3 10.3
-9 -11 -3 14.3 9.7
-11 20 -3 1.3 8.5
20 -9 -3 14.3 14.4
11 -20 -3 18.1 9.2
12 -20 3 6.1 9.8
20 -12 -3 0.9 13.5
8 -20 -3 10.9 9
12 8 -3 -5.2 20.5
-12 20 3 -1.7 11.3
-20 12 -3 14.1 10.1
8 -20 -3 14.9 12.4
20 -8 3 4.8 9.8
-8 -12 3 16.7 9.8
-12 -8 -3 17.6 11.2
-20 8 3 -1.6 10.2
-8 -12 -3 11.1 9.5
12 -20 -3 1.1 10.1
20 -12 3 8 9.9
-12 -8 3 13.1 11.2
-20 12 3 -1.2 10.5
-20 8 -3 17.6 11
20 -8 -3 18.5 15.7
8 12 -3 7.9 12.5
8 -20 3 14.5 9.9
-12 20 -3 6.1 8.8
12 -20 -3 16.4 8.8
-7 -13 3 44.3 10.7
20 -7 3 38.1 10.4
7 -20 -3 52.49 13.6
-13 -7 -3 42.9 11.4
13 7 -3 10.2 19.9
-13 20 3 5.9 11.6
13 -20 3 61.39 11.4
-20 13 -3 16.6 11.8
7 -20 -3 32.2 10
20 -7 -3 34.8 16.5
7 -20 3 36.1 9.9
-13 -7 3 42.7 11.9
-7 -13 -3 58.29 10.7
7 13 -3 26.1 12.7
20 -7 -3 2.7 10.1
20 -13 3 45.3 10.5
-13 20 -3 10.3 9.1
13 -20 -3 28.9 8.3
6 14 3 24.1 11.3
20 -6 3 52.29 11.1
-6 20 -3 37.4 10.7
6 -20 -3 33 13.2
-6 -14 3 32.2 10.1
14 -20 3 44.1 10.8
14 6 -3 15.1 19.5
6 -20 -3 28.7 10.3
20 -6 -3 41.4 18.2
6 14 -3 27.3 13
20 -14 3 29.7 10.1
14 -20 -3 17 7.4
-14 20 -3 -2.1 8.3
20 -6 -3 1.9 6.9
-6 -14 -3 38.8 9.9
6 -20 3 42.3 9.8
15 -20 3 7.2 9.9
15 5 -3 12.4 19.8
-5 20 -3 0.7 9.9
5 -20 -3 -0.8 11.9
5 -20 -3 12.3 10.5
-5 -15 3 -0.2 9.3
5 15 3 -11.5 11.1
15 5 3 11.1 19.5
-15 20 -3 0.8 13.6
20 -15 3 4.3 9.5
-5 -15 -3 1.7 9.2
15 -20 -3 -3.2 6.5
5 -20 3 6.1 9.2
5 15 -3 -2 11.7
20 -5 -3 1.8 17.8
20 -5 -3 1.5 6.3
16 4 -3 9.5 17.8
4 -20 -3 11.1 12
4 16 3 8.1 11.4
4 -20 -3 16.3 10.5
-4 -16 3 -0.7 9.3
16 -20 3 12.7 9.8
-4 20 -3 17.6 11.1
-4 -16 -3 15.8 9.4
4 16 -3 5.9 12.1
16 -20 -3 -4.8 6.5
20 -4 -3 17.1 17.6
-4 20 3 14.3 11.7
4 -20 3 9.5 9.6
16 4 3 6.1 15.2
20 -16 3 10.3 9.9
3 -20 -3 -1 12.2
3 -20 -3 7.1 10.2
3 17 3 4.7 10
-3 -17 3 -1.8 9.2
17 3 -3 -0.4 17.9
17 -20 3 0 9.2
-3 20 -3 8.4 11.2
3 17 -3 4.1 11.3
-3 -17 -3 0.8 9.2
20 -3 -3 9.5 15.9
-3 20 3 14.8 10.3
3 -20 3 -1.4 9.5
20 -17 3 13.6 9.7
18 -20 3 6 9
-2 20 -3 1.4 9.9
-2 -18 3 -2.7 8.7
2 -20 -3 -5.5 9.2
2 -20 -3 3.5 9.7
2 18 3 10.8 10.2
18 2 -3 21.9 17.4
20 -18 3 1.1 9
20 -2 -3 -1.5 15.4
-2 20 3 9.9 9.8
2 18 -3 12.9 10.3
2 -20 3 8.1 9.2
-2 -18 -3 7.4 9.3
1 -20 -3 11.6 8.7
1 19 3 2.5 9.2
19 -20 3 -2.7 8
-1 20 -3 0.6 9.7
19 1 -3 3 15.2
-1 -19 3 9 8.5
-1 20 3 0.2 9.3
1 -20 3 3.4 8.9
20 -19 3 2 8.4
20 -1 -3 4.3 14.1
1 19 -3 5.9 9.6
-1 -19 -3 4.7 8.5
20 -20 3 27.1 8.3
0 20 -3 18.8 9.3
0 -20 3 8.4 8.2
0 20 3 12.2 9.1
20 0 -3 5.3 13.2
0 -20 -3 14.7 8.3
10 -21 -3 4.2 9.3
21 -11 -3 0.2 9.9
21 -10 3 3 9.5
11 10 -3 2.2 22.9
11 -21 3 9.1 9.7
10 -21 -3 11.3 8.1
-10 -11 3 -0.9 9.6
-11 -10 -3 2.3 10.4
10 -21 3 5.7 9.5
-10 -11 -3 5.9 10
21 -10 -3 5.7 10.5
11 -21 -3 8.4 8.1
-11 -10 3 10.8 10.2
11 -21 -3 0 8.4
21 -11 3 -5.6 9.4
9 -21 -3 2.8 10.8
9 -21 -3 15.8 8.5
21 -9 3 4.3 8.9
-12 -9 -3 15.2 10.7
12 -21 3 11.3 9.3
12 9 -3 -3 20.5
-9 -12 3 7.9 9.5
12 -21 -3 4.7 8.1
9 -21 3 0.2 8.9
21 -9 -3 14.2 13
-12 -9 3 5.7 10.9
21 -12 3 1.2 9.1
9 12 -3 -4.4 8.7
-9 -12 -3 1.8 9.2
13 -21 3 74.19 11.1
8 -21 -3 68.99 13.2
13 8 -3 6.7 19.2
8 -21 -3 41.8 9.9
-8 -13 3 49.1 10.2
21 -8 3 59.69 10.5
-8 -13 -3 43.7 10
8 -21 3 46 9.8
21 -13 3 42.6 10
-8 21 3 46.4 10.1
8 13 -3 41.1 11.7
21 -8 -3 25.6 14.1
13 -21 -3 29.7 8.1
-13 -8 3 42.1 11.1
7 -21 -3 13.2 9.4
-7 -14 3 6.7 9.1
7 14 3 3.5 8.2
-7 21 -3 -2.9 7.6
14 -21 3 6.4 9.2
21 -7 3 16 9.2
14 7 -3 16.7 18.5
7 -21 -3 1.4 11.4
-7 -14 -3 10.6 9.3
21 -7 -3 25.9 14.3
21 -14 3 15.6 9.1
7 14 -3 -6.8 11.7
7 -21 3 14.1 8.7
14 -21 -3 2.2 6.8
-7 21 3 10.2 9.7
6 -21 -3 8.9 9.5
-6 -15 3 12.6 8.7
15 -21 3 7.3 9.1
15 6 -3 7.7 18
21 -6 3 12.5 9.1
6 -21 -3 15.6 11.8
6 15 3 3.7 10
-6 21 -3 14.6 9.8
-6 -15 -3 -1.3 9.1
6 -21 3 -2.2 8.7
21 -6 -3 11.6 13.9
15 6 3 -15 18.4
15 -21 -3 1.1 6.1
-6 21 3 2.3 10.2
21 -15 3 9.3 9.1
6 15 -3 -2.6 11.8
21 -5 3 17.1 9
-5 21 -3 10.1 10
5 -21 -3 7.2 9.5
5 -21 -3 10.2 11.6
16 5 -3 16.9 18
5 16 3 15.4 10
-5 -16 3 16.1 8.8
16 -21 3 19.8 9.2
5 -21 3 19.1 9.6
21 -5 -3 23.2 16
21 -16 3 17.6 9.5
-5 -16 -3 23.9 9.3
16 5 3 16 16.1
5 16 -3 5.9 10.7
-5 21 3 34.1 11
21 -4 3 18.5 8.3
4 -21 -3 5.1 9.5
17 -21 3 26.5 9.2
-4 21 -3 23.3 10
4 -21 -3 22.9 9.4
-4 -17 3 7.7 8.5
17 4 -3 25.8 16.4
4 17 3 8.3 9.6
4 17 -3 7.3 10
4 -21 3 16.7 9.2
-4 -17 -3 20.6 8.9
21 -17 3 20 9.2
21 -4 -3 2.3 14.7
-4 21 3 14.2 9.9
3 18 3 -10 8.5
-3 21 -3 8.7 9.3
18 3 -3 20.5 15.4
3 -21 -3 5.7 10
18 -21 3 8.6 8.1
3 -21 -3 7.7 8.8
-3 -18 3 5.5 8
-3 -18 -3 -0.4 8.2
-3 21 3 12.7 9.3
3 18 -3 7.1 9.7
3 -21 3 0.6 8.5
21 -3 -3 7.4 13.9
21 -18 3 -5.9 8
19 -21 3 4.7 7.8
2 19 3 14.1 8.6
-2 -19 3 1.2 7.5
19 2 -3 -3.8 14.1
-2 21 -3 12.6 8.8
2 -21 -3 13.5 8.6
-2 21 3 8.9 8.8
21 -2 -3 -3.5 12.5
2 -21 3 9.6 8.4
21 -19 3 10.5 8.2
2 19 -3 3.8 9.1
-2 -19 -3 9.8 8.4
1 20 3 5.2 8.5
1 -21 -3 1.6 8.2
20 1 -3 4.7 12.3
-1 -20 3 1 6.6
20 -21 3 1 7.5
-1 21 -3 4.5 8.8
1 20 -3 10.1 9.1
1 -21 3 2.4 7.8
21 -1 -3 -6.8 12
-1 -20 -3 4.9 8
21 -20 3 2.4 7.3
-1 21 3 11 8.2
21 0 -3 -1 11.7
0 -21 3 4.5 7.3
0 21 3 5 8.8
0 -21 -3 1.5 7.1
0 21 -3 4.1 9.2
21 -21 3 -3.9 7.6
-11 -11 -3 2.2 9.8
-11 -11 3 9.4 9.6
22 -11 3 3.2 8.5
11 -22 -3 16 7.3
11 -22 3 5.7 8.7
11 11 -3 2.4 19.1
-12 -10 -3 19.3 10
22 -10 3 12.8 8.9
10 -22 -3 9.6 7.6
12 -22 3 8 8.9
10 -22 -3 2.4 11.5
12 10 -3 1 18.7
-10 -12 3 8.6 9.2
10 12 -3 21.5 21.6
-10 -12 -3 12.7 9.8
10 -22 3 17.3 8.4
22 -12 3 12.2 8.6
-12 -10 3 9.7 10.1
12 -22 -3 4.4 6.6
-9 -13 3 4.4 8.7
13 9 -3 0.4 18.5
13 -22 3 5 8.9
9 -22 -3 5.9 8.1
22 -9 3 10 8.5
9 -22 -3 2.3 8.1
-13 -9 3 5.2 9.5
13 -22 -3 0.7 6
9 -22 3 -2 7.9
-9 -13 -3 2.6 8.9
22 -9 -3 1.2 8.9
22 -13 3 6.9 8.5
8 -22 -3 11.9 9.4
-8 -14 3 13.2 8.8
14 8 -3 7.9 17.6
14 -22 3 20.4 8.8
22 -8 3 26.5 8.6
8 -22 -3 19.4 8.6
8 14 -3 20 10.2
22 -14 3 21.7 8.5
22 -8 -3 8.6 10.4
-8 22 3 4.1 7.2
-8 -14 -3 13.2 9
14 -22 -3 -0.8 6.6
14 8 3 15.1 19.3
8 -22 3 26.4 8.5
22 -7 3 14.3 8.1
15 7 -3 1.4 16.7
7 -22 -3 2.7 9.7
7 15 3 -3.6 6
-7 -15 3 13.4 8.7
7 -22 -3 13.7 8.7
15 -22 3 16.9 8.4
7 -22 3 18 8.9
22 -7 -3 12 11.5
7 15 -3 13.7 10.3
-7 -15 -3 19.3 8.8
22 -15 3 33.4 9.2
-7 22 3 19.8 8.2
15 7 3 16.4 17.5
6 16 3 5.1 8.9
-6 22 -3 9.5 7.9
16 -22 3 9.6 8.1
22 -6 3 25.7 8.2
16 6 -3 1.7 16.4
6 -22 -3 17 8.8
-6 -16 3 14.1 8.2
6 -22 -3 -1.8 10.1
-6 -16 -3 18.1 8.8
-6 22 3 6.8 8.3
16 6 3 -0.8 14.4
22 -16 3 15.3 8.7
6 -22 3 9.1 8.8
6 16 -3 9.5 9.7
22 -6 -3 3.2 11.2
22 -5 3 4.4 7.6
17 -22 3 15 7.9
17 5 -3 17.6 15.2
5 -22 -3 8.8 8.4
-5 -17 3 3.3 7.4
5 17 3 12.8 8.2
5 -22 -3 10.1 8.9
-5 22 -3 0.8 8.2
-5 -17 -3 4 8.4
-5 22 3 9.8 8.6
22 -17 3 7.1 8.3
22 -5 -3 9.1 11.2
5 -22 3 12 8.6
5 17 -3 4.1 9.1
4 18 3 9.9 8.4
18 4 -3 -3.6 14.6
4 -22 -3 8.5 8
-4 -18 3 14.2 7.4
18 -22 3 17.7 7.7
22 -4 3 20.2 7.5
-4 22 -3 20.4 9.4
-4 -18 -3 20.4 8.4
4 18 -3 10.2 9.1
4 -22 3 12.1 8.4
22 -4 -3 4.9 10.6
22 -18 3 15.4 8.2
-4 22 3 18.4 9.1
19 -22 3 0.7 7.2
22 -3 3 10.8 7.2
3 -22 -3 8.9 7.5
-3 -19 3 -1.1 6.9
3 19 3 9.1 7.9
-3 22 -3 2.1 8.7
19 3 -3 0.7 14.2
3 19 -3 18.7 9.3
-3 -19 -3 10.3 8.5
3 -22 3 1.4 7.9
22 -3 -3 10.4 11.1
-3 22 3 6.2 9.1
22 -19 3 6 7.9
22 -2 3 -2.9 7.7
20 -22 3 4.3 7.7
2 20 3 -3 8.2
-2 -20 3 1.7 7.1
20 2 -3 -1.4 12.2
-2 22 -3 1.9 9.6
2 -22 -3 5.3 6.3
2 -22 3 -3.5 8.1
22 -20 3 3.2 7.9
-2 22 3 3.2 9.2
22 -2 -3 6.1 8.8
-2 -20 -3 -2 8
2 20 -3 3.6 9.2
21 1 -3 1.2 11.4
1 21 3 6.5 9.5
-1 22 -3 -1.9 9.9
22 -1 -3 1.2 8.6
1 21 -3 8.2 9
-1 22 3 4 10.3
11 -23 -3 -0.3 7.7
-11 -12 3 11.7 9.2
12 -23 3 6.4 7.8
12 11 -3 14.8 18.2
23 -11 3 9.1 8
23 -12 3 1.9 7.7
11 -23 3 3.1 7.4
-12 -11 3 5.7 8.9
-11 -12 -3 0.1 9.3
11 12 -3 12.8 18.6
-10 -13 3 2.3 8.9
10 -23 -3 -0.2 6.6
13 10 -3 11.8 17.6
23 -10 3 7.5 7.7
13 -23 3 2.4 7.9
10 13 -3 -1.8 17.2
23 -13 3 1 7.7
-10 -13 -3 2.1 8.9
10 -23 3 8.5 7.4
9 -23 -3 7.4 7.1
23 -9 3 10.8 8
-9 -14 3 -0.4 8.2
14 9 -3 9.3 16.2
14 -23 3 12.2 8.2
14 9 3 3.8 16.1
-9 -14 -3 10.3 9.1
23 -14 3 -4 7.7
9 14 -3 10.8 16.5
9 -23 3 2.6 7.8
15 8 -3 -1.9 15.7
23 -8 3 1 7.5
15 -23 3 3.3 8
-8 -15 3 6.6 7.8
8 -23 -3 6.1 6.6
8 15 -3 -0.9 15.7
-8 -15 -3 -2.6 8.5
23 -15 3 1.2 7.7
15 8 3 -10.6 15.1
8 15 -3 0.3 13.6
8 -23 3 9.8 7.9
16 7 -3 7 15.1
23 -7 3 5.4 7.1
-7 -16 3 3.7 7.3
7 -23 -3 0.9 6.4
16 -23 3 7.9 7.5
23 -16 3 5.3 7.8
-7 23 3 3.3 6.1
7 16 -3 14.4 14.7
7 -23 3 10.6 8.1
-7 -16 -3 -3 8.3
16 7 3 0.4 11.5
7 16 -3 0.5 7.7
23 -6 3 1.7 6.9
-6 -17 3 10.6 7.3
17 -23 3 7.4 7.3
17 6 -3 0.1 14.7
6 -23 -3 1.2 6.7
6 17 -3 9.2 8.3
-6 23 3 5.3 7.7
23 -17 3 5.7 7.9
6 -23 3 13.4 8.2
-6 -17 -3 0.6 8.5
23 -5 3 9.1 7.6
18 -23 3 3.8 7.6
18 5 -3 -7 14.5
5 18 3 -0.1 5.8
-5 23 -3 -2.2 7.1
-5 -18 3 5.1 7.2
-5 23 3 3.3 8.8
23 -18 3 7.7 8.1
5 -23 3 -6.5 7.9
5 18 -3 12.7 8.4
-5 -18 -3 6 8.7
-4 23 -3 0.5 5.8
19 4 -3 1.1 15.5
23 -4 3 11.9 7.5
4 19 3 8.4 6.7
-4 -19 3 3.9 7.2
19 -23 3 9.2 7.8
4 19 -3 14.2 9.6
4 -23 3 6.4 9.1
-4 -19 -3 18.8 8.8
-4 23 3 19 9.3
23 -19 3 10.5 8.6
24 -12 3 2.4 7.6
12 12 -3 3.8 17.5
12 -24 3 12.1 7.5
13 -24 3 3.7 7.5
-11 -13 3 4.8 7.6
13 11 -3 20.9 16.6
24 -11 3 -4 7.5
-11 -13 -3 1.1 8.9
11 -24 3 -6.8 7
11 13 -3 -3.6 17.3
24 -13 3 1.4 7.5
13 11 3 -1.4 16.2
24 -10 3 -4.1 7.5
14 10 -3 16.8 17.2
14 -24 3 9.5 7.5
-10 -14 3 8.6 7.7
14 10 3 11.9 14.7
-10 -14 -3 0.5 9.4
10 -24 3 6.7 7.7
10 14 -3 3.7 17.2
24 -14 3 14.1 7.9
15 -24 3 8.7 7.9
24 -9 3 2.4 7.9
15 9 -3 -4.2 16.5
-9 -15 3 7.2 7.3
24 -15 3 -0.3 7.8
-9 -15 -3 0.9 9.7
15 9 3 -3.6 10.5
9 15 -3 19.4 14.9
9 -24 3 -0.2 8.3
24 -8 3 -3.6 8.2
16 8 -3 3.8 16.5
16 -24 3 -2.7 8.1
-8 -16 3 0.1 7.2
24 -16 3 -0.8 7.9
-8 -16 -3 0.9 9.8
8 -24 3 -1.7 8.5
17 -24 3 17.6 8.5
17 7 -3 1.8 16.6
24 -7 3 9.2 8.5
-7 -17 3 3.1 6.4
24 -17 3 18 9.1
-7 -17 -3 16 10.1
7 -24 3 20.7 9.7
0 0 -4 -0.5 6.8
-1 1 -4 54.29 10.5
1 -1 -4 44.6 8.7
0 1 -4 39.4 5.6
-1 0 -4 39.6 9
0 -1 -4 43.4 8.6
1 -1 -4 49.2 8.6
1 0 -4 51.19 9.8
1 0 -4 43.1 8.5
-1 1 -4 40.9 5.6
0 1 -4 44.1 9.9
1 1 4 1.1 5.9
-2 1 -4 6 7.5
2 -1 -4 0.4 6
1 1 -4 5.1 8.4
2 -1 4 0.4 8.1
1 1 -4 0.6 6.4
1 -2 -4 5 6.6
1 1 4 -2.4 4.5
1 1 -4 1.6 4.7
2 -1 -4 1 7.4
-1 -1 4 -0.9 2.1
1 -2 -4 -2.5 6.3
-2 1 -4 -1.6 4.7
-1 2 -4 -0.5 8.6
-1 2 -4 1 5.5
0 2 4 5.6 4.1
0 2 -4 6.7 9.3
2 0 -4 3.1 3.5
2 -2 -4 1.3 7
-2 2 -4 4.9 8.2
0 2 -4 8.4 5.8
2 -2 4 11.5 8.4
-2 2 -4 9.6 6.2
2 0 -4 0.5 2
2 0 4 2.9 8.3
2 0 -4 7.6 7.2
2 -2 -4 2.4 7.4
2 0 -4 2.7 7.5
-2 3 4 742.13 42.7
-3 2 -4 826.92 46.8
2 1 -4 783.32 43.2
-1 3 -4 859.71 44.8
2 -3 4 859.11 47.4
3 -1 4 842.72 47.5
1 2 4 837.02 43.5
3 -2 -4 832.52 46.7
-1 3 -4 874.31 46.9
3 -2 -4 900.01 45.5
2 1 -4 847.62 46.3
2 1 -4 906.11 46.6
1 -3 -4 844.02 45.9
-3 2 -4 805.22 44.4
-2 3 -4 779.72 44.6
3 -1 -4 760.12 40.7
2 -3 -4 788.02 42.1
2 1 4 777.82 41.6
1 2 -4 797.32 44.9
-2 3 -4 841.72 43
1 2 -4 784.12 41.9
-1 3 4 770.22 41.5
2 1 4 792.32 45.7
1 2 -4 831.92 44.3
3 -1 -4 831.02 44.2
2 -3 -4 840.62 44.5
3 -2 4 833.42 46.1
3 -1 -4 798.92 44.5
-3 3 4 69.09 7.6
3 0 -4 58.09 7.1
0 3 -4 70.49 11.8
-3 3 -4 71.99 10.8
3 -3 4 94.19 12.9
3 0 -4 69.39 11.4
3 -3 -4 73.49 10
0 3 -4 68.69 9.8
3 -3 -4 72.49 12.7
0 3 4 61.79 7.7
3 0 -4 72.99 12.6
3 0 4 104.09 13.5
-2 4 4 743.73 37.2
4 -2 -4 671.73 39.8
2 2 4 681.63 40.4
4 -2 4 695.23 41.3
4 -2 -4 698.73 38.8
2 2 -4 712.93 40.3
-2 4 -4 740.43 38.8
-2 4 -4 701.93 40.4
2 -4 4 708.03 40.6
2 2 4 632.04 38.5
-4 2 -4 685.03 38
2 2 4 721.03 37.3
2 2 -4 626.14 37
2 -4 -4 730.13 39.8
2 2 -4 713.23 39.5
-1 4 -4 72.89 10.6
4 -3 -4 75.69 10.8
3 1 -4 101.09 13.9
-1 4 -4 87.49 13.1
4 -3 -4 78.99 13.5
4 -1 4 73.49 14.3
-4 3 -4 97.29 15.1
1 3 4 78.59 9.1
3 1 -4 80.29 12.5
3 1 -4 61.89 9.1
-4 3 -4 74.69 11.7
3 -4 4 73.29 13.6
-3 4 4 77.09 8.5
1 3 4 80.29 10.5
1 -4 -4 80.59 11.6
4 -1 -4 109.89 8.8
3 -4 -4 114.89 13.7
3 1 4 112.49 9.3
4 -1 -4 109.69 13.1
-3 4 -4 122.69 12.6
4 -3 4 120.49 15.6
-3 4 -4 106.59 13.9
3 1 4 99.49 12.2
-1 4 4 103.19 9.3
1 3 -4 118.59 12.6
-1 4 4 101.49 10
3 1 4 105.49 13.9
3 -4 -4 100.89 8.9
4 -1 -4 107.89 13.3
1 3 -4 116.29 14.9
1 3 -4 99.69 10.5
-4 4 -4 276.87 19.1
0 4 4 228.88 16.3
0 4 4 248.68 16.6
4 0 4 261.57 15.7
4 -4 -4 253.07 19.3
4 -4 -4 252.67 16.3
4 0 -4 254.67 19.9
4 0 -4 248.48 19.6
4 0 -4 249.08 15.7
4 0 4 251.47 19.5
0 4 -4 263.27 20.6
0 4 -4 260.87 17.5
-4 4 4 225.38 16
4 0 4 256.07 21.2
-4 4 -4 249.88 19.6
4 -4 4 260.27 20.3
3 2 -4 722.83 40.5
3 -5 4 738.43 42
5 -2 4 673.53 42
3 2 -4 696.03 41.1
-5 3 -4 744.23 40.1
-3 5 4 747.13 39.1
2 3 4 724.73 39.9
3 2 -4 662.43 38.5
5 -3 -4 703.03 41.7
-2 5 -4 716.83 40
5 -3 -4 688.63 39.8
2 3 4 706.73 38.5
2 3 4 732.93 41.6
2 -5 -4 740.63 40.7
-2 5 -4 715.73 41.2
5 -2 -4 739.33 44.1
-2 5 4 795.22 42.4
2 3 -4 780.02 45.3
3 2 4 768.52 45
-3 5 -4 813.52 44.1
-3 5 -4 785.52 44.9
2 3 -4 762.02 42.4
5 -3 4 786.32 46.2
3 2 4 742.33 43.9
2 3 -4 824.32 43.9
5 -2 -4 764.52 45
3 -5 -4 816.02 44.4
3 2 4 821.92 42.1
5 -2 -4 757.42 40.9
2 -5 4 839.62 45.4
5 -1 4 52.79 11.4
1 4 4 52.19 9.7
1 4 4 42.3 9
4 1 -4 51.09 9.8
4 1 -4 52.49 8
4 -5 4 46.2 11
-1 5 -4 58.49 12.2
-5 4 -4 75.99 11.9
-1 5 -4 51.69 10
5 -4 -4 56.49 9.4
5 -1 4 67.89 12.7
1 4 4 58.39 9.4
4 1 -4 67.49 13
5 -4 -4 47.8 10.4
-4 5 4 55.59 8.8
-4 5 -4 105.89 15
5 -1 -4 76.19 14.4
5 -4 4 78.99 14.6
4 1 4 71.29 8.5
4 1 4 61.29 11.3
1 4 -4 54.79 9.4
1 4 -4 63.79 10.4
-4 5 -4 54.69 9.2
-4 5 -4 82.69 12.7
1 4 -4 90.29 14.2
-1 5 4 48.1 6.7
4 1 4 85.99 12.9
5 -1 -4 64.79 8.1
5 -1 -4 82.49 13
4 -5 -4 86.59 13.6
-1 5 4 64.79 10
-5 4 4 77.49 9.8
1 -5 4 85.79 13.2
0 5 -4 141.19 14.6
5 -5 -4 195.58 18.6
5 0 -4 172.18 17.6
5 0 -4 165.98 16.4
0 5 -4 185.48 18.4
5 0 -4 146.99 12.8
-5 5 -4 202.28 17
5 0 4 177.88 18.4
-5 5 -4 168.88 17.4
5 0 4 170.98 12.9
-5 5 -4 166.48 13.7
-5 5 4 161.98 13.6
0 5 4 169.78 13.7
5 -5 4 167.08 18.3
5 0 4 164.28 17.6
0 5 -4 170.08 15.3
0 5 4 146.99 12.5
6 -3 -4 9.9 10
3 3 -4 7.2 7.6
3 3 4 15.9 8.9
3 -6 -4 3.9 7.7
6 -3 -4 6.8 9
3 3 4 14.7 7.1
6 -3 4 4.2 8.4
-3 6 -4 12.3 10.3
-3 6 4 14 6.3
-6 3 -4 9.2 8.6
-6 3 -4 9.9 7
-3 6 -4 10.7 10.2
-6 3 -4 0.2 4.7
-3 6 -4 4.8 5
3 3 -4 9.2 6.9
3 3 4 14.5 8.4
-6 3 4 15.8 7.5
3 3 -4 19.4 10.6
3 3 -4 15.6 8.2
3 -6 4 14.2 8.9
-3 6 4 18.7 8.4
4 -6 4 9.3 8.8
2 4 4 13.3 9.4
6 -2 4 21.7 11.3
-4 6 4 23.6 9.4
-6 2 4 25.1 8.8
-6 4 -4 6.5 4.7
6 -4 -4 8.9 8.4
-4 6 4 17 7.4
2 -6 -4 15.4 8.2
-6 4 -4 24.7 9.7
2 4 4 28.4 8
-2 6 -4 23.5 9.7
2 4 4 27.5 9
4 2 -4 20.1 8.8
4 2 -4 1.8 5.4
4 2 -4 21.2 11.1
-6 4 -4 20.8 8
-2 6 -4 17.2 10.2
6 -4 -4 17.4 9.7
6 -2 4 11 9
4 2 -4 13.5 8.7
-6 4 4 17.4 7.8
2 4 -4 8 7.4
6 -4 4 7.9 9.6
-6 2 -4 -1.3 6.5
2 4 -4 5.4 7.9
-4 6 -4 3.2 8.2
4 -6 -4 4.9 8.5
-2 6 4 1.8 5.9
4 2 4 7.7 6.5
-4 6 -4 4.9 6.2
6 -2 -4 8.1 10.1
6 -2 -4 11 10.2
6 -2 -4 -0.4 5.6
2 4 -4 3.7 8.6
-4 6 -4 7 10.8
2 4 -4 6.4 11.5
4 2 4 -1.2 9.1
-2 6 4 24.8 8.6
2 -6 4 1.6 7.7
4 2 4 3.4 8.3
6 -5 -4 69.49 12.9
-1 6 -4 67.39 10.9
1 5 4 103.19 12.6
5 -6 4 100.89 16.3
5 1 -4 101.49 15.6
-5 6 4 95.29 12
5 1 -4 90.99 14.6
5 1 -4 78.19 10.9
-1 6 -4 89.49 13.6
6 -1 4 96.89 15
6 -1 4 89.69 14.6
1 5 4 82.59 11.4
-6 5 -4 101.99 14.6
1 5 4 114.79 14.5
-1 6 -4 97.09 15.5
-6 5 -4 82.99 11.2
-5 6 4 76.99 12.4
-6 5 -4 84.79 11.6
6 -1 -4 87.79 10.6
5 -6 -4 128.99 16.8
1 5 -4 119.89 14.1
5 1 4 118.99 16.1
1 5 -4 122.49 15.7
5 1 4 115.49 10.8
1 -6 4 95.39 14.1
6 -1 -4 117.89 16.4
5 1 4 124.79 16.4
-6 5 4 114.19 12.7
6 -1 -4 114.69 17.2
-1 6 4 143.09 13.1
-5 6 -4 122.29 15.4
1 5 -4 118.19 13.7
-1 6 4 120.49 12.7
-5 6 -4 115.19 17.1
-6 1 -4 104.29 12
-5 6 -4 115.79 12.8
6 -5 4 107.79 17.6
-6 5 4 109.49 13.8
0 6 -4 275.27 19.8
6 0 4 255.77 23.1
-6 6 -4 263.57 18.3
6 0 4 261.77 17.4
0 6 -4 276.27 22.9
6 0 -4 222.28 17.3
0 6 -4 237.98 18.7
6 -6 4 276.87 24.1
6 0 -4 263.27 22.3
-6 6 -4 277.17 21.9
0 6 4 309.67 19.1
-6 6 4 193.58 19.3
6 0 4 254.17 22.7
0 6 4 236.08 17.2
6 -6 -4 267.27 23.7
6 0 -4 262.47 22.7
0 -6 4 212.08 18.4
-6 6 4 242.58 18.5
7 -3 4 112.19 17.4
3 4 4 81.69 14.3
4 3 -4 96.79 16.3
-7 3 4 60.69 10.5
-4 7 4 95.89 12.9
4 -7 4 84.09 15.4
3 -7 -4 80.79 13.1
7 -4 -4 59.99 12.1
-3 7 -4 79.39 11.5
4 3 -4 76.49 13.7
7 -3 4 88.69 16.9
-3 7 -4 109.79 16.2
4 3 -4 94.79 13.5
-4 7 4 93.59 14.6
-7 4 -4 97.29 14.9
4 3 -4 80.29 12.1
7 -4 -4 81.29 15.5
-7 4 -4 105.19 14.1
-3 7 -4 103.59 15.1
3 4 4 89.29 14.3
3 4 4 100.19 11.5
3 4 -4 110.19 13.7
3 4 -4 106.19 16.2
-4 7 -4 106.19 15.8
7 -4 4 117.49 19.4
-4 7 -4 108.49 15.4
3 4 -4 99.89 13.6
4 3 4 113.69 12.1
4 -7 -4 108.79 15.5
-4 7 -4 97.29 12
-3 7 4 125.69 14.5
-7 3 -4 110.79 15
-7 4 4 90.69 14.7
7 -4 4 116.29 17.1
3 4 -4 106.09 13.3
-3 7 4 130.29 14
7 -3 -4 105.99 16.8
4 3 4 103.19 15.5
4 3 4 110.89 15.8
7 -3 -4 91.19 15.4
3 -7 4 91.59 14.8
2 5 4 133.29 15.7
-2 7 -4 153.58 18
2 5 4 162.28 17
-2 7 -4 146.39 15.6
5 -7 4 160.88 19.1
5 2 -4 159.88 14.6
5 2 -4 147.59 16.9
7 -2 4 159.08 19.6
-7 5 -4 140.19 15.3
-5 7 4 165.28 15.1
2 5 4 178.48 16
5 2 -4 159.58 20
7 -2 4 167.98 20.1
-2 7 -4 166.48 16.6
-7 2 4 152.18 16.3
-7 5 -4 148.99 13.6
-5 7 4 159.28 16.6
-7 5 -4 178.98 17.6
7 -5 -4 166.18 22.3
5 -7 -4 226.58 20.6
-7 5 4 173.08 17.7
-5 7 -4 210.38 18.5
-7 5 4 208.78 16.6
2 5 -4 217.18 18.1
7 -2 -4 178.98 14.6
2 5 -4 199.28 20.1
-5 7 -4 193.18 19.5
5 2 4 202.58 19.6
7 -2 -4 227.18 21.8
2 5 -4 190.98 17.5
-7 2 -4 213.28 18
-2 7 4 224.48 17.2
5 2 4 204.38 20
5 2 4 202.78 16
7 -2 -4 215.38 20.3
-2 7 4 249.58 18.3
7 -5 4 223.58 23.4
-5 7 -4 186.28 16.6
2 -7 4 154.98 17.1
-7 1 4 73.49 11.5
6 -7 4 85.69 15.4
6 1 -4 65.59 12.9
7 -6 -4 61.09 14.9
-1 7 -4 90.09 13.5
-1 7 -4 96.49 16.8
-6 7 4 56.89 9.8
-7 6 -4 81.29 12.2
7 -1 4 90.19 16.7
-6 7 4 80.89 12.8
-1 7 -4 79.59 13.3
-7 6 -4 113.99 16
-7 6 -4 60.69 9.8
6 1 -4 60.79 10.7
1 6 4 74.39 13.5
7 -1 4 55.09 13.3
1 6 4 92.49 12.7
6 1 -4 60.09 14.4
7 -1 -4 59.09 9.8
-7 1 -4 73.49 12.1
7 -1 -4 81.59 16
-6 7 -4 84.29 14.1
-1 7 4 107.59 13.6
6 1 4 88.49 10.8
-6 7 -4 77.99 11.5
7 -6 4 63.19 13.7
-7 6 4 72.69 11.9
6 1 4 64.99 13.2
1 6 -4 107.89 14.1
-1 7 4 95.59 13.4
-6 7 -4 83.09 15.4
-7 6 4 61.79 10.9
1 6 -4 84.69 15.9
6 -7 -4 70.39 14.6
1 6 -4 80.09 12.9
7 -1 -4 58.39 13.7
6 1 4 73.19 14.8
0 7 4 481.65 28.9
0 7 -4 453.15 31.9
-7 7 4 374.26 27
-7 7 4 418.76 26.7
7 0 -4 446.06 32.6
7 0 4 444.96 32.6
7 0 4 457.25 33.9
7 -7 -4 502.45 34.2
7 0 -4 456.95 32.6
0 7 -4 449.16 28
0 7 4 423.66 26.4
7 0 4 444.96 27.1
-7 7 -4 468.45 30.8
0 7 -4 430.16 29.1
-7 7 4 398.16 27.5
7 0 -4 372.56 26.3
-7 7 -4 406.16 27.4
7 -7 4 447.26 33.7
-7 7 -4 454.55 27.2
-4 8 -4 461.45 30.7
-8 4 -4 452.25 28.1
-4 8 4 417.36 27.5
4 4 4 407.86 26.3
4 4 4 397.76 29
4 4 -4 424.76 27.4
-4 8 -4 416.46 28.6
-8 4 4 396.66 27.5
8 -4 -4 414.06 34.1
4 4 -4 390.06 25.7
8 -4 4 436.46 33
4 4 -4 429.66 31.5
-8 4 -4 412.16 28.7
-4 8 -4 425.16 25.6
8 -4 4 470.25 31.9
4 -8 -4 336.77 27.3
4 4 4 398.96 28.1
-4 8 4 373.06 25.9
3 5 4 25.8 11
-3 8 -4 31.1 8.7
-8 5 -4 44.1 10.5
-8 5 -4 44.3 7.9
8 -5 -4 30.5 14.6
8 -3 4 52.49 14.6
8 -3 4 46.2 14.1
-5 8 4 51.19 10.5
5 3 -4 43.9 11.8
-8 5 -4 56.19 13.4
5 3 -4 53.69 10.3
-3 8 -4 47.1 10.7
5 3 -4 35.8 10.2
5 3 -4 35.7 13.7
5 -8 4 28.9 11.4
-5 8 4 49.1 12.2
-8 3 4 53.69 9.9
-3 8 -4 50.79 14.3
3 5 4 58.29 12
-3 8 -4 34.4 11.9
8 -3 -4 41.7 14.1
3 5 -4 34.2 10.7
-8 3 -4 49 9.5
5 -8 -4 27.4 10.9
8 -3 -4 21.3 8
8 -5 4 66.39 15.2
5 3 4 49.99 10.3
8 -3 -4 18.8 13.7
-8 5 4 54.79 10.8
5 3 4 42.7 12.6
3 5 -4 44.7 14.1
5 3 4 43.9 11.7
-5 8 -4 62.19 14.2
-5 8 -4 37 10.9
-5 8 -4 42.5 8.5
-3 8 4 53.59 10.3
8 -5 4 32.5 12.8
3 5 -4 50.59 11.2
-3 8 4 48.5 11.6
-2 8 -4 91.29 14.4
8 -6 -4 55.09 16.5
-6 8 4 60.39 10.2
-8 2 4 92.69 14.1
6 2 -4 64.29 11.2
6 2 -4 64.39 12.5
-8 6 -4 68.69 14
-2 8 -4 69.99 13.3
6 -8 4 44.4 13.1
-6 8 4 52.39 11.8
8 -2 4 84.69 18.1
-8 6 -4 81.19 12.4
-8 6 -4 77.09 11.8
8 -2 4 68.29 15.5
6 2 -4 59.29 9.6
6 2 -4 70.09 16.9
-2 8 -4 91.99 17.3
2 6 4 110.99 15.3
2 6 -4 45.5 12.4
8 -2 -4 43.7 15.4
2 6 -4 67.69 16.5
-6 8 -4 60.99 15.8
2 6 -4 56.79 11.5
-8 6 4 91.99 14.1
6 2 4 52.49 14
8 -6 4 65.09 16.3
6 2 4 60.19 13.4
6 -8 -4 51.99 13.3
-2 8 4 61.49 12.4
-6 8 -4 53.19 13.3
-2 8 4 64.99 10.5
-8 2 -4 65.19 10.5
-6 8 -4 60.49 10
6 2 4 60.99 10.7
8 -2 -4 50.79 14.7
8 -2 -4 37.5 9.1
8 -1 4 27.2 13.2
-8 1 4 86.59 13.4
-7 8 4 49.2 9.8
8 -7 -4 37.2 14.6
7 1 -4 39.4 9.8
-7 8 4 63.99 10.3
-8 7 -4 56.59 10.6
7 1 -4 35.6 12.3
-1 8 -4 44.8 12.9
-8 7 -4 61.59 9.5
-1 8 -4 63.39 15.9
7 -8 4 48.7 15.1
1 7 4 42.8 8.2
-1 8 -4 81.99 14.6
7 1 -4 40 14.3
8 -1 4 53.79 11.1
-8 7 -4 64.09 14.8
8 -1 4 39.9 14.7
1 7 4 57.59 11.9
-1 8 4 49.4 12
8 -1 -4 26.4 14.3
-1 8 4 32.5 9
8 -7 4 38.7 15
8 -1 -4 25.4 13.4
1 7 -4 33.5 11.6
-8 7 4 30.1 7.5
1 7 -4 33.9 12
-8 7 4 54.79 10
-8 1 -4 34 8.4
7 1 4 36.1 13.2
1 7 -4 42.8 14.9
-7 8 -4 34 8.4
7 1 4 38.4 9.9
7 1 4 36.6 14.1
7 -8 -4 28.5 13.2
-7 8 -4 49.1 13.8
8 -1 -4 13.4 8
-8 8 4 102.39 14
8 -8 -4 79.09 17.7
-8 0 -4 97.29 14.3
8 0 -4 77.29 18.5
-8 8 -4 80.19 15.5
0 8 -4 118.39 17.6
8 0 4 96.59 19.1
-8 0 4 129.69 15
8 0 4 96.39 14.2
-8 8 -4 97.79 14.3
0 8 4 100.19 14.7
0 8 -4 90.79 14.9
8 0 4 72.09 17.3
8 0 -4 62.39 14.7
0 8 -4 104.69 18.4
0 8 4 106.89 15
-8 8 -4 93.19 11.9
-9 5 -4 430.36 27.3
-4 9 -4 470.75 29.4
-9 4 4 556.64 30.4
-9 5 -4 467.35 30.6
5 4 -4 381.46 29.4
4 5 4 467.45 29.9
-4 9 -4 467.75 33.2
-9 5 -4 482.05 32.2
5 4 -4 451.85 28.7
-5 9 4 470.25 29.8
9 -4 4 465.55 37.7
9 -4 4 504.75 36.3
-4 9 -4 461.15 31.9
9 -5 -4 500.55 39.2
5 4 -4 477.45 34
-9 5 4 465.15 28.1
4 5 -4 415.76 28.8
9 -5 4 457.45 37
9 -4 -4 474.95 38
-5 9 -4 427.66 31
-4 9 4 419.56 27.7
5 4 4 374.26 30.8
5 4 4 447.76 28.4
4 5 -4 433.36 27.9
4 5 -4 463.85 32.8
-5 9 -4 440.46 31.9
-5 9 -4 456.35 28.7
9 -5 4 462.75 33.9
-9 4 -4 487.35 29.8
-9 6 -4 113.69 18.8
-3 9 -4 128.29 15
-6 9 4 130.59 14.9
3 6 4 166.18 16.7
-9 6 -4 109.49 17.1
-3 9 -4 117.19 16.4
-3 9 -4 105.49 18.7
9 -3 4 121.49 20
6 3 -4 111.19 14.2
6 3 -4 117.29 19.4
9 -3 4 105.69 20.3
-3 9 -4 111.69 16.9
-9 3 4 167.68 17
-9 6 -4 122.99 13.8
9 -6 -4 108.69 20.8
-6 9 -4 147.69 20.4
-3 9 4 145.89 15.7
3 6 -4 149.39 16.9
6 3 4 143.29 19
9 -3 -4 148.49 25.4
-9 3 -4 148.99 18.1
-6 9 -4 157.08 17.8
9 -6 4 137.39 25.6
6 3 4 158.48 16.2
-6 9 -4 143.89 15.3
3 6 -4 165.58 20.9
9 -6 4 176.58 21.9
3 6 -4 129.69 17.3
-9 7 -4 100.39 13.6
-7 9 4 122.79 15.2
9 -7 -4 83.49 19
7 2 -4 68.99 16.6
9 -2 4 67.99 17.8
9 -2 4 89.69 18
-9 7 -4 103.79 13.1
-2 9 -4 74.79 14.6
-2 9 -4 104.69 15.1
-2 9 -4 84.09 17
2 7 4 66.89 12.8
-9 7 -4 80.09 15.5
9 -7 4 67.09 16.6
9 -2 -4 89.59 18.2
-7 9 -4 108.79 13.7
7 2 4 91.69 18.1
2 7 -4 85.89 16.8
2 7 -4 110.39 16.5
7 2 4 103.09 14.2
-2 9 4 96.89 15.3
9 -7 4 78.89 16
9 -2 -4 64.59 17.6
2 7 -4 80.59 14
-9 2 -4 96.89 16
-7 9 -4 90.79 15.5
-8 9 4 49 9.7
-1 9 -4 51.29 14.5
9 -8 -4 2.3 13.8
-9 8 -4 27.1 13.4
9 -1 4 30.4 14.8
-9 8 -4 31.6 9.1
9 -1 4 6.9 15.7
8 1 -4 38.4 16.1
-9 1 4 47.3 10
9 -1 4 34.6 11
1 8 4 25.6 8.1
-1 9 -4 18.3 11.4
-1 9 -4 20.5 14.7
-9 8 -4 37.6 9
-8 9 4 41.4 8.7
1 8 4 6.3 10.6
-8 9 -4 50.59 14.8
9 -1 -4 24.2 14
1 8 -4 70.79 13.4
-9 1 -4 68.89 10.8
-8 9 -4 72.99 10.9
1 8 -4 15.3 11.5
-1 9 4 46.9 10
8 1 4 44 16.6
1 8 -4 69.99 16.9
8 1 4 47.8 11.2
9 -1 -4 24.8 14.7
-9 8 4 50.09 8.9
9 0 4 51.89 18.2
0 9 4 94.89 14.6
-9 9 -4 81.69 11.4
-5 10 4 417.76 25.5
-5 10 -4 370.66 24.6
10 -5 4 377.66 32.4
5 5 -4 352.76 24.3
-10 5 4 403.06 24.9
5 5 4 343.87 24
-10 5 -4 398.96 26.7
5 5 -4 355.96 30.1
10 -5 4 288.17 32.3
10 -5 -4 312.57 35.4
10 -4 4 93.59 20.5
-10 6 -4 89.49 12.7
-10 4 4 120.79 16.3
10 -6 -4 49.4 18.5
-10 6 -4 85.99 12.5
10 -4 4 65.59 19.5
4 6 4 96.49 15.3
-6 10 4 120.09 14.2
-4 10 -4 109.09 15.5
6 4 -4 85.99 19.1
-4 10 -4 99.19 15.6
6 4 -4 101.99 13.7
4 6 -4 75.39 12.5
10 -6 4 43.7 18.6
-6 10 -4 58.39 10.1
10 -6 4 83.39 19.2
10 -4 -4 37 16.3
4 6 -4 71.59 18
-4 10 4 72.69 10.3
-10 6 4 99.59 13.9
-10 4 -4 87.39 14.7
-7 10 4 72.29 11.1
-3 10 -4 49.9 10.1
-10 3 4 62.79 11.1
7 3 -4 21.8 14.9
10 -3 4 41.5 18.1
3 7 4 68.99 13.2
7 3 -4 53.49 10.5
-10 7 -4 41.2 8.4
-10 7 -4 51.39 11.1
-3 10 -4 55.09 13.4
7 3 4 8.3 9
-7 10 -4 2.2 11
3 7 -4 22.9 15
10 -3 -4 -10.1 14.4
10 -7 4 12.5 13.5
-10 3 -4 35.8 9.7
3 7 -4 43.6 12.4
7 3 4 -4.3 13
-10 2 4 59.79 10.5
-2 10 -4 105.99 16.7
-10 8 -4 69.19 12
2 8 4 82.39 14
-10 8 -4 71.39 10.8
-8 10 4 71.09 10.8
10 -8 4 4.9 13.7
-8 10 -4 -0.5 12.3
2 8 -4 -2.8 14.2
8 2 4 2.3 11.8
8 2 4 -1.8 19.7
-9 10 4 27.2 9.6
1 9 4 12.4 7.8
-10 9 -4 27.6 9.7
1 9 4 34.1 11.7
10 -1 4 -1.8 22.7
-10 1 4 16.5 9.3
-10 9 -4 37.5 9.7
-1 10 -4 49.3 14.9
-9 10 4 29.2 9.4
1 9 -4 29 14.2
-1 10 4 28.5 9.5
-9 10 -4 30.2 9.8
-10 9 4 22.9 9.1
-10 9 4 10.8 7.7
-1 10 4 26.6 11.8
-10 1 -4 25.1 9.2
-10 10 4 10.4 7.9
0 10 4 21.2 11.9
0 10 4 15 8.6
-10 0 4 -0.3 8.1
-10 10 -4 6.1 9.2
-10 10 -4 12.1 8.7
-10 10 4 4.7 8.8
-10 0 -4 23.5 9
0 10 -4 24.1 13.9
-5 11 -4 26.8 9.9
11 -6 -4 -5.6 15.6
-6 11 4 39.9 10.4
6 5 -4 32.1 10.7
5 6 4 24.5 10.6
-5 11 -4 21.3 10.2
-11 6 -4 24.6 10.8
6 5 -4 -2.1 17.4
-11 6 -4 15.4 6.6
-11 5 4 30.5 9.9
11 -5 4 0.3 16.5
-6 11 -4 29.8 9.9
5 6 -4 30.4 10.7
11 -6 4 -22.9 16.2
-11 5 -4 31.5 10.8
11 -5 -4 -5.2 15.9
6 5 4 1 8.5
5 6 -4 -1.3 19
-4 11 -4 139.19 17.4
-7 11 4 153.48 17.1
4 7 4 138.09 16.9
-11 7 -4 142.49 15.1
-11 4 4 156.88 16.5
-11 7 -4 138.39 18.2
-4 11 -4 131.69 17.7
7 4 -4 130.19 15
-4 11 4 131.69 14.9
4 7 -4 129.79 16.9
-11 7 4 145.69 17.5
-7 11 -4 128.09 15.7
-11 4 -4 131.69 18.5
-3 11 -4 54.99 14.6
-11 8 -4 61.99 12
-3 11 -4 46.7 10.3
-8 11 4 76.09 11.4
8 3 -4 37.5 9.9
3 8 4 48.6 12
-11 8 -4 69.99 10.6
-11 3 4 48 10.9
-11 3 -4 61.49 12.2
-11 8 4 37.2 9.7
-3 11 4 64.69 11
-8 11 -4 49.5 10
3 8 -4 66.49 14.1
-9 11 4 78.69 11.2
-2 11 -4 119.09 17.6
-11 2 4 59.29 11
-11 9 -4 59.29 11.7
2 9 4 71.19 13.4
-11 9 -4 72.49 11.3
-2 11 4 80.69 13.8
-9 11 -4 58.79 11.2
2 9 -4 107.49 17.3
-2 11 4 74.39 11.4
-11 2 -4 67.19 11.9
-11 9 4 62.79 11.6
-10 11 4 14.3 8.9
-11 10 -4 9.5 9.5
-11 10 -4 5.7 8.1
-1 11 -4 9.2 14.3
1 10 4 11.4 11.2
-10 11 4 -4.6 8.5
-11 1 4 0 9.2
1 10 4 -1.7 6.1
-11 10 4 3.3 7.7
-11 1 -4 15.3 9.6
-11 10 4 17.2 9.4
-1 11 4 29.8 11.4
1 10 -4 27.4 14.6
-1 11 4 12.5 9.3
-10 11 -4 6.4 8.1
-11 11 -4 85.79 12.4
0 11 4 90.19 14.1
0 11 4 65.79 11.1
0 11 -4 116.99 18.6
-11 11 -4 98.69 15.5
-11 11 4 79.19 12.8
-11 0 4 65.09 12.2
-12 6 -4 -5.5 9.4
-6 12 -4 3.3 9.4
-6 12 -4 -0.5 8.9
6 6 -4 -1.5 9.6
-6 12 4 13.6 9.2
-12 6 4 4.8 8.9
6 6 4 -4.6 9.7
-12 7 -4 75.79 12.8
-12 5 4 81.99 12.6
-5 12 -4 54.49 11.5
-12 7 -4 39.5 8.9
-7 12 4 58.69 10.3
7 5 -4 68.49 12.5
-5 12 -4 61.69 13.3
5 7 4 73.29 13.3
-5 12 4 95.89 15.3
-7 12 -4 54.29 10.6
5 7 -4 64.89 12.9
-12 7 4 58.59 11.1
-12 5 -4 68.09 12
-5 12 4 89.09 12.2
4 8 4 99.49 15
-8 12 4 81.19 11.4
8 4 -4 66.69 11.8
-12 4 4 89.89 13.3
-4 12 -4 68.59 11.5
-12 8 -4 57.39 10.1
-12 8 -4 75.79 12.7
-4 12 -4 109.19 16.2
-8 12 -4 119.59 14.4
-12 4 -4 85.99 13
4 8 -4 110.79 16.1
-4 12 4 109.09 17.2
-4 12 4 92.69 14.3
-12 8 4 119.39 14.3
-3 12 -4 -0.8 12.9
9 3 -4 0.8 8.1
-12 3 4 3.6 8.8
-12 9 -4 -2.6 9.6
-9 12 4 13.4 9.2
3 9 4 0.1 11
-3 12 -4 2.5 8.8
-12 9 -4 6.1 8.3
-9 12 -4 6.8 9.2
3 9 -4 6.1 12.9
-3 12 4 14.9 12.4
-12 3 -4 -0.7 10
-12 9 4 7.1 10
-3 12 4 12.4 8.4
-2 12 -4 33.5 14.4
2 10 4 40.7 12.8
-10 12 4 16.4 9
-12 2 4 11.3 9.4
-12 10 -4 17.4 10.5
-12 10 -4 24.6 9.5
-2 12 4 19.2 9.4
2 10 -4 10.7 12.3
-12 10 4 18.5 9.4
-12 2 -4 18.8 10.6
-10 12 -4 17.4 8.4
-2 12 4 20.3 12.4
-12 11 -4 140.49 17.2
1 11 4 129.49 17.8
-11 12 4 141.59 17.1
-12 11 -4 131.39 18.2
-1 12 -4 165.88 21.7
-12 1 4 112.29 18.2
-11 12 4 105.59 17.3
-1 12 4 133.79 17
-11 12 -4 147.99 17.3
1 11 -4 174.38 22.2
-12 1 -4 146.79 18.9
-12 11 4 130.49 18.5
-1 12 4 161.38 19.3
-12 12 -4 15 9
-12 12 4 -2.9 8.6
0 12 4 13.6 12
0 12 4 -16.1 6.8
0 12 -4 15.8 14.4
-12 0 4 3.7 9.2
-12 12 -4 4.7 9.9
-12 12 4 15.3 10.3
6 7 4 14 11.4
7 6 -4 16.3 11.1
-13 7 -4 13.2 9.7
-7 13 4 17.3 11.9
-7 13 4 13.1 8.7
-6 13 -4 11.1 10.3
-13 6 4 4.5 9.4
-6 13 -4 9.1 10.4
-7 13 -4 -2.6 9.4
-13 6 -4 1.1 10
-6 13 4 7 11.9
-13 7 4 0.2 8.9
7 6 4 -2 9.4
6 7 -4 8.7 11.2
-6 13 4 0.2 8.8
-13 5 4 40.1 10.4
-5 13 -4 24.4 10.4
5 8 4 60.49 13.4
8 5 -4 53.89 11.6
-13 8 -4 25.2 8.8
-13 8 -4 42.1 12.1
-5 13 -4 31 12.7
-8 13 4 38.8 11.7
-8 13 4 66.69 11.7
-8 13 -4 44 11.7
-5 13 4 58.29 14.4
-13 8 4 38.1 10.8
5 8 -4 39.8 12.6
-13 5 -4 41.8 11
-5 13 4 44.1 10.8
-13 9 -4 110.79 17.1
4 9 4 144.39 17.7
-4 13 -4 98.29 16.3
-9 13 4 110.39 17.3
-13 4 4 107.09 16.3
-13 9 -4 100.69 16
-4 13 -4 95.99 13.5
-4 13 4 74.29 11.4
4 9 -4 79.59 15.3
-4 13 4 92.79 15.1
-13 9 4 89.09 12.8
-9 13 -4 114.69 14.1
-13 4 -4 84.39 13.1
3 10 4 186.58 20.5
-13 10 -4 214.48 22
-13 3 4 212.18 21.7
-13 10 -4 188.38 19.5
-3 13 -4 204.88 22.7
-10 13 4 199.38 19.9
-3 13 4 229.18 20.8
-10 13 -4 237.68 21.8
-13 3 -4 251.07 23.9
-3 13 4 224.98 22.1
3 10 -4 261.07 24.8
-13 10 4 226.58 21
-2 13 -4 22.8 14.9
-13 11 -4 13.9 9.4
-13 2 4 1.3 9.5
-13 11 -4 13.7 9.9
-11 13 4 6.1 10
2 11 4 29.6 13.3
-13 11 4 22.3 11.1
2 11 -4 34.7 15.6
-11 13 -4 26.5 9.8
-13 2 -4 19.4 11.1
-2 13 4 13.4 9.5
-2 13 4 29.5 12.4
-13 12 -4 74.79 13.2
-13 12 -4 68.89 11.6
-13 1 4 80.39 12.9
-12 13 4 65.19 12.2
1 12 4 114.79 17.2
-1 13 4 72.39 11.6
-13 12 4 53.09 10.8
-13 12 4 79.29 12.8
-12 13 -4 109.39 16.3
0 13 -4 -8.5 11.2
-13 13 4 3.7 9.9
13 0 -4 -1.8 17.2
-13 0 4 -6.5 8.7
0 13 -4 -3.8 14.6
-13 13 -4 5 9.5
0 13 4 10.5 13.2
0 -13 -4 -2.7 9.2
-13 13 4 -8.8 9.1
-14 7 -4 -1.8 9.9
-7 14 -4 5.9 9.5
-7 14 4 5.6 9.3
7 7 -4 -3.3 11.1
-7 14 4 9.7 12.2
7 7 4 0.3 8.8
-14 7 4 12 10.5
-14 8 -4 121.59 17.7
-6 14 -4 129.69 18.6
-14 6 4 143.29 18.8
-8 14 4 103.99 16.6
-6 14 -4 79.79 14.3
6 8 4 113.69 16.7
8 6 -4 109.79 15.9
-8 14 4 121.69 17.8
-14 6 -4 118.19 15.8
-14 8 4 117.59 19.1
-6 14 4 114.39 18.6
-6 14 4 122.39 14.7
6 8 -4 102.09 17.5
-8 14 -4 112.59 18.2
-9 14 4 84.29 12.6
-14 5 4 115.79 17.9
-14 9 -4 110.99 15.5
5 9 4 86.29 14.7
-5 14 -4 97.59 14
-5 14 -4 79.09 15.4
-14 9 4 158.38 19.9
-5 14 4 150.08 19.6
-14 5 -4 151.78 19.6
-9 14 -4 162.38 19.5
-5 14 4 144.19 19.7
5 9 -4 149.19 20.1
-10 14 4 121.49 18
-4 14 -4 120.19 19.5
-14 4 4 125.99 18.9
-14 10 -4 80.99 12.6
4 10 4 130.49 18.3
-4 14 -4 108.09 17.7
-14 10 -4 125.39 16.1
-14 4 -4 127.19 20.8
-4 14 4 116.79 18.8
-4 14 4 121.29 18.8
4 10 -4 147.89 21.5
-14 10 4 139.19 19.1
-10 14 -4 112.99 18.6
-11 14 4 151.78 19.2
3 11 4 152.98 19.3
-14 3 4 160.18 20.2
-14 11 -4 141.49 18
-14 11 -4 158.88 20.8
-3 14 -4 174.78 22.3
3 11 -4 182.68 23.3
-3 14 4 141.29 19.1
-14 11 4 180.38 21
-11 14 -4 172.48 19.2
-14 3 -4 188.18 22.3
-3 14 4 170.18 20.5
-14 12 -4 6.8 8.9
-12 14 4 -8.7 9.3
-14 2 4 5.7 10.2
2 -14 -4 7.5 8.8
-2 14 -4 9.8 14.7
12 2 -4 5 16.2
2 12 4 13.1 12.7
-14 12 -4 16.6 11
2 12 -4 1.3 15
-14 12 4 0.9 10.4
-14 2 -4 8.5 11.3
-2 -12 -4 0.3 9
14 -12 4 -0.5 10.4
14 -2 -4 -3.3 18.4
2 12 -4 -5.6 12.5
-12 14 -4 11.5 9.5
-14 12 4 -11.4 7.3
-2 14 4 4 13.5
-2 14 4 -4.4 9.7
13 -14 4 63.59 11.2
-1 14 -4 93.99 19
1 -14 -4 91.09 14.2
-13 14 4 43.1 11.6
-14 13 -4 59.09 11.3
-1 14 -4 64.19 14.9
-14 1 4 37.3 11.6
13 1 -4 60.49 21.3
1 13 4 91.39 16.3
-1 14 4 64.99 14.7
1 13 -4 74.59 14.2
-1 -13 -4 58.19 13.7
-14 13 4 30.6 10.9
14 -13 4 57.59 10.8
-13 14 -4 49.8 11.1
-14 13 4 46.6 12.1
1 13 -4 85.49 18.8
14 -1 -4 71.89 22.4
-14 14 4 -5.3 8
0 14 -4 31.6 16.5
-14 14 -4 20.3 9.5
0 14 4 11 13.7
0 -14 4 -1.1 8.8
0 -14 -4 6.2 11.9
-14 14 4 -2.4 9.7
0 14 -4 12.7 15.8
14 -14 4 17.4 11.6
14 0 -4 40.6 22.6
8 7 -4 27.4 12
-15 8 -4 23 11.3
-8 15 4 17.6 11
-15 7 4 32.2 11.3
-7 15 -4 30.8 11.4
-8 15 4 22.7 12.1
7 8 4 2.4 10.1
-7 15 4 0.8 10.5
-15 7 -4 2.8 10.1
-15 8 4 13.4 10.7
-8 15 -4 6.7 10.1
7 8 -4 17.2 12.4
-7 15 4 15.7 12.4
-9 15 4 0.9 10.9
9 6 -4 5.6 9.7
-6 15 -4 13.7 10.5
-6 15 -4 14.8 12.1
-15 9 -4 11.3 10.8
-15 6 4 24 10.7
6 9 4 13.4 12.4
-9 15 4 7.4 10.9
-15 9 4 23.1 11.2
6 9 -4 22.6 13.4
-6 15 4 21.3 12.9
-9 15 -4 18.1 11
-6 15 4 14.1 10
-15 6 -4 30.2 12.6
-15 5 4 48.7 12.1
-5 15 -4 39.6 11.1
-15 10 -4 41.9 12.3
-10 15 4 47.3 11.4
5 10 4 40.8 13.4
-5 15 -4 43 14.2
-10 15 -4 56.79 11.7
-5 15 4 79.29 15.6
-15 5 -4 88.69 15.4
5 10 -4 63.69 15.5
15 -5 -4 4.5 22.6
-5 15 4 54.59 11.7
-15 10 4 69.49 12.7
11 4 -4 42.8 19.4
11 -15 4 9.3 8.4
4 11 4 48.8 14
4 -15 -4 21 9.4
-11 15 4 23.4 10.8
-15 11 -4 20.8 9.2
-4 15 -4 0.2 8.3
-15 4 4 32.2 11.1
-15 11 -4 19.5 10.8
-4 15 -4 28.2 14
-4 15 4 26.9 11.2
4 11 -4 41.4 16.1
-11 15 -4 15.9 9.8
-4 15 4 37.8 14.7
-15 4 -4 28.5 11.9
15 -11 4 23.6 9.5
15 -4 -4 54.49 20.8
-4 -11 -4 36.6 11.3
-15 11 4 28.5 11.6
4 11 -4 2.7 12
-15 3 4 30.4 10.9
-12 -3 -4 13.8 8.2
-3 15 -4 -5.3 14.4
-12 15 4 33.4 11.9
12 -15 4 33.6 10.7
-3 15 -4 23 14.6
-15 12 -4 28.2 12.3
12 3 -4 43.1 21.4
3 -15 -4 37.6 12.7
3 12 4 37.8 13.8
-15 12 -4 22.4 9.5
15 -3 -4 70.99 24.3
-3 15 4 41.8 14.8
3 12 -4 24.3 16
-15 12 4 15.2 11
15 -12 4 34.5 11
-15 3 -4 18.9 12.2
-12 15 -4 31.1 10.6
3 12 -4 37.4 16.8
-3 -12 -4 42.4 12.5
-3 15 4 16.7 11
2 13 4 51.19 14.6
-15 13 -4 35.2 10.1
-15 2 4 38.5 11.9
13 -15 4 72.19 13
-13 15 4 38 12.7
-2 15 -4 71.39 18
-2 15 -4 54.29 13.2
-15 13 -4 46.7 12.8
13 2 -4 54.19 23.4
2 -15 -4 60.59 13.6
-2 -13 -4 49.7 12.9
15 -13 4 46.9 11.7
2 -15 4 16.8 8
15 -2 -4 77.19 23.6
-13 15 -4 51.39 11.5
2 13 -4 58.19 17.2
-15 13 4 40.2 11.7
2 13 -4 30.9 15.3
-2 15 4 46.2 15.1
14 -15 4 1.1 11.6
-14 15 4 -10.3 10.3
-1 15 -4 7.5 13.7
-1 -14 4 3.4 9.4
14 1 -4 0.5 22.9
-15 14 -4 10.6 9.2
-1 15 -4 8.9 15.7
1 14 4 3 13.4
1 -15 -4 5.2 12.6
1 -15 4 4.9 9.5
-1 -14 -4 -1.1 12.9
-14 15 -4 10.1 9.5
15 -14 4 6.5 11.4
-15 14 4 -9.9 9
15 -1 -4 3.9 22
-1 15 4 15.9 12.8
-15 14 4 -4 9.3
1 14 -4 11.3 15.1
1 14 -4 10.1 14.9
-15 15 4 -16 9.7
0 -15 4 19.6 10.6
0 -15 -4 3.6 13
-15 15 -4 6.6 9.3
15 0 -4 16.8 23.2
15 -15 -4 -1.8 10.5
15 -15 4 18.9 12
0 15 -4 5.2 14.8
0 15 -4 7.3 15.7
0 15 4 12.7 13.5
0 -15 -4 -1 9.2
-16 8 4 10.4 9.5
-8 16 4 17 12.9
8 8 -4 9.5 12.1
16 -8 -4 2.1 14.2
-16 8 -4 4.4 10.8
8 -16 4 -1 8.6
-8 16 4 12.2 11.1
16 -8 4 11.2 10.2
-8 16 -4 15.1 10.9
-8 -8 -4 1.2 8.2
8 -16 -4 -2.7 9.1
-16 9 -4 129.49 21
-9 16 4 150.98 20
9 -16 4 103.79 14.2
7 -16 -4 117.29 14.3
-16 7 4 159.48 20.1
-7 16 -4 135.79 20.4
7 9 -4 143.49 20.1
-7 16 4 117.09 19.1
-7 16 4 118.59 18.8
7 -16 4 99.19 13.3
-16 9 4 139.29 18.2
16 -9 4 115.09 14.6
-16 7 -4 144.69 21.9
16 -7 -4 108.19 18.8
-9 16 -4 155.98 19.7
-6 16 -4 13.2 12.2
6 -16 -4 45.2 12.5
-6 16 -4 17.3 10.4
-16 10 -4 23.8 12.2
10 -16 4 22.5 10.4
-10 -6 -4 6.3 7.6
6 10 4 43.3 14.2
16 -10 -4 -2.8 16.5
-16 6 4 28.9 11.2
-10 16 4 23.7 11.6
6 10 -4 -3.6 13.6
-6 16 4 29.5 11.8
16 -10 4 38.4 10.8
-6 16 4 31.3 14.2
-16 10 4 33.4 11.6
16 -6 -4 34 19.7
-16 6 -4 21.5 12.5
-6 -10 -4 26.5 11.5
6 10 -4 36.8 15.1
6 -16 4 35.1 9.4
-10 16 -4 25.6 10.5
-16 5 4 210.18 22.3
11 5 -4 213.18 23.4
-16 11 -4 200.78 23
5 -16 -4 150.18 16
-11 -5 -4 154.38 15.6
11 -16 4 177.68 17.4
5 11 4 176.38 21.8
-5 16 -4 146.49 21.3
-11 16 4 196.88 21.9
-16 5 -4 209.78 24.3
16 -11 4 170.78 17.8
5 -16 4 132.59 15.8
5 11 -4 191.18 23.9
-5 -11 -4 134.49 16.3
5 11 -4 146.69 19.5
-5 16 4 171.38 21.2
16 -5 -4 222.28 22.6
-5 16 4 192.28 22
-16 11 4 185.28 21.5
-11 16 -4 197.98 20.6
4 -16 -4 164.38 17.4
12 4 -4 87.29 21.9
-16 4 4 143.59 20.3
-12 16 4 139.19 20.5
-16 12 -4 137.19 21.1
12 -16 4 139.89 17.2
-12 -4 -4 129.19 16.2
-4 16 -4 114.49 19
4 12 4 130.49 21.2
4 12 -4 114.29 19.4
-4 16 4 90.09 14.4
4 12 -4 143.89 18.9
-4 -12 -4 107.19 15.4
16 -12 4 120.49 15.3
16 -4 -4 188.78 23.9
-16 12 4 132.49 20.5
4 -16 4 111.69 13.8
-16 4 -4 151.08 24.6
16 -13 -4 -0.8 11.4
-3 16 -4 22.2 15.3
3 -16 -4 24.3 13.5
-3 -13 4 19.5 10.1
-3 16 -4 14.2 14.7
3 13 4 21.5 14.2
-13 16 4 -0.5 11.1
-16 13 -4 7.4 8.4
13 -16 4 35.3 12.2
13 3 -4 45.8 22.9
-16 3 4 19 11.1
-16 13 -4 11.9 11.9
3 -16 4 14.2 9.5
16 -13 4 32.8 11.6
-3 -13 -4 36.8 13.3
3 13 -4 23.3 15.2
-16 13 4 20 11
-13 16 -4 37.5 10.8
-3 -13 -4 0.3 8
13 -16 -4 -1.3 11
16 -3 -4 57.69 25
3 13 -4 27.7 15.2
-3 16 4 48.2 15.1
14 2 -4 78.09 22.7
-2 16 -4 89.69 18.1
14 -16 4 95.39 13.9
2 14 4 70.69 16.8
-2 16 -4 103.19 15.7
2 -16 -4 79.29 14.8
-2 -14 4 72.19 12.5
2 -16 4 71.69 11.7
16 -2 -4 62.89 23.6
-14 16 -4 57.89 11.9
16 -14 4 89.79 13.3
-2 16 4 61.29 15.9
2 14 -4 81.69 17.2
2 14 -4 54.79 17
-2 -14 -4 68.39 15.1
-1 16 -4 29.2 15.9
15 1 -4 -6 20.9
-1 16 -4 19.9 14.1
1 15 4 6.6 14.1
1 -16 -4 -4.8 11.6
15 -16 4 15.4 11.8
-1 -15 4 -3.3 10.8
-15 16 4 -17 10.5
16 -15 -4 3 10
-16 15 -4 9.8 8.7
1 -16 -4 -3.7 8.4
1 -16 4 4.9 10.4
-1 16 4 5.2 14.1
-1 -15 -4 -2.4 12.8
-15 16 -4 10.8 9.4
16 -1 -4 9.1 23
-1 -15 -4 6.8 9.5
15 -16 -4 -1.6 10.1
1 15 -4 2.7 14.9
1 15 -4 6.2 14.8
16 -15 4 1.5 11.6
-16 16 -4 14 9.5
0 16 -4 11 14.6
16 -16 -4 8 10.6
0 -16 -4 19.2 10.5
16 -16 4 11.2 11.4
0 -16 4 5.5 10.8
0 16 4 9.9 14.1
0 -16 -4 21.7 12.9
16 0 -4 19.7 20.9
0 16 -4 11.6 15.1
-8 17 -4 17.9 10.5
-17 8 4 13.1 10.9
-9 -8 -4 20.2 9.5
17 -8 4 26.1 10.7
-17 9 -4 12.3 12.2
-9 17 4 10 11.6
8 -17 -4 20.9 12.6
17 -9 -4 23.5 16.1
9 -17 4 20.8 10.2
9 8 -4 1.3 18
-9 17 -4 15 10.4
17 -9 4 13.7 10.6
8 -17 4 18.4 10.1
-8 -9 -4 15.7 8.9
-17 8 -4 7.1 12.1
-8 17 4 -0.6 11.2
8 9 -4 12.8 12.4
17 -8 -4 21.9 17.6
-8 17 4 1.8 12.7
-17 9 4 11.9 11.4
9 -17 -4 8.9 12.5
7 -17 -4 13.8 12.4
17 -7 4 13.4 10.9
-7 -10 4 -0.2 11.1
-10 17 4 -10 10.9
-17 7 4 13.5 11.3
-7 17 -4 8.6 10
-10 -7 -4 8.1 9.7
-17 10 -4 8.5 11.2
10 -17 4 8 10.1
17 -10 -4 18.3 15.4
7 10 -4 -0.8 10.7
17 -7 -4 19.2 18.8
7 10 -4 8.3 14
-7 -10 -4 15 8.6
10 -17 -4 16.9 11.7
17 -10 4 10.4 10.3
-17 7 -4 4 11.6
-17 10 4 11.5 10.9
-7 17 4 0.6 11.3
-7 17 4 9.2 12.8
7 -17 4 20.4 9.8
-10 17 -4 7.9 9.9
6 -17 -4 11.4 11.5
-17 11 -4 12.1 11.9
-6 -11 4 1.6 7.9
-6 17 -4 -0.1 9.4
11 6 -4 16.7 22.3
-11 17 4 1.8 11
11 -17 4 19.5 10.6
-17 6 4 13.6 11.4
-6 17 -4 0.1 12.8
-11 -6 -4 15.3 10.9
6 11 4 8.2 12.9
17 -11 -4 7.3 13.3
-17 6 -4 42 13.9
11 -17 -4 45.1 12.1
-17 11 4 31 12.2
17 -11 4 38 11.6
6 -17 4 34.1 10.6
-11 17 -4 30 10.8
-6 -11 -4 31.5 12.1
6 11 -4 29.5 15.6
-6 17 4 28.5 12.1
-6 -11 -4 37.4 9
6 11 -4 18.8 14.7
17 -6 -4 57.49 21.8
-6 17 4 46.6 15.2
-5 17 -4 -11 9.7
5 12 4 23.3 13.9
17 -12 -4 21.8 13.3
-5 17 -4 7.9 13
5 -17 -4 4.1 12
12 -17 4 16.2 11
12 5 -4 -1.5 21.7
-17 5 4 8.3 10.9
-12 -5 -4 19.8 11.3
-17 12 -4 12.7 12.1
-5 -12 4 24.2 10.3
-12 17 4 9.2 12.1
12 -17 -4 28.3 11.4
5 -17 4 28 10.5
5 12 -4 29.7 15.7
-5 17 4 6.1 10.8
-5 -12 -4 31.4 13.2
17 -12 4 27.4 11.3
-5 -12 -4 30.8 9.2
17 -5 -4 47.4 21.6
5 12 -4 18.2 13.8
-17 5 -4 22.8 13.8
-12 17 -4 24.1 10.5
-17 12 4 20.2 11.5
-5 17 4 27.5 14.6
17 -13 -4 25.7 12.1
-13 17 4 18 11.9
-17 4 4 20.7 10.9
13 -17 4 43.8 12.3
-4 -13 4 45.3 12
4 13 4 23.9 13.9
-4 17 -4 43 12.6
-4 17 -4 36.9 14.9
13 4 -4 29.2 21.3
4 -17 -4 37.7 13.4
-4 17 4 21 14
13 -17 -4 20.4 10.7
17 -4 -4 69.59 23.7
-17 13 4 15.2 10.9
-4 -13 -4 24.5 13.1
4 13 -4 32.1 16.4
4 13 -4 13.4 15.2
17 -13 4 12.9 11
-4 -13 -4 20.8 9.5
4 -17 4 20.9 10
-4 17 4 -12 10.8
-13 17 -4 23.1 10
-3 17 -4 16.8 15
3 -17 -4 26.2 12.9
14 -17 4 17.8 11.8
3 -17 -4 -0.3 9.8
17 -14 -4 19.5 11.3
-3 -14 4 13.1 11.6
14 3 -4 0.2 22.4
-3 17 -4 36.8 15
-14 17 4 18.9 12.9
3 14 4 24 14
-17 14 4 3.3 9.8
3 14 -4 4 14.4
3 14 -4 14.3 15
-3 -14 -4 16.1 13.4
3 -17 4 15.5 9.8
-3 17 4 18.7 14.7
-14 17 -4 11.9 9.5
17 -14 4 18.5 11
-3 -14 -4 9 9.6
17 -3 -4 22.4 23.1
14 -17 -4 12.8 11.5
-2 17 -4 22.7 15.2
2 -17 -4 6.8 10
15 -17 4 14.8 11.6
17 -15 -4 8.3 10.8
-2 17 -4 12.3 12.8
2 -17 -4 13 12.2
-15 17 4 -5.2 10.7
-2 -15 4 14.4 11.4
2 15 4 12.4 14
15 2 -4 35.6 21.1
15 -17 -4 8.6 11.5
-15 17 -4 12 9.6
2 -17 4 15.9 10.2
2 15 -4 2.5 14.5
2 15 -4 20.4 15.4
-2 -15 -4 17.8 14.1
-2 17 4 7.1 14.2
17 -2 -4 2.9 21.7
-2 -15 -4 22.6 10.5
17 -15 4 27.9 11.4
1 -17 -4 3.6 11.8
17 -16 -4 1.3 10
1 16 4 1 13.6
-1 -16 4 5.4 11
16 -17 4 -0.9 11
16 1 -4 22 21
-1 17 -4 2.7 12.4
-1 17 -4 7 14.9
1 -17 -4 -0.6 10.5
-1 -16 -4 3 13.1
1 -17 4 -1.9 10.5
1 16 -4 12.9 14.7
-1 -16 -4 11.2 10.7
-1 17 4 -1.7 13.6
17 -16 4 14 11.4
-16 17 -4 9.6 8.8
1 16 -4 16 13.8
17 -1 -4 2.3 19.9
16 -17 -4 5.8 10.4
17 -17 -4 2.3 9.5
0 -17 4 -4.8 10.9
0 -17 -4 0.2 12.6
0 17 -4 14.4 13.5
0 17 -4 2.1 13.6
17 -17 4 -1.2 11.1
0 -17 -4 -1.3 10.4
0 17 4 5.5 13.7
17 0 -4 6.5 20.1
18 -9 4 46.4 11.1
18 -9 -4 37 16.4
-9 18 -4 25.8 10.8
9 -18 4 40.1 10.7
9 -18 -4 51.29 14
-9 18 4 33.9 12.8
-9 -9 -4 34.8 10.1
-18 9 4 36.2 11.5
-18 9 -4 31.5 13
-9 -9 4 12.7 8.1
-18 10 -4 64.09 14.4
-18 8 4 59.89 13.4
-8 18 -4 52.19 11.7
-8 -10 4 55.79 10.3
-10 -8 -4 88.09 12.2
18 -10 -4 60.19 16.3
10 -18 4 66.89 11.6
-10 18 4 53.29 13.5
8 -18 -4 84.49 14.7
18 -8 4 62.99 11.6
-10 18 -4 39.6 11.3
-18 10 4 43.5 12
18 -10 4 66.09 11.3
8 -18 4 70.59 11
10 -18 -4 83.69 14.7
18 -8 -4 52.29 18.5
-18 8 -4 49.7 14.2
-8 18 4 36 12.5
-8 -10 -4 68.49 11
-7 -11 4 23.3 10
-11 18 4 1.5 12.3
11 -18 4 20.6 10.8
18 -11 -4 21.1 14.8
18 -7 4 26.8 10.6
-18 11 -4 7.8 11.6
11 7 -4 9.5 21.3
-18 7 4 21.1 12
-11 -7 -4 28.3 11.4
7 -18 -4 20.9 12.2
-7 18 4 14.8 12.7
18 -7 -4 35.1 19.1
-18 7 -4 33.3 14
7 11 -4 26.2 14
-11 18 -4 24.4 10.3
7 11 -4 36.5 14.2
7 -18 4 32.1 10.5
-18 11 4 32 12.1
11 -18 -4 60.89 14.1
-7 -11 -4 44.6 10.1
-11 -7 4 0.5 8.9
-7 18 4 11.3 11.6
18 -11 4 54.79 11.6
-12 -6 -4 25.8 11.3
6 -18 -4 31.5 13.5
-12 18 4 9.8 11.8
12 6 -4 23.3 22.2
-18 12 -4 24.8 12.5
-18 6 4 36.3 12.4
18 -12 -4 26.6 14.8
-6 -12 4 31.2 11.1
12 -18 4 31.4 11.4
18 -12 4 38 11
-12 18 -4 17.9 10.1
-18 12 4 30 12.2
6 -18 4 29 10.4
-6 -12 -4 28.9 9.6
6 12 -4 37.2 15.4
-6 18 4 23.6 14.4
-6 18 4 -0.8 10.8
12 -18 -4 33 12.4
6 12 -4 9.4 13.3
18 -6 -4 15.6 19
-12 -6 4 2.3 11.9
5 -18 -4 46.5 13.5
-5 18 -4 -0.7 14.3
18 -13 -4 49.7 13.3
13 5 -4 31 21.6
5 13 4 0.1 13
-5 -13 4 53.19 11.8
-5 18 -4 54.19 13
5 -18 -4 -1 11.3
-18 5 4 27.9 11.6
13 -18 4 42.7 11.2
-13 18 4 13.3 12
13 -18 -4 83.59 13.7
-18 13 4 43.4 12.7
-5 18 4 48.2 15.5
18 -13 4 66.19 11.8
5 13 -4 34.8 14.6
5 -18 4 46.3 10.3
-5 -13 -4 51.29 10.4
18 -5 -4 39.3 20.1
5 13 -4 39.9 16
14 -18 4 17.1 10.8
-14 18 4 2 12.3
4 14 4 8.7 13.2
-4 18 -4 -3.7 12.8
14 4 -4 11.2 20.6
4 -18 -4 17.5 12.3
-4 -14 4 13.8 11.3
18 -14 -4 35 12.6
-4 18 -4 24.2 13
4 -18 -4 0.5 9.3
14 -18 -4 25.6 11.6
4 -18 4 17.8 9.6
18 -4 -4 18.3 18.5
-14 18 -4 16.9 10
4 14 -4 4.9 12.8
18 -14 4 28.1 10.7
-18 14 4 0.2 10.2
4 14 -4 15.8 15.6
-4 -14 -4 36.8 13.9
-4 -14 -4 20.3 9.6
-4 18 4 36.6 15.4
3 -18 -4 21.4 11.1
15 3 -4 -0.9 20.9
3 15 4 8.8 13.4
3 -18 -4 4.8 11.9
-3 18 -4 2.5 12.7
15 -18 4 17 11.4
18 -15 -4 9.1 11.3
-3 18 -4 5.4 13.3
-15 18 4 -10.3 10
-3 -15 4 13.1 11.3
3 15 -4 8.5 14.6
-3 18 4 13.5 13.4
-3 -15 -4 18 9.9
18 -15 4 22.7 11.3
3 -18 4 15.8 10.2
-3 -15 -4 13.6 11.2
3 15 -4 20.5 13.9
15 -18 -4 9.7 10
18 -3 -4 32.4 20.7
-15 18 -4 22.1 9.7
-2 18 -4 -0.1 12.7
18 -16 -4 -0.7 9.5
2 -18 -4 3.6 11.8
16 -18 4 12.5 11.5
-2 18 -4 25.7 13.6
2 16 4 -1.6 12.8
2 -18 -4 5 11
16 2 -4 22.7 19.8
-2 -16 4 2.5 11.1
18 -16 4 10.5 11.2
-16 18 -4 1.5 8.2
-2 -16 -4 -3.9 9.7
2 -18 4 7.1 10.3
2 16 -4 -10.9 12.6
16 -18 -4 2.1 8.6
18 -2 -4 22.5 20
2 16 -4 9.9 14.4
-2 18 4 11.6 13.6
-2 -16 -4 10.2 11
17 1 -4 28.8 19
1 17 4 -5.7 11.8
1 -18 -4 15.2 10.9
-1 18 -4 11.6 12.4
18 -17 -4 -0.7 8.7
1 -18 -4 5.1 12.1
-1 -17 4 18.7 10.8
17 -18 4 22.3 11.5
-1 18 -4 1.4 13.9
-1 -17 -4 6.1 10
17 -18 -4 1 7.7
1 17 -4 8.5 12.9
18 -17 4 27.1 11.3
-1 18 4 2.6 13
1 -18 4 16.1 10.8
18 -1 -4 20.3 18.7
1 17 -4 10.8 13.4
-1 -17 -4 14.9 11.7
0 -18 4 0.1 9.9
18 -18 4 3.3 10.5
0 18 -4 12 11.1
0 -18 -4 -6.3 10.1
0 -18 -4 -3.5 9.8
18 0 -4 0.9 17.8
19 -10 -4 41.5 15.8
19 -9 4 26.5 10.4
-10 -9 -4 20.2 10.7
-10 19 4 11.2 12.2
10 -19 4 15.2 9.9
-9 -10 4 23.1 10
9 -19 -4 42.4 13.5
-9 19 -4 0.3 9
10 9 -4 31.7 24.7
-19 9 4 14.6 11.1
-10 19 -4 14.6 9.8
-9 19 4 14 11.5
-10 -9 4 28.5 10
-9 -10 -4 25.7 9.9
19 -10 4 32.2 10.2
9 -19 4 16.6 9.6
19 -9 -4 12.3 16
-19 10 4 15.6 11.6
10 -19 -4 33.7 13.5
-11 -8 -4 87.69 13
-8 -11 4 58.29 11.2
19 -8 4 92.69 12.4
-19 8 4 52.49 13.5
-11 19 4 45.5 13.6
19 -11 -4 92.69 16.7
11 -19 4 75.99 11.6
8 -19 -4 109.99 15.3
11 8 -4 41.6 22.9
8 11 -4 57.59 13.9
-11 -8 4 70.99 11.5
8 -19 4 78.29 11.6
19 -11 4 99.59 12.8
11 -19 -4 92.49 14.5
19 -8 -4 64.39 17.5
-8 -11 -4 69.29 10.9
-11 19 -4 49 11.1
-19 11 4 41.2 12.3
-12 19 4 2.4 11.9
12 -19 4 16.8 10.1
-19 7 4 16.4 11.5
12 7 -4 1.6 20.7
7 -19 -4 12 12.3
19 -12 -4 23.7 13.8
-12 -7 -4 28.6 11.3
19 -7 4 19.3 10.5
7 -19 -4 0.8 11.5
-7 -12 4 23.4 10.4
-12 19 -4 21.4 10.3
7 -19 4 17.4 10
-7 -12 -4 25.9 9.8
7 12 -4 13.9 14.1
19 -7 -4 20.3 18.7
19 -12 4 19.6 10.5
-12 -7 4 29.2 10.1
12 -19 -4 19.3 12.2
-19 12 4 24.8 12.3
-13 19 4 -3.1 12.1
13 6 -4 0.6 20.2
-19 6 4 -1.5 9.7
19 -13 -4 12.2 12.8
6 -19 -4 10.1 12.7
6 -19 -4 -1.5 8.4
-6 19 -4 15.3 9.9
13 -19 4 14.4 10.4
19 -6 4 26.3 10.3
-6 -13 4 9.8 10.2
-19 13 4 3.3 10.7
-6 -13 -4 5 9.1
6 -19 4 -3.2 9
-13 19 -4 8.8 9.7
-6 19 4 -3 20.8
6 13 -4 -0.5 13.3
19 -13 4 12.9 10.4
13 -19 -4 10.9 11.5
-13 -6 4 1.9 8.4
19 -6 -4 -4.8 18.1
6 13 -4 1.3 12.3
-14 19 4 -5.7 10.9
14 -19 4 -3.6 10.1
5 -19 -4 -1.5 9.5
-5 19 -4 7.3 11.7
14 5 -4 15 19.8
5 -19 -4 9.8 12
-5 -14 4 5.8 10.2
19 -14 -4 12.3 11.6
-5 19 4 -2.5 13.5
5 14 -4 -2.3 12.7
-14 19 -4 7.2 9.7
5 14 -4 9.3 13.1
-5 -14 -4 3 8.9
5 -19 4 -0.8 8.9
19 -5 -4 -1.2 19
14 -19 -4 4.1 10.7
19 -14 4 2.4 10.1
15 4 -4 17.3 20.1
19 -15 -4 27.3 10.6
15 -19 4 57.99 11.7
-4 19 -4 55.99 12.6
4 -19 -4 51.99 11.2
4 -19 -4 63.49 14.3
-4 -15 4 42.4 11.2
4 15 -4 27.9 14.1
4 15 -4 -1.8 12.4
-4 -15 -4 37.8 9.9
19 -4 -4 27.4 18.7
19 -15 4 45.9 11.2
4 -19 4 35.3 10
-4 19 4 -1 13.2
15 -19 -4 21.5 9.3
-15 19 -4 11.4 8.2
16 -19 4 49.3 11.6
3 -19 -4 38.1 11.2
16 3 -4 20.8 19
-3 -16 4 39.5 10.9
-3 19 -4 45.9 12.1
3 -19 -4 45.7 13.5
3 16 -4 29.5 12.3
3 -19 4 44.1 10.9
19 -3 -4 39 17.9
3 16 -4 0.2 15.6
-3 -16 -4 31.4 9.9
19 -16 4 40.4 11.5
17 2 -4 -10.4 18.2
-2 -17 4 22.2 10.4
-2 19 -4 19.6 11
2 -19 -4 13.9 10.3
17 -19 4 9.7 10
2 -19 -4 10.9 12
2 -19 4 8.2 9.9
2 17 -4 11.6 12.3
-2 -17 -4 13.1 9.3
19 -17 4 17.4 10.5
19 -2 -4 17.8 16.7
-2 -17 -4 6.2 10.9
-1 19 -4 4.5 11.3
1 -19 -4 -1 10
1 -19 -4 0.5 9.6
-1 -18 4 -4.3 9.6
18 1 -4 -3 17.5
18 -19 4 9.9 10
1 18 4 4.2 10.3
-1 -18 -4 -1.7 11
-1 -18 -4 2.6 9.1
19 -1 -4 15.6 17.4
1 18 -4 10.5 10.5
1 -19 4 3.5 9.9
19 -18 4 1.8 9.7
0 -19 -4 6.1 8.9
19 0 -4 7.9 16.6
0 19 -4 3.9 10
0 19 4 4.1 10.2
19 -19 4 11.7 9.6
0 -19 4 1.6 9
0 -19 -4 -1.4 10.6
20 -10 4 82.39 12
20 -10 -4 40 15.6
10 10 -4 59.39 25.5
-10 -10 -4 76.29 12.3
10 -20 4 54.99 11.2
-10 -10 4 72.79 11.6
10 -20 -4 84.59 14.2
-11 -9 -4 96.69 13
20 -9 4 86.19 11.7
20 -11 -4 61.89 14.9
9 -20 -4 95.09 15
11 9 -4 47.1 22.8
11 -20 4 57.19 10.9
-9 -11 4 52.69 11.2
11 -20 -4 54.59 12.8
-9 -11 -4 78.79 12
-11 -9 4 80.09 12.4
9 -20 4 78.59 12
20 -11 4 98.89 12.8
20 -9 -4 69.49 16.5
12 -20 4 30.7 10.3
12 8 -4 0.8 20.6
20 -8 4 51.49 10.7
-8 -12 4 31.2 10.6
-12 -8 -4 48.3 11.5
8 -20 -4 47.2 13.5
20 -12 -4 42.2 13.6
20 -8 -4 22.7 15.9
8 -20 4 27.5 10.1
20 -12 4 52.59 11.2
12 -20 -4 36.3 12.3
8 12 -4 30.4 12.3
-12 -8 4 51.99 11.5
-8 -12 -4 34.7 10.2
7 -20 -4 8.8 12.1
13 7 -4 7.4 20.4
-13 20 4 -13.8 9.5
20 -7 4 22 10.2
-7 -13 4 14.8 9.7
7 13 4 -9.3 7.9
7 -20 -4 0.8 7.8
13 -20 4 6.7 10
20 -13 -4 5.4 11.7
-13 20 -4 1.3 8.2
13 -20 -4 16.8 11
-13 -7 4 23.8 10
20 -13 4 7.5 10
7 -20 4 11.6 9.1
7 13 -4 6.2 13
-7 -13 -4 12.2 9.5
20 -7 -4 17.1 15.1
14 6 -4 25.5 20.3
14 -20 4 8.4 10
-6 -14 4 16.4 9.8
6 14 4 8.4 10.9
20 -14 -4 21.3 10.3
20 -6 4 20.1 10
6 -20 -4 13.2 12.1
6 -20 -4 9.7 9.1
-6 20 -4 18.3 10.5
-14 20 -4 1.5 13.7
6 14 -4 18.3 12.4
14 -20 -4 14.9 9.6
20 -14 4 43.2 10.6
6 -20 4 24.8 9.3
20 -6 -4 33.6 18.1
-6 -14 -4 24.5 9.4
20 -5 4 15.4 9.6
20 -15 -4 -0.4 8.6
-5 20 -4 18.6 10.3
5 -20 -4 12.9 9.5
5 15 4 1.4 10.4
5 -20 -4 8.3 12.1
15 5 -4 2.5 18.8
15 -20 4 6.1 9.9
-5 -15 4 9.6 9.6
20 -15 4 10.6 9.9
5 -20 4 9.5 9.1
-5 -15 -4 0.2 8.7
20 -5 -4 5 16.7
5 15 -4 -1.6 11.3
15 5 4 -7.2 23.6
15 -20 -4 0.9 7.7
4 -20 -4 4.3 9.7
4 16 4 13.5 10.5
16 4 -4 -4.7 16.9
-4 -16 4 5.1 9.4
16 -20 4 17.2 10
4 -20 -4 6.5 11.6
-4 20 -4 18.8 10.8
20 -16 4 14.5 10.1
4 16 -4 10.6 11.8
-4 -16 -4 17.7 9.2
20 -4 -4 10.4 16.6
4 -20 4 11.1 9.7
-3 20 -4 15.2 10.2
-3 -17 4 20.2 9.5
3 17 4 15.9 10.5
17 3 -4 9.8 17.5
3 -20 -4 11.3 11.3
3 -20 -4 11.5 9.6
17 -20 4 3.2 9.3
3 17 -4 3.8 11.1
20 -3 -4 19.5 15.3
20 -17 4 5 9.8
3 -20 4 11.9 9.5
-3 -17 -4 3.4 8.7
18 2 -4 6.3 16.1
-2 -18 4 19.9 9.2
-2 20 -4 37.1 10.4
2 -20 -4 26.2 9.4
18 -20 4 30.6 9.3
2 18 4 32 9.7
2 -20 -4 12.7 9.1
20 -2 -4 4.8 14.3
20 -18 4 30.6 9.6
2 18 -4 10.6 10.7
2 -20 4 14 9.1
-2 -18 -4 12.2 8.6
-2 20 4 16.4 9.9
1 19 4 6.7 8.8
-1 -19 4 9.6 8.4
1 -20 -4 -6.9 9.4
-1 20 -4 9.4 9.6
19 -20 4 5.9 8.1
19 1 -4 3.5 14.8
1 -20 -4 14.4 8.4
20 -1 -4 3.9 13.1
20 -19 4 8.9 8.5
-1 -19 -4 0.9 7.9
-1 20 4 16.5 9.4
1 -20 4 6.1 8.8
1 19 -4 10 9.6
0 -20 -4 3.7 7
20 0 -4 1.1 12.5
0 20 4 2.4 8.4
0 -20 4 13.4 8
0 20 -4 14.9 9.3
20 -20 4 8.4 7.7
10 -21 -4 17.7 11.4
-10 -11 4 12.5 10
-11 -10 -4 26.1 10.6
11 10 -4 20.1 20.2
21 -11 -4 21.1 13.3
11 -21 4 18.4 9.7
21 -10 4 25.2 9.9
10 -21 4 22.9 9.6
21 -11 4 35.6 10.1
10 11 -4 22.3 20.6
21 -10 -4 26.8 13.7
11 -21 -4 40 11.8
-11 -10 4 28.7 10.5
-10 -11 -4 19.5 10.3
-12 -9 -4 22.2 10.1
9 -21 -4 12.2 11.6
-9 -12 4 19.7 9.7
12 -21 4 19.8 9.4
21 -9 4 19.5 9.2
21 -12 -4 18.3 11.9
12 9 -4 33.4 20.4
9 12 -4 28.8 20
21 -12 4 28.6 9.7
-9 -12 -4 19.4 10.2
9 12 -4 6.8 8.3
-12 -9 4 25.7 10.4
21 -9 -4 14 13.7
9 -21 4 29.1 9.3
12 -21 -4 15.6 10.2
8 -21 -4 35.8 12.4
21 -8 4 37 9.7
-8 -13 4 27.1 9.9
8 -21 -4 0.7 9.9
21 -13 -4 29.7 9.9
13 8 -4 18.1 19.4
13 -21 4 40.6 10.1
-8 -13 -4 32.8 9.8
21 -8 -4 18 14.2
8 13 -4 18.3 20.9
13 -21 -4 23.4 8.9
8 -21 4 34.7 9.1
21 -13 4 42.9 10.1
8 13 -4 19 11.9
-7 -14 4 13.6 9.2
7 14 4 -8.2 7
14 7 -4 -1.2 18.7
7 -21 -4 17.8 11.2
14 -21 4 17.3 9.3
21 -14 -4 0.4 8.5
7 -21 -4 1.6 7.5
21 -7 4 18.7 9.1
7 -21 4 18.1 8.7
21 -14 4 19.6 9.1
7 14 -4 17.2 11.5
21 -7 -4 17 14.7
14 -21 -4 -0.3 7.9
-7 -14 -4 10.6 8.9
-6 -15 4 22.6 9
6 15 4 -2.1 9.5
21 -6 4 11.9 9
-6 21 -4 7.9 9.1
15 6 -4 4.5 17.7
15 -21 4 4.1 8.9
6 -21 -4 2.9 7.6
6 -21 -4 14.1 11.4
-6 -15 -4 5 8.5
21 -6 -4 1.4 13.5
6 15 -4 9 11.1
21 -15 4 7.5 9.2
6 -21 4 11.6 9
15 6 4 -3.5 13.8
5 -21 -4 12.6 11.4
5 -21 -4 6.1 8
16 5 -4 20.4 17.8
-5 21 -4 19.1 9.3
-5 -16 4 23.7 9
16 -21 4 23.5 9.1
5 16 4 11.1 9.9
21 -5 4 16.2 8.6
5 -21 4 25.6 9.6
-5 21 4 30.9 10.4
-5 -16 -4 23.8 8.8
21 -5 -4 8.7 15.1
5 16 -4 18.6 10.8
21 -16 4 41 10
21 -4 4 60.59 9.3
17 4 -4 13.9 15.5
-4 21 -4 30.9 9.5
17 -21 4 50.59 9.4
-4 -17 4 31.7 8.7
4 -21 -4 62.19 12.1
4 -21 -4 14.5 8.2
4 17 4 38.3 9.7
4 17 -4 27.5 10.4
21 -4 -4 15.2 14.3
-4 21 4 56.99 10.6
21 -17 4 58.89 9.8
-4 -17 -4 45.9 9.4
4 -21 4 37.4 9.3
21 -3 4 1.4 7.8
3 -21 -4 5.3 8.6
-3 -18 4 7 7.8
3 18 4 -0.4 8.6
18 -21 4 6.8 8.2
-3 21 -4 11.7 9.4
3 -21 -4 0.9 7.3
18 3 -4 15.7 15.8
-3 21 4 6.2 8.7
3 18 -4 11.6 9.3
3 -21 4 6.5 8.2
-3 -18 -4 1.7 8
21 -3 -4 3.3 13.6
21 -18 4 10.9 8.5
-2 -19 4 17.7 7.6
19 2 -4 11.8 14.3
-2 21 -4 34 9.6
19 -21 4 25.7 8.2
2 19 4 26.6 8.6
21 -2 4 32.7 7.7
-2 -19 -4 27.3 7.9
2 -21 4 24.2 8.1
2 19 -4 28.6 9.7
-2 21 4 26.7 9.1
21 -19 4 28.5 8.4
21 -2 -4 14.5 12
20 -21 4 10.7 7.7
-1 21 -4 13.5 9.4
-1 -20 4 7.3 7
1 20 4 3.3 8.6
20 1 -4 11.1 12.5
21 -20 4 1.4 7.5
-1 -20 -4 1.3 8.2
21 -1 -4 11.5 12
1 -21 4 2.2 7.3
-1 21 4 4.8 8
1 20 -4 14.1 8.9
0 21 -4 30.3 10.2
21 -21 4 22 7.9
21 0 -4 13 12.2
0 21 4 21.7 9.8
21 0 4 24.4 8.1
0 -21 4 16.6 6.4
11 11 -4 3.6 17.7
22 -11 4 15.7 9
-11 -11 -4 -1.3 9.4
11 -22 4 12.2 8.6
-11 -11 4 15.1 9.5
22 -11 -4 11 10.1
11 -22 -4 6.8 9
12 10 -4 2.3 18
-10 -12 4 5.9 9.4
12 -22 4 7.1 8.7
22 -12 -4 0.1 8.1
10 -22 -4 4.6 9.9
22 -10 4 0 8.5
10 -22 4 -1.6 8
22 -10 -4 15.4 11.6
22 -12 4 3.7 8.6
-10 -12 -4 -1.5 9.6
10 12 -4 7.3 18.9
12 -22 -4 2.9 7.4
-12 -10 4 16.1 9.4
22 -9 4 16.8 9
9 -22 -4 30.4 11.1
-9 -13 4 25.6 9.3
13 9 -4 18.8 18.1
13 -22 4 29.8 9.4
9 13 -4 -1 7.6
9 -22 4 32.3 8.4
9 13 -4 -0.8 16.9
-9 -13 -4 40.6 10.2
22 -13 4 36.8 9.2
22 -9 -4 15.7 12
22 -8 4 29 8.5
14 8 -4 7.6 16.9
14 -22 4 18.7 8.5
8 -22 -4 26.7 11.1
-8 -14 4 15.8 8.8
-8 22 4 11.3 7.2
8 14 -4 12.6 9.7
22 -8 -4 18.9 11.8
8 -22 4 29.9 8.3
14 8 4 4.5 17.8
8 14 -4 10.3 16.4
22 -14 4 30.4 8.7
-8 -14 -4 39 9.9
15 7 -4 4.6 17.1
7 -22 -4 9.5 10.4
15 -22 4 4.3 8.1
22 -7 4 10 7.8
-7 -15 4 16.8 8.6
7 15 -4 -5.9 9.7
7 15 -4 -2.7 14.6
7 -22 4 8.9 8.3
-7 -15 -4 17 8.7
-7 22 4 12.8 8.4
15 7 4 -4.6 14.2
22 -15 4 6.3 8.2
22 -7 -4 2.7 11.9
-6 -16 4 24.7 8.3
6 -22 -4 26.8 10.8
22 -6 4 23.4 7.8
6 16 4 12.6 7.5
16 6 -4 -3.7 16.3
16 -22 4 33.2 8.5
6 16 -4 13.7 9.9
-6 22 4 18.6 8.4
22 -16 4 27.5 8.9
-6 -16 -4 13.5 8.2
6 -22 4 24 8.7
22 -6 -4 11.1 11.6
22 -5 4 13.1 7.7
-5 22 -4 12.8 8.2
5 17 4 18 7.7
17 5 -4 -2 15
-5 -17 4 12.1 7.6
17 -22 4 22.6 8
5 -22 -4 16.3 8.4
5 -22 4 11.7 8.2
22 -5 -4 4.4 10.7
5 17 -4 9.1 8.3
22 -17 4 17.2 8.4
-5 -17 -4 15.2 8.3
-5 22 4 18.3 9.1
18 -22 4 3.4 7.2
4 18 4 7.4 8.1
-4 -18 4 7.7 6.9
-4 22 -4 9.4 8.7
4 -22 -4 4.3 8.1
22 -4 4 9.9 7.3
18 4 -4 13.2 14.7
22 -4 -4 1.7 10
4 -22 4 11.4 7.8
-4 22 4 5.1 8.6
4 18 -4 9.1 8.7
22 -18 4 13.2 8.2
-4 -18 -4 7.6 7.9
19 -22 4 21.6 7.7
-3 22 -4 22 9.6
-3 -19 4 12.4 6.5
22 -3 4 26.9 7.7
19 3 -4 18.7 14.2
3 19 4 13.1 7.8
22 -19 4 24.6 8.4
3 19 -4 17.6 9
-3 22 4 13.9 9.1
22 -3 -4 3 9.8
3 -22 4 14.5 7.5
-3 -19 -4 -0.1 6.5
2 20 4 4.6 9.4
-2 22 -4 13.3 10
20 -22 4 4.7 8
-2 -20 4 4.7 5.3
22 -2 4 -2.9 7.2
20 2 -4 11.4 14
22 -2 -4 -0.5 10
2 20 -4 6.6 9.6
-2 22 4 3.7 9.4
22 -20 4 6 8.7
2 -22 4 3.7 7.7
12 11 -4 4.4 17.2
23 -11 4 6.7 7.6
-11 -12 4 5.3 7.5
12 -23 4 6.3 7.6
23 -12 4 11.3 7.8
11 12 -4 7 17.6
11 -23 4 7.3 7.2
13 -23 4 0 7.5
13 10 -4 6 17.2
-10 -13 4 11.7 8.2
23 -10 4 6 7.9
23 -13 4 2.5 7.7
10 13 -4 15.8 16.3
10 -23 4 12.1 7.5
-10 -13 -4 10.7 9.2
-9 -14 4 7.4 7.6
23 -9 4 5.3 8
9 -23 -4 0 7.2
14 -23 4 5.3 7.8
14 9 -4 6.7 17.3
23 -14 4 6.9 7.7
9 14 -4 4.9 15.4
-9 -14 -4 0.9 9.1
23 -9 -4 -0.6 7.9
9 -23 4 7.1 7.6
14 9 4 9.3 13.4
8 -23 -4 1.2 6.7
15 8 -4 -1.6 15.5
15 -23 4 9 7.8
-8 -15 4 11.4 7.1
23 -8 4 9.1 8.1
-8 -15 -4 13.9 9.4
8 -23 4 11.8 7.7
23 -15 4 6 7.9
23 -8 -4 1.1 7
8 15 -4 -6.5 13.9
8 15 -4 -1 11.9
16 7 -4 -0.7 15.1
-7 -16 4 5 6.6
7 -23 -4 4.1 6.8
16 -23 4 0.3 7.4
23 -7 4 4 7.2
-7 23 4 0.2 5.6
23 -16 4 -4.5 7.6
-7 -16 -4 7.7 8.9
7 -23 4 -1.9 7.6
7 16 -4 7.7 7.4
23 -7 -4 0.9 6.9
-6 -17 4 0.5 5.7
23 -6 4 -7.6 7.1
17 6 -4 0.3 15.5
17 -23 4 1.9 7.6
6 -23 -4 2.9 6.2
-6 -17 -4 -0.4 8.1
23 -17 4 -0.2 8
6 17 -4 -2 8
6 -23 4 6.1 7.9
-6 23 4 3.2 7.8
23 -6 -4 1.8 6.7
18 -23 4 9.8 7.9
23 -5 4 7.6 7.6
18 5 -4 7.6 16
-5 -18 4 -0.8 5.5
23 -5 -4 -1.8 7.3
5 18 -4 5.9 8.9
-5 -18 -4 -1 9.5
5 -23 4 -2.5 8.3
-5 23 4 8 8.5
23 -18 4 5.2 8.6
19 4 -4 4.6 15.3
4 19 -4 12.6 10.3
-4 23 4 2.9 9.9
12 -24 4 0.7 7.6
24 -12 4 4.2 8
12 12 -4 7.1 17.7
24 -11 4 11 7.9
13 -24 4 6.4 7.6
13 11 -4 -7.7 16.4
11 13 -4 -0.9 16.3
24 -13 4 6.5 8.1
11 -24 4 3.4 7.8
13 11 4 -0.3 11.4
24 -10 4 3.4 8
14 -24 4 5 7.9
14 10 -4 -6.7 17.8
10 -24 4 9.8 8.3
24 -14 4 8.1 8.4
10 14 -4 -1.3 15.7
24 -9 4 5.5 8.3
15 9 -4 -0.1 17
15 -24 4 7 8.3
9 -24 4 19.8 9.1
24 -15 4 13.6 9
-9 -15 -4 10 8.3
16 -24 4 12.1 8.8
24 -8 4 1.3 8.5
16 8 -4 1.6 17
24 -16 4 0 8.8
-8 -16 -4 2.6 7.4
8 -24 4 13 9.1
0 0 -5 2 8.3
-1 0 -5 16.4 9.2
1 -1 -5 23.6 8.5
1 0 -5 25.1 10
0 1 -5 17.1 9.9
-1 1 -5 20.9 9.4
1 0 5 17.9 3.8
0 -1 -5 24 8.8
1 0 -5 18 8.2
1 -1 -5 23.6 9.1
1 1 -5 166.68 15.9
-1 2 -5 172.28 15.9
2 -1 -5 182.28 17.1
-2 1 -5 182.88 16.6
1 -2 -5 158.58 14.3
-1 2 -5 162.78 12
2 -1 -5 177.18 16
1 1 5 158.18 10.8
1 1 -5 164.58 16.4
1 -2 -5 166.38 16.7
2 -1 5 197.78 19.4
2 -2 -5 0.5 4.7
-2 0 -5 -1 3.1
0 2 5 5 3.8
2 0 5 6.1 4.7
2 0 -5 6.5 9.5
2 -2 5 1.8 9.2
2 -2 -5 0.6 7.8
2 0 -5 0.5 7.8
2 -2 -5 7.9 8
-2 2 -5 5.5 5.6
2 0 5 4.3 9.4
0 2 -5 4.3 5
2 0 -5 0.7 4
-2 2 5 -0.7 2.5
-2 2 -5 10.6 10.2
-2 2 -5 0 3.2
0 2 -5 0.5 10.4
1 2 5 111.49 9.4
-1 3 -5 104.79 10.6
2 1 -5 92.49 8.2
-1 3 -5 109.39 15.4
-3 2 -5 77.49 10
2 1 -5 115.19 15.4
1 -3 -5 103.49 14.2
3 -2 -5 123.79 14
2 1 -5 114.19 13.5
3 -1 5 106.69 17.5
2 -3 5 111.79 16.6
3 -2 -5 126.99 13.6
-3 2 -5 105.19 13.9
2 1 5 96.39 16.4
1 2 -5 104.89 14
3 -2 5 98.89 15.5
2 -3 -5 103.99 13.3
-2 3 -5 88.89 10.8
1 2 -5 88.19 9.5
3 -1 -5 96.19 12.8
2 -3 -5 100.79 11
3 -1 -5 96.39 14.5
1 2 -5 103.89 14
-2 3 -5 100.09 15.2
2 1 5 92.29 9
-3 3 -5 32 8.3
0 3 5 21.4 5.8
-3 3 -5 40.7 12.4
0 3 -5 33.4 7.7
0 -3 -5 13.2 7.9
3 -3 -5 30.9 9.3
3 0 5 37.7 6.4
3 -3 -5 34 8.3
3 0 -5 29.8 9.3
3 0 -5 24.9 10.9
0 3 -5 39 11.5
3 0 5 24.5 10
-3 3 -5 24.9 5.7
0 3 -5 10.7 7
3 -3 5 28.3 10.5
4 -2 -5 181.38 18
2 -4 5 210.68 19.4
-2 4 -5 198.48 17.6
2 -4 -5 195.18 16.9
2 2 5 184.98 19.6
2 2 -5 185.88 17.7
2 2 -5 192.98 17.4
2 2 5 199.38 13.7
2 2 -5 159.88 14.3
-4 2 -5 176.68 14
-4 2 5 179.78 14.3
2 -4 -5 192.08 16.6
2 2 5 178.88 15.3
4 -2 5 214.18 20.1
4 -2 -5 210.68 17.7
-2 4 -5 180.78 15
2 2 -5 176.48 13.1
-4 3 -5 6.9 10.5
-4 1 5 12.2 6.2
3 1 -5 9.3 8.1
-1 4 -5 4 5.6
3 1 -5 13 5
-4 3 -5 6.7 5.5
1 3 5 13.4 7.2
3 -4 5 11.4 9.2
-1 4 -5 18.9 8.3
4 -3 -5 0.2 5.2
-4 3 -5 15.5 7.7
3 1 -5 5.4 7.1
1 -4 -5 11 8.5
1 3 5 15.7 7.8
-1 4 -5 8.4 9.7
4 -1 5 7.7 9.6
4 -3 -5 15 8.6
4 -3 -5 11.8 9.1
3 1 -5 7.9 10.2
-3 4 -5 14.6 8.2
3 -4 -5 18.4 9.2
3 1 5 21.4 6.8
1 3 -5 15.4 6.8
-4 1 -5 8.9 4.7
4 -1 -5 21.2 9.3
3 -4 -5 15.3 9.5
-4 3 5 19.6 7.3
1 3 -5 24.4 11.3
-1 4 5 19.1 6.1
4 -1 -5 19.7 10.7
-3 4 -5 25.7 11.8
3 1 5 27.5 11.4
1 3 -5 18.9 8.1
3 -4 -5 12.4 5.8
-3 4 -5 15.7 6.3
-1 4 5 7.2 5.9
-1 -3 -5 3.2 6.2
4 -3 5 19.6 9.3
3 1 5 0.2 7.8
4 -4 5 404.16 27.8
4 -4 -5 404.56 26.5
-4 4 -5 403.76 24.4
4 0 5 362.16 25.3
0 4 5 352.36 22.1
0 4 -5 371.66 25.7
4 0 -5 387.16 26.1
4 0 -5 391.96 26.1
-4 4 -5 374.16 26
0 -4 -5 353.26 22.8
-4 4 5 347.27 22.4
0 4 -5 346.97 22.9
-4 4 -5 354.66 22.1
4 0 5 350.76 26.1
0 4 5 337.57 21.4
4 0 5 394.46 21.5
0 4 -5 297.17 22.1
4 -4 -5 298.97 21.3
-5 3 -5 594.94 35.5
3 -5 5 685.13 40.5
3 2 -5 661.83 39.7
2 3 5 635.94 37.5
-5 3 -5 637.24 36.9
2 3 5 641.74 39.7
-2 5 -5 600.14 37
5 -3 -5 607.84 37.5
2 3 5 668.23 35.8
2 -5 -5 649.04 37.2
5 -2 5 632.74 40.9
-5 2 5 610.74 36.2
-3 5 5 619.64 35.2
3 2 -5 701.63 39.1
2 -5 -5 709.83 39.2
5 -3 -5 700.03 40.4
-2 5 -5 687.03 40.1
3 2 -5 628.74 36.3
3 -5 -5 659.43 35.5
-3 5 -5 607.04 36.1
2 3 -5 655.53 38.8
2 3 -5 580.94 34.8
2 -5 5 710.83 39.4
2 3 -5 672.53 37.8
3 2 5 622.64 36.6
3 2 5 658.53 39.3
-2 5 5 615.24 34.2
-3 5 -5 637.54 38.3
5 -2 -5 649.74 37.5
5 -2 -5 663.63 39
3 2 5 653.63 34.6
5 -3 5 656.03 40.1
-5 2 -5 516.35 33.4
-2 5 5 514.65 33.5
-5 3 5 583.24 34.5
-3 5 -5 553.74 33.9
-1 5 -5 209.08 16.8
5 -4 -5 183.48 16.8
-4 5 5 252.97 17.2
1 4 5 247.78 17.7
4 1 -5 263.27 20.3
-5 4 -5 253.87 19.4
1 4 5 227.08 17
4 1 -5 263.27 22.1
5 -1 5 233.98 20.7
-1 5 -5 249.38 21.2
1 4 5 274.27 21.4
5 -4 -5 280.57 22.6
-5 1 5 230.78 18.3
-1 5 -5 208.58 17.6
-5 4 -5 221.28 16.2
-4 5 5 187.18 15.8
5 -1 5 253.87 23.1
4 1 -5 238.88 17.4
4 -5 5 276.87 22.6
-1 5 5 255.37 17.7
5 -1 -5 256.37 21.6
4 -5 -5 257.97 19.7
4 1 5 267.87 21
-5 4 5 277.27 19.9
-4 5 -5 288.37 20.7
-4 5 -5 273.67 22.2
5 -1 -5 273.27 22.5
4 -5 -5 285.97 22.3
1 4 -5 224.38 18
5 -4 5 289.87 24.5
4 1 5 276.57 17.6
1 -5 5 272.97 22.9
1 4 -5 256.17 19.2
4 1 5 287.07 23.6
1 4 -5 296.07 23.5
-4 5 -5 228.68 17.3
-5 5 -5 108.09 12.2
5 -5 -5 132.89 16.8
5 0 5 108.99 11
5 0 5 99.79 18.3
0 5 -5 111.29 12.7
-5 0 5 103.39 12.1
5 0 5 93.59 14.5
5 0 -5 120.39 17
-5 5 5 80.09 10.3
5 0 -5 94.49 11.7
0 5 5 98.29 11.7
-5 5 5 131.29 13.3
5 -5 5 129.79 18
-5 5 -5 118.09 14.9
5 0 -5 123.89 17.3
-5 5 -5 106.29 16
0 5 -5 86.89 12.6
0 5 -5 127.59 18.4
5 -5 -5 93.29 12.3
3 3 5 0.9 8.7
6 -3 -5 1.9 9.6
3 3 -5 5.8 9
3 3 -5 9.2 8.9
3 3 5 2.2 7.3
3 3 -5 8.5 7.2
-6 3 -5 2.1 5.7
6 -3 -5 1.9 9.9
3 3 5 7.1 9.2
-6 3 5 14.8 9.2
-3 6 -5 -1.5 11.3
3 -6 -5 2.8 9.1
-3 6 5 8.9 7.3
-3 6 -5 -0.6 6.5
-3 6 -5 1.2 9.9
3 -6 5 1.3 9.5
6 -3 5 3.8 10
-3 6 5 7.4 6.6
-3 6 -5 0.9 6.2
3 3 -5 6.5 12.4
4 2 -5 78.49 14.7
-6 4 -5 89.29 14.3
6 -2 5 91.89 16
2 -6 -5 85.19 14.3
-2 6 -5 64.69 10.9
-2 6 -5 58.09 10
-6 2 5 109.09 14.3
6 -4 -5 71.59 14.2
-6 4 -5 92.99 12.1
-4 6 5 106.99 13.3
-2 6 -5 72.09 12.3
2 4 5 92.79 15.7
4 2 -5 70.89 14.6
6 -2 5 81.19 14.7
4 -6 5 98.49 16.9
2 4 5 89.99 12.2
2 4 5 87.79 13.5
-2 6 -5 111.19 17
4 2 -5 80.29 12.7
-2 6 5 79.89 11.1
2 4 -5 59.19 10.9
-6 2 -5 64.09 9.8
6 -4 5 71.99 14
4 2 5 69.89 12.8
-4 6 -5 74.19 12.9
2 4 -5 67.19 14.3
2 -6 5 53.79 12.2
-6 4 5 97.49 14
4 -6 -5 101.39 13.9
6 -2 -5 67.89 13.9
2 4 -5 60.39 9.9
4 -6 -5 84.79 15.8
-2 6 5 67.89 10.5
6 -2 -5 63.09 12.6
4 2 5 86.69 13.9
2 4 -5 87.49 12
4 2 5 69.59 10.8
-4 6 -5 68.29 9
-4 6 -5 66.79 14.2
-5 6 5 394.06 24.3
5 1 -5 368.16 28.3
-1 6 -5 387.66 29.1
-6 5 -5 443.26 27.6
6 -5 -5 392.16 29.7
5 -6 5 404.16 29.1
-1 6 -5 348.27 23.9
1 5 5 368.96 23.9
6 -1 5 361.16 27.3
-5 6 5 369.86 24.7
-6 1 5 379.06 25.7
5 1 -5 386.16 27.9
-1 6 -5 320.47 24.6
1 5 5 390.76 27.5
5 1 -5 350.06 23.6
-6 5 -5 376.36 23.4
6 -1 5 376.66 29.3
5 1 5 410.46 24.1
-1 6 5 327.17 23.9
-1 6 5 385.76 23.7
5 1 5 438.86 30.2
-5 6 -5 445.46 28.1
6 -1 -5 415.36 29.1
5 -6 -5 414.06 29.2
6 -1 -5 384.36 29.2
5 -6 -5 381.86 25.6
-5 6 -5 400.16 24.5
-5 6 -5 436.56 30.2
1 -6 5 338.47 27.3
6 -5 5 412.76 30.5
1 5 -5 408.56 28.6
1 5 -5 318.47 24.5
5 1 5 406.96 28.6
-6 5 5 403.66 26.9
1 5 -5 405.26 25.5
0 6 -5 14.6 10.8
0 6 -5 11.5 12.3
-6 6 -5 20.4 12.1
0 -6 5 7.4 8
6 0 5 10.7 13.1
6 0 -5 17.1 11
6 -6 -5 16.9 8.8
6 -6 5 26.2 11.9
0 6 5 23.5 7.5
0 6 -5 15 9.3
6 -6 -5 1.7 10.9
6 0 -5 18.4 8.2
6 0 -5 18.9 13.3
-6 6 5 36.7 9
-6 6 5 38.5 9
-6 6 -5 18 7.4
6 0 5 14.1 11.2
0 6 5 13.4 8.3
6 0 5 16.4 7.7
-6 0 5 30.7 9.4
6 0 -5 4.7 6
-4 7 5 222.08 17
-3 7 -5 198.38 15.5
-3 7 -5 206.18 19.8
7 -3 5 214.68 20.8
4 3 -5 219.58 22.9
7 -4 -5 218.58 22.9
4 -7 5 183.58 20.4
-7 3 5 224.58 19.2
7 -3 5 225.48 23.9
3 4 5 220.38 16.9
-7 4 -5 205.78 15.6
3 -7 -5 220.08 19.6
4 3 -5 201.88 17.3
3 4 5 232.78 20.6
-3 7 -5 228.38 22.3
4 3 -5 228.58 19.7
-7 4 -5 208.08 19
3 4 5 172.48 19.1
-3 7 -5 172.08 15.8
7 -3 -5 250.27 24.2
-7 3 -5 238.58 17
4 3 5 279.47 23.3
4 3 5 259.37 18.6
-4 7 -5 237.68 20
3 -7 5 195.18 21.4
-4 7 -5 258.97 18.8
4 3 5 270.87 21.5
3 4 -5 272.57 19.6
3 4 -5 246.78 20.7
7 -4 5 247.78 23.9
4 -7 -5 280.97 23.4
-7 4 5 276.47 22.7
-3 7 5 284.17 19.6
-4 7 -5 285.67 24.8
7 -3 -5 205.98 21.5
3 4 -5 265.87 24.6
2 5 5 22.1 9.6
5 2 -5 11.1 7.7
5 2 -5 10 9.2
-2 7 -5 13.1 6.5
-2 7 -5 10.7 12.1
-5 7 5 25.9 9.4
7 -2 5 19.5 13.4
7 -5 -5 -4.4 10.9
2 5 5 -2 7.5
5 -7 5 13.9 10.1
-2 7 -5 14.8 10.5
-7 5 -5 14.3 6.4
2 5 5 13.3 9.2
-7 2 5 38.1 11.1
-7 5 -5 8.9 10.7
5 2 -5 14.5 13.9
-2 7 -5 19.1 10.1
5 2 -5 12.4 9.4
7 -2 5 11.1 11.6
2 5 -5 3 9.5
-2 7 5 4.2 7.5
7 -2 -5 -5.8 11.8
5 -7 -5 0.9 9.9
-2 7 5 18.6 8.1
-7 5 5 31.1 9.8
5 2 5 0.1 11
2 -7 5 1.8 8.2
7 -5 5 7.9 11.3
-5 7 -5 3.7 7.4
-5 7 -5 4.5 13.5
7 -2 -5 5 12.5
2 5 -5 11.5 8.3
2 5 -5 -0.1 11.8
5 2 5 12.1 8.1
-7 2 -5 6.7 5
5 2 5 -0.3 9.5
-5 7 -5 12.6 10.9
7 -1 5 502.05 29.3
7 -6 -5 483.75 36.3
-7 6 -5 546.35 33.5
1 6 5 493.15 28.9
-7 1 5 418.36 30.3
7 -1 5 504.95 35.4
6 1 -5 500.85 33.8
6 1 -5 481.45 29.3
-1 7 -5 504.15 30.8
6 -7 5 502.05 35.7
-1 7 -5 530.25 35.6
-6 7 5 496.25 30.6
6 1 -5 469.05 34
-7 6 -5 504.85 29.5
-6 7 5 486.05 31.2
7 -1 5 489.05 36.5
-6 7 -5 534.75 34.2
6 1 5 502.05 35.5
6 1 5 529.85 37
7 -1 -5 514.55 35.5
7 -1 -5 536.05 36.9
-6 7 -5 500.35 30.1
1 6 -5 528.35 31.9
6 -7 -5 568.44 37.1
1 6 -5 483.95 34.8
-7 6 5 463.45 31.8
-6 7 -5 517.35 36.3
7 -6 5 540.55 37.8
6 1 5 511.35 30.8
-1 7 5 533.35 30.7
7 -7 -5 86.99 16.8
7 0 5 136.49 20.8
7 0 -5 132.49 19.8
7 -7 5 153.18 22.2
-7 7 -5 149.69 18.8
0 7 5 151.38 14.7
-7 0 5 134.39 17.7
0 7 -5 135.89 15.2
7 0 -5 117.19 20.6
-7 7 5 130.19 16.3
7 0 5 115.29 13.7
0 7 -5 129.09 19.4
7 0 5 132.89 21.6
-7 7 -5 131.29 14.5
-7 7 5 141.09 18.8
-4 8 -5 530.95 36
4 4 -5 583.44 34
-8 4 -5 628.44 33.3
-4 8 5 575.64 33.6
8 -4 5 593.34 39.4
-8 4 5 481.25 34.4
4 4 -5 561.84 38.3
-4 8 -5 581.14 38.1
-4 8 -5 612.94 33.8
8 -4 -5 596.94 42
-5 8 5 71.89 10.6
8 -5 -5 26.9 15.1
-3 8 -5 49.1 13
8 -3 5 36.7 13.2
-8 5 -5 43.5 12.2
-3 8 -5 85.99 13.1
5 3 -5 64.19 15.8
8 -3 5 91.89 18.2
-3 8 -5 61.19 16.1
5 3 -5 87.09 12.3
-8 3 5 78.19 12.6
-8 5 -5 56.19 8.4
-3 8 -5 68.69 9.6
5 3 5 73.69 12
5 -8 -5 30.7 10.7
5 3 5 42 11.5
8 -5 5 73.59 16.7
5 3 5 44.8 13.2
3 5 -5 90.79 12.7
-5 8 -5 62.99 9.9
3 5 -5 71.29 15.5
-5 8 -5 55.89 16.4
8 -3 -5 40.6 14.1
-8 5 5 59.19 11.1
-3 8 5 105.59 15
8 -5 5 62.49 15.9
-8 3 -5 75.69 10.4
-5 8 -5 49.6 12.3
8 -6 -5 570.34 41.7
-2 8 -5 597.24 34.9
-8 2 5 527.95 35.7
-6 8 5 566.04 34.6
6 2 -5 566.34 39.9
-8 6 -5 636.74 33.8
-2 8 -5 592.44 39.3
-8 6 -5 524.25 36.4
6 2 -5 562.84 33.7
8 -2 5 606.24 41.7
2 6 5 555.84 32.3
-2 8 -5 536.55 32.4
8 -2 5 630.74 40.7
-6 8 -5 467.55 33.6
6 -8 -5 426.56 34.7
8 -2 -5 591.44 39.6
-6 8 -5 558.64 37.1
-6 8 -5 591.64 31.8
6 2 5 455.65 36.2
6 2 5 506.85 35.7
2 6 -5 540.95 37.1
8 -6 5 551.14 38.2
-2 8 5 562.24 31.7
-8 6 5 470.95 33.3
2 6 -5 542.45 32.4
-1 8 -5 179.48 22.9
8 -1 5 152.88 23.7
-7 8 5 154.18 19
7 1 -5 168.98 15.3
1 7 5 190.18 16
-1 8 -5 169.78 18.4
8 -7 -5 136.69 23.9
7 1 -5 155.18 20.7
8 -1 5 147.19 20.9
-7 8 5 169.18 16.3
-8 7 -5 168.48 16
-8 1 5 181.78 18.9
-7 8 -5 183.68 16.7
-8 7 5 173.18 17.7
8 -1 -5 153.08 22.2
7 1 5 152.68 21.6
1 7 -5 192.98 18.4
7 1 5 156.48 22.2
-8 7 5 139.39 15.4
-7 -1 5 117.19 15.9
-1 8 5 195.78 16.6
1 7 -5 179.48 22.9
8 -7 5 147.09 23
-8 0 5 75.39 11.6
0 8 -5 46.2 16.8
-8 8 -5 58.19 9.7
0 8 5 53.49 9
0 8 -5 65.19 13.4
8 0 5 43.9 16.3
-8 8 5 73.89 11
-8 8 5 73.59 12.1
-5 9 5 280.37 22.9
-9 5 -5 351.16 21.5
-4 9 -5 312.37 20.9
-4 9 -5 249.18 24.6
9 -5 -5 298.27 31.3
5 4 -5 291.67 21.5
9 -4 5 274.07 28.2
-4 9 -5 266.47 21.6
9 -4 5 305.77 27.2
-9 5 -5 318.47 23.3
-9 4 5 333.17 23.9
5 4 -5 289.17 28.3
4 5 -5 334.17 23
9 -5 5 349.57 32.2
-9 4 -5 337.57 22.2
-9 5 5 386.16 24.8
-4 9 5 317.27 23.5
4 5 -5 354.86 28.9
-5 9 -5 371.56 24.1
9 -4 -5 319.97 32.7
-5 9 -5 304.27 27.9
9 -5 5 373.16 29.6
9 -3 5 267.07 27.9
9 -6 -5 220.68 26.4
-3 9 -5 265.07 19.4
-3 9 -5 188.98 23.3
6 3 -5 208.78 24.2
9 -3 5 226.18 27.8
-6 9 5 242.38 19.7
-3 9 -5 272.97 21
6 3 -5 252.97 19.5
-9 3 5 294.17 20.8
-9 6 -5 259.17 19.1
9 -3 -5 259.67 28.9
3 6 -5 250.97 19.3
-6 9 -5 196.58 24
9 -6 5 213.78 23
9 -6 5 218.28 27.6
-3 9 5 227.68 19
3 6 -5 274.47 26.4
-6 9 -5 253.27 19.8
-9 6 5 293.07 21.9
9 -2 5 76.49 18.6
2 7 5 97.59 13.1
-2 9 -5 97.99 12.4
-7 9 5 92.79 15.5
-7 9 5 98.99 16.1
-9 2 5 132.69 17.3
-2 9 -5 83.99 13.8
7 2 -5 90.69 14
-9 7 -5 105.89 13.9
9 -2 -5 23.9 14.4
-7 9 -5 93.69 14.1
2 7 -5 51.19 15.4
8 1 -5 46.7 9
9 -8 -5 6 16.2
-8 -1 5 75.89 11.4
-1 9 5 94.29 15.2
-9 8 5 74.39 10.5
-8 9 -5 125.99 15.3
1 8 -5 108.09 16.9
-9 9 5 506.85 30.6
0 9 -5 494.35 31.7
-9 9 5 486.65 29.4
0 9 5 413.56 29.3
-9 0 5 388.96 29.5
-9 9 -5 496.15 29.2
-5 10 -5 82.99 11.4
5 5 -5 66.79 11.7
-5 10 -5 44.5 10.3
-10 5 -5 80.99 12.7
-10 6 -5 46.8 11.5
-4 10 -5 60.89 10.8
-10 4 5 58.09 10.9
-4 10 -5 55.39 12.6
-6 10 5 64.39 11.5
6 4 -5 69.29 12.3
-10 6 -5 52.49 9.7
4 6 -5 32.9 10.1
-6 10 -5 33.3 9.6
-10 4 -5 46.7 12
10 -6 5 3.2 13.1
-4 10 5 33.8 10
10 -4 -5 4.8 14.2
-10 4 -5 15.7 6.3
4 6 -5 -2.7 14.9
10 -6 5 -18.3 14.1
-7 10 5 149.88 17.1
7 3 -5 121.99 15.9
-10 3 5 143.49 17.6
-3 10 -5 135.79 17.1
-10 7 -5 145.29 15.9
-3 10 -5 118.49 15.3
-10 7 -5 107.99 18.6
3 7 -5 111.39 16.6
-10 7 5 137.99 17.4
-7 10 -5 107.49 14.7
-3 10 5 116.19 16.4
-10 2 5 281.37 22.1
-8 10 5 193.18 20.5
-10 8 -5 272.77 20.4
-2 10 -5 275.97 21.5
-8 10 5 284.27 21.2
8 2 -5 232.08 19.9
-10 8 5 219.98 20
-8 10 -5 190.48 18.6
-2 10 5 178.98 18.6
2 8 -5 208.08 20.4
1 9 5 93.09 15.6
-9 10 5 118.39 16.9
-10 9 -5 121.69 14.3
-9 10 5 111.49 16.1
-1 10 -5 127.39 18.9
-10 1 5 109.79 16.8
-10 9 5 110.09 15.5
-10 9 5 88.79 13.9
-9 10 -5 124.09 15.9
-1 10 5 100.99 16.1
-10 10 -5 141.89 16.4
-10 10 5 117.79 17.1
-10 10 5 125.79 15.7
0 10 5 121.89 17.5
0 10 -5 145.69 19.8
-10 0 5 111.79 14.2
-5 11 -5 146.79 16.5
5 6 5 172.18 18.1
6 5 -5 163.68 17.4
-11 6 -5 154.88 16.2
-5 11 -5 169.98 18.4
-11 6 -5 188.68 21.6
-11 5 5 188.08 19.2
-6 11 5 196.18 18.7
5 6 -5 213.78 19.3
-11 6 5 197.38 20.1
-6 11 -5 203.38 18.5
-11 5 -5 199.68 22.5
-5 11 5 231.98 19.9
-11 7 -5 127.19 15.9
-11 4 5 133.59 16.8
-11 7 -5 132.99 20.2
-4 11 -5 159.28 17.5
-7 11 5 177.68 17.9
-4 11 -5 126.79 16.9
4 7 5 144.19 17.7
7 4 -5 151.58 16.2
-11 7 5 200.08 19.9
4 7 -5 175.38 19.1
-7 11 -5 191.38 19.1
-11 4 -5 187.98 21.5
-4 11 5 181.28 18.6
-3 11 -5 235.08 21.2
3 8 5 210.58 20.2
-11 3 5 218.38 21.1
-8 11 5 230.28 20.3
8 3 -5 190.88 18.8
-11 8 -5 228.58 19.7
-3 11 -5 214.78 18.8
-11 8 -5 191.58 22.5
3 8 -5 252.17 22.3
-11 8 5 235.88 21.7
-3 11 5 234.08 20.8
-8 11 -5 249.58 21.2
-9 11 5 82.19 11.4
-2 11 5 192.58 19.1
-11 9 5 198.28 20.8
-9 11 -5 176.38 18.8
2 9 -5 203.18 21.4
-11 1 5 -5.6 9.5
-11 10 -5 8.4 8.1
-10 11 5 11.1 9.4
1 10 5 19.5 12.7
-10 11 5 -9.4 9.1
-1 11 -5 8.2 13.9
1 10 5 2.2 8.9
1 10 -5 29.6 14.4
-10 11 -5 21.6 9.6
-11 10 5 8.8 9.7
-1 11 5 29.5 13.1
-11 10 5 8.9 8.3
-1 11 5 21.6 9.6
-11 11 5 11.2 9.1
-11 11 5 9.6 10.3
0 11 -5 30.3 14.8
-11 0 5 -0.2 9.3
0 11 5 24.9 13.5
-11 11 -5 18.6 9.2
0 11 5 19.3 9.9
-6 12 -5 8.7 9.1
6 6 5 15.7 11
6 6 -5 10.6 10.7
-12 6 -5 2.7 7.3
-12 6 -5 5.9 11.4
-12 6 5 4.7 10.2
-6 12 5 18.4 9.1
-6 12 -5 0.4 8.8
7 5 -5 59.09 12.9
-5 12 -5 43.2 12.2
-7 12 5 73.09 12
-12 7 -5 50.89 10.3
5 7 5 56.79 13.1
-12 7 -5 65.49 14
-5 12 -5 66.69 12.3
-12 5 5 47.5 11
-12 7 5 53.39 12.1
-7 12 -5 29.2 10.3
5 7 -5 60.39 13.7
-12 5 -5 45.3 12.6
-5 12 5 37.1 9.8
-12 8 -5 101.89 14.4
8 4 -5 100.29 14.4
-4 12 -5 104.09 16.7
4 8 5 137.39 17.2
-8 12 5 107.79 17.1
-12 4 5 102.89 13.8
-4 12 -5 71.29 14
-12 8 -5 108.99 15.6
-12 8 5 65.09 12
-8 12 -5 74.69 12.2
-12 4 -5 67.49 14.3
4 8 -5 82.79 15.4
-4 12 5 101.89 13.2
3 9 5 20.8 12.6
-12 9 -5 24.3 9.7
-3 12 -5 35.2 13.6
9 3 -5 15.6 9.9
-9 12 5 25.5 10.3
-12 9 -5 5.2 10.9
-3 12 -5 21.4 9.3
-12 3 5 10.2 10.2
-12 9 5 5.8 10
3 9 -5 24.1 13.7
-9 12 -5 5.8 8.3
-3 12 5 15 10
-3 12 5 20.3 12.7
2 10 5 63.89 13.8
-10 12 5 96.39 13.1
-12 2 5 49.7 11.6
-12 10 -5 82.09 12.4
-2 12 -5 91.39 17.8
-12 10 5 44.7 11.8
-10 12 -5 69.39 11.9
-2 12 5 82.79 12.5
-2 12 5 92.69 16.1
2 10 -5 76.89 16.7
-1 12 -5 146.49 21.2
-12 11 -5 140.39 17.3
1 11 5 135.69 18.7
-11 12 5 122.59 17.6
-12 1 5 116.69 15.3
-11 12 5 85.09 13.1
-12 11 5 97.89 13.8
-1 12 5 123.39 17.2
1 11 -5 129.79 21.2
-1 12 5 135.69 18.6
-12 11 5 89.89 12.7
-11 12 -5 122.69 16.7
0 12 5 -2.4 9.3
0 12 5 8.1 11.9
0 12 -5 10.2 14.9
-12 0 5 -7.5 9.4
-12 12 -5 4.8 8.8
-12 12 5 -6.9 10.7
-12 12 5 -13.4 9
6 7 5 40 12.4
-6 13 -5 24.3 10.9
-6 13 -5 15.2 10.5
-7 13 5 45.3 11.4
7 6 -5 41 12.6
-13 7 -5 41.5 13.4
-13 6 5 41.1 12.1
-6 13 5 58.99 14.8
6 7 -5 46.4 13.6
-7 13 -5 28.2 10.1
-6 13 5 52.29 11.6
-13 6 -5 38.7 13.3
-13 7 5 47.2 12.4
-8 13 5 57.89 11.5
-13 5 5 54.59 12.5
-5 13 -5 51.89 11.7
-13 8 -5 55.59 13.5
-13 8 -5 34.8 10.7
-5 13 -5 35.9 12.4
8 5 -5 57.89 12.8
5 8 5 71.59 14.4
-13 5 -5 86.09 15
-5 13 5 97.39 16.5
-5 13 5 82.99 12.4
-8 13 -5 68.59 12.2
5 8 -5 60.69 14.1
-13 8 5 75.19 13.9
9 4 -5 54.09 12.2
-9 13 5 65.39 11.7
-4 13 -5 56.19 11.8
-4 13 -5 50.49 13.8
4 9 5 65.19 14
-13 9 -5 53.69 11.3
-13 4 5 74.09 13.4
-13 9 -5 78.19 15
-13 9 5 97.19 14.7
-4 13 5 107.39 17.6
-4 13 5 161.58 19.7
4 9 -5 109.19 17
-9 13 -5 99.99 14.1
3 10 5 73.49 14.5
-13 3 5 61.39 12.2
-10 13 5 111.89 13.9
-13 10 -5 67.09 12
-3 13 -5 76.29 16.1
3 10 -5 111.19 19
-13 10 5 93.59 14.9
-3 13 5 113.79 19.1
-3 13 5 94.29 13.3
-10 13 -5 78.09 13
-11 13 5 6.3 10.1
2 11 5 6.6 12.4
-2 13 -5 7.5 13.8
-13 11 -5 8.7 9.3
-13 2 5 -8.3 9.9
-11 13 -5 2.1 8.7
-2 13 5 21.3 12.6
-13 11 5 -14.9 6.8
2 11 -5 14.4 15.3
-2 13 5 -6.7 9.8
-13 11 5 -4 9.9
1 12 5 32.1 13.5
-13 1 5 18.2 10.7
-1 13 -5 31.9 15.8
12 1 -5 -2.4 18.5
-12 13 5 4.5 10.2
1 -13 -5 -2.6 8.6
-13 12 -5 15.7 9.7
1 12 -5 30.6 15.6
-1 13 5 23.6 10.3
-13 12 5 5.5 9
-1 -12 -5 -2.2 9.1
-13 12 5 22.8 10.9
13 -1 -5 -6.1 17.3
-12 13 -5 27.2 9.8
-1 13 5 59.79 15.2
1 12 -5 -8.1 11.3
-13 13 5 -3.3 9.3
0 13 -5 20.4 14.5
0 13 -5 28.6 15.2
-13 0 5 -8.5 11.2
0 13 5 -3.8 9.6
-13 13 5 19.3 10.9
0 -13 -5 17.4 11.7
-13 13 -5 19.4 9.3
0 13 5 21.6 14
13 0 -5 34.7 22.5
-7 14 5 13.9 13
-14 7 5 -1.9 11
-14 7 -5 2.5 10.6
-7 14 5 3.7 9.8
7 7 -5 11.3 12
-7 14 -5 3 10.4
7 7 5 -2 10.5
-8 14 5 3 12.4
-14 6 5 -2.9 10.2
-14 8 -5 -7.5 10.6
-8 14 5 -7.3 9.5
6 8 5 0.5 11.8
-14 8 -5 1.5 9.8
-6 14 -5 -4.1 10.1
8 6 -5 1.8 11.2
-6 14 -5 8.4 10.8
-14 6 -5 -0.5 12.1
6 8 -5 4.7 12
-14 8 5 -5 11.1
-8 14 -5 2.7 10.4
-6 14 5 4.3 13.2
-6 14 5 1.5 9.4
-9 14 5 -0.3 11.2
9 5 -5 11.7 11
-14 9 -5 6.2 12.5
-5 14 -5 15.4 10.3
-14 9 -5 13.7 10
-5 14 -5 13.8 12
-14 5 5 18.3 11.5
5 9 5 16.7 12.9
-9 14 5 20.5 10.9
-5 14 5 21 10.9
-9 14 -5 10.3 9.7
-5 14 5 27.8 14.4
-14 9 5 12.7 11
5 9 -5 13.1 13.2
-14 10 -5 3.3 9.2
4 10 5 2.3 12.2
-14 4 5 -1.3 10.2
4 -14 -5 1 8.1
-4 14 -5 -2.6 9
-10 14 5 5.7 10.2
-4 14 -5 8.6 12.8
14 -4 -5 -1.2 19
-10 14 -5 13.5 10.1
4 10 -5 1.5 14.4
-14 10 5 2.3 11.5
-4 14 5 8.8 10.3
-4 14 5 7.9 12.9
3 -14 -5 57.49 12
3 11 5 64.49 15.2
-14 11 -5 50.09 11.3
11 3 -5 -4.4 17
-14 3 5 46.5 12.2
-11 14 5 45.8 11.9
-3 14 -5 48.9 15.2
-3 14 5 70.69 15.1
3 11 -5 32.1 13
3 11 -5 78.79 17
-14 11 5 49.1 12.3
14 -3 -5 106.89 23
-11 14 -5 68.49 11.9
-3 14 5 63.69 12.3
2 12 5 12.1 13.5
-2 14 -5 -8.7 11.3
2 -14 -5 11.3 10.6
-14 2 5 11.2 10.4
-2 14 -5 7.2 14.2
12 2 -5 37.5 20.3
-12 14 5 0.1 10.2
14 -12 -5 -1.6 11.9
-14 12 -5 13.7 9.6
14 -12 5 0.5 9.2
-2 -12 -5 19.6 10.4
-2 14 5 5.1 13.4
12 -14 -5 -0.5 11
-2 14 5 -0.8 10.1
-14 12 5 3.9 11.2
2 12 -5 7.9 13.6
-12 14 -5 8.8 9.7
14 -2 -5 37.4 23.4
2 12 -5 9.4 15.5
-1 14 -5 26.5 16.2
13 1 -5 31.9 22.4
1 13 5 24 14.1
-13 14 5 7 10.3
14 -13 -5 18.2 11.9
13 -14 5 35.7 10.8
1 -14 -5 28.9 12.9
-14 13 -5 24.2 10.5
-1 14 -5 31.8 14
-14 1 5 -1.4 9.7
13 -14 -5 36.5 12.3
1 13 -5 36.1 16
1 13 -5 37.5 16.4
-1 14 5 39.7 14.5
-1 -13 -5 24.9 13
-14 13 5 28 11.7
14 -13 5 30.8 10.9
-13 14 -5 21.5 9.6
14 -1 -5 57.89 24.4
-14 14 5 -18.6 9.4
0 14 -5 -2.1 14.4
-14 14 5 -6.5 9.9
0 14 5 5.7 13.7
14 0 -5 31.2 23.8
0 14 -5 5.3 15.7
-14 14 -5 10 9.7
0 -14 -5 9.3 12.4
14 -14 5 -1.5 11.2
14 -14 -5 -0.1 13.1
15 -8 -5 13.1 14.1
-7 15 -5 9.9 10.8
-15 7 5 23.8 11.6
8 7 -5 9.4 12.2
-8 15 5 9.2 12.8
7 8 5 -2.3 13.5
7 -15 -5 -1.8 9.7
-15 8 -5 1.7 12.6
-8 15 5 17.9 10.8
-8 15 -5 16.7 10.8
-7 15 5 12.3 13.8
-7 15 5 20.4 11.2
-15 8 5 23 11.2
8 -15 -5 9.7 10.1
-15 7 -5 7 12.2
15 -7 -5 18.4 17.6
7 8 -5 22.3 13.4
-15 9 -5 -8.4 11.3
-9 15 5 -0.2 11.3
15 -9 -5 3.8 12.8
6 -15 -5 4 10.6
-15 6 5 7.2 10.2
9 6 -5 9.6 11.3
-6 15 -5 -3.7 10.1
-9 15 5 0.5 10.7
6 9 5 5 12.4
-6 15 -5 4 11.5
-9 15 -5 7.2 10.4
15 -6 -5 15 18.3
6 9 -5 -1.7 12.8
-6 15 5 2.3 14
9 -15 -5 1.2 9.3
-15 9 5 5.4 11.9
-6 15 5 9.7 10.7
15 -9 5 2.2 9.5
-15 5 5 13.4 10.7
-15 10 -5 2.1 9.2
-5 15 -5 15.3 12.8
15 -10 -5 17.3 13.5
10 5 -5 -6.1 16.4
5 10 5 25.1 13.2
-5 15 -5 10.7 10.3
5 -15 -5 16.6 10.9
-10 15 5 4.3 10.7
5 10 -5 2.7 10.4
-5 15 5 14.6 11.3
-5 -10 -5 2.4 8.6
-15 10 5 12.7 10.7
-10 15 -5 25 10.2
-5 15 5 14.5 13.3
15 -10 5 9.4 8.8
15 -5 -5 23.9 21.4
10 -15 -5 10.6 11.3
5 10 -5 29.6 15
11 4 -5 48.1 20.7
-15 11 -5 29.5 10.5
15 -11 -5 59.09 14
-15 4 5 49.6 13
-11 15 5 38.4 12.3
-4 15 -5 47 14.8
4 -15 -5 58.59 13.4
4 11 5 63.89 15
-15 11 5 44.3 12.2
15 -4 -5 97.29 25.5
-4 15 5 61.09 16
4 11 -5 41.3 15.5
4 11 -5 33.8 15.6
-4 15 5 32 11.5
15 -11 5 51.19 11
11 -15 -5 56.19 13.3
-11 15 -5 34.1 10.6
-4 -11 -5 48.3 12.8
3 -15 -5 70.89 13.6
-3 15 -5 37.2 15.4
-3 15 -5 14.6 11.2
12 -15 5 59.19 12.2
12 3 -5 48.4 21.1
-15 12 -5 32.2 10.7
3 12 5 51.69 15.1
-12 15 5 41.9 12.3
15 -12 -5 60.19 15.3
-15 3 5 41.7 12.2
-15 12 5 56.49 13.5
-12 15 -5 38.9 10.8
-3 15 5 79.19 16.9
15 -12 5 60.99 12
3 12 -5 55.49 16.9
15 -3 -5 54.29 24.6
-3 15 5 27.8 11.7
-3 -12 -5 52.09 12.7
3 12 -5 39.6 16.2
12 -15 -5 52.99 13.5
-2 15 -5 41.6 14.8
15 -13 -5 39.8 15
13 2 -5 46.7 23
-15 13 -5 23.4 10.2
-15 2 5 18.7 10.3
2 -15 -5 39.3 12.7
-13 15 5 14.8 11.6
13 -15 5 47.5 12.3
2 13 5 31.8 13.8
-2 15 -5 49.5 16.1
-15 13 5 33 12.9
-2 -13 -5 39 13.2
-13 15 -5 30.3 10.4
-2 15 5 54.69 15.9
2 13 -5 50.49 17.6
13 -15 -5 68.69 14.9
15 -13 5 37.2 12
2 13 -5 45.4 17.2
15 -2 -5 67.59 24.6
14 -15 5 33.5 12.3
14 1 -5 32.4 21.5
-1 15 -5 27 15.8
-1 -14 5 1 9.7
-1 15 -5 31.2 16.3
1 14 5 20.4 14
-15 14 -5 18.5 9.9
-14 15 5 -8.1 10.3
1 -15 -5 20.6 13.1
15 -14 -5 23.8 13.4
-1 -14 -5 12.8 12.4
-15 14 5 -6 9.3
15 -14 5 35.9 12.3
1 14 -5 42.4 17.3
-1 15 5 23 14
15 -1 -5 37.2 23.6
14 -15 -5 31.8 13.8
1 14 -5 25.3 16.3
1 -15 5 0.3 8.1
-14 15 -5 13.6 9.4
15 -15 -5 70.69 14.6
0 15 -5 77.89 17.7
15 -15 5 72.29 13.4
0 -15 -5 85.89 14.3
0 15 -5 47.5 16.5
0 -15 5 66.99 11.7
-15 15 -5 49.5 11.4
0 15 5 48.9 14.7
15 0 -5 73.69 24.1
-8 16 5 8.3 12.6
-8 16 5 -1.3 11.2
8 -16 -5 11.3 12.5
-16 8 5 17.4 11
16 -8 -5 22 16.9
8 8 -5 15.5 13.1
8 -16 5 8.7 8.4
-8 16 -5 16 10.9
16 -8 5 20.8 10.5
7 -16 -5 6.6 11.7
9 7 -5 0.4 10.7
16 -7 5 8 10.3
9 -16 5 8.9 9.1
-9 16 5 0.3 13.2
9 7 -5 1.9 19.8
-16 7 5 8 11.5
-7 16 -5 -0.8 9.9
-9 16 5 -7.6 11.1
16 -9 -5 8.1 16
16 -9 5 2.1 10.2
7 -16 5 -2.7 7.7
-9 16 -5 4.5 10.1
-16 9 5 6.2 10.5
-7 16 5 7.7 13.5
-7 16 5 -6.6 10.7
9 -16 -5 2.5 11.5
7 9 -5 -2.3 12.9
16 -7 -5 -0.1 19.4
-16 6 5 27.2 11.8
-10 16 5 10.4 10.7
10 6 -5 27 20.4
16 -10 -5 15.9 14.9
10 -16 5 14.4 10.3
6 10 5 5.8 12.4
-6 16 -5 -0.1 11.4
-10 -6 -5 1.3 8.4
-6 16 -5 8.6 10.4
6 -16 -5 31.6 12.6
6 10 -5 22.3 14.1
6 10 -5 17.8 14.1
-6 -10 -5 11.4 10.3
-16 10 5 8.5 11.8
-10 16 -5 16.5 10.6
16 -10 5 17.8 10.8
16 -6 -5 23.5 21.3
-6 16 5 14.5 14.5
10 -16 -5 25.1 12.3
-6 16 5 2.8 11.5
6 -16 5 9.5 8
11 5 -5 9.3 20.7
5 11 5 19.2 13.4
-11 -5 -5 10.3 8.5
-11 16 5 -1.2 11.1
-16 5 5 13.5 11.6
5 -16 -5 6 12.4
11 -16 5 23.7 10.7
16 -11 -5 20.8 15.4
-5 16 -5 9.4 12.6
5 11 -5 6.3 13.8
-5 16 5 32.5 15.7
-11 16 -5 24.6 11.1
-5 16 5 -0.1 11.2
5 -16 5 15.9 8.9
16 -11 5 29.8 11.6
5 11 -5 20.3 14.7
-5 -11 -5 27.1 11.9
-16 11 5 10.1 11.8
11 -16 -5 20.4 12.4
16 -5 -5 16.4 22.2
4 12 5 29 14.4
-4 16 -5 27.6 14.7
-16 12 -5 1.1 10.8
4 -16 -5 34 12.9
12 -16 5 25.8 11.8
16 -12 -5 39.8 15.3
-4 16 -5 11.4 10.3
-12 16 5 7.6 11.3
12 4 -5 6.6 20.9
-16 4 5 19.9 11.1
-4 -12 -5 25.1 12.6
16 -4 -5 32.2 21.6
4 12 -5 -2.4 15.2
-16 12 5 5.7 11.8
-4 16 5 18.1 14.3
-4 16 5 15.7 12
16 -12 5 23.9 11.5
12 -16 -5 17.4 13.5
4 -16 5 17.4 9.4
4 12 -5 20.1 15.1
-12 16 -5 15.4 10.5
13 -16 5 101.19 14.2
13 3 -5 57.59 23.5
-13 16 5 66.99 14.2
3 13 5 90.69 17.3
-3 16 -5 115.19 15.9
-3 16 -5 94.09 18.2
16 -13 -5 105.99 17
3 -16 -5 107.89 15.3
-3 -13 -5 87.49 14.3
16 -3 -5 133.59 25.7
-16 13 5 54.19 12.6
13 -16 -5 114.49 16.1
3 -16 5 81.59 11.5
-3 16 5 61.09 15.9
-13 16 -5 58.19 12
16 -13 5 111.29 13.9
3 13 -5 87.59 16.3
3 13 -5 95.29 20.1
2 14 5 33.8 13.9
14 -16 5 44.6 12.8
16 -14 -5 53.49 14.2
-16 14 -5 23.5 9.9
-2 -14 5 13.2 9.2
-2 16 -5 71.99 16.7
2 -16 -5 42.2 13
-2 16 -5 42.5 16.1
-14 16 5 10.3 11.7
14 2 -5 60.59 22.3
14 -16 -5 50.79 14.4
16 -2 -5 45.6 23
16 -14 5 37.5 12
2 14 -5 27.2 15.5
2 -16 5 25 10.3
-14 16 -5 25.4 10.3
-2 16 5 17.6 13.8
-16 14 5 -1.3 9.1
2 14 -5 32.1 16.4
-2 -14 -5 44.9 14.4
15 -16 5 27.8 12
16 -15 -5 38.5 13.8
-1 16 -5 33.1 16.3
15 1 -5 29.7 22.6
-1 16 -5 36.5 15.5
-16 15 -5 15.6 9.3
-1 -15 5 33.9 11.8
1 -16 -5 18.3 12.7
1 15 5 20.9 13.9
1 -16 5 31.7 11.4
15 -16 -5 31.2 13.9
1 15 -5 37.8 16.7
16 -15 5 35.3 12.2
-1 -15 -5 41.6 13.4
-15 16 -5 14.6 9.7
-1 16 5 32.4 15.3
16 -1 -5 44.3 23.2
1 15 -5 32.7 15.4
0 -16 5 28.9 11.6
0 16 -5 14.7 15.5
16 0 -5 22.5 21
0 16 -5 52.69 16.4
16 -16 5 28.2 11.9
16 -16 -5 33.1 13.7
0 16 5 31 15.1
-16 16 -5 17.2 9.7
0 -16 -5 28.7 14.1
-17 8 5 6.6 10.7
9 -17 5 18.3 10.2
17 -8 5 18.1 11.1
9 8 -5 43.7 24.1
8 -17 -5 10.8 12.4
-8 17 -5 14.3 10.7
-9 17 5 10.5 11.5
-9 -8 -5 12.2 8.3
17 -9 -5 6.5 16.1
-8 17 5 7.6 12.5
-8 -9 -5 2.7 7.1
17 -9 5 14.5 10.8
8 -17 5 15.2 10
-17 9 5 15.7 11.5
8 9 -5 -3.8 10.6
9 -17 -5 19.5 12.7
-8 17 5 4.5 10.8
-9 17 -5 18.9 11
17 -8 -5 18.5 18
8 9 -5 5 12.3
17 -10 -5 8.2 15.8
-10 -7 -5 -0.8 9.1
17 -7 5 0.1 10.4
10 -17 5 19.8 10.5
-10 17 5 -5.4 10.7
10 7 -5 5.8 21.2
-17 7 5 7.9 11.5
7 -17 -5 -0.9 12.8
-7 17 -5 0 9.4
17 -10 5 -0.9 10.8
-7 17 5 4.5 11.3
-17 10 5 10.3 10.8
-10 17 -5 12.3 10.6
17 -7 -5 17 19.4
7 -17 5 0.2 9.5
7 10 -5 0.8 13.8
-7 -10 -5 1 6.5
7 10 -5 -13.6 13.9
-7 17 5 7.5 13.4
10 -17 -5 2.8 12.8
6 11 5 -2.7 15.3
11 6 -5 17.7 21
17 -11 -5 20.6 15.3
6 -17 -5 22.9 12.5
-11 -6 -5 29.7 10.6
-11 17 5 11.3 11.2
-17 6 5 28.5 12.1
11 -17 5 23.5 10.8
6 -17 5 18.4 10.4
17 -6 -5 21.7 20.4
11 -17 -5 19.7 12.6
17 -11 5 29.3 11.8
-6 -11 -5 34.3 12.8
6 11 -5 24.4 14.7
-6 17 5 21.7 15.1
-6 17 5 17.1 11.7
-11 17 -5 22.9 10.6
-17 11 5 26.9 12.2
6 11 -5 22.4 15.5
-6 -11 -5 1.6 6.4
5 -17 -5 3.6 11.3
-5 17 -5 -2.3 12.2
-17 5 5 3.5 11
12 5 -5 -0.6 21.6
-5 17 -5 -2.2 8.9
-12 17 5 -3.4 10.7
5 12 5 -3.6 12.7
12 -17 5 9.8 10.6
17 -12 -5 2.6 15.3
-5 -12 -5 -1.7 6.8
-5 17 5 -7.1 10.2
5 -17 5 -3.1 9.4
17 -12 5 8.9 11
-17 12 5 6.7 11.8
-5 -12 -5 5.8 10.9
-5 17 5 8.4 14
12 -17 -5 0.9 12.1
17 -5 -5 -6.4 19.7
5 12 -5 -17.1 14.5
5 12 -5 10.1 15.6
-12 17 -5 7.3 9.9
-17 4 5 3.5 10
4 13 5 7.9 13.6
-4 17 -5 9 13
4 -17 -5 3.4 11.4
13 -17 5 11.6 10.8
-13 17 5 -3.6 11.6
13 4 -5 17.5 21.2
17 -13 -5 10.6 13.8
-4 -13 5 3.9 8.9
-4 17 -5 10 13.6
13 -17 -5 1.5 11.6
17 -13 5 -0.8 10.9
-4 17 5 20.3 15
-4 -13 -5 16.3 11.3
-4 -13 -5 -2.6 7.5
17 -4 -5 8 20.8
4 -17 5 5.7 9.7
4 13 -5 16.4 16
-13 17 -5 7.8 9.5
4 13 -5 -5.2 14.6
-17 13 5 10 10.8
-4 17 5 -9.3 11.4
17 -14 -5 29.1 14.5
3 14 5 25.3 14.5
-3 17 -5 30.1 15.1
3 -17 -5 27.2 12.3
14 -17 5 42.1 12.2
-14 17 5 -4.1 11.2
-3 -14 5 39.7 11.6
14 3 -5 21.1 20.8
-3 17 -5 45 14.4
3 14 -5 34.9 15.8
17 -3 -5 10.4 19.2
14 -17 -5 43.9 14.1
3 -17 5 32 10.3
-14 17 -5 15.2 9.7
-3 17 5 40.7 15.4
3 14 -5 35.9 15.2
17 -14 5 22.4 11.3
-3 -14 -5 33.5 13.9
-15 17 5 -8.8 14.6
2 15 5 21.4 14.1
2 -17 -5 30.8 12.5
-2 17 -5 58.39 15.2
15 2 -5 40.4 22.4
-2 -15 5 35.9 11.8
17 -15 -5 20.9 13.4
15 -17 5 32.7 12.1
-2 17 -5 13.6 14.8
-2 -15 -5 3.9 8
2 15 -5 21.9 15.4
-2 17 5 33.7 15.7
17 -2 -5 14.5 21.9
17 -15 5 29.9 11.8
-15 17 -5 14 9.4
2 15 -5 20.5 15
15 -17 -5 13.1 13.3
2 -17 5 11.9 10.6
-2 -15 -5 29.2 13.1
1 16 5 50.29 15.4
-1 17 -5 31.6 15
16 1 -5 51.09 20.4
1 -17 -5 62.99 14.2
17 -16 -5 63.29 13.8
-1 17 -5 106.39 16.1
16 -17 5 85.39 13.2
-1 -16 5 50.19 12.5
1 16 -5 43.1 14.6
16 -17 -5 47.3 13.5
1 -17 5 35.6 11.6
17 -16 5 33.2 12.1
-1 -16 -5 44.1 13.2
-1 17 5 21.3 14.4
17 -1 -5 44.1 20.7
1 16 -5 37.3 15.3
0 -17 5 50.49 12.4
0 -17 -5 93.39 15.3
17 -17 5 72.39 12.8
17 -17 -5 50.79 13.1
0 17 -5 76.69 15.3
17 0 -5 44.7 19.9
-9 -9 -5 9.2 9.2
18 -9 5 10.8 10.2
-18 9 5 12.7 11.8
9 -18 -5 -1.8 12.5
9 -18 5 6.5 9.8
18 -9 -5 26.6 16.9
-9 18 5 -18.9 10
-9 18 -5 0.9 9.7
9 9 -5 19.1 21.7
-8 18 -5 0.2 9
18 -8 5 2.4 10.2
10 -18 5 5.5 9.8
18 -10 -5 3.7 16.5
10 8 -5 1.4 22.4
-10 18 5 -3.7 11.1
-10 -8 -5 11.7 10
-18 8 5 9.2 10.9
8 -18 -5 -0.2 11.5
10 -18 -5 9.9 12.9
8 10 -5 3.1 12.3
8 10 -5 0.5 13.9
-18 10 5 18.5 11.9
18 -8 -5 11.5 17.1
-8 -10 -5 6.4 8.5
-8 18 5 -7.1 11.1
18 -10 5 6.6 10.7
8 -18 5 3.1 9.7
-10 18 -5 2.9 9.9
-11 18 5 11.6 11.4
-11 -7 -5 35.5 10.9
18 -11 -5 22.6 15.6
11 7 -5 17.4 20.8
7 -18 -5 26.6 12.1
11 -18 5 25.6 10.5
-7 -11 5 -0.7 10.8
-18 7 5 21.3 11.6
18 -7 5 23.8 10.8
7 11 -5 6.2 13.6
7 -18 5 18.7 10.5
-7 18 5 -0.6 12.6
18 -7 -5 29.4 18.9
-11 18 -5 29.1 11.1
-7 18 5 12 11.4
18 -11 5 33.3 11.2
-18 11 5 8 11.2
-7 -11 -5 27 8.9
7 11 -5 26.6 14.6
11 -18 -5 22.2 12.4
-18 6 5 12.7 10.6
12 6 -5 24.7 21.8
18 -6 5 10.5 10.3
-6 18 -5 -1.8 16.2
6 -18 -5 5.3 11.9
12 -18 5 -1.1 10.2
18 -12 -5 6.9 15.4
-12 18 5 -15.6 11.3
-6 -12 5 -0.7 7.8
6 12 -5 11.2 14.4
18 -6 -5 -11.7 18.8
6 12 -5 7.2 14.1
-6 18 5 -18.4 9.4
6 -18 5 -1.5 9.7
-12 18 -5 7.1 9.7
12 -18 -5 12.9 12.8
-18 12 5 14.3 11.6
-6 -12 -5 9.2 8.6
18 -12 5 7.7 10.6
-6 18 5 4.5 13
-5 -13 5 28.9 10.3
18 -13 -5 24.2 14.7
-5 18 -5 30.8 11.9
13 5 -5 17.2 21.4
13 -18 5 26.4 11
5 -18 -5 38.3 13.5
-18 5 5 -0.9 10
-13 18 5 13.9 12.1
5 13 -5 10.9 14.1
-5 18 5 22.8 14
13 -18 -5 29.8 12.3
-18 13 5 12.2 10.5
18 -13 5 23.1 11.1
5 13 -5 17.4 14.4
5 -18 5 19.6 9.7
-5 -13 -5 23.9 8.9
-5 -13 -5 31.5 13
-13 18 -5 17 9.5
18 -5 -5 24 19.4
14 -18 5 52.39 11.6
-4 18 -5 64.39 13.8
4 -18 -5 59.39 13.6
18 -14 -5 60.19 14.3
-4 -14 5 57.39 11.9
14 4 -5 53.39 21.2
4 14 -5 28.6 14.1
14 -18 -5 45.6 12.5
-4 18 5 29.1 14.7
4 14 -5 37.1 15.5
-4 -14 -5 40.6 12.2
-14 18 -5 30.7 10.4
4 -18 5 37.4 10.4
18 -4 -5 34.4 19.9
-4 -14 -5 43.4 9.6
18 -14 5 57.29 11.9
-3 -15 5 82.89 12.9
15 3 -5 38.4 20.1
15 -18 5 78.89 12.5
3 -18 -5 74.19 14.2
-3 18 -5 91.19 14.8
18 -15 -5 103.39 15.2
-3 18 5 32.9 14.6
18 -15 5 73.39 12.4
3 15 -5 73.99 15.5
3 -18 5 70.19 11.6
3 15 -5 40.5 15.1
18 -3 -5 57.59 19.5
-15 18 -5 34 9.8
-3 -15 -5 44.8 9.8
16 -18 5 18 11.5
2 -18 -5 11.8 12.4
-2 18 -5 22.9 13.3
16 2 -5 24.2 20.1
-2 -16 5 2.2 10.9
18 -16 -5 11.2 12.6
2 16 5 -1.6 15.1
16 -18 -5 7.6 10.7
-2 -16 -5 1.3 11.1
18 -16 5 12 11.3
-2 18 5 2 12.5
-16 18 -5 2.3 10.9
18 -2 -5 14.2 17.5
2 -18 5 7 10.6
2 16 -5 5.9 12.7
2 16 -5 13.5 13.4
-2 -16 -5 4 8.7
1 -18 -5 5.3 11.8
1 -18 -5 0.8 8.7
17 1 -5 7.6 18
18 -17 -5 7.2 11.7
-1 18 -5 12.3 12.5
17 -18 5 2 11
-1 -17 5 6.6 10.2
18 -1 -5 22.5 18.7
-1 -17 -5 4.3 10.5
17 -18 -5 7 10
18 -17 5 9.8 10.8
1 -18 5 7 10.2
1 17 -5 -1.4 11.5
-1 -17 -5 3.7 8.5
18 -18 5 17.2 10.7
0 -18 5 22.9 10.6
18 -18 -5 24.7 9.8
0 -18 -5 18.8 11
0 -18 -5 2.5 7.7
0 18 -5 25.5 11.3
18 0 -5 -1.2 16.9
19 -10 -5 20.4 16
10 9 -5 0.2 21.9
-10 19 5 -10.1 10.7
19 -9 5 0.4 10
-19 9 5 7.8 11.4
9 -19 -5 7.8 12.7
10 -19 5 0.5 9.5
-10 -9 -5 10 10.2
-9 -10 5 0.9 8.2
9 -19 5 4.1 9.9
10 -19 -5 10.1 12.7
9 10 -5 -3.4 9
19 -9 -5 5.6 15.8
-9 19 5 -6.5 10.7
-10 19 -5 0.5 8.1
-9 -10 -5 -1.8 9.4
19 -10 5 1.6 10.5
9 10 -5 2.1 21.4
-19 10 5 2.6 10.9
-8 -11 5 0.6 7.1
-11 19 5 2.5 11.3
-19 8 5 19.8 11
19 -11 -5 25 14.8
19 -8 5 32.9 10.6
11 8 -5 28.7 21.8
-11 -8 -5 32.3 10.5
8 -19 -5 33.6 12.8
11 -19 5 20.6 10.1
19 -8 -5 27.5 17.1
8 11 -5 15.2 12.3
8 11 -5 23.1 23.9
8 -19 5 19.1 10.1
-19 11 5 26 11.9
11 -19 -5 30.7 12.1
19 -11 5 26.2 10.8
-11 19 -5 5.3 8.6
-8 -11 -5 36.6 9.6
-12 19 5 -4.9 11.3
12 -19 5 24.8 10.3
-19 7 5 -0.4 9.9
19 -12 -5 11.9 13.9
7 -19 -5 13.6 11.9
-7 -12 5 13 8.3
19 -7 5 23.7 10.4
12 7 -5 8.1 20.5
-19 12 5 11.5 10.4
-12 19 -5 10.8 9.2
19 -7 -5 7.7 16
19 -12 5 9.1 10.3
7 12 -5 11.6 12.8
7 -19 5 4.2 9.6
12 -19 -5 21.3 12.8
-7 -12 -5 17.3 9.1
13 6 -5 19.6 20.6
6 -19 -5 6.4 12.2
13 -19 5 3.6 10
-6 -13 5 9.5 9.5
-6 19 -5 0.8 9.8
-13 19 5 -14.3 10.1
19 -6 5 3.4 10.1
19 -13 -5 8.8 13.1
19 -13 5 8.1 10.5
19 -6 -5 7.8 17.6
6 -19 5 6.2 9.2
-13 19 -5 7.9 8.9
6 13 -5 -10.2 13.5
-19 13 5 -2.8 9.9
13 -19 -5 11 12
-6 -13 -5 4.2 8.9
14 5 -5 6.7 19.6
19 -14 -5 6.3 12.6
-5 19 -5 9.9 10.9
5 -19 -5 15.4 11.9
-14 19 5 -10.1 14.9
14 -19 5 17.1 10.3
19 -5 5 23.8 10.2
-5 -14 5 20.5 10.1
5 -19 5 -1.3 9.2
19 -5 -5 13.7 17.7
14 -19 -5 15.3 11.9
-14 19 -5 -1.4 8.3
-5 -14 -5 11.8 9.1
5 14 -5 1.8 13.5
19 -14 5 12.4 10.5
-4 -15 5 4.8 9.9
15 4 -5 2.7 18.6
15 -19 5 2.5 10.1
4 -19 -5 4.8 12
-4 19 -5 3.1 10.8
19 -15 -5 11.9 12
19 -15 5 12.3 10.7
15 -19 -5 15 11.6
-4 -15 -5 2.4 8.6
4 -19 5 10.8 9.8
-15 19 -5 2.2 11.6
4 15 -5 -1.4 12.6
19 -4 -5 -8.3 16.9
16 3 -5 30.3 18.4
16 -19 5 56.29 11.4
19 -16 -5 55.19 12.9
3 -19 -5 80.79 14.8
-3 -16 5 41.7 11.1
-3 19 -5 77.19 13.8
3 16 -5 28.1 12.5
-3 -16 -5 36.5 9.3
16 -19 -5 46.1 11.1
19 -16 5 58.29 11.8
3 -19 5 40.5 10.8
19 -3 -5 8.4 16.8
17 2 -5 16.2 17.5
2 -19 -5 42.2 13
19 -17 -5 24.7 10.9
-2 -17 5 22.3 9.9
-2 19 -5 30.7 11
17 -19 5 24.2 10.2
2 -19 5 24.6 10.3
-2 -17 -5 33.5 11.1
19 -2 -5 9.5 15.7
2 17 -5 24.2 11.5
17 -19 -5 24.3 9.7
19 -17 5 20.6 10.7
-2 -17 -5 27.4 8.7
-1 -18 5 3.6 9.5
1 -19 -5 2.3 10
18 1 -5 16.7 17
19 -18 -5 5 8
-1 19 -5 14.7 10.8
18 -19 5 7 9.1
1 18 -5 6.7 10.6
19 -1 -5 2.8 14.3
18 -19 -5 -1.4 7
-1 -18 -5 -3.7 9.5
19 -18 5 -0.2 9.8
-1 -18 -5 -4.1 6.9
1 -19 5 -4.5 9.3
0 -19 -5 0.2 9.2
19 0 -5 11.2 14.2
19 -19 5 5.3 8.6
0 19 5 1.7 9.3
0 19 -5 6.9 10.2
0 -19 5 9 8.9
-10 -10 5 1.2 8.2
10 -20 -5 41.1 12.2
20 -10 5 37 10.8
20 -10 -5 32.3 15.2
-10 -10 -5 30.6 10.3
10 10 -5 11.4 19.9
10 -20 5 26.1 9.9
9 -20 -5 34.6 12.9
11 -20 5 29.2 10
11 9 -5 5.6 20.2
-20 9 5 -0.5 14.7
-11 -9 -5 31.3 10.2
20 -11 -5 25.3 14.3
20 -9 5 24.8 9.9
-9 -11 -5 15.5 9.6
20 -11 5 26.9 10.5
-20 11 5 0.5 10.6
9 11 -5 7.7 9.9
9 -20 5 17.5 9.7
20 -9 -5 28 15.7
9 11 -5 6.6 19.5
11 -20 -5 19.2 11.5
12 8 -5 -12.1 19.7
8 -20 -5 15.1 12
-8 -12 5 10.7 8.3
12 -20 5 10.9 9.6
20 -8 5 16.9 9.8
-12 20 5 -7.5 13.9
20 -12 -5 9.6 13.2
8 12 -5 30.5 19.9
20 -12 5 6.7 10
8 -20 5 10.9 9.1
12 -20 -5 4.2 11.5
-8 -12 -5 12.3 9.1
20 -8 -5 9.2 15.7
8 12 -5 5.7 11.9
13 -20 5 30.3 10.1
-7 -13 5 48.6 10
20 -7 5 40.7 10.6
7 -20 -5 41.4 12.2
20 -13 -5 29.8 13
13 7 -5 40 20.8
7 13 -5 15.5 12.2
13 -20 -5 38 12.2
7 -20 5 33.4 9.3
-7 -13 -5 23.6 9.2
20 -13 5 32.1 10.5
7 13 -5 6.8 18.1
20 -7 -5 30.1 15.3
-6 20 -5 1.9 8.7
14 6 -5 27.6 19.2
14 -20 5 9.6 9.7
20 -14 -5 4.5 11.4
6 -20 -5 3.2 11.6
-6 -14 5 7.8 9
20 -6 5 -1.9 9.4
6 14 5 -7.7 9.9
6 -20 5 -6.5 8.6
14 -20 -5 8.1 11
6 14 -5 5.9 12.1
20 -6 -5 5.7 15.4
-6 -14 -5 5.7 8.6
20 -14 5 0.3 9.7
15 5 -5 11 18
20 -15 -5 54.79 12.2
-5 20 -5 45.2 11.4
5 -20 -5 51.89 12.7
20 -5 5 39.6 10.4
-5 -15 5 44.6 10
15 -20 5 50.49 10.8
5 15 5 42.6 10.7
5 -20 5 41 9.9
20 -15 5 32.7 10.7
15 -20 -5 36 10.5
5 15 -5 30.2 12.4
-5 -15 -5 32.5 9.5
20 -5 -5 29.4 16.8
4 -20 -5 92.69 14
4 16 5 67.39 11
20 -16 -5 49.1 11.1
16 -20 5 67.49 10.9
16 4 -5 15.9 17.9
20 -4 5 53.09 10.5
-4 20 -5 55.89 11.3
-4 -16 5 55.89 10.3
16 -20 -5 51.49 10.3
4 16 -5 66.09 13.3
20 -16 5 68.99 11.3
-4 -16 -5 58.89 10.1
20 -4 -5 54.79 16.7
4 -20 5 40.8 10.3
17 -20 5 15.5 9.3
3 -20 -5 11.1 10.9
17 3 -5 6.6 16.1
20 -17 -5 1.4 7.6
-3 -17 5 16.1 8.7
-3 20 -5 5.2 9.7
3 17 5 -3.5 9.2
20 -3 -5 10.6 14.8
3 17 -5 14 10.8
3 -20 5 3.3 9.3
-3 -17 -5 13.7 8.1
20 -17 5 14.3 9.4
17 -20 -5 0.3 6.9
18 2 -5 1.3 15.2
2 18 5 36.6 9.6
-2 20 -5 37.5 9.9
2 -20 -5 17.3 9.2
18 -20 5 20.9 9
-2 -18 5 18.8 8.4
20 -2 -5 8.1 13.6
-2 20 5 22.5 9.7
2 18 -5 30.4 10.4
20 -18 5 22.5 9.5
-2 -18 -5 1.6 7.5
2 -20 5 28.2 9.2
19 -20 5 11.4 8
-1 20 -5 25 9.5
1 19 5 20.3 9
-1 -19 5 9.5 7.7
19 1 -5 -4.2 12.4
1 -20 -5 21.9 9.3
20 -19 5 14 8.1
1 19 -5 17.5 9.7
1 -20 5 14.3 8.4
-1 20 5 13.7 8.9
20 -1 -5 10 13.2
20 -20 5 -1.3 7.6
0 -20 5 5.7 6.9
20 0 -5 -0.7 12
0 20 5 2.7 8.3
0 20 -5 10.9 8.4
-10 -11 5 1.4 8.3
21 -10 5 37.6 10.4
21 -11 -5 31.6 13.4
-11 -10 -5 25.3 9.6
11 10 -5 25.5 20.1
10 -21 -5 29.8 10.9
11 -21 5 38.8 9.9
10 -21 5 45.5 10
-10 -11 -5 28.4 10.2
10 11 -5 3.9 18.8
11 -21 -5 39.1 11.5
21 -11 5 47.7 10.5
21 -10 -5 35.1 14.3
21 -12 -5 40 13.2
21 -9 5 60.69 10.7
12 -21 5 74.49 10.9
9 -21 -5 64.59 12.3
12 9 -5 15 20
21 -12 5 64.29 10.6
-9 -12 -5 59.99 10.7
12 -21 -5 49.4 11.2
9 12 -5 33.6 19.1
9 -21 5 45.3 9.4
9 12 -5 45.7 9.8
21 -9 -5 40.7 14.5
13 8 -5 3.6 18.9
21 -8 5 -2.3 8.8
21 -13 -5 2.5 11.3
8 -21 -5 15.5 11.2
-8 -13 5 0.1 7.1
13 -21 5 -8.3 8.3
8 13 -5 7.9 17.6
8 -21 5 -2.8 8
13 -21 -5 2.1 9.9
21 -8 -5 0.3 13.5
21 -13 5 -2.1 9.3
8 13 -5 10.9 10.9
-8 -13 -5 6.1 9.2
14 7 -5 6.1 18
-7 -14 5 7.3 8.1
14 -21 5 20.1 9
21 -14 -5 11.7 10.5
21 -7 5 4.8 8.6
7 -21 -5 16.6 10.7
-7 -14 -5 5.2 8.7
7 -21 5 5.7 8.3
7 14 -5 -2 10.2
21 -7 -5 6.6 13.4
21 -14 5 12.8 9.3
14 -21 -5 1 9.3
7 14 -5 -3.4 16.2
-6 -15 5 18.6 8.5
-6 21 -5 -1 7.1
15 6 -5 16.7 17.2
15 -21 5 17.9 9
6 15 5 9.5 8.2
6 -21 -5 14.7 10.9
21 -6 5 5.3 8.3
21 -15 -5 16.4 9.5
21 -6 -5 19 13.3
15 -21 -5 14.6 8.5
21 -15 5 14 9.5
-6 -15 -5 8.9 8.5
6 15 -5 10.7 10.4
6 -21 5 14.6 8.9
16 -21 5 9.5 8.3
-5 21 -5 6.5 8.7
5 -21 -5 0.2 10
5 16 5 -6.1 8.7
16 5 -5 24.7 16.3
21 -5 5 3.2 8.1
-5 -16 5 2.4 7.8
21 -16 -5 -1.1 7.7
5 -21 5 -5 8.8
5 16 -5 8.2 9.9
-5 -16 -5 0 7.8
21 -5 -5 0 12.3
16 -21 -5 0.2 6.8
21 -16 5 9.7 9.2
21 -4 5 13.9 7.9
17 -21 5 29.3 8.6
17 4 -5 -2 14.7
-4 21 -5 24.9 9.2
4 17 5 19.5 9.1
4 -21 -5 29.4 10.8
-4 -17 5 18.2 7.8
-4 21 5 16.1 8.2
-4 -17 -5 5.9 7.2
21 -4 -5 -1.2 11.4
4 -21 5 10.4 8.6
4 17 -5 13.5 9.4
21 -17 5 19 8.9
-3 21 -5 18.2 9.2
3 18 5 7.6 8.1
18 -21 5 8.5 7.9
21 -3 5 5.6 7.3
3 -21 -5 10.7 8.4
-3 -18 5 5.5 6.5
18 3 -5 -6.6 14.1
21 -3 -5 -7.7 12
3 18 -5 -0.1 8.9
21 -18 5 7.7 8.3
3 -21 5 -1.1 7.8
-3 21 5 12.8 8.7
2 19 5 5.5 8.2
19 2 -5 -3.2 13
-2 -19 5 0 5.3
21 -2 5 3.2 7
-2 21 -5 5.4 9.2
19 -21 5 9.7 7.5
2 -21 5 -4.6 7.1
21 -19 5 0.7 7.6
2 19 -5 5.8 8.9
21 -2 -5 -1.3 11.6
-2 21 5 1.8 8.7
20 1 -5 -0.6 12.9
20 -21 5 4.8 7.9
21 -1 5 -1.1 7.1
-1 21 -5 11 8.5
1 20 5 7.1 8.6
1 20 -5 12.3 9.6
21 -20 5 3.1 7.9
21 -1 -5 -2.1 11.6
-1 21 5 12.2 9.1
1 -21 5 3.3 5.7
21 0 -5 -8.8 13.6
0 21 -5 -4.4 9.9
0 21 5 -0.1 9.3
11 11 -5 16 16.8
22 -11 5 63.89 9.9
11 -22 -5 51.69 10.6
11 -22 5 58.09 9.4
22 -11 -5 43.7 11.5
12 10 -5 -7.7 17.6
22 -12 -5 2.9 10.2
22 -10 5 1.1 8.1
12 -22 5 3.1 8
10 -22 -5 -0.1 9.8
10 -22 5 6.1 7.5
10 12 -5 -1.3 16.6
-10 -12 -5 6.5 8.6
22 -10 -5 3.5 11.2
12 -22 -5 10.2 9.4
22 -12 5 2.6 8.5
9 -22 -5 12 10
22 -13 -5 8.4 9.1
13 -22 5 14.8 8.2
22 -9 5 10.6 8.5
13 9 -5 3.9 17.4
22 -9 -5 0.6 11.1
9 13 -5 1.3 15.6
22 -13 5 12.7 8.5
13 -22 -5 4.4 8.4
-9 -13 -5 13.2 9.1
9 13 -5 -2.2 11.5
9 -22 5 12.6 7.6
14 8 -5 -2.6 17.3
22 -14 -5 3.7 7.4
14 -22 5 14 8.1
22 -8 5 8.4 8.1
8 -22 -5 13.6 10.1
22 -8 -5 5 11.5
-8 22 5 10.2 6.9
8 -22 5 16.4 8.1
22 -14 5 14.7 8.2
-8 -14 -5 9.5 9.2
14 -22 -5 0.9 6.6
8 14 -5 13.2 9.2
15 7 -5 -0.7 16.1
7 -22 -5 2.4 9.6
22 -7 5 -7.3 7.2
15 -22 5 8.7 7.5
-7 -15 5 2.4 10.8
-7 22 5 4.3 8
22 -7 -5 1.4 11
7 -22 5 5 8.2
22 -15 5 3.1 8.4
7 15 -5 9.4 9.1
-7 -15 -5 13.7 8.5
22 -6 5 13.9 7.5
6 -22 -5 24.9 10.1
16 -22 5 14.2 7.7
16 6 -5 -5.4 15.1
6 -22 5 11.1 8
22 -6 -5 9.1 11
6 16 -5 18.1 8.7
-6 22 5 24.5 8.6
-6 -16 -5 2 7.1
22 -16 5 19.5 8.4
-5 22 -5 -0.5 5.2
22 -5 5 9.1 7
5 -22 -5 6.5 9.1
17 -22 5 5.6 7.5
5 17 5 -0.8 6.2
17 5 -5 -13 14.7
5 -22 5 7.5 7.8
-5 22 5 15.8 8.7
22 -17 5 1.2 7.7
5 17 -5 7.1 9
22 -5 -5 2.7 10.3
22 -4 5 -4 6.8
4 18 5 4.9 7.2
4 -22 -5 -1 8
18 -22 5 5.4 7.5
18 4 -5 -4 14.9
-4 22 -5 -1.1 7.4
4 18 -5 9.2 8.9
22 -18 5 -2.6 8.2
4 -22 5 1.4 7.3
-4 22 5 6 9
22 -4 -5 1.4 10
19 -22 5 17.5 8
-3 22 -5 18.6 9.1
22 -3 5 8.7 7.6
3 19 5 10 8
19 3 -5 -6.2 14
22 -19 5 2.5 7.8
3 -22 5 2.5 5.4
3 19 -5 7.7 9.6
22 -3 -5 -5.2 11.2
-3 22 5 -2.7 8.9
12 11 -5 5.8 16.7
23 -12 -5 1 11.9
11 -23 -5 -0.6 6.2
23 -11 5 19.1 7.7
12 -23 5 16.8 7.1
23 -11 -5 3 6.8
11 -23 5 18.3 7.3
23 -12 5 21.7 7.4
11 12 -5 5.6 15.9
12 -23 -5 0.6 11
23 -10 5 18.5 7.8
13 -23 5 12.1 7.5
10 -23 -5 8 7.6
13 10 -5 -10.3 17.2
10 -23 5 17.7 7.2
10 13 -5 0 10.2
23 -10 -5 3.6 7.7
23 -13 5 23.9 7.9
14 -23 5 6.1 7.5
14 9 -5 17.9 17.2
9 -23 -5 17 8.5
23 -9 5 8.6 7.4
23 -14 5 8.2 7.7
-9 -14 -5 6.3 7.3
9 -23 5 -2.8 7.4
23 -9 -5 12.1 8.7
8 -23 -5 19.8 8.5
23 -8 5 10.7 7.5
15 -23 5 21.5 7.8
15 8 -5 5.2 16.3
23 -8 -5 8.2 8.4
8 -23 5 11.4 7.6
-8 -15 -5 2.7 8.1
23 -15 5 18.3 8
16 -23 5 8.2 8
16 7 -5 -0.4 16.3
7 -23 -5 3.2 8
23 -7 5 1.6 7.7
-7 23 5 -3.3 4.4
7 16 -5 1.5 6.5
7 -23 5 3.6 7.5
23 -7 -5 0.7 8.3
23 -16 5 0.2 8
17 -23 5 9.6 8.3
6 -23 -5 1.2 6.9
17 6 -5 4 16.8
23 -6 5 0.9 8
23 -6 -5 -0.6 8.1
6 17 -5 5.4 7.8
23 -17 5 8.5 8.5
-6 23 5 -1.3 6.9
6 -23 5 2.9 7.2
18 5 -5 15 15.3
5 -23 -5 0.7 6
5 18 -5 8.4 8.5
23 -5 -5 -0.3 6.1
-5 23 5 7 8.4
24 -12 5 16.5 8.8
12 -24 5 13.3 7.9
24 -11 5 3.6 8.2
13 11 -5 -3.2 12.9
13 -24 5 5.8 7.8
24 -13 5 8.5 9.1
11 -24 5 9.1 8
14 -24 5 8.4 7.8
14 10 -5 11 16.8
24 -10 5 14.8 8.5
10 -24 5 12.7 8.3
24 -14 5 19.9 8.9
15 9 -5 16.4 18
0 0 6 3659.23 179.58
0 0 -6 3232.28 179.88
0 0 -6 3838.02 182.88
1 0 6 330.67 20.9
1 -1 6 330.77 20.9
1 -1 -6 375.36 23.2
0 1 6 347.37 21.2
0 -1 6 343.07 21.1
0 -1 -6 369.56 24.8
1 0 -6 359.76 22.2
-1 0 -6 365.66 25.3
1 0 -6 371.46 26
-1 1 -6 341.47 21.4
0 1 -6 362.66 25.5
0 -1 -6 347.87 22.9
-1 1 6 360.36 21.3
-1 1 -6 371.26 25.8
0 1 -6 317.87 21.8
-1 0 6 350.46 21.2
1 -1 -6 399.26 25.4
2 -1 -6 255.67 18
-2 1 -6 268.27 22
-2 1 6 271.97 17.5
-1 2 6 267.17 17.8
1 -2 -6 233.28 19.3
1 1 -6 286.17 22.4
-2 1 -6 264.07 17.6
-1 2 -6 260.27 17.9
-1 -1 -6 238.68 18.3
2 -1 6 275.17 23.7
-1 -1 6 259.37 17.6
1 1 6 253.57 16.7
2 -1 -6 267.17 21.3
1 -2 6 256.67 16.7
-1 2 -6 210.58 17.7
1 -2 -6 258.07 18.5
2 -1 -6 285.07 21.6
-1 2 -6 288.57 22.8
1 1 -6 256.37 18.7
2 0 -6 180.58 16
-2 2 -6 197.08 15.3
0 2 -6 186.58 16.4
0 -2 6 167.88 14.2
2 0 -6 209.38 20
2 -2 -6 201.98 19.7
0 -2 -6 190.38 17
2 -2 -6 188.78 15.6
-2 0 -6 190.88 14.5
2 -2 -6 174.08 16.9
2 0 -6 215.38 19.7
-2 2 -6 221.78 20.2
-2 2 6 173.98 14.7
2 -2 6 228.98 22.9
0 2 6 186.78 14.1
-2 0 6 174.78 15.7
0 2 -6 209.18 20
1 -3 -6 10.7 9.3
3 -2 -6 11.3 9.8
-3 2 -6 16.6 10.7
-1 3 -6 8.8 6.2
3 -2 -6 16.9 10.4
-1 -2 6 7.5 5.3
-1 3 -6 3.9 9.1
-2 -1 -6 0.8 5.9
-3 2 -6 16.8 7.1
-3 1 6 10 6.7
3 -1 6 15.6 10.9
2 -3 6 10 11.2
2 1 -6 9.6 10.1
2 1 -6 10.8 11.7
3 -2 -6 14.1 9.4
2 1 -6 15.6 9.6
1 2 6 2.7 5.6
-2 3 6 9.4 6.3
-1 3 -6 2.4 5.3
-1 3 -6 9.1 12.1
-1 -2 -6 32.8 10.1
-2 3 -6 26.3 12
2 -3 -6 26.6 8.4
3 -1 -6 26.8 10.7
1 2 -6 32.7 10.3
-3 2 6 26.3 7.2
-2 -1 6 20 7.2
3 -2 6 20.5 11.4
3 -1 -6 35.1 12.2
-2 3 -6 24.8 6.5
2 -3 -6 34 10.8
-3 1 -6 28.7 7.6
2 1 6 17.9 10.9
1 2 -6 31.9 12.2
3 -1 -6 28.1 9.2
2 -3 -6 15.8 10.2
-1 3 6 22.1 6.4
-3 3 -6 814.72 43.1
0 3 -6 779.02 46.6
3 0 6 842.82 49.5
3 -3 6 837.02 48.8
3 0 -6 730.33 42.9
-3 3 -6 796.52 47.4
0 3 6 755.52 42.1
3 -3 -6 802.92 46.7
-3 0 6 775.32 42.8
3 -3 -6 820.82 44.1
-3 0 -6 781.62 42.9
3 0 -6 778.52 46.4
0 -3 -6 797.42 44.1
0 3 -6 754.92 43.5
-3 3 6 789.92 43.2
3 0 -6 837.92 46.8
-4 2 -6 23.8 7.3
-2 -2 6 10.2 5.7
-2 4 -6 24.7 7.1
-2 4 -6 26.8 13.2
2 -4 -6 25.3 10.5
2 2 -6 26.9 9.9
2 2 6 20.7 8.9
2 2 -6 33.3 13.3
2 2 6 6.7 4.9
2 -4 -6 34.8 11.3
2 2 6 14.1 6
2 -4 6 19 11.5
-4 2 6 28.6 8.8
-2 4 -6 29.8 9.1
4 -2 -6 19.2 8.5
4 -2 6 15 11.9
2 2 6 20.6 12
2 2 -6 25.7 9.9
-2 4 6 14 7.2
4 -2 -6 16.4 10.5
-2 -2 -6 21.1 9.2
-2 4 -6 0.9 7
4 -2 -6 17.9 10.9
-3 4 6 93.49 13.8
4 -1 6 89.29 15.8
-1 4 -6 87.49 13.5
-1 4 -6 77.09 10.9
1 -4 -6 89.39 14.5
1 3 6 67.49 10.4
-1 4 -6 98.39 16.5
3 1 -6 86.79 15.6
4 -3 -6 52.49 11.5
4 -3 -6 101.09 17.4
3 1 -6 85.89 13.4
1 3 6 87.69 12.3
-4 3 -6 108.59 17.9
-4 3 -6 85.39 11.1
3 -4 6 88.39 16.1
3 1 -6 87.49 16.3
-4 1 6 99.19 12.8
4 -3 -6 84.59 13.4
-1 4 6 92.59 11.8
1 3 -6 93.69 12.4
4 -3 6 83.09 15.5
-4 1 -6 103.39 12.6
1 3 -6 130.59 18.6
-3 4 -6 96.19 12.8
4 -1 -6 107.69 13.4
4 -1 -6 98.19 17.5
3 -4 -6 112.59 17.5
-3 -1 6 102.99 13.6
3 -4 -6 97.99 13.2
4 -1 -6 108.89 16.6
-1 -3 -6 97.19 14.5
-4 3 6 111.89 14.8
-3 4 -6 102.19 17.9
3 1 6 107.99 20.1
-4 4 -6 14.8 8.7
4 -4 -6 24.1 11.3
0 4 -6 21.3 9.4
4 -4 -6 26.7 9.7
-4 4 -6 21.9 7.6
4 0 -6 24.7 8.9
-4 0 6 17.8 7.7
0 4 6 2.8 5.9
0 4 -6 15.2 13.3
4 0 6 14.6 11.3
-4 0 -6 14.7 6.4
-4 4 6 32.4 9.2
4 -4 6 17.9 11.9
0 4 6 8.4 5
0 4 -6 2.4 7.7
-4 4 -6 10.4 11.8
4 0 -6 18.1 10.6
4 0 -6 27.6 13.2
0 -4 -6 23.2 10
-2 5 -6 142.09 18.9
-5 2 6 136.29 14.6
-3 5 6 128.49 14.4
-2 5 -6 109.69 11.7
2 -5 -6 121.39 17.1
-5 3 -6 121.79 13.6
2 3 6 114.59 14.5
-2 5 -6 127.39 14.7
5 -2 6 113.99 17.9
3 2 -6 116.59 13
2 3 6 104.89 11.6
2 -5 -6 126.19 14.6
3 2 -6 118.19 17.6
2 3 6 113.39 18.9
3 2 -6 95.99 16.5
5 -3 -6 105.59 15.9
5 -3 -6 110.69 14.2
3 -5 6 129.39 19.1
-3 5 6 116.79 12.3
2 3 -6 105.69 17
-5 3 6 115.49 14
5 -3 6 106.69 19.2
3 -5 -6 119.79 17.9
2 3 -6 98.09 12.8
3 2 6 97.19 14.5
3 -5 -6 118.09 15.4
3 2 6 101.79 19.2
-3 5 -6 123.29 18.8
2 3 -6 105.99 16.1
5 -2 -6 76.09 14.2
-2 5 6 81.29 11.9
-5 2 -6 104.49 12.5
5 -2 -6 86.09 11.9
5 -2 -6 86.29 15.6
-3 5 -6 101.19 12.9
2 -5 6 101.49 18.9
-5 4 -6 142.19 14.4
4 1 -6 142.09 19.4
5 -4 -6 139.49 15.5
-4 5 6 155.08 14.5
1 4 6 112.49 19.1
5 -4 -6 129.19 18.7
-1 5 -6 133.49 17.8
5 -1 6 129.29 20.4
-1 5 -6 113.99 12.2
4 1 -6 129.09 13.9
-1 5 -6 141.59 15.6
-5 1 6 150.38 15.1
4 1 -6 145.19 18.5
-4 5 6 151.48 14.4
4 -5 6 130.49 20.3
1 -5 -6 146.49 16.4
4 -5 -6 138.99 16.6
1 -5 6 152.68 19.6
1 4 -6 140.19 14.5
5 -1 -6 139.39 18.3
5 -1 -6 138.39 18.6
5 -1 -6 122.29 14.5
4 1 6 123.49 16.7
5 -4 6 139.69 20.7
-5 4 6 169.28 16.8
4 1 6 133.39 20
1 4 -6 123.09 18.3
-4 5 -6 134.19 20
-4 5 -6 134.19 14.4
-5 1 -6 134.19 13.9
4 -5 -6 143.19 19.6
-4 -1 6 147.69 14
5 -5 -6 306.67 25.3
-5 0 6 341.77 22.5
-5 5 -6 310.77 27.3
5 -5 6 269.17 27.1
5 0 6 264.27 23.7
5 0 -6 311.57 25.6
5 0 -6 311.67 20.8
-5 5 6 319.77 21
5 0 -6 310.67 25.7
0 5 -6 304.57 27.2
-5 5 6 348.87 22.9
5 -5 -6 328.97 21.6
0 5 -6 331.67 22.6
5 0 6 304.27 27.7
-5 5 -6 298.97 21.3
3 -6 -6 42.7 12.6
6 -3 -6 -1.1 10.2
-6 3 6 52.99 9.8
-3 6 -6 34.6 10.1
-6 3 -6 36.7 7.9
-3 6 -6 19.5 13.1
6 -3 -6 29.2 9.6
3 3 -6 44.7 10.2
3 3 -6 20.1 12.9
3 3 6 24.1 11.7
3 -6 6 29.5 11.8
3 3 6 17 10.2
6 -3 6 16.5 10.9
6 -3 -6 31.6 12.7
-3 6 6 42.7 8.6
-3 6 6 28.6 7.6
3 -6 -6 28.7 11.3
3 3 6 6.4 8
-3 6 -6 27.8 7.7
3 3 -6 26 10.8
-6 4 -6 78.59 10
4 2 -6 76.09 16.4
4 2 -6 71.39 11.8
6 -2 6 65.69 15.3
-2 6 -6 53.39 10.8
-2 6 -6 76.09 11.5
4 2 -6 58.29 12.9
6 -4 -6 62.99 14.7
-6 2 6 109.49 16.8
-2 6 -6 93.09 17.2
-4 6 6 84.09 12.4
6 -2 6 54.19 13
4 -6 6 55.49 13.1
6 -4 -6 65.29 11.4
2 4 6 66.69 14
-4 6 6 78.89 11.7
6 -2 -6 32.9 12.8
-4 6 -6 46.9 15.8
2 -6 6 30.2 11.4
-4 6 -6 1.4 9.5
-6 2 -6 37.9 7.9
6 -2 -6 13.7 11.6
6 -4 6 28.7 12.4
2 4 -6 39.2 10.9
-4 6 -6 27.8 7
2 4 -6 29.1 13.5
4 2 6 22.2 12.1
-2 6 6 32.3 7.6
4 -6 -6 42.3 12.3
4 2 6 23.1 11.5
4 -6 -6 28.1 12.1
-4 -2 6 20.2 6.8
6 -2 -6 38 10.8
-6 4 6 55.49 9.9
6 -1 6 60.89 14.5
-6 5 -6 71.59 11.4
6 -1 6 70.79 15.3
6 -5 -6 60.89 14.6
-5 6 6 63.69 9.7
-1 6 -6 93.29 13.1
-1 6 -6 40.7 7.2
-5 6 6 72.79 9.7
-1 6 -6 76.69 15.7
1 5 6 52.79 12.8
5 1 -6 58.59 15.1
5 1 -6 45.9 12.5
6 -5 -6 78.19 12.1
5 1 -6 84.29 12.4
5 -6 6 54.89 13.9
6 -5 6 62.29 14.4
6 -1 -6 70.99 15.8
5 -6 -6 60.89 13.6
5 1 6 53.99 13.4
-6 5 6 117.39 17.1
6 -1 -6 72.19 14.5
5 1 6 77.29 15.6
6 -1 -6 92.69 12.5
-5 6 -6 67.69 11.1
1 5 -6 79.19 12.7
5 -6 -6 91.99 14.9
-6 5 6 71.59 11.9
-6 1 -6 88.49 12.3
1 5 -6 64.09 15.7
-5 -1 6 99.19 14.8
-1 6 6 87.09 13
-5 6 -6 85.39 16.4
-6 6 -6 0.7 12.2
6 0 6 -5.5 10.7
6 -6 -6 -0.5 10.2
6 0 -6 -1 9.5
6 -6 -6 -10.6 10.6
6 0 6 5.3 11
6 0 -6 1.9 13.3
-6 0 6 19.1 9.1
6 0 -6 8 10.9
6 -6 6 1.1 11.7
-6 6 -6 2.1 7.2
0 6 6 1.9 7.1
-6 6 6 14.9 8.7
6 0 6 -3.8 12.5
0 6 -6 -0.7 14.5
-6 6 6 8 8.1
0 6 -6 4.7 9.1
-4 7 6 119.49 14.4
-3 7 -6 143.89 20.8
-7 4 -6 151.78 13.8
7 -4 -6 111.19 13.8
-7 3 6 146.79 17
4 3 -6 123.19 19
-3 7 -6 128.49 12.9
7 -3 6 145.49 20.4
-3 7 -6 141.69 15.3
7 -4 -6 140.89 22.2
7 -3 6 140.79 21.7
4 3 -6 129.79 15.7
-4 7 6 147.09 14.3
7 -3 -6 104.49 13.3
-4 7 -6 127.09 14
-7 4 6 158.48 18.8
-3 7 6 149.29 14.9
4 3 6 94.49 18
3 4 -6 99.89 15
-4 7 -6 128.09 20.8
3 4 -6 122.69 20.7
7 -3 -6 121.29 21.3
7 -4 6 126.59 19.2
-7 3 -6 138.99 13.8
-2 7 -6 3 6.5
5 2 -6 1.6 13.7
5 2 -6 1.9 9.4
7 -2 6 5.1 13.8
-2 7 -6 -1.3 10.1
-5 7 6 11.1 8.6
-7 5 -6 2.9 7.4
5 -7 6 -1.2 10.3
7 -5 -6 -5.6 11.9
7 -5 -6 0 8.9
7 -2 6 6.7 10.6
5 2 -6 -2.1 9.3
2 5 6 3.9 10.7
-2 7 -6 -0.1 14.4
-5 7 6 16.8 8.8
-7 5 -6 0.5 11
-7 2 6 24.5 10.8
-5 7 -6 3.5 14.1
5 2 6 3.5 11.5
2 5 -6 8.1 14.4
7 -2 -6 8.5 9
-5 -2 6 -5.3 6.8
2 5 -6 9.3 10.3
7 -2 -6 5.4 10.6
5 2 6 7.1 10.9
-7 5 6 16.2 9.2
7 -2 -6 0.2 12.2
-2 7 6 14 7.6
-7 2 -6 8.7 6.6
7 -5 6 7.5 11.9
5 -7 -6 8 10.9
-5 7 -6 8.3 6.5
7 -1 6 305.87 29.2
1 6 6 354.66 23.1
-7 1 6 351.16 25.4
-6 7 6 385.26 26
-1 7 -6 326.07 28.1
-6 7 6 385.06 25
7 -6 -6 372.96 31.3
-1 7 -6 376.06 25.4
6 1 -6 370.56 24.4
7 -6 -6 361.76 24.2
7 -1 6 332.87 31.2
-7 6 -6 386.06 24.2
1 6 -6 352.86 28.4
-6 7 -6 342.37 28.1
-1 7 6 321.17 21.6
-6 7 -6 374.06 23.2
1 6 -6 369.76 23.6
7 -1 -6 297.07 26.8
6 1 6 283.17 28.3
6 -7 -6 384.56 24.5
-7 6 6 329.07 23.2
-6 -1 6 334.87 24.5
7 -1 -6 349.96 22.9
7 -6 6 296.87 29.2
-7 1 -6 348.27 22
-7 6 6 339.97 24.4
7 0 6 156.58 21.6
8 -4 6 140.69 22.2
-8 4 -6 197.68 16.1
-4 8 6 205.68 17.7
-8 4 6 161.48 19.2
8 -4 6 191.68 23
-4 8 -6 166.88 22.6
4 4 -6 170.38 22.7
8 -4 -6 173.38 24.3
-4 8 -6 183.38 16.7
-4 8 -6 185.08 16.4
4 4 -6 173.48 17.2
8 -3 6 149.49 20.4
-5 8 6 202.58 17.9
-3 8 -6 163.98 17.2
-5 8 6 129.59 15.7
8 -3 6 135.79 21.9
-3 8 -6 180.08 15.5
5 3 -6 167.98 16.6
5 3 -6 114.89 19.3
8 -5 -6 154.88 24.1
-3 8 -6 135.29 19
-8 5 -6 184.98 15.2
-8 3 6 163.88 20.6
-8 5 6 169.28 18.8
3 5 -6 163.68 16.8
8 -3 -6 163.68 23.5
-8 3 -6 187.18 15.5
-5 8 -6 159.68 16
3 5 -6 158.88 20.9
-3 8 6 206.08 17.2
8 -5 6 132.59 23.2
-5 8 -6 137.19 21.8
-6 8 6 30.5 9.9
6 2 -6 -0.9 12.9
8 -2 6 17.6 15
8 -2 6 4.8 13.3
-8 6 -6 24.2 8
6 2 -6 32.3 9.8
-6 8 6 27 9.8
-8 2 6 28.4 11.4
8 -6 -6 16.1 8.7
2 6 6 26.8 8.1
-2 8 -6 10 13.8
8 -6 -6 3.5 12.8
-2 8 -6 16.4 6.8
-2 8 -6 35.5 12.1
8 -6 6 -0.8 12
-2 8 6 24.5 8.5
-6 8 -6 13.6 7.5
8 -2 -6 -0.4 10.5
-6 8 -6 3.2 12.6
-8 2 -6 17.7 7.2
2 6 -6 19.2 14
-8 6 6 24 10.9
2 6 -6 28.6 11.4
-8 6 6 0.2 6
8 -2 -6 10.3 8.3
-8 1 6 160.68 18.8
-8 7 -6 218.48 17.8
7 1 -6 212.58 17.8
-1 8 -6 220.28 19.3
-7 8 6 195.98 19
1 7 6 193.28 16.4
8 -7 -6 168.68 16.8
-7 8 6 164.28 20.7
-7 -1 6 132.59 18.6
8 -1 -6 188.08 16.1
-7 8 -6 190.98 17
-8 7 6 140.89 16.6
-1 8 6 182.18 16.4
1 7 -6 170.18 18.2
-8 7 6 132.29 20
0 8 6 132.99 15.3
-8 8 -6 145.19 16
0 8 -6 141.29 17.7
-8 8 6 105.09 14.3
8 0 -6 132.39 15.1
-8 8 6 137.99 16.8
-8 0 6 125.69 17.7
-9 5 -6 22.2 8.4
9 -4 6 2.8 14.5
-9 4 6 28.2 9.9
9 -4 6 -3.4 11.9
5 4 -6 39 11.3
-5 9 6 27.8 8.9
-4 9 -6 20.8 8.5
5 4 -6 -2.1 15.5
-4 9 -6 29.8 11
9 -5 -6 4.6 13.6
-4 9 6 59.59 10.8
4 5 -6 59.29 12.4
9 -5 6 5.5 15
-9 5 6 47.5 11
-5 9 -6 37 8.5
-9 4 -6 45.1 8.6
-6 9 6 20.3 9.5
-9 6 -6 52.49 9.7
-3 9 -6 47.1 12.1
-9 3 6 50.09 10.8
-6 9 6 46.5 10
3 6 6 41.9 8.4
-3 9 -6 32.4 8.6
6 3 -6 76.19 13.1
9 -6 -6 8.7 20.6
3 6 -6 33.9 11.3
-9 3 -6 13.9 7
-6 9 -6 24 7.8
-9 6 6 31.8 10.8
9 -6 6 2.8 13.6
3 6 -6 -1.2 16.4
-3 9 6 35.5 9.3
-9 2 6 284.87 22.8
7 2 -6 294.07 22.1
-7 9 6 299.57 23.4
-2 9 -6 267.67 20.8
-9 7 -6 332.77 22.5
2 7 6 287.87 20.7
-2 9 -6 315.07 23.8
-7 9 -6 316.67 22.3
2 7 -6 300.47 23.1
-2 9 6 260.47 21.9
-9 7 6 260.37 22.4
-8 9 6 3.3 10
-9 8 -6 5.8 7.4
8 1 -6 7.9 10.3
-9 1 6 11.9 9.1
1 8 6 4.9 8.1
-1 9 -6 13.7 12.3
-8 9 6 9.4 9.5
1 8 -6 8.4 11.6
-1 9 6 13 9.1
9 -1 -6 -1.7 7.6
-8 9 -6 10.8 8.4
-9 8 6 5.4 10
-8 -1 6 8.6 9
-9 8 6 9 8.4
0 9 6 184.18 19.4
-9 9 -6 235.78 19.8
0 9 -6 221.08 21
-9 9 6 205.98 18.9
-9 0 6 186.68 19.9
-9 9 6 230.18 21
-10 5 -6 389.96 27.2
5 5 -6 437.06 28.6
-10 5 6 504.05 30.7
-5 10 6 419.06 29.1
-5 10 -6 426.36 27.7
-4 10 -6 131.79 16.4
-10 4 6 156.58 18.7
-10 6 -6 144.99 16.6
6 4 -6 131.29 16.3
-4 10 -6 134.39 16.1
-6 10 6 125.89 17.6
-4 10 6 152.88 18.3
-10 6 6 200.48 20.4
-10 4 -6 156.08 15.5
4 6 -6 175.78 18.3
-6 10 -6 161.68 17.6
3 7 6 -3.9 7.1
-7 10 6 -7.3 7.3
-3 10 -6 6.1 11.8
7 3 -6 -2.8 10.6
-10 7 -6 14.5 9.1
-3 10 -6 -5.2 7.9
-7 10 6 -1.2 9.4
-10 3 6 5.6 9
-10 3 -6 6.8 6.6
3 7 -6 4.2 11.6
-7 10 -6 6.7 8.1
-3 10 6 6.7 9
-10 7 6 9.3 9.7
-8 10 6 289.27 23.1
-2 10 -6 304.17 24.2
8 2 -6 264.17 21.7
-10 8 -6 311.97 21.9
-8 10 6 320.57 23.2
2 8 6 260.07 22
-10 2 6 301.97 24.4
-2 10 6 262.17 23.1
-8 10 -6 334.77 23.9
-10 8 6 320.77 24.8
2 8 -6 322.67 25.1
9 1 -6 39.3 11.1
1 9 6 34.1 10.2
-9 10 6 53.99 11.2
-10 1 6 30.8 11.1
-1 10 -6 59.19 15.3
-10 9 -6 35.5 10.1
-9 10 6 38.7 11.1
-10 9 6 18.5 9.3
-9 -1 6 11.2 9.4
-10 9 6 36.2 11.3
-1 10 6 26.4 10.1
1 9 -6 34.6 13.5
-9 10 -6 37.4 10
0 10 6 70.99 12
-10 10 -6 114.09 16.3
0 10 -6 125.49 19.1
-10 10 6 108.19 18.2
-10 10 6 78.69 11.5
-10 0 6 65.69 11.9
-5 11 -6 22.2 9.9
-11 5 6 27.7 10.7
-11 6 -6 22.8 8.6
-5 11 -6 27.5 11.1
6 5 -6 42.3 12.5
-6 11 6 30.6 10
-11 5 -6 44.5 9
-5 11 6 71.49 12.1
-11 6 6 38.6 10.9
5 6 -6 79.49 14.4
-6 11 -6 51.29 10.3
7 4 -6 198.48 19.2
-4 11 -6 198.08 19.1
-11 4 6 199.08 19.4
-11 7 -6 196.98 19
-7 11 6 215.98 20.1
-4 11 -6 162.48 18.7
4 7 -6 241.58 21.8
-7 11 -6 243.18 21
-11 7 6 251.47 22.7
-4 11 6 225.08 21.3
-11 8 -6 150.48 17.9
-3 11 -6 131.79 18.5
-3 11 -6 127.79 16.3
8 3 -6 122.59 16.4
-11 3 6 116.99 18.5
-8 11 6 153.98 17.9
-8 11 -6 122.49 17
3 8 -6 123.29 18.4
-3 11 6 111.09 15.5
-11 8 6 112.39 18.2
-2 11 -6 28.8 14.1
-2 11 -6 0.8 6.3
-11 9 -6 19.7 9.8
-11 2 6 14.2 10.3
-9 11 6 21.1 10.6
2 9 6 -0.1 9.2
9 2 -6 21 10.8
-9 11 6 1.1 9.7
-11 9 6 8.2 10.1
2 9 -6 15.1 13
-2 11 6 10 9.2
-9 11 -6 11.9 9
1 10 6 91.39 16.2
-10 11 6 54.19 11.5
-11 10 -6 46.5 10.2
-11 1 6 27.1 10.6
-1 11 -6 51.89 14.8
1 10 6 50.69 11.3
-10 11 6 30.4 10.8
-11 10 6 42.1 11.4
-10 11 -6 72.89 12.1
-11 10 6 36.2 9.9
-1 11 6 56.09 12
0 11 6 60.79 15.4
0 11 6 43.4 11.2
-11 11 6 29.5 10.2
-11 11 6 25.3 11
0 11 -6 50.29 15.8
-11 0 6 11.3 10.5
-11 11 -6 36.7 10.5
-12 6 -6 238.48 21
-6 12 -6 293.67 23.6
6 6 -6 267.57 22.7
-12 6 6 276.87 24.9
-6 12 6 298.67 23.2
5 7 6 251.47 23
-12 5 6 271.67 22.1
-5 12 -6 247.48 21.9
-5 12 -6 180.58 19.8
7 5 -6 252.27 21.4
-7 12 6 247.58 21.9
-12 7 -6 209.58 21.2
-12 7 6 298.97 25.6
5 7 -6 291.97 24.4
-5 12 6 290.87 23.7
-7 12 -6 290.17 24.3
-8 12 6 146.29 18.9
-4 12 -6 133.39 17.8
8 4 -6 149.39 18.4
4 8 6 157.68 19.9
-12 8 -6 170.88 18
-4 12 -6 134.79 19
-12 4 6 126.79 20.1
-12 8 6 149.49 19.6
-4 12 6 179.78 19.5
4 8 -6 173.68 20.6
-8 12 -6 175.18 19.6
3 9 6 125.59 17.9
9 3 -6 86.39 14.5
-12 9 -6 114.29 17.1
-12 3 6 76.49 13.2
-9 12 6 78.59 12.2
-3 12 -6 90.19 16.3
-3 12 -6 49.5 10.3
-12 9 6 96.59 14.6
3 9 -6 132.89 19.9
-3 12 6 121.49 17.8
-9 12 -6 123.89 17.9
-12 2 6 -5.7 9.6
2 10 6 5.8 7.9
2 10 6 9.1 12.8
-10 12 6 3.5 10
-2 12 -6 7.9 13.7
10 2 -6 1.6 11.1
-12 10 -6 -0.9 9.5
-2 12 6 9.9 10
-2 12 6 17.3 14.2
-10 12 -6 5 9.5
-12 10 6 -3.4 10.6
2 10 -6 0.9 14.1
-12 11 -6 87.09 13
1 11 6 54.39 11.3
-11 12 6 66.29 12.1
1 11 6 91.69 15.9
-11 12 6 48 12.2
-12 1 6 72.69 13.4
-1 12 -6 92.29 17.1
-12 11 6 60.09 11.6
-12 11 6 70.79 13
-11 12 -6 82.99 12.6
-1 12 6 122.59 19.9
-1 12 6 108.89 14
12 -12 -6 1.5 10.1
0 -12 -6 -0.9 10.2
-12 12 -6 24.2 10.7
0 12 6 17.7 10.4
0 12 -6 0.2 10.6
12 0 -6 -5.6 20.1
-12 0 6 -17.7 9.9
-12 12 6 7.5 10
0 12 -6 27.1 16
-12 12 6 5.2 11.4
0 12 6 33.6 14.8
6 7 6 71.29 13.8
-6 13 -6 49.1 11.4
-13 7 -6 41 10.3
-7 13 6 55.59 10.9
7 6 -6 64.69 13.9
-13 6 6 57.19 12.8
-13 7 6 122.19 16.4
-6 13 6 113.49 18.1
6 7 -6 102.89 17.6
-7 13 -6 99.79 14.9
-5 13 -6 54.59 13.3
8 5 -6 90.89 15.4
-13 8 -6 52.99 11.7
-8 13 6 96.39 13.6
-13 5 6 76.29 14.1
5 8 6 72.39 15.3
-5 13 -6 40.8 11.5
-8 13 -6 57.49 12.6
-5 13 6 53.39 11.8
-13 8 6 62.29 13.2
5 8 -6 80.99 15.8
-4 13 -6 36.5 10.8
-13 4 6 49.4 13
-13 9 -6 43.3 11.4
9 4 -6 35.8 12.2
-4 13 -6 40.8 14.1
-9 13 6 58.79 12.5
4 9 6 41.2 14.2
4 9 -6 68.39 15.1
-9 13 -6 52.39 11.4
-4 13 6 83.79 16.9
-4 13 6 72.09 12.8
-13 9 6 64.99 14.1
-3 13 -6 -3.5 13.4
-13 10 -6 5.1 9.8
3 -13 -6 6.3 15.5
-13 3 6 -3.1 10.6
3 -13 -6 0 8.9
3 10 6 -0.6 12.5
10 3 -6 1.9 9.6
-10 13 6 5.7 10
13 -3 -6 -2.6 17.5
-13 10 6 -7.7 11.3
3 10 -6 -2.4 11.6
3 10 -6 2.9 14.7
-10 13 -6 5.7 9.6
-3 13 6 5.7 10.1
-3 13 6 1.6 12.8
13 -11 -6 6.5 11
-11 13 6 38.3 12
2 -13 -6 15.4 9.5
2 11 6 50.09 14.7
-13 11 -6 40.6 11.5
-13 2 6 13.6 11.1
-2 13 -6 49.4 16.4
13 -2 -6 31.8 19.3
-13 11 6 23.4 11.7
2 11 -6 49.9 16.7
11 -13 -6 10.6 10.9
2 11 -6 40.8 13.1
-11 13 -6 30.2 9.8
-2 13 6 55.39 15.8
-2 13 6 39.1 11.9
-12 13 6 -2.1 10
-13 12 -6 21.3 10.4
12 1 -6 11.3 18.6
1 12 6 37 14.6
-1 13 -6 42.6 16.8
1 -13 -6 27 11.9
-1 13 -6 20 11.8
13 -12 -6 16.7 13.4
-13 1 6 -3.2 10.7
-1 -12 -6 14.8 10
-1 13 6 20.2 13.6
1 12 -6 18.2 16
-12 13 -6 18.6 10.3
13 -1 -6 34.7 21.7
-1 13 6 15.9 10.5
1 12 -6 13.6 14.6
-13 12 6 11.4 11.5
12 -13 -6 25.9 13.4
-13 13 -6 76.79 13.1
13 -13 -6 91.49 16.1
13 0 -6 85.99 23.9
0 -13 -6 74.39 14.4
0 13 6 70.39 15.5
-13 13 6 43.3 11.6
-13 13 6 45.6 13.3
0 13 -6 67.19 16.9
0 13 -6 94.39 18.4
-14 7 6 234.88 25.3
14 -7 -6 213.68 20.6
-7 14 6 250.27 22.9
-7 14 -6 234.18 23.8
7 7 -6 248.98 22.8
6 -14 -6 21.1 11.5
-8 14 6 15.3 11.2
-8 14 6 21.9 13.5
14 -8 -6 8 15.7
-14 8 -6 1.7 8.6
-6 14 -6 23.8 11.1
-6 14 -6 0.2 10.2
6 8 6 20.7 12.2
-14 6 6 16.6 11.4
8 6 -6 24.4 13
-6 14 6 20.4 14.2
6 8 -6 6.5 13.2
14 -6 -6 21.6 19.1
8 -14 -6 14.3 10.9
-6 14 6 13.7 10.9
-8 14 -6 7.9 10.5
-14 8 6 4.4 11.9
-5 14 -6 1.4 9.9
-5 14 -6 5.9 12
5 9 6 6.9 12.5
14 -9 -6 3.2 14.8
5 -14 -6 0.2 11.3
5 -14 -6 8.2 17
9 5 -6 0.4 11.5
-9 14 6 4 10.3
-14 9 -6 5.2 10.1
-14 5 6 -11.3 10.1
-5 14 6 21.3 14.9
5 9 -6 -6.8 14.3
5 9 -6 9.6 14.4
9 -14 -6 13.9 12.1
14 -5 -6 22.3 18.2
-9 14 -6 12.1 9.7
-14 9 6 4.4 11.5
-5 14 6 3.1 9.9
-14 4 6 28.5 12.4
4 10 6 49.8 14.5
-14 10 -6 24.1 10.7
-4 14 -6 1.2 8.4
-10 14 6 44.6 11.8
14 -10 -6 19.4 13.7
4 -14 -6 50.39 12
10 4 -6 1.9 11.9
-4 14 -6 34.8 13.7
10 -14 -6 68.29 13.5
-4 14 6 52.89 11.9
-10 14 -6 76.69 13.3
14 -4 -6 67.49 20.9
4 10 -6 72.09 16.6
4 10 -6 70.79 15.4
-4 14 6 113.19 18.5
-14 10 6 51.09 12.5
-14 11 -6 7.4 10.5
-14 3 6 -0.4 10.5
-11 14 6 -16.9 10.4
3 11 6 5.6 12.9
-3 14 -6 7.8 14
14 -11 -6 18.8 15.5
3 -14 -6 4.3 11.5
11 3 -6 24.2 17.9
3 11 -6 -0.2 14.1
-3 14 6 3 14.4
3 11 -6 -5.8 16.1
-3 14 6 2.4 10.6
14 -3 -6 18.9 22.3
-14 11 6 -12.4 11.3
-11 14 -6 4 10.1
-3 -11 -6 3.3 8.6
11 -14 -6 1.1 13.1
-14 2 6 9.6 10.9
14 -12 -6 3.2 13.8
12 2 -6 -5.2 21.7
-2 14 -6 9.8 14.1
2 -14 -6 16.1 11.8
2 12 6 10.4 13.8
-12 14 6 -17.3 10.8
-2 14 -6 2.1 14.3
-14 12 -6 14.5 10.8
-14 12 6 5.8 11.7
12 -14 -6 1.2 13.6
-2 14 6 16.8 14.2
14 -12 6 -0.4 10.2
-2 -12 -6 6.9 11.4
-2 14 6 -0.6 10.7
14 -2 -6 16.7 24
2 12 -6 3.2 15.6
-12 14 -6 5.2 9.4
2 12 -6 -10.6 15.7
1 13 6 21.1 14.3
13 -14 6 6.4 9.4
-13 14 6 -6.5 10.2
1 -14 -6 17.9 12.7
-1 14 -6 12.3 15.5
-1 14 -6 31.4 15.6
-14 1 6 -7.9 9.7
13 1 -6 35.3 21.6
-14 13 -6 15.6 10.1
14 -13 -6 17.8 13.4
1 13 -6 31.6 15.9
13 -14 -6 21.3 14.4
-1 -13 -6 15.7 12.2
14 -1 -6 28.9 22.2
14 -13 6 10.9 9.7
-1 14 6 36 15.1
-13 14 -6 25 10.8
-14 13 6 18.7 11.4
1 13 -6 10.6 17.1
-14 14 -6 8.6 10.2
0 14 -6 12.2 16.4
14 -14 -6 18.5 14.1
0 14 6 13.7 14.9
0 -14 -6 16.9 12
14 -14 6 -0.5 10.9
14 0 -6 25.2 23.1
0 14 -6 18.5 15.3
-15 7 6 7 11.9
-8 15 6 22.2 11.5
-7 15 -6 19.5 10.9
-8 15 6 5.6 13.2
7 -15 -6 22.5 11.9
8 7 -6 17.3 13
15 -8 -6 23.1 16.9
-7 15 6 22.8 14.3
-8 15 -6 31.8 11.7
7 8 -6 32.8 14.2
-15 8 6 14.7 12.8
-7 15 6 28.6 11.4
15 -7 -6 5.5 18.7
8 -15 -6 42.7 13.5
9 6 -6 45.2 13.3
15 -9 -6 47.7 16.5
6 -15 -6 55.89 12.8
-9 15 6 46.7 11.7
-15 6 6 66.89 14.4
6 9 6 24 12.4
-6 15 -6 32.2 11.3
6 9 -6 81.49 17
15 -6 -6 62.69 21.3
6 9 -6 48.5 13.6
9 -15 -6 69.79 12.8
-6 15 6 57.89 12.6
-15 9 6 59.29 14
-9 15 -6 61.79 13
-6 15 6 75.19 16.7
5 -15 -6 6.4 11.8
5 10 6 -0.3 12.6
10 5 -6 -8.4 16.9
-15 10 -6 2.4 9.7
15 -10 -6 10.8 15.9
-15 5 6 -1 11.9
-5 15 -6 4 12.5
-5 15 -6 0.9 8.8
-10 15 6 -6 10.5
-10 15 -6 1.4 9.9
15 -5 -6 7.1 21.6
-5 -10 -6 2.6 8.9
10 -15 -6 10.5 13.1
15 -10 6 3.5 8.4
-5 15 6 -8.1 10.3
-5 15 6 11.4 15
5 10 -6 3.5 13.9
5 10 -6 3.9 14.9
-15 10 6 -6.9 12.1
-11 15 6 -7.7 10.7
11 4 -6 -0.8 21.4
-15 4 6 6.3 11.3
-15 11 -6 3.2 10
15 -11 -6 -2.4 15.2
-4 15 -6 8.9 13.8
11 -15 6 -2.2 9
4 -15 -6 2.9 11.4
4 11 6 24.7 13.8
15 -11 6 6.7 9.2
-4 15 6 0.5 10.8
-4 15 6 7.1 13.8
11 -15 -6 -5.7 12.7
4 11 -6 -12.1 15.7
-11 15 -6 2 10.1
-4 -11 -6 10.4 11.6
-15 11 6 -9.3 12.3
4 11 -6 -2.2 15.2
15 -4 -6 30.1 22.2
-15 3 6 3.5 10.7
-3 15 -6 13.4 13.9
-3 15 -6 19 14.7
-12 15 6 -7.6 11.2
3 -15 -6 7 11.9
15 -12 -6 13.6 14.1
-15 12 -6 8.3 10.9
12 -15 6 9.7 10
12 3 -6 23 22.3
3 12 6 6.6 13.2
12 -15 -6 32 14.4
-3 -12 -6 12.5 12
-15 12 6 18.4 12.2
-3 15 6 12.7 14.1
-3 15 6 3.3 10.8
15 -3 -6 23.7 22.4
3 12 -6 12.3 16.7
-12 15 -6 14.5 10.5
15 -12 6 17 10.7
3 12 -6 17.6 16.3
-2 15 -6 25.5 15.6
-15 2 6 -6.7 10.6
-13 15 6 -4.1 10.8
2 -15 -6 25.9 13
-15 13 -6 9.3 10.7
13 -15 6 16.4 11.1
2 13 6 18.3 14.4
-2 15 -6 28.4 15.5
15 -13 -6 26.7 14.9
13 2 -6 12.2 22.4
15 -2 -6 25.6 22.8
2 13 -6 24.8 15.9
13 -15 -6 8.9 14.1
-2 -13 -6 30.5 12.4
-13 15 -6 8.7 10.1
-15 13 6 19.8 11.9
2 13 -6 2.2 16.3
-2 15 6 21.3 15.8
15 -13 6 20.4 11.4
14 -15 6 4.7 11.5
-1 15 -6 15.1 16.4
1 -15 -6 16.5 12.1
14 1 -6 9.6 21.4
15 -14 -6 14.5 13.2
1 14 6 8.1 14.1
-1 15 -6 12.4 14.4
-15 14 -6 14.7 10.4
1 14 -6 -9.4 14.7
-1 -14 -6 26.8 13.5
15 -1 -6 31.9 22.4
-14 15 -6 5.9 9.5
15 -14 6 2.2 11.7
1 14 -6 16.7 16.6
-1 15 6 20.9 14.5
14 -15 -6 15.9 14
15 -15 -6 30.4 13.3
0 15 -6 44.9 15.6
0 -15 -6 45.6 14
-15 15 -6 19.5 10.6
15 0 -6 39.7 22.6
0 15 6 19.9 14.1
0 15 -6 23.4 15.9
15 -15 6 20.2 12.1
8 -16 -6 29.4 13.2
-8 16 6 23.9 11.4
-8 16 -6 38.5 12.1
16 -8 6 46.6 11
16 -8 -6 27.1 17.6
-8 16 6 22.1 13.2
-16 8 6 31.9 13.1
8 8 -6 42.9 14.7
7 -16 -6 60.29 13.7
-9 16 6 42.8 12.3
16 -9 -6 38.3 16.8
-7 16 -6 43.8 12
16 -7 6 57.09 11.4
-16 7 6 46.2 12.7
9 7 -6 -5.3 17.4
-16 9 6 44.4 13.7
16 -9 6 52.49 11.4
-9 16 -6 34 11.4
7 9 -6 35.8 13
16 -7 -6 39.8 18.6
7 9 -6 47.3 15.3
-7 16 6 37.7 12.6
-7 16 6 35.2 14.5
9 -16 -6 60.79 13.1
-10 16 6 -5.1 11.2
-6 16 -6 2.5 9.6
10 6 -6 14 19.3
16 -10 -6 7.3 15.3
10 -16 6 2.6 9.1
16 -6 6 5.8 10.5
6 -16 -6 1.7 12.7
-16 6 6 2.8 11.4
6 10 6 -2.9 14.8
-10 16 -6 4.4 10.4
6 10 -6 -7.8 13.7
16 -6 -6 5.4 21.9
6 10 -6 7.9 14.6
10 -16 -6 8.2 12.3
-16 10 6 6.7 11.4
-6 -10 -6 11.7 9.7
-6 16 6 2.8 14.2
6 -16 6 -0.4 8.6
16 -10 6 5.1 11
-6 16 6 -1.6 10.8
-11 16 6 -3.6 11.2
11 5 -6 -2.4 20.9
5 11 6 -0.3 12.2
-5 16 -6 -2.7 12.1
5 -16 -6 6.1 12.6
-16 5 6 6.3 11.3
16 -11 -6 0.4 14.8
11 -16 6 6.1 9.9
-5 -11 -6 14.3 12.5
5 11 -6 -12.4 15.5
-16 11 6 6.4 11.8
11 -16 -6 3.5 11.6
-5 16 6 -6.8 10.9
-5 16 6 13.9 14.1
5 11 -6 14.1 15.9
5 -16 6 -3.8 8.4
16 -5 -6 14.7 22.5
16 -11 6 7.8 10.9
-11 16 -6 5 9.8
-16 4 6 48.3 12.6
-4 16 -6 64.59 13.4
12 4 -6 39.2 21.9
-4 16 -6 57.39 15.6
-12 16 6 48.1 13
4 -16 -6 70.19 14.1
12 -16 6 59.79 12
16 -12 -6 55.69 15.6
4 12 6 55.99 14.9
16 -12 6 93.39 13.7
4 12 -6 70.59 16.3
-4 16 6 86.29 18
-4 -12 -6 100.69 14.9
16 -4 -6 70.29 21.8
12 -16 -6 113.39 16.8
4 12 -6 81.59 19.2
-3 16 -6 41.9 15.8
3 -16 -6 41.6 13.7
16 -13 -6 47.7 14.8
-13 16 6 12.9 11.6
13 3 -6 18 21.9
13 -16 6 34.1 12.2
3 13 6 28.2 14.4
-3 16 -6 30 14.6
-16 13 -6 8.1 9.4
3 13 -6 20.7 16.7
-16 13 6 20.3 12
-3 16 6 43.7 16.2
3 -16 6 0.9 7.9
13 -16 -6 28.7 13.4
3 13 -6 35.4 17.1
16 -3 -6 36.3 21.6
-3 -13 -6 37 13
16 -13 6 30.2 11.8
-13 16 -6 24.9 10.4
16 -14 -6 13.3 13
14 2 -6 2.7 21.2
14 -16 6 14.2 12.1
2 -16 -6 18 13.1
-2 16 -6 15.3 14.1
-16 14 -6 8.8 9.8
-2 16 -6 5.8 15
2 14 6 11.9 13.2
2 14 -6 8.7 14.7
2 -16 6 -0.5 8.5
-2 -14 -6 19 13.1
-14 16 -6 11.2 9.8
-2 16 6 12 14.2
14 -16 -6 21.8 13.6
2 14 -6 24.7 17.4
16 -14 6 10.7 11.8
16 -2 -6 39.3 23.1
-1 16 -6 20.3 15.1
1 15 6 19.4 13.5
15 1 -6 19.4 20.7
15 -16 6 26.6 12.2
1 -16 -6 22.4 12.6
-1 16 -6 23.5 15.4
-16 15 -6 -1.3 9
-1 -15 6 -0.8 8.6
16 -15 -6 32.3 13.6
-15 16 -6 9.6 9.7
16 -1 -6 9.9 20.6
1 15 -6 26.2 16.8
-1 -15 -6 15.5 12.9
1 -16 6 11.8 9.1
15 -16 -6 36.5 14.1
-1 16 6 29.5 14.9
1 15 -6 25.8 14.5
16 -15 6 25.8 12.1
0 -16 -6 8.1 12.1
-16 16 -6 0.5 8.7
0 16 6 18.3 14.3
0 -16 6 4.4 9.2
0 16 -6 15.7 14.7
0 16 -6 20.2 14.9
16 -16 6 8.7 11.6
16 -16 -6 14.6 13.7
16 0 -6 19.4 21
9 -17 6 -7.5 9.5
17 -9 -6 2.8 16.3
-9 17 6 -16.2 10.7
17 -8 6 0.3 10.7
-17 8 6 0.3 11.8
-8 17 -6 8.9 10.2
8 -17 -6 -0.4 11.6
9 8 -6 3.2 19.4
-17 9 6 4.1 12.2
8 9 -6 1.8 12.3
17 -8 -6 9.4 17.3
8 -17 6 3.8 9.6
17 -9 6 10.8 10.6
8 9 -6 -11.4 12
-8 17 6 -15.8 11
9 -17 -6 -1.6 12.1
-8 17 6 -0.4 12.4
-9 17 -6 7.3 10.8
8 9 -6 -9.1 19.3
-10 17 6 -7.9 11.2
-10 -7 -6 1.8 8.5
17 -7 6 10.6 11
17 -10 -6 -6.1 14.9
-17 7 6 6.3 11.4
10 -17 6 -1.4 9.9
7 -17 -6 6.2 11.9
10 7 -6 21.6 21
7 10 -6 0.5 14
10 -17 -6 -3.7 12.2
17 -7 -6 -5.5 17.9
7 -17 6 12.1 10.1
-7 17 6 -3.2 11.2
7 10 -6 -13.2 13.8
-10 17 -6 8 10.7
-7 17 6 6.9 13.5
17 -10 6 10.8 11.4
-17 10 6 3 12
11 6 -6 39.5 22.5
-11 17 6 19.9 11.3
-17 6 6 42.8 12.4
17 -11 -6 40.1 15.5
17 -6 6 54.49 12.2
11 -17 6 51.79 11.2
6 -17 -6 34.9 12.3
-11 17 -6 30.5 11.4
-6 17 6 37.4 15.3
-6 -11 -6 36.5 12.2
6 11 -6 31.2 15.5
17 -6 -6 48.7 21.1
6 11 -6 46.1 15
11 -17 -6 47.4 12.5
-6 17 6 20.2 12.2
-17 11 6 32.3 12.4
6 -17 6 33.9 10.5
17 -11 6 43.5 12.1
-12 17 6 11.5 11.1
5 -17 -6 49.99 12.7
-5 17 -6 18.4 10.3
-17 5 6 27.3 11.9
12 5 -6 17.2 21.1
5 12 6 -1.9 14.5
17 -12 -6 36.2 14.2
12 -17 6 42.3 11.2
17 -12 6 30.2 11.8
-17 12 6 24.1 11.7
-5 17 6 43.8 16.1
5 12 -6 11.1 15.1
-5 -12 -6 37 11.4
-12 17 -6 29.7 11.2
5 12 -6 34.5 16.7
12 -17 -6 43.1 13
5 -17 6 41.6 10.1
17 -5 -6 15.5 19.3
4 13 6 -0.8 12.9
4 -17 -6 22.4 13.2
-4 17 -6 1.4 15.1
17 -13 -6 19.7 13.8
13 4 -6 8.8 20.7
-17 4 6 -6.4 11.3
-4 17 -6 13.5 13.9
13 -17 6 10.4 10.9
-13 17 6 -8.2 10.8
-4 17 6 13.9 14.1
17 -4 -6 11.5 21.2
13 -17 -6 4.8 11.7
4 13 -6 17 15.4
-17 13 6 0.1 10.4
17 -13 6 1.4 11.1
-4 -13 -6 15.3 11.5
4 13 -6 9.7 15.9
4 -17 6 13.9 9.3
-13 17 -6 16.6 10.7
-3 17 -6 18 14.8
17 -14 -6 21.6 13.9
14 3 -6 27.9 20.7
14 -17 6 17.5 11.1
3 14 6 7.8 12.8
3 -17 -6 24 14
-3 17 -6 -0.6 12.8
17 -14 6 28.2 11.9
3 -17 6 26.9 10.4
14 -17 -6 29 13.5
17 -3 -6 31 21.1
3 14 -6 24.6 16.1
-3 -14 -6 22.3 12.8
-14 17 -6 21.1 9.7
-3 17 6 28 14.3
3 14 -6 20 15.2
2 15 6 14.6 13.2
-2 17 -6 17.9 13.8
-2 -15 6 -1.9 8.2
17 -15 -6 27.1 13.1
15 -17 6 35.4 12.2
-2 17 -6 1.3 13.2
2 -17 -6 34.6 13.4
15 2 -6 26.4 20.7
2 15 -6 12 14.9
2 -17 6 30.2 10.8
-2 -15 -6 34.5 13.4
-2 17 6 18.7 14.7
15 -17 -6 33.4 14
-15 17 -6 5.2 9.1
17 -15 6 24.5 11.9
17 -2 -6 19.6 19.7
2 15 -6 20.8 15.3
16 -17 6 16.6 11.5
17 -16 -6 27.4 13.2
1 -17 -6 23.5 12.2
-1 17 -6 37.6 14.8
1 16 6 -1.7 11.9
16 1 -6 30.5 20
-1 -16 6 15.1 9.1
-1 17 -6 2.2 12.8
1 16 -6 30.7 13.9
1 -17 6 24.2 10.8
17 -1 -6 5.5 19.7
-1 -16 -6 39.9 13.2
-16 17 -6 2.2 10.3
16 -17 -6 38.5 13.1
1 16 -6 7.5 14.3
17 -16 6 22 11.5
-1 17 6 13.4 13.3
17 -17 6 -2.9 10.7
0 -17 -6 3.7 12
0 -17 6 10.8 10
17 0 -6 2.3 18.2
0 17 -6 25.4 13.3
17 -17 -6 24.9 12.4
9 -18 -6 1.6 12.3
-9 -9 -6 4.5 8.3
18 -9 6 11.3 10.4
9 9 -6 21.6 21.2
-9 18 -6 2.4 9.6
-18 9 6 1.4 11.2
18 -9 -6 3.4 15.6
9 9 -6 -2.5 9.6
-9 18 6 2.1 10.7
9 -18 6 5.4 9.6
18 -10 -6 -0.6 15.9
8 -18 -6 3.7 12
-10 -8 -6 4.7 9.2
-10 18 6 -0.3 10.9
18 -8 6 0.1 10.2
10 -18 6 10.7 9.9
10 8 -6 9.2 21.4
-18 8 6 9.3 11.3
10 -18 -6 8.3 12.5
-18 10 6 18.7 11.8
8 10 -6 -7.2 18.5
-10 18 -6 14.7 10
8 10 -6 14.3 13.3
-8 -10 -6 -1.3 7.5
8 -18 6 4.4 9.8
18 -10 6 17.4 11.3
-8 18 6 -11.6 10.4
18 -8 -6 16.9 17.1
-11 18 6 8.8 10.8
11 -18 6 42.8 10.7
7 -18 -6 37.8 12
11 7 -6 6.3 20.3
18 -7 6 47.1 11.3
18 -11 -6 26.5 14.9
-18 7 6 34.1 12.6
7 -18 6 35 10.5
11 -18 -6 48.3 12.8
18 -11 6 55.59 11.9
7 11 -6 1.1 13.4
18 -7 -6 35.7 17.9
-18 11 6 33.1 12.4
-7 18 6 5.9 10.3
-11 18 -6 21 10
7 11 -6 29.5 14.9
18 -6 6 10.4 10.7
-12 18 6 -2.8 11.1
12 6 -6 -6.2 21.1
-18 6 6 3.2 10.2
18 -12 -6 3.1 13.9
-6 18 -6 -4.5 12.9
12 -18 6 17.8 10.4
6 -18 -6 7.7 12.4
-18 12 6 3.2 11.1
-12 18 -6 11.2 10.2
6 -18 6 10.7 9.6
6 12 -6 2.8 13.6
12 -18 -6 16.6 12.3
18 -12 6 7.5 10.8
-6 18 6 -8.8 8.6
6 12 -6 3.3 13.7
-6 18 6 -3.3 12.2
18 -6 -6 16 18.5
5 -18 -6 14.4 12.2
-5 18 -6 19.4 12
18 -13 -6 22.5 13.6
13 5 -6 20.3 20.1
13 -18 6 8.6 10.3
18 -5 6 18.3 10.7
-13 18 6 -10.8 10.1
-5 18 6 5 12.3
5 -18 6 11.4 9.5
-5 -13 -6 29 12.2
18 -5 -6 10.7 19.7
13 -18 -6 12.1 11.5
18 -13 6 23.7 11.2
5 13 -6 12.2 14.1
5 13 -6 6.1 13.8
-18 13 6 -5.3 9.4
-13 18 -6 8.6 9.5
-4 18 -6 36.9 11.9
14 4 -6 20.4 19.8
18 -14 -6 14.9 12.9
4 -18 -6 21.9 12
14 -18 6 21.6 10.9
-4 18 6 6.8 12.7
18 -4 -6 15.4 19.2
-4 -14 -6 29.1 11.7
4 14 -6 19.1 14
-14 18 -6 12.5 9.6
4 14 -6 11 14.3
18 -14 6 26.1 11.4
14 -18 -6 37.7 12
4 -18 6 16.3 9.9
15 3 -6 3 18.6
-3 -15 6 0.1 7.7
15 -18 6 15.5 10.6
-3 18 -6 23.9 13.2
3 -18 -6 3.9 11.8
18 -15 -6 11 12.8
3 15 -6 1.1 12.8
18 -15 6 21.5 11.3
18 -3 -6 18.3 18.8
3 -18 6 13 10.5
-15 18 -6 1.8 7.8
-3 18 6 1.8 12.3
15 -18 -6 19.1 11.7
-3 -15 -6 19.1 11
3 15 -6 13.3 14.1
18 -16 -6 3.3 11.6
16 2 -6 20.2 18.3
2 -18 -6 14.5 11.4
-2 -16 6 -0.6 8
-2 18 -6 16.4 12.2
16 -18 6 0.7 10.1
18 -16 6 0.8 10.7
-2 -16 -6 9.3 10.1
16 -18 -6 6.9 10.5
18 -2 -6 6.1 16.7
2 -18 6 10.2 10.1
2 16 -6 6.4 12.9
1 -18 -6 37.7 12
17 1 -6 36.6 18.2
-1 -17 6 27.2 9.3
-1 18 -6 31.6 12.2
17 -18 6 23.9 10.4
18 -17 -6 28.2 11.6
-1 -17 -6 38.9 11.2
18 -1 -6 13.5 15.7
1 -18 6 25.8 10.3
17 -18 -6 29.3 10.6
1 17 -6 24.4 11.9
18 -17 6 31.6 10.7
18 -18 -6 96.89 11.5
0 18 -6 104.19 14.6
0 -18 6 107.99 13.3
18 -18 6 99.09 12.7
-19 9 6 -0.1 10
19 -10 -6 6.7 14.9
10 9 -6 19 21
-10 -9 -6 1.5 9.5
19 -9 6 11.3 10.5
10 -19 6 4.8 9.3
9 -19 -6 2.8 11.5
-19 10 6 6.1 10.1
19 -10 6 17 10.9
9 10 -6 20.6 20.8
9 10 -6 6.8 11.5
10 -19 -6 12.4 12
19 -9 -6 4.7 15
-9 -10 -6 12.7 9.3
9 -19 6 5.6 9.7
11 8 -6 -0.6 20.5
8 -19 -6 1.6 11.5
-19 8 6 -3 8.9
19 -8 6 -0.9 9.8
-11 19 6 -19.6 9.3
19 -11 -6 12.1 15.1
11 -19 6 9.9 9.7
8 11 -6 0.8 12.1
-19 11 6 1.3 9.8
19 -8 -6 11.1 15.7
19 -11 6 9.1 10.3
11 -19 -6 21.3 12.1
-8 -11 -6 7 8.4
-8 19 6 -7.9 12.3
8 11 -6 -11.2 18.1
8 -19 6 7.2 9.7
19 -7 6 32.4 10.7
12 7 -6 15.7 21
7 -19 -6 54.89 13.4
19 -12 -6 46.6 15.2
12 -19 6 33.2 10.4
7 -19 6 14.9 9.4
-12 19 -6 0.9 9.9
19 -7 -6 14.6 16.1
7 12 -6 20 12.8
-7 -12 -6 5.9 7.6
19 -12 6 36.2 11
-19 12 6 -2.1 9
12 -19 -6 22.1 12
-6 19 -6 0.3 8
19 -6 6 29.3 10.2
6 -19 -6 27.3 12.4
19 -13 -6 25.2 13.7
13 -19 6 26.8 10.2
13 6 -6 34.4 20.1
6 13 -6 41.4 14.5
19 -6 -6 28.4 16.6
6 -19 6 37.1 9.6
13 -19 -6 36.7 12
19 -13 6 38.1 11.1
5 -19 -6 10.2 12
19 -5 6 0.8 9.6
19 -14 -6 5.4 12.5
-5 19 -6 12.3 10.9
14 5 -6 -8.8 18.9
14 -19 6 3.5 9.8
19 -14 6 -8.7 10.1
5 14 -6 4.5 13.8
14 -19 -6 3.6 11
5 -19 6 5.5 9.3
19 -5 -6 -1 17.9
-4 19 -6 22.1 11.5
19 -4 6 24.2 10
-4 -15 6 0.8 9.6
19 -15 -6 26 12.4
15 4 -6 25.2 18.3
15 -19 6 25.2 10.1
4 -19 -6 29.7 12.5
19 -4 -6 22.1 17.1
4 15 -6 24.5 12.6
19 -15 6 21.2 10.8
15 -19 -6 48.5 11.9
4 -19 6 28.5 10.2
-3 -16 6 0 7.2
-3 19 -6 16 11.3
19 -16 -6 -1 11.1
16 3 -6 14.4 17
3 -19 -6 4.4 11.3
16 -19 6 -2.9 9.4
19 -16 6 6.6 10.3
3 16 -6 -0.3 11.7
16 -19 -6 2.9 9.8
-3 -16 -6 2.8 9.8
3 -19 6 -1.1 9.3
19 -3 -6 0.2 15.5
17 2 -6 19.3 16.9
-2 -17 6 -1.1 6.9
2 -19 -6 15.6 11.2
-2 19 -6 30.5 10.7
17 -19 6 12.5 9.3
19 -17 -6 20.8 11
17 -19 -6 10.8 9.5
2 17 -6 23.5 11.1
2 -19 6 5.7 9.1
19 -2 -6 -4.1 14.1
19 -17 6 11.8 10
-2 -17 -6 13.5 10
-1 19 -6 17.2 10.2
-1 -18 6 2.1 6.6
19 -18 -6 10 8.6
18 1 -6 10.7 13.8
18 -19 6 19.2 8.9
1 -19 -6 24.6 10
1 18 -6 15.2 10.4
1 -19 6 11 8.1
19 -1 -6 -0.4 13.7
19 -18 6 11.9 9.3
-1 -18 -6 10.5 9.6
18 -19 -6 16.2 8.4
0 -19 6 1.1 10.2
19 -19 6 1.6 8.3
0 -19 -6 1.2 8.8
19 0 -6 -4.3 13.1
0 19 -6 3.2 9.7
19 -19 -6 -0.3 6.6
10 10 -6 1.2 18.9
10 -20 -6 12 11.2
20 -10 -6 10.5 14.7
20 -10 6 2.9 9.8
-10 -10 -6 1.1 8.9
10 -20 6 2.8 9.2
11 -20 6 12.1 9.3
20 -11 -6 9.6 13.3
11 9 -6 6.1 19.1
20 -9 6 15.4 10.2
9 -20 -6 19.1 11.2
9 -20 6 15.2 9.3
11 -20 -6 2 10.8
-9 -11 -6 20.6 9.2
9 11 -6 14.5 18.9
20 -9 -6 13.2 15
9 11 -6 5.9 10.6
20 -11 6 15.4 9.7
8 -20 -6 44.6 12.3
20 -12 -6 36.9 13.6
20 -8 6 28.9 9.7
12 -20 6 24.1 9.3
12 8 -6 21.4 19.4
8 -20 6 17.3 8.9
-8 -12 -6 17.5 8.7
20 -12 6 25.2 10.2
8 12 -6 -1.9 15.9
8 12 -6 26.8 12.5
12 -20 -6 41.2 11.7
20 -8 -6 31.1 15.4
20 -7 6 13.1 9.3
20 -13 -6 0.7 12
7 -20 -6 23 11.9
13 -20 6 8 9.1
13 7 -6 1.3 19.1
7 -20 6 9.2 8.4
20 -7 -6 6 14.4
7 13 -6 -2.7 11.7
-7 -13 -6 -2.2 7.4
20 -13 6 7.3 9.7
13 -20 -6 7.1 10.5
6 -20 -6 32.2 11.3
20 -6 6 37.8 9.7
14 -20 6 39.1 9.6
14 6 -6 7.9 19.1
20 -14 -6 32.4 11.9
6 14 -6 31.2 12.9
6 -20 6 10.9 8.7
20 -14 6 33.7 10.5
-6 -14 -6 0.9 9.5
20 -6 -6 19.1 14.2
14 -20 -6 40.2 11.4
20 -15 -6 33 11.6
15 -20 6 25.9 9.2
5 -20 -6 42 12.8
-5 20 -6 25.3 9.9
15 5 -6 15.2 17.7
20 -5 6 25 9.2
20 -15 6 22.7 10.2
20 -5 -6 11.8 13.5
5 15 -6 26 11.8
15 -20 -6 19.6 9.9
5 -20 6 25.8 9.3
20 -4 6 11.6 8.5
4 -20 -6 3.5 10.5
16 -20 6 11.5 8.9
20 -16 -6 9.5 10.7
16 4 -6 8.5 16.6
-4 20 -6 7.7 9.8
4 -20 6 6.4 8.8
4 16 -6 11.7 10.6
20 -16 6 4.7 9.6
16 -20 -6 10.2 9.5
20 -4 -6 5 13.7
17 3 -6 18.6 16.4
20 -3 6 5.8 8.1
3 17 6 8 8.6
20 -17 -6 7.6 9.6
17 -20 6 12.5 8.6
-3 20 -6 8.8 9.4
3 -20 -6 9.4 10.1
17 -20 -6 10.8 8.5
3 17 -6 11 10.1
20 -17 6 10.5 9.3
3 -20 6 9.2 8.6
20 -3 -6 13.7 13.5
2 -20 -6 4.6 8.5
20 -2 6 17.7 7.8
-2 20 -6 8.9 9.2
20 -18 -6 11.1 6.6
2 18 6 13.2 8.1
18 -20 6 17.3 8
18 2 -6 14.1 13.4
18 -20 -6 3.6 6.5
20 -18 6 14.9 8.2
2 -20 6 6 7.3
2 18 -6 9.7 9.9
20 -2 -6 9.3 12.7
1 -20 -6 47.2 9.9
19 -20 6 27.2 8
19 1 -6 17.5 12.5
-1 20 -6 33.9 9.7
1 19 6 33.8 8.8
20 -1 6 37.8 7.6
1 19 -6 42.1 10.1
-1 20 6 53.49 9.3
20 -1 -6 11.1 12
20 -19 6 29.3 8.1
20 0 6 5.4 6
0 20 6 15 8.5
0 20 -6 18.6 9
20 -20 6 14 7.8
20 0 -6 -2 12.4
10 -21 -6 19.6 10.9
21 -10 6 9.5 9.2
11 10 -6 8 17.8
11 -21 6 16.5 8.8
21 -11 -6 5 12.6
10 11 -6 10.9 17.4
11 -21 -6 8.3 9.5
10 -21 6 -1.6 7.8
21 -10 -6 18.9 13
21 -11 6 13.7 9.3
21 -12 -6 10.7 11.7
12 9 -6 7.8 17.4
21 -9 6 0.7 9.1
12 -21 6 -0.4 8.4
9 -21 -6 12 10.7
-9 -12 -6 9.4 8.1
9 -21 6 6.7 8
9 12 -6 -7 14.2
12 -21 -6 -3.4 9.5
9 12 -6 15.8 9.1
21 -9 -6 10.9 13.3
21 -12 6 6.1 9.2
8 -21 -6 43.1 11.3
21 -8 6 8.1 9
21 -13 -6 29.1 11.7
13 8 -6 0.2 18.2
13 -21 6 16.3 8.5
-8 -13 -6 -2.5 7.3
21 -8 -6 -1.8 12.2
8 -21 6 20.2 8
13 -21 -6 21.3 10.1
21 -13 6 25.2 9.2
8 13 -6 12.4 10.6
21 -14 -6 10.4 10.4
14 7 -6 0.8 17.5
21 -7 6 0.5 8
14 -21 6 6.4 8.2
7 -21 -6 13.9 10.7
21 -7 -6 -12 12.4
21 -14 6 11.5 9.3
14 -21 -6 -0.3 8.9
7 -21 6 5 8.2
7 14 -6 1 10.6
6 -21 -6 3.1 9.5
21 -15 -6 -0.3 9.9
15 -21 6 -2 7.9
15 6 -6 -1.1 16.2
6 15 6 -4 6.3
21 -6 6 2.3 7.8
21 -15 6 0.2 8.5
6 -21 6 2.5 8.2
6 15 -6 -6.4 10.3
15 -21 -6 7.9 8.8
21 -6 -6 -3.5 11.9
5 -21 -6 23.8 10.4
16 5 -6 7.1 15.6
-5 21 -6 3.9 7.3
16 -21 6 12 7.9
5 16 6 17.1 8.2
21 -16 -6 19 9.3
21 -5 6 9.4 7.7
5 -21 6 12.9 7.8
21 -5 -6 15 11.6
21 -16 6 11.5 8.6
5 16 -6 9.9 9.5
16 -21 -6 10.4 7.8
21 -4 6 1.1 7
17 4 -6 10.6 15.2
17 -21 6 5.9 7.8
4 -21 -6 4.3 9.1
-4 21 -6 2.3 8.5
4 17 6 12.2 8.3
21 -17 -6 -0.5 6.6
4 -21 6 0 6.8
4 17 -6 4.7 8.9
21 -4 -6 3.2 11
21 -17 6 9.5 8.2
17 -21 -6 3 5.6
18 -21 6 14 7.3
21 -3 6 13.9 6.8
-3 21 -6 19.9 9.5
3 18 6 14.5 8
3 -21 -6 11.1 8.2
18 3 -6 5.9 13.5
21 -18 6 16.8 8
21 -3 -6 1.8 10.4
-3 21 6 21.1 8.7
3 18 -6 8.5 9
19 -21 6 10.6 7.3
19 2 -6 3.4 12.6
-2 21 -6 16.3 9.6
21 -2 6 7.8 6.6
2 -21 -6 14.4 9
2 19 6 16.9 8.4
2 19 -6 2.6 9.1
21 -2 -6 -2.5 10.4
-2 21 6 16.6 9.3
21 -19 6 9.9 7.7
1 20 6 -2.9 9
20 -21 6 2.1 7.8
21 -1 6 2.3 4.3
20 1 -6 -2.9 14.2
-1 21 -6 12.4 10
-1 21 6 -2.6 9.8
20 1 6 1.4 4.5
21 -20 6 2.2 8
21 -1 -6 -3.8 12.3
1 20 -6 2.2 9.9
11 -22 -6 7.1 9.3
11 11 -6 12 15.4
11 -22 6 6.1 7.2
22 -11 6 1.5 7.8
22 -11 -6 13.1 10.8
10 -22 -6 13.5 9.2
12 -22 6 8.6 7.4
12 10 -6 -12.4 16.2
22 -10 6 2.1 7.9
22 -12 -6 -3.5 9.6
10 12 -6 2.5 18.2
10 -22 6 -1.7 7
22 -10 -6 18.6 11.3
12 -22 -6 5 8.9
22 -12 6 5.9 7.8
9 -22 -6 11.2 9.1
13 -22 6 11.4 8
13 9 -6 16.9 16
22 -13 -6 7.7 9.5
22 -9 6 12.7 7.8
22 -9 -6 2.1 10.9
22 -13 6 20.2 8.2
9 -22 6 15.2 7.7
13 -22 -6 12.1 8.9
14 8 -6 11 16.4
14 -22 6 5.1 7.6
22 -8 6 2.3 7.6
22 -14 -6 8.5 9.1
8 -22 -6 7.2 9
22 -8 -6 8.4 10.8
22 -14 6 -6.2 8
14 -22 -6 -0.9 7.8
8 -22 6 5.9 7.5
8 14 -6 5.1 8
15 7 -6 19.8 16.8
22 -15 -6 14.8 7
7 -22 -6 36.5 9.6
15 -22 6 23.8 7.8
22 -7 6 18.7 7.7
22 -7 -6 13.2 10.5
22 -15 6 27.9 8.2
7 -22 6 20.3 7.6
15 -22 -6 7.1 6.2
7 15 -6 10.3 9.2
-7 22 6 30.6 8.1
22 -6 6 4.1 7.2
6 -22 -6 21.2 9.3
16 -22 6 11.8 7.3
16 6 -6 6.9 15.8
-6 22 6 5.3 8.2
22 -16 6 5.9 7.9
6 -22 6 1.8 6
6 16 -6 15 8.8
22 -6 -6 0.7 10
5 -22 -6 4.2 9.1
22 -5 6 -0.2 7
17 -22 6 10.5 7.1
17 5 -6 11.9 15.9
5 17 -6 -0.7 8.8
-5 22 6 0.6 8.4
22 -17 6 1.7 8
22 -5 -6 -5.3 10
22 -4 6 5.1 6.5
4 18 6 -3.8 8.9
18 4 -6 -5.1 14.3
4 -22 -6 6.8 9
18 -22 6 5.3 7.3
4 18 -6 7 10
-4 22 6 7.3 9.3
22 -4 -6 -2.1 11.3
22 -18 6 -3 8.3
12 -23 6 6.3 6.4
12 11 -6 -8.3 15.3
23 -11 6 1.8 7.3
11 -23 -6 7.3 7.6
23 -12 -6 5.4 6.6
12 -23 -6 0.5 6.3
11 -23 6 8.5 6.3
23 -12 6 3.5 7.4
23 -11 -6 3.1 7.8
23 -13 -6 2 7.9
10 -23 -6 8.5 8
13 -23 6 -0.5 6.2
23 -10 6 8.3 7.4
13 10 -6 1.2 14.2
23 -13 6 -0.9 7.6
10 -23 6 6.7 6.3
13 -23 -6 -0.7 6.3
23 -10 -6 2.8 8.4
9 -23 -6 6.8 8.2
14 9 -6 0.9 16.6
23 -9 6 3.4 7.3
14 -23 6 -1.7 6.4
23 -14 6 6.6 8
23 -9 -6 1.5 8.5
9 -23 6 6.1 6.2
23 -8 6 4.6 7.1
15 8 -6 1.7 17.2
8 -23 -6 8.2 8.7
15 -23 6 3.4 7
23 -8 -6 2.1 9.3
23 -15 6 1.2 8.2
8 -23 6 0.7 7.6
16 7 -6 5 16.8
16 -23 6 7.1 6.9
23 -7 6 7.8 7.6
7 -23 -6 4.8 9.1
23 -7 -6 -2.2 9.6
23 -16 6 3 8.3
0 0 -7 8.7 11.7
0 0 7 -4 6.1
0 0 -7 -5.1 8.6
0 1 7 19.7 6.9
0 -1 -7 22.9 11.2
1 -1 -7 29 11.7
1 -1 -7 27.2 10.6
1 0 -7 39.6 11
-1 1 7 18.5 7
1 0 -7 35.6 12.9
-1 0 -7 34.5 10.9
0 -1 -7 32.3 9.9
-1 1 -7 28.5 10.4
-1 0 7 21.8 7.2
0 -1 7 18.3 6.8
-1 1 -7 19.2 11.7
0 1 -7 38.5 11
-1 1 -7 20.7 7.6
1 0 7 16.5 6.6
-1 0 -7 27.9 12
0 1 -7 32.5 13.9
1 -1 7 12.1 6.5
1 -2 -7 0.9 10
1 1 -7 5.4 8.9
1 1 7 -1.7 6.8
2 -1 -7 10.7 10.8
-2 1 -7 5.1 12.2
-2 1 -7 -1.1 8.7
-1 2 -7 5.6 10.2
-1 2 -7 -1.4 7.5
-1 -1 -7 10.2 10
1 -2 7 -1.3 6
-1 2 -7 -0.7 11.4
-2 1 7 3.5 7.1
1 -2 -7 6.2 9
-1 2 7 -2.7 7.3
-2 1 -7 7.5 6.4
-1 -1 7 -0.7 7.5
2 -1 7 2.5 11.4
2 -1 -7 -0.3 8.3
2 -1 -7 -1.6 10.2
1 1 -7 1.6 12.6
2 -1 7 -5.1 6.7
2 0 7 1.5 12.4
-2 2 -7 0.3 9.2
0 2 7 -1.5 6.1
0 -2 7 -5.2 6.4
-2 2 -7 2.5 12.7
2 0 7 -7.6 5.9
-2 2 7 0.3 6.9
-2 2 -7 5.7 7.3
-2 0 -7 -4.6 9.6
0 2 -7 4.4 6.8
2 -2 7 -3.8 6
2 0 -7 -2.3 10.1
0 2 -7 1.7 8.8
0 2 -7 1.4 11.2
2 0 -7 3.3 12.4
2 -2 7 3.3 12.6
2 -2 -7 4.2 9.6
0 -2 -7 -3 10.2
2 -2 -7 -2.1 9.6
2 0 -7 6.3 9.3
-2 0 7 -1.6 7.7
2 -2 -7 0.8 9.2
-3 2 -7 105.59 13.6
-1 3 -7 113.79 18.3
-1 3 -7 123.09 13.4
2 -3 7 106.99 18.6
3 -1 7 95.09 17.8
2 -3 7 107.99 12.2
-2 -1 -7 112.69 14.3
-1 3 -7 128.59 15.3
-3 2 -7 115.19 19.3
-2 3 7 91.19 13
-1 -2 7 102.29 12.7
2 1 -7 104.69 15.9
1 -3 -7 109.19 15.3
3 -2 -7 110.29 18.9
3 -2 -7 99.09 13.3
1 2 7 103.59 11.9
2 1 -7 129.19 19.9
2 1 -7 117.89 14.5
-3 1 7 107.99 14
-1 -2 -7 102.39 14.3
3 -1 -7 101.79 18.3
3 -2 7 101.29 18.6
-3 1 -7 67.99 11
2 1 7 91.19 16.8
-3 2 7 90.49 13.6
-2 3 -7 86.89 16.2
1 -3 7 106.59 12.1
1 2 -7 110.79 18.7
1 2 -7 88.39 12.9
-2 3 -7 101.09 14.3
1 2 -7 92.09 11.1
-2 -1 7 97.89 14.5
2 1 7 86.89 11.3
2 -3 -7 97.39 15.2
-1 3 7 90.19 13.6
3 -1 -7 78.19 14.8
2 -3 -7 91.99 17.1
-3 1 -7 106.09 13.4
3 -1 -7 96.29 14
-2 3 -7 98.99 12.9
3 0 7 27.1 14.8
3 0 -7 18.3 13.1
3 0 -7 11.9 11.6
0 3 -7 11.7 7
0 3 -7 17.4 13
-3 0 -7 9.6 8.1
-3 3 -7 6.2 11.5
0 -3 -7 14.5 10.9
3 -3 7 12.7 13.7
3 -3 -7 23.6 12.1
0 3 7 3.8 7.3
0 -3 7 2.6 7
3 -3 -7 24.7 11.1
-3 3 -7 16.2 8.8
-3 3 -7 12.2 6.7
-3 0 7 17.7 8.1
-3 3 7 14.3 8.7
0 3 -7 20.2 10.8
3 0 -7 20.9 9.7
4 -2 -7 15.2 11.7
-2 4 -7 14 6.5
2 -4 -7 30.5 11.7
-4 2 7 31.1 8.7
-2 4 -7 24.8 15
4 -2 -7 3.2 12.5
-4 2 -7 17.5 7.8
2 -4 7 2.7 7.1
-2 -2 -7 19.3 9.4
2 2 -7 24.9 9.8
2 -4 7 11.8 12.9
-2 4 7 20.3 8.3
2 2 -7 26.3 14.8
2 2 7 16 12.9
-2 4 -7 25.5 11.3
4 -2 7 9.2 12.5
-2 -2 7 10.2 7.2
2 2 7 15.6 7.3
4 -2 -7 32.5 10.7
-1 4 -7 54.49 11.4
-3 4 7 60.79 10.1
-3 -1 -7 54.59 11.1
1 3 7 54.09 9.1
-1 4 -7 50.49 8.6
-1 -3 7 36.8 8
3 1 -7 52.59 15.5
4 -3 -7 67.19 11.9
3 1 -7 52.99 13.5
-4 3 -7 61.19 9.3
4 -1 7 43.7 14.6
3 1 -7 75.89 12.6
1 -4 -7 60.89 11.9
1 3 7 26.1 13.2
-1 4 -7 63.69 16
4 -3 -7 51.99 14
-4 1 7 69.29 10.9
3 -4 7 46.9 15.8
3 1 7 42.8 15.6
3 -4 -7 43.1 13.6
-1 4 7 33.5 8.4
-3 4 -7 39.9 7.7
4 -3 7 44.2 14.7
1 3 -7 36.3 10.7
-3 4 -7 45.2 10.7
-3 -1 7 41.8 9.5
4 -1 -7 50.19 11.8
1 3 -7 50.39 14.8
-3 4 -7 35.9 14
-1 -3 -7 47 11
1 -4 7 32.1 7.5
-4 1 -7 55.09 9.3
-4 3 7 52.59 9.5
1 -4 7 48.5 15.1
4 -1 -7 48.5 13.6
4 -1 -7 21.4 12.1
3 -4 -7 63.69 12.8
4 -4 -7 20.6 10.8
4 0 7 16 12.5
4 -4 -7 12.5 11.9
0 -4 -7 17.3 10.6
4 0 -7 15 11.7
-4 0 -7 -0.7 7.3
4 0 -7 7.8 12.4
0 4 -7 9.9 6.4
0 4 7 13.7 7.4
-4 0 7 33 9.7
-4 4 7 19.1 8.3
4 0 -7 25.8 10.7
-4 4 -7 14.7 7.4
-4 4 -7 10.9 13.8
0 -4 7 9.7 6.5
0 4 -7 24.2 11
4 -4 7 14.4 12.1
-4 4 -7 0.6 9.6
0 4 -7 7.6 13.9
-3 -2 -7 125.39 14.9
-5 3 -7 125.59 13.2
-2 5 -7 107.59 18.4
2 3 7 119.89 21.3
-2 -3 7 124.39 14.4
-2 5 -7 138.59 16.1
-2 5 -7 132.99 13.8
2 3 7 128.29 14.1
3 2 -7 126.19 15.6
3 2 -7 118.49 19.9
3 -5 7 129.79 14.4
3 -5 7 108.09 21
-5 2 7 152.48 15.5
2 -5 -7 136.49 16.6
5 -3 -7 127.59 15.3
-3 5 7 129.79 15.6
3 2 -7 115.69 18.4
-3 5 7 121.19 12.7
5 -2 7 127.79 20.2
5 -3 -7 131.19 20.5
-3 -2 7 158.28 16.2
-2 5 7 138.39 15.5
-5 2 -7 150.98 13.8
3 -5 -7 137.99 19.3
-2 -3 -7 126.99 15.7
2 3 -7 132.29 20.8
5 -2 -7 125.99 15.3
-3 5 -7 126.79 19.2
2 -5 7 142.39 14.2
3 2 7 150.78 14.6
2 3 -7 142.79 16
5 -3 7 133.59 22.3
3 -5 -7 144.69 15.3
-3 5 -7 142.99 16
5 -2 -7 145.59 20.9
-3 5 -7 133.69 14.6
-5 3 7 166.88 15.9
3 2 7 141.19 21.1
4 -5 7 10 11.9
-1 -4 7 6.7 6.2
4 1 -7 13.7 9.9
4 1 -7 7.7 10.5
5 -4 -7 13 10.9
1 4 7 10.9 6.7
-4 5 7 19.9 8.2
-5 4 -7 14.1 7.5
-1 5 -7 18.3 7
5 -4 -7 23.7 10.8
-5 1 7 31.6 9.3
1 -5 -7 19.9 12
-1 5 -7 23.2 14.3
-4 5 7 18.5 7.9
4 1 -7 11 12.9
-4 -1 -7 -0.9 7
1 4 7 7.9 12.4
5 -1 7 18.5 13
-1 5 -7 34.5 11.2
-4 5 -7 0.4 7.7
-1 5 7 14 7.9
1 4 -7 16.1 14.9
4 1 7 6.1 10.6
-5 4 7 25.2 7.7
-4 5 -7 19.1 14
1 -5 7 5.2 11.5
1 -5 7 14.8 6
4 -5 -7 30.1 11.7
4 1 7 5.8 10.9
5 -4 7 13.3 11.6
1 4 -7 33.5 11
5 -1 -7 20.8 10.7
-5 4 7 33.4 9
5 -1 -7 21.9 9.5
4 -5 -7 15.3 11.3
-4 -1 7 26.5 8.2
5 -1 -7 -1 11.7
-5 1 -7 17.9 7.6
-4 5 -7 14.9 7.3
-5 5 7 193.78 16.4
-5 5 7 186.68 16.9
-5 0 7 209.98 17.1
0 5 -7 172.98 20.5
5 0 -7 153.58 20.3
0 5 7 187.58 15.8
0 5 -7 193.08 17.9
5 -5 7 153.48 22.9
5 0 -7 179.68 17.4
5 0 7 172.68 22.1
5 -5 -7 183.28 17.5
5 -5 -7 173.18 22
-5 5 -7 183.18 23.4
-5 5 -7 184.38 16.4
-3 6 -7 55.29 16.7
3 3 -7 42.5 14.4
3 3 -7 73.39 12
-6 3 -7 70.19 9.7
-6 3 7 81.29 11.8
3 -6 7 48.8 8.7
6 -3 -7 70.69 11.8
-3 6 7 65.39 10.2
-3 6 -7 67.69 9.7
-3 6 -7 66.59 12.5
6 -3 7 50.09 15.9
3 -6 -7 78.99 14.3
-3 6 7 74.59 9.8
6 -3 -7 35.5 12
-3 -3 7 38.8 8.8
3 3 7 54.59 9.2
4 2 -7 155.68 16.7
-6 2 7 181.98 17.3
2 4 7 168.98 15.2
-2 6 -7 144.59 19.8
-6 4 -7 183.78 16
-4 6 7 182.38 15.9
-4 6 7 199.78 16.4
6 -4 -7 149.49 21.8
6 -4 -7 187.48 17.2
-2 6 -7 158.18 15
-2 6 -7 166.38 16.2
6 -2 7 114.59 18.7
6 -2 7 151.68 24.4
-6 2 -7 192.78 16.5
6 -4 7 175.58 23.4
-2 6 7 182.68 16.4
2 4 -7 164.28 22.3
-4 6 -7 176.08 23.3
6 -2 -7 174.38 22
-4 -2 7 191.58 17.4
-2 6 7 193.88 16.4
-4 6 -7 178.48 16.4
6 -2 -7 171.68 17
-6 4 7 214.88 19.5
2 4 -7 182.48 17.6
4 -6 -7 168.98 16.8
5 1 -7 136.29 15.7
-1 6 -7 124.79 13.4
6 -5 -7 112.69 20.2
-1 6 -7 90.49 18.2
1 5 7 130.09 13
6 -5 -7 151.98 16.4
-5 6 7 172.08 17.3
-6 1 7 158.58 16.5
-1 6 -7 142.09 17.2
-6 5 -7 135.29 15
-5 6 7 160.78 15.4
-5 -1 7 134.39 14.8
1 5 -7 120.09 16.1
1 5 -7 79.89 17.7
5 -6 -7 111.39 15.8
-6 5 7 137.59 15.6
-6 1 -7 126.49 14.4
6 -1 -7 141.79 15.5
-1 6 7 119.99 13.3
-5 6 -7 87.39 18.8
-6 5 7 142.49 14.3
-5 6 -7 109.79 14.2
6 -1 -7 86.99 16.9
-1 6 7 131.89 14
0 6 7 0.6 4.6
0 6 -7 0.6 4.6
6 -6 -7 3.6 11.3
-6 6 7 6.6 8.1
6 -6 7 -1 11.2
0 6 -7 5.1 12.6
-6 0 7 10.9 9.5
6 0 7 -0.2 11.1
6 0 -7 5.6 10.7
-6 6 -7 8.2 7.7
0 6 -7 6.6 10.6
6 0 -7 10.3 9.3
-6 6 7 8.3 9.3
0 6 7 8.8 6.9
6 -6 -7 10.1 10.1
7 -4 -7 86.79 13.3
-3 7 -7 85.99 13.5
-4 7 7 108.89 14.9
4 3 -7 111.59 14.1
-7 4 -7 97.29 13.7
-7 3 7 98.09 16
-3 7 -7 83.89 13.2
-4 7 7 90.79 14.1
3 4 7 72.99 12.2
-3 7 7 98.09 13.9
-7 4 7 109.79 16.1
-4 7 -7 90.39 14.1
-3 7 7 116.29 14.2
-7 3 -7 91.29 13.1
-4 7 -7 79.99 13.4
-4 7 -7 48.1 16.6
7 -3 -7 93.29 15.2
3 4 -7 106.49 15.2
-5 7 7 249.88 19.9
-2 7 -7 243.88 18.8
-5 7 7 262.77 21.1
-2 7 -7 275.37 21.8
-7 2 7 245.98 22.8
5 2 -7 225.98 20
-7 5 -7 266.47 19.7
7 -5 -7 252.27 20.2
-5 -2 7 202.38 19.3
-7 2 -7 250.07 18.7
5 -7 -7 223.78 18.9
7 -2 -7 236.28 19.3
-5 7 -7 218.28 18.6
-7 5 7 233.28 20.4
-2 7 7 237.58 18.5
2 5 -7 229.68 19.1
-1 7 -7 1.2 13
-7 1 7 20.9 9.6
7 -6 -7 23.8 11.2
-6 7 7 21.5 8.8
-6 7 7 11.9 9
1 6 7 17.8 7.3
7 -6 -7 7.4 16.4
-7 6 -7 22.3 8.7
-1 7 -7 14 6.7
-1 7 -7 16.7 11.8
6 1 -7 14.8 10.5
-7 6 7 17.8 9.3
1 6 -7 17.6 11.4
-6 -1 7 14.8 9.8
7 -1 -7 21.1 11
-1 7 7 23.2 8
1 6 -7 1.7 14.7
-7 6 7 14.6 8.6
6 -7 -7 16.9 11.1
-6 7 -7 23.7 7.9
-7 7 7 69.69 12.3
7 -7 -7 68.29 13.3
7 0 -7 71.79 13.1
-7 7 -7 92.59 11.8
-7 7 7 62.79 11.3
-7 0 7 77.89 13.4
0 7 -7 76.69 14.2
0 7 7 78.79 10.4
-4 8 7 33.5 9
-8 4 7 62.49 12
4 4 -7 69.19 13.1
8 -4 -7 67.29 12.5
-4 8 -7 49.3 9.4
-4 8 7 70.09 10.8
-8 4 -7 49.2 8.6
-4 8 -7 52.79 11.9
8 -5 -7 36.2 11.1
-8 3 7 38.6 12.2
-8 5 -7 51.39 9.9
-5 8 7 42.7 10.3
-5 8 7 55.79 10.4
-3 8 -7 53.19 13
-3 8 -7 44.8 9.3
5 3 -7 48.1 11.9
3 5 -7 62.89 13.7
-8 5 7 30.4 10.9
-3 8 7 38.6 8.5
8 -3 -7 43 11
-8 3 -7 32.5 8.2
-5 8 -7 47.1 9.6
2 6 7 82.09 12.9
-8 6 -7 78.89 11.1
-6 8 7 81.59 12.4
8 -6 -7 85.79 13.4
-2 8 -7 63.79 9.8
-8 2 7 64.39 13.4
-6 8 7 57.29 11.3
-2 8 -7 98.49 15.5
6 2 -7 109.89 14.7
2 6 -7 86.69 14.4
-6 8 -7 83.79 11.7
-2 8 7 61.99 9.5
-8 6 7 63.29 13.4
8 -2 -7 75.39 12.9
-8 2 -7 68.99 10.2
-1 8 -7 12.1 11.3
-8 1 7 8.1 11.1
8 -7 -7 15.6 11
7 1 -7 11.5 10.8
1 7 7 20.8 8.2
-8 7 -7 14 8.7
-7 8 7 15.5 10.3
-1 8 -7 6.3 6.1
-7 8 7 14.3 9.9
-7 -1 7 5.6 9.6
-7 8 -7 16.4 7.8
8 -1 -7 13.9 10.9
-1 8 7 16.5 8.4
-8 7 7 12.9 11.4
-8 7 7 -0.2 8.5
1 7 -7 27.2 12.6
0 8 -7 -2.5 11.2
8 0 -7 5.7 10.9
-8 0 7 -9.9 10.1
-8 8 7 -5.5 9.7
0 8 7 0.9 8
-8 8 -7 5.7 8.3
-8 8 7 -2 9
-4 9 -7 82.09 14.1
-5 9 7 70.39 10.8
-9 4 7 61.99 12.3
-4 9 -7 69.69 10.6
9 -5 -7 74.39 12.2
-9 5 -7 87.99 14.2
-9 5 7 75.19 13.7
-9 4 -7 59.99 9.8
-4 9 7 90.79 12.4
9 -4 -7 57.49 12.1
4 5 -7 91.49 14.8
-5 9 -7 43.5 11.6
-5 9 -7 78.69 12.8
-3 9 -7 58.89 13.7
-9 3 7 57.49 13.1
9 -6 -7 43.8 11.5
-3 9 -7 53.09 9.6
-9 6 -7 69.49 10.9
-6 9 7 40.8 10
-6 9 7 28.4 10.1
3 6 7 53.09 9.5
6 3 -7 61.69 12.2
-6 9 -7 57.49 10.5
-9 3 -7 46.2 9.6
-3 9 7 76.89 11.5
-9 6 7 45 11.6
3 6 -7 92.39 14.8
9 -3 -7 60.59 11.9
-7 9 7 50.89 11.7
-9 2 7 47.7 12.4
-2 9 -7 45.1 9
-9 7 -7 49.99 9.6
-7 9 7 39.7 12.2
-2 9 -7 73.79 14.8
2 7 7 55.09 9.9
9 -7 -7 45.7 11.8
7 2 -7 50.79 12
-2 9 7 58.29 10.9
-7 9 -7 41.8 9.4
-9 7 7 39.9 12.4
9 -2 -7 36.8 11.1
2 7 -7 69.69 14.3
-9 7 7 34.7 9.4
-1 9 -7 39 13.9
-9 8 -7 32 9.6
-8 9 7 12.4 10.6
8 1 -7 41.6 12.3
-8 9 7 29.4 11.2
1 8 7 33.5 9
-9 1 7 26 11.6
1 8 -7 49.1 13.9
-1 9 7 38.1 10.3
-9 8 7 25.1 9.6
-9 8 7 23.5 10.4
-8 -1 7 14.8 10.4
-8 9 -7 47.8 10.5
9 -1 -7 30.9 11.9
-9 9 7 12.4 11.2
-9 9 7 12.5 9.4
0 9 -7 19.5 13.4
0 9 7 8.8 9.2
-9 0 7 5.7 10.5
9 0 -7 14.7 11.3
-9 9 -7 21.2 9.7
-5 10 -7 160.98 17.3
-5 10 7 124.89 18
-5 10 -7 140.49 17.9
-10 5 7 174.38 21
-10 5 -7 151.08 16.6
5 5 -7 160.88 18.5
6 4 -7 9.3 11.3
-4 10 -7 21.3 11.7
-10 4 7 14.6 9.9
-6 10 7 10.3 10
4 6 7 5.3 7.4
-10 6 -7 12.8 9.2
-4 10 -7 4.4 8.3
-10 4 -7 11 7.9
4 6 -7 6.6 11.9
-10 6 7 12.5 11.1
-6 10 -7 3.8 9
-4 10 7 -1.4 9.2
3 7 7 66.09 10.7
-10 7 -7 104.29 16.1
7 3 -7 97.39 15.4
-3 10 -7 81.79 12
-10 3 7 110.49 14.6
-7 10 7 111.69 14.2
-3 10 -7 97.19 15.9
3 7 -7 110.29 16.9
-10 3 -7 53.39 9.9
-7 10 -7 94.29 13.2
-3 10 7 66.29 12.2
-10 7 7 65.69 12.4
-10 8 -7 71.09 11.9
8 2 -7 78.79 13.8
2 8 7 52.29 10.4
-10 2 7 59.79 12.3
-2 10 -7 63.89 14.3
-8 10 7 57.99 11.4
-8 10 7 39.3 11.8
2 8 -7 72.39 14.9
-8 10 -7 61.29 10.9
-2 10 7 42.7 11.2
-10 8 7 55.19 11.8
-10 9 -7 18.6 9.9
-9 10 7 17.3 10.7
9 1 -7 14.5 11
-9 10 7 14.6 10.2
-10 1 7 12.2 10
-1 10 -7 14.1 13.3
1 9 7 9.3 9.8
-1 10 7 7.6 9.8
-10 9 7 8 9.2
1 9 -7 16.2 13.7
10 -1 -7 -1.6 8.9
-9 -1 7 5.7 9.8
-10 9 7 11.4 11
-9 10 -7 8.7 9.1
-10 0 7 37.2 11.9
0 10 7 35.7 11
-10 10 -7 74.69 11.7
-10 10 7 62.09 12.5
0 10 -7 79.59 16.2
-10 10 7 58.99 11.9
-6 11 7 138.69 18.8
-11 6 -7 153.68 17.1
-5 11 -7 144.49 18.5
-5 11 -7 119.69 17.7
-11 5 7 159.78 20.3
6 5 -7 161.98 18.7
5 6 -7 176.28 20.1
-5 11 7 152.48 19.1
-6 11 -7 166.08 19.4
-11 5 -7 142.29 17.1
-11 6 7 168.48 19.5
-11 7 -7 126.99 17.3
-4 11 -7 108.99 17
7 4 -7 106.19 16.5
-11 4 7 128.39 15.9
-4 11 -7 94.09 15.6
-7 11 7 132.89 18.3
-7 11 -7 117.09 15.1
-11 7 7 120.59 19.6
-11 4 -7 82.19 12.2
4 7 -7 116.49 18.4
-4 11 7 126.59 15
-11 3 7 17.7 10.1
-11 8 -7 26.9 10.3
8 3 -7 28.6 12.3
-3 11 -7 19.4 9.3
-3 11 -7 24.1 13
3 8 7 10.7 9.3
-8 11 7 39.4 11
-11 8 7 19.3 11.4
-3 11 7 2.8 9.1
-8 11 -7 20.2 10
3 8 -7 22.5 13.9
-9 11 7 153.58 19
9 2 -7 129.59 18.3
-2 11 -7 150.48 21.3
-9 11 7 108.89 19
-11 9 -7 156.28 18.7
-11 2 7 146.59 20.7
2 9 -7 155.48 20.7
-9 11 -7 160.28 19.3
-2 11 7 123.69 18.2
-11 9 7 130.69 18.8
1 10 7 5.1 10.1
-10 11 7 8.7 11
10 1 -7 1.5 9.6
-10 11 7 7.9 10.2
-11 10 -7 20.9 10.5
-1 11 -7 10.1 14.8
-11 1 7 -2.9 10.7
-11 10 7 -4.7 8.7
-11 10 7 -2 11.2
-10 11 -7 5.2 10
-1 11 7 -1.2 10.3
1 10 -7 -2 13.2
-11 0 7 12.1 11.2
0 11 -7 62.89 17.4
0 11 7 43.3 11.8
-11 11 7 35 12.3
-11 11 7 29.9 10.6
-11 11 -7 37.1 10.7
-6 12 -7 2.1 10.5
-6 12 7 47.6 11.4
6 6 7 4.8 11
-12 6 7 23.9 12
-6 12 -7 40.5 11.6
6 6 -7 42.1 14
-12 6 -7 25.6 9.6
-7 12 7 121.89 14.6
-5 12 -7 75.09 14.7
5 7 7 107.79 18.3
7 5 -7 106.59 17.2
-12 7 -7 114.59 17.6
-5 12 -7 100.79 14.3
-12 5 7 107.39 15.3
-12 7 7 116.19 15.6
-7 12 -7 80.79 13
-5 12 7 115.09 14.3
5 7 -7 111.89 17.5
8 4 -7 13.7 11.5
-12 4 7 14.3 11.8
-8 12 7 23.7 11.3
4 8 7 24.9 13.6
-4 12 -7 19.8 12.6
-12 8 -7 28.5 10.8
-4 12 -7 7.3 9.6
-8 12 -7 16.4 10.2
-4 12 7 26.4 10.9
-12 8 7 7.8 11.3
4 8 -7 25.9 13.9
-9 12 7 252.87 23.2
-12 3 7 228.28 24.5
-12 9 -7 300.37 24.4
3 9 7 265.57 24.4
9 3 -7 229.38 21.9
-3 12 -7 260.27 24.5
-9 12 -7 258.47 23.9
-12 9 7 261.07 25.3
-3 12 7 240.88 22.9
3 9 -7 256.07 25.4
-12 2 7 15.8 11.8
10 2 -7 2.9 9.7
-12 10 -7 27 11.1
2 10 7 57.59 14.6
-2 12 -7 66.99 16.8
-10 12 7 38.2 11.8
2 -12 -7 21.4 10.7
12 -10 -7 17.6 12.5
2 10 7 9.9 9.9
2 10 -7 59.09 17.1
-10 12 -7 51.49 12.1
10 -12 -7 26.3 12
2 10 -7 8.2 11.4
-12 10 7 27.4 11.9
-2 12 7 51.19 12
1 -12 -7 0.4 8.7
-1 12 -7 -2.9 11.4
1 11 7 63.49 15.2
-11 12 7 21.6 11.8
1 -12 -7 26.6 13.2
-1 12 -7 64.59 17.1
1 11 7 34.4 11.3
-12 1 7 11.4 11.1
12 -11 -7 45.6 13.9
-12 11 -7 44.5 12
-11 12 7 30.5 10.9
-12 11 7 24.6 12.4
-1 -11 -7 17.1 11
-1 12 7 49.8 11.9
1 11 -7 55.09 17.2
-1 12 7 62.89 16.4
11 -12 -7 46.1 13.4
1 11 -7 36.1 16.6
-11 12 -7 38.6 11.6
12 -1 -7 -2.3 16.6
0 12 -7 97.69 16.9
0 -12 -7 43.1 14.3
-12 12 7 57.79 12
0 -12 -7 44.5 10.6
-12 12 7 44.4 12.7
12 0 -7 41.1 18.2
0 12 7 81.39 13.3
-12 12 -7 84.59 13.4
-7 13 7 -1.3 9.9
6 -13 -7 8.1 10.1
13 -7 -7 0.4 13.4
7 6 -7 10.3 12.7
-6 13 -7 5.5 10.8
6 7 7 0.2 10.9
-13 6 7 -2 11.6
-13 7 -7 0.9 9.1
-6 13 -7 1.2 10.8
-13 6 -7 1.3 8
-7 13 -7 4.6 10
-13 7 7 -8.3 11.5
6 7 -7 9.5 13.7
-6 13 7 2.9 10.2
7 -13 -7 10.8 10.6
13 -6 -7 8.5 15.9
-8 13 7 81.69 13.3
-5 13 -7 47.4 11.9
-13 8 -7 65.09 12.1
5 8 7 54.49 14.6
13 -8 -7 35.3 14.1
5 -13 -7 48.2 11.4
-13 5 7 53.29 13.5
8 5 -7 62.09 13.7
-5 13 -7 36.1 13
13 -5 -7 49.9 18.4
8 -13 -7 69.19 13.4
-5 13 7 61.99 12.1
-8 13 -7 46.3 12.2
-13 8 7 70.09 14.5
5 8 -7 85.99 17.4
9 4 -7 31.5 12.8
-4 13 -7 21.8 13.3
-4 13 -7 19.3 9.8
-9 13 7 35.8 11.8
13 -9 -7 28.4 15.4
4 -13 -7 34.3 10.3
4 9 7 36.8 14.2
4 -13 -7 28.4 14.2
-13 9 -7 21.1 10.6
-13 4 7 23 12.8
9 -13 -7 28.3 13.7
4 9 -7 32.3 14.6
-13 9 7 16.5 12.6
-4 13 7 24 11.1
4 9 -7 22 15.2
-9 13 -7 15.1 10.4
13 -4 -7 38.3 18.1
3 -13 -7 9.1 11.4
13 -10 -7 14.6 15.6
-13 3 7 -10.2 11
-10 13 7 -1.5 10.3
-3 13 -7 6.6 13.6
3 -13 -7 15.2 15.5
3 10 7 7.1 13.4
10 3 -7 1.4 9.8
-13 10 -7 6.7 10.9
-10 13 -7 10.3 10.7
3 10 -7 21.5 16
-3 13 7 1.7 10.3
10 -13 -7 18.3 14.1
3 10 -7 -1.4 14.1
-3 13 7 10.9 14.4
13 -3 -7 17.5 18.5
-13 10 7 -2 12
-2 13 -7 -0.4 10.1
-2 13 -7 21 15.8
11 2 -7 -7.2 16.6
2 11 7 29.8 14.9
13 -11 -7 20.9 13.9
-13 11 -7 17.7 11.2
-13 2 7 2.2 11
2 -13 -7 14.2 14.5
-11 13 7 20.1 11.4
2 -13 -7 25.4 11.8
-2 13 7 26.5 15.6
13 -2 -7 43.1 22.8
-2 13 7 22.1 11.8
2 11 -7 35.2 16.9
-11 13 -7 22.7 11
-13 11 7 2.2 11.7
2 11 -7 13.2 15
11 -13 -7 35.6 14.8
-2 -11 -7 -1.3 10.3
-13 12 -7 17.6 11.3
-13 1 7 -16.3 11
-1 13 -7 10.6 16.2
-12 13 7 -9.1 10.2
1 12 7 13.5 14.2
-1 13 -7 6.8 14.2
12 1 -7 13.5 19.7
13 -12 -7 10.3 14.8
1 12 7 0 10.5
1 -13 -7 12.9 11.6
1 12 -7 14.8 15.7
-1 13 7 17.6 11.3
-1 -12 -7 17.7 11.3
-13 12 7 1.3 11.9
-13 12 7 -13.8 11.1
-1 13 7 13.1 14.4
1 12 -7 0.7 17.2
13 -1 -7 12.7 21.1
12 -13 -7 3.6 13.4
-12 13 -7 7.4 10.2
0 13 7 -4.3 9.2
-13 13 7 -21.3 10.7
0 13 7 7.8 14
13 0 -7 8.2 20.9
0 13 -7 16.1 16
0 13 -7 13.2 17.6
-13 13 -7 -0.1 9.9
13 -13 -7 6.2 13.2
0 -13 -7 15.5 12.4
-14 7 7 -1.4 12.4
-7 14 7 6.5 10.9
7 -14 -7 15.3 11.4
7 7 -7 -3.4 13
14 -7 -7 4.8 17.9
-7 14 -7 13.3 11.4
6 -14 -7 31.3 11.9
-6 14 -7 38.3 12
6 -14 -7 44.6 12.9
-14 6 7 33.2 12
-14 8 -7 14.7 10
14 -8 -7 58.39 18.2
-8 14 7 52.89 12.5
8 6 -7 52.69 14.4
8 -14 -7 71.69 14.3
-8 14 -7 28.1 11.4
6 8 -7 34.6 14.9
-14 8 7 33.7 13.9
6 8 -7 26.4 11.3
14 -6 -7 63.89 20.1
-6 14 7 48.8 12.4
-5 14 -7 -0.3 10.3
-5 14 -7 -0.6 12.4
-14 9 -7 -0.3 9.6
-9 14 7 -2.2 10.8
14 -9 -7 15.1 16.7
5 -14 -7 -0.8 11.3
5 9 7 10.3 13
9 5 -7 8.8 11.8
-14 5 7 -11.5 11.6
5 -14 -7 3.7 16.1
-5 14 7 3.1 10.2
-5 14 7 2.1 14.8
9 -14 -7 9.3 13.2
-9 14 -7 6.8 10.2
5 9 -7 12.3 14.3
14 -5 -7 13.8 21.5
5 9 -7 -9.8 13.5
-14 9 7 0.5 11.4
4 -14 -7 22.4 12.5
-10 14 7 25.3 11.8
-14 4 7 1.2 11.6
14 -10 -7 33.6 16.7
4 10 7 18.5 13.7
-4 14 -7 22.8 13.5
-14 10 -7 12.5 10.5
10 4 -7 0.9 11.4
4 -14 -7 32.5 17.3
10 -14 -7 21.6 13
4 10 -7 0.3 16.3
-4 14 7 5.1 10.3
-14 10 7 -3.7 12
4 10 -7 22.4 16.2
14 -4 -7 14.5 21.7
-4 14 7 24.7 16
-10 14 -7 18 11.5
-3 14 -7 25.2 11.6
-3 14 -7 70.79 17
3 11 7 69.59 16.2
14 -11 -7 82.19 17
3 -14 -7 93.49 14.3
-11 14 7 54.59 12.9
-14 3 7 29.2 12.7
11 3 -7 17.1 18.9
-14 11 -7 62.69 13.1
-3 14 7 93.19 19
-3 14 7 69.59 13.5
3 11 -7 100.99 20.1
-3 -11 -7 45.7 11.3
-11 14 -7 65.09 13.2
3 11 -7 90.69 16.2
14 -3 -7 66.39 21.4
11 -14 -7 89.59 16
14 -12 -7 47.8 14.5
2 -14 -7 35.7 11.9
-14 2 7 10.5 11.2
12 2 -7 72.79 23.1
2 12 7 72.19 16.2
-14 12 -7 42.7 12.4
-12 14 7 24 11.9
-2 14 -7 69.09 17
-2 14 -7 35.7 16.2
2 12 -7 43 16.9
-2 14 7 54.59 15.9
-2 -12 -7 50.99 12.8
-14 12 7 30.2 13.3
2 12 -7 74.69 18.8
12 -14 -7 67.39 14.6
14 -2 -7 61.09 22.5
-12 14 -7 57.29 12.9
-2 14 7 50.09 12.5
13 1 -7 22.6 22.7
14 -13 -7 26 14.6
-1 14 -7 12.7 16.2
1 -14 -7 10.7 13.1
-1 14 -7 11.1 15.9
1 13 7 20 14.7
13 -14 7 -2.1 10.4
-14 13 -7 17.2 11.1
-1 14 7 -4.1 9.3
1 13 -7 28.9 17.7
-14 13 7 5.4 11
-13 14 -7 15.3 10.6
14 -1 -7 37.8 22.9
13 -14 -7 27.9 13.9
1 13 -7 26.7 15.4
-1 14 7 18.3 14.9
-1 -13 -7 26.2 13.1
14 -13 7 -3.5 8.8
14 -14 -7 10.5 13
14 0 -7 -5 22.2
0 14 7 2.5 14.6
0 14 -7 8.5 16.2
14 -14 7 7.6 9.4
0 14 -7 2.2 16.5
-14 14 -7 9.8 10.6
0 -14 -7 -1.7 12.5
-8 15 7 7.4 13.1
-7 15 -7 2.2 11
15 -8 -7 6.1 16.4
7 -15 -7 13.3 14.5
7 -15 -7 7.1 12.7
-8 15 7 3 10.4
-15 7 7 -8.4 11.9
8 7 -7 1.9 12.8
7 8 -7 -4.3 11.3
15 -7 -7 -0.7 18.5
-7 15 7 1.1 14.3
-15 8 7 -14.1 12.4
7 8 -7 8.3 14.3
8 -15 -7 7.5 12.1
-7 15 7 -2 10.2
-8 15 -7 10.5 11.5
15 -9 -7 23.8 17
-9 15 7 2.4 12.6
-9 15 7 27.6 11.4
-15 6 7 16.5 12.9
9 6 -7 11.8 11.7
6 -15 -7 37.6 13.6
-6 15 -7 19.1 11
15 -6 -7 38.5 20.1
-9 15 -7 18.6 11.5
6 9 -7 16.8 14.9
9 -15 -7 27.8 12.7
-15 9 7 1.3 12.4
6 9 -7 16.6 14.1
-6 15 7 21.2 15.2
-6 15 7 11.9 11.2
10 5 -7 -6.1 16.7
-10 15 7 41 12
-15 5 7 45.8 14.3
15 -10 -7 56.69 17.4
5 -15 -7 71.99 14.2
5 10 7 37.1 14.3
-5 15 7 67.59 17.8
-15 10 7 46.4 14.5
5 10 -7 77.39 18.1
-10 15 -7 42.5 12.8
-5 15 7 31.7 11.8
15 -5 -7 59.89 20.9
10 -15 -7 77.29 14
5 10 -7 40.4 14.8
11 4 -7 24.4 20.7
-4 15 -7 -3.8 10.7
-11 15 7 -5.1 10.7
-4 15 -7 2.8 13.4
-15 4 7 2.6 11.9
15 -11 -7 9.9 15.6
4 11 7 8.3 13.7
4 -15 -7 14.8 12.9
-15 11 -7 4 10.1
-4 15 7 12.2 11.5
15 -11 7 -2 8.3
15 -4 -7 31.1 21.9
-11 15 -7 9 10.6
-15 11 7 -0.5 12.9
11 -15 -7 8.2 13.4
-4 -11 -7 20 11.8
4 11 -7 3.9 15.5
-4 15 7 13.1 15
4 11 -7 17 16.3
-15 3 7 -0.3 11
3 -15 -7 16.9 12.8
12 3 -7 -4.3 21.5
-12 15 7 0 11.7
-3 15 -7 22.2 15
3 12 7 13.8 14.4
-3 15 -7 12.6 14.5
-15 12 -7 8.3 10.7
12 -15 7 -3.8 8.8
15 -12 -7 20.8 14
-3 15 7 36 15.7
3 12 -7 21.9 16.4
3 12 -7 15 16.6
-3 -12 -7 30.7 12.6
-3 15 7 4.1 10.9
-12 15 -7 26.6 11
12 -15 -7 41.1 14.7
-15 12 7 5.9 12.1
15 -3 -7 27.1 20.9
15 -12 7 8.1 8.5
-2 15 -7 29.1 15.6
13 -15 7 23.2 9.9
2 13 7 30.3 14.9
2 -15 -7 38.5 12.8
-2 15 -7 58.39 17.1
15 -13 -7 23.8 13.8
13 2 -7 58.29 21.3
-15 13 -7 17.7 11.3
-15 13 7 13.8 11.5
-2 -13 -7 39.7 13.1
2 13 -7 37.9 18.2
-2 15 7 44.3 15.9
15 -2 -7 27.3 21.1
13 -15 -7 51.99 14.8
2 13 -7 40.6 17.5
15 -13 7 44.2 11.3
-13 15 -7 29.4 11.6
14 1 -7 46.5 21.4
14 -15 7 14.9 11
1 14 7 19.3 14.5
1 -15 -7 22.4 12.8
-15 14 -7 15.2 10.9
15 -14 -7 30.5 13.9
-1 15 -7 25.8 16.1
-1 15 -7 33 16
-1 15 7 27.3 15.9
1 14 -7 8.1 14.7
-1 -14 -7 17.9 12.3
15 -1 -7 30.7 21.2
-14 15 -7 14.4 10.8
14 -15 -7 23.3 13.7
15 -14 7 15.6 11.2
1 14 -7 19.5 17.6
0 15 -7 4.9 16.4
0 15 7 25.5 14.3
0 15 -7 13.1 15.3
15 0 -7 10 21.8
15 -15 7 4.9 11.1
0 -15 -7 27.7 12.7
15 -15 -7 3.9 12.4
-15 15 -7 1.6 10.3
8 -16 -7 -2 12.8
-8 16 -7 15.2 11.3
16 -8 7 7.2 8.4
16 -8 -7 15.4 17.1
8 8 -7 -0.1 13
-8 16 7 0.1 12.8
-16 8 7 5.2 13
8 8 -7 3.4 12.7
-8 16 7 -2.8 10.9
-16 7 7 8 11.5
7 -16 -7 12.9 12.7
-9 16 7 3 11.4
16 -9 -7 -0.8 16.7
-7 16 -7 1.5 9.8
16 -7 7 3.6 8.3
9 7 -7 0.2 12.2
7 9 -7 10.6 15.2
9 -16 -7 15.8 13.6
16 -7 -7 9.3 18
-7 16 7 8.1 14.6
-9 16 -7 4.9 11
7 9 -7 -2.1 13.7
-16 9 7 7.1 13
16 -9 7 12.1 9.1
-7 16 7 13.2 11.6
16 -6 7 5.2 8.7
16 -10 -7 8.8 15.9
10 6 -7 -4.2 18.8
10 -16 7 -4.6 9.8
-16 6 7 10.2 12.1
6 -16 -7 17.4 12.5
-10 16 7 -1.5 10.8
6 10 -7 -3.4 15.3
16 -6 -7 17.8 18.8
16 -10 7 7.3 9.8
-6 16 7 -2 11.1
6 10 -7 4.5 14.6
-6 16 7 14.6 15.3
-10 16 -7 3.3 10.7
-6 -10 -7 14.7 9.3
10 -16 -7 2.5 12.6
-16 10 7 10.5 12.2
16 -11 -7 15.9 14.5
-5 16 -7 -2.2 11.4
16 -5 7 9.1 9.2
11 -16 7 -1.1 7.9
5 -16 -7 6.2 12.6
-16 5 7 15.4 11.9
-11 16 7 -3.7 11.4
5 11 7 -2.7 13.2
11 5 -7 7.4 19.9
-11 16 -7 7.8 11.1
16 -5 -7 15 20.4
-16 11 7 3 11.9
11 -16 -7 6.9 11.8
-5 16 7 -5.4 11
5 11 -7 -3.1 15.3
5 11 -7 -6.9 15.1
16 -11 7 13.8 10.4
-5 16 7 14.2 14.3
-5 -11 -7 9.4 10.1
16 -12 -7 34.8 14.2
-4 16 -7 41.5 13.1
12 4 -7 41.8 22.5
-12 16 7 6.6 11.2
4 12 7 20.3 13.3
4 -16 -7 56.79 14.1
-16 4 7 16 10.9
-4 16 -7 1.9 13.2
12 -16 7 37.7 10.1
-16 12 7 29.9 12.6
4 12 -7 51.19 17.7
4 12 -7 31.6 16.7
16 -4 -7 53.79 22.3
-4 -12 -7 43.3 13
12 -16 -7 47.7 12.8
16 -12 7 54.99 11.8
-4 16 7 34.5 14.8
-12 16 -7 43.7 11.9
-3 16 -7 8.8 14.3
16 -13 -7 4.2 13.7
-3 16 -7 7.8 13.5
-13 16 7 -14.4 10.3
13 3 -7 10.2 21
-16 13 -7 5.6 14.7
13 -16 7 4.5 9.9
3 -16 -7 5.6 12.6
3 13 7 4.6 12.9
-13 16 -7 17.1 11
3 13 -7 11 15.8
16 -3 -7 7.8 19.9
-3 -13 -7 22.1 12.7
-3 16 7 9.6 15.1
3 13 -7 6.7 16
16 -13 7 20.4 11.4
13 -16 -7 11.2 12.6
-16 13 7 1.9 10.3
16 -14 -7 17.4 13.4
2 14 7 4.5 13.5
-2 16 -7 17.4 14.5
2 -16 -7 31.4 12.7
-2 16 -7 24.6 15.1
14 -16 7 18.5 11.2
14 2 -7 42.5 21
-16 14 -7 1.7 9.6
-14 16 -7 15.3 10.4
-2 -14 -7 21.6 13.2
14 -16 -7 29.3 13.3
-2 16 7 28.9 15.2
2 14 -7 10.8 16.2
2 14 -7 31.1 17.2
16 -14 7 17.5 11.5
16 -2 -7 29.8 20.1
1 15 7 0.3 12.6
-1 16 -7 -1.2 13.2
-1 16 -7 2.1 14
15 -16 7 5 11.2
15 1 -7 15 20.4
16 -15 -7 15.9 12.4
-16 15 -7 1.9 10.1
1 -16 -7 7.9 12.3
16 -1 -7 4.9 18.8
1 15 -7 34.2 16.4
-1 16 7 8.9 13.6
15 -16 -7 20.4 12.7
1 15 -7 5.7 15.2
16 -15 7 11.8 11.4
-1 -15 -7 20.6 13
-15 16 -7 2.5 9.5
0 -16 -7 47.4 13.9
16 0 -7 31.3 18.9
0 16 -7 35.8 14.3
16 -16 -7 61.19 14
16 -16 7 40.7 12
-8 17 -7 1.5 15
-9 17 7 5.5 11.6
-17 8 7 11.5 12.1
9 -17 7 3.1 7.5
9 8 -7 15.8 11.1
9 8 -7 -4.8 18
8 -17 -7 22.4 12.7
17 -8 7 19.5 10.5
17 -9 -7 20 16.3
9 -17 -7 13.6 12.1
-8 17 7 -4.3 10.6
17 -8 -7 16 17.9
-9 17 -7 3.5 9.9
-17 9 7 12.8 12.4
8 9 -7 2.5 12.6
17 -9 7 4.3 10.7
8 -17 7 -1.3 7.6
8 9 -7 0.2 12.8
7 -17 -7 21.2 12.6
17 -7 7 18.9 10.5
10 7 -7 18.4 21.2
17 -10 -7 20.3 15.8
-10 17 7 -7.3 10.8
10 -17 7 13.7 8.9
-17 7 7 13 12.3
10 -17 -7 13.9 12
-10 17 -7 13.7 10.6
7 -17 7 -1.8 7.2
17 -10 7 9.9 10.9
-7 17 7 4.9 12.9
17 -7 -7 12.6 18.5
-7 17 7 7.5 11.7
7 10 -7 14.2 14.3
-17 10 7 5.4 12
7 10 -7 6.2 13.9
6 -17 -7 11.2 12.6
11 -17 7 21.9 9.4
-17 6 7 5.7 11.6
11 6 -7 14.8 20.1
17 -11 -7 11.4 14.1
-11 17 7 0.2 10.9
17 -6 7 6.5 10.1
6 -17 7 -2.3 7.4
-11 17 -7 6.7 10.5
-17 11 7 3.5 12.2
17 -6 -7 31 19
17 -11 7 16.9 11
11 -17 -7 11.3 12
6 11 -7 12.7 15.2
-6 17 7 -2.5 10.9
-6 17 7 7.8 14.5
6 11 -7 5.1 14
-12 17 7 12.4 11.3
17 -5 7 23.9 10.5
17 -12 -7 19.8 13.9
12 5 -7 1.2 19.9
-5 17 -7 19.5 10.7
12 -17 7 19.8 10
5 -17 -7 19.5 12.1
-17 5 7 -2.9 9.5
-17 12 7 29.6 12.4
-12 17 -7 6.8 10.3
5 12 -7 15.2 15.8
-5 17 7 22.1 14.6
12 -17 -7 17.2 11.5
17 -12 7 26.3 11.4
17 -5 -7 37.5 19.8
5 -17 7 -0.3 9.3
-5 -12 -7 14.4 10.7
5 12 -7 16.5 15.4
13 4 -7 33.3 20.7
17 -4 7 51.59 11.1
13 -17 7 59.19 11.3
-4 17 -7 55.09 13.9
17 -13 -7 51.59 14
4 -17 -7 74.09 13.8
-4 17 7 58.89 16.2
4 13 -7 54.89 16.4
-13 17 -7 23.8 10.7
4 13 -7 33 16.6
17 -13 7 54.79 12.2
17 -4 -7 44.8 19.1
-4 -13 -7 46.8 11.5
13 -17 -7 58.19 12.2
-3 17 -7 4.5 12.3
14 3 -7 4 20.4
3 -17 -7 5.2 12
17 -14 -7 4.9 12.3
14 -17 7 8.1 10.2
14 -17 -7 13.3 11
3 14 -7 3.4 15.6
17 -14 7 8.6 11
-3 17 7 7.8 13.6
17 -3 -7 17.5 18.5
3 14 -7 -7.9 13.8
-3 -14 -7 7.4 12.7
-14 17 -7 8.3 9.7
-2 17 -7 22.4 12.5
2 -17 -7 22.9 11.7
17 -15 -7 9.7 12.9
15 2 -7 31.9 20.8
15 -17 7 12.7 10.2
15 -17 -7 20.3 12.9
-15 17 -7 0.6 8.6
2 15 -7 -1.2 13.6
17 -2 -7 8.6 17.8
2 15 -7 -1.3 14.1
-2 -15 -7 2.8 12.3
17 -15 7 16.5 11
-2 17 7 2.8 12.1
-1 17 -7 53.19 13.7
1 -17 -7 78.29 14
16 1 -7 35.8 18.8
16 -17 7 50.29 11.6
17 -16 -7 77.79 13.4
17 -1 -7 15.7 16.6
16 -17 -7 49.7 12.9
-1 -16 -7 47.6 12.9
17 -16 7 38 11.4
1 16 -7 64.89 13.3
0 17 -7 3.5 12
17 0 -7 9.1 15.8
17 -17 -7 23.2 12
17 -17 7 8.6 10.1
0 -17 -7 9.6 11.8
9 9 -7 -1.6 11.1
9 -18 7 4.6 9.3
-18 9 7 4.3 11.3
18 -9 -7 11 16.8
9 9 -7 1.6 17.5
18 -9 7 1.6 10.6
9 -18 -7 3.8 11.4
-9 18 7 -10.7 9.6
18 -10 -7 14.6 15.5
18 -8 7 14.7 10.6
-10 18 7 -7.5 9.8
10 8 -7 0.1 10.8
-18 8 7 5.9 10.4
10 -18 7 5.3 8.9
8 -18 -7 14.4 11.7
10 8 -7 28.1 21.2
18 -8 -7 9.9 16.9
10 -18 -7 8 11.3
18 -10 7 13.9 10.7
-8 18 7 -18.6 9.4
-18 10 7 1.6 11.5
8 -18 7 11.2 8.7
8 10 -7 9.6 13.1
18 -7 7 11.9 10
18 -11 -7 3.1 14.3
-11 18 7 -17 9.9
11 -18 7 -1.7 9.2
7 -18 -7 4.3 11.6
11 7 -7 1.5 20.2
-18 7 7 -6.9 9.3
-11 18 -7 1.3 9.3
18 -11 7 7.1 10.5
11 -18 -7 7.8 11.8
-7 18 7 -14.2 8.5
-18 11 7 0.1 10.1
18 -7 -7 6.6 17.5
7 -18 7 1.6 7.9
7 11 -7 -1.4 13.9
6 -18 -7 7.5 12.2
12 6 -7 3.7 20
18 -12 -7 18.2 13.7
12 -18 7 4.1 9.3
18 -6 7 11.2 10
-12 18 7 -14.5 8.8
18 -6 -7 5.6 16.6
6 12 -7 9.1 13.4
12 -18 -7 0.7 11.1
-12 18 -7 1.9 8.8
-18 12 7 -5.6 9.1
6 -18 7 0.7 6.8
18 -12 7 -4.6 10.1
-5 18 -7 15.7 11.3
18 -13 -7 11.2 12.8
18 -5 7 8.3 9.7
13 -18 7 10.6 9.6
13 5 -7 21.5 20.8
5 -18 -7 28.8 13
5 13 -7 18.4 14.1
18 -5 -7 12.3 17
13 -18 -7 22.1 11.6
5 -18 7 0.3 6.8
-13 18 -7 -1.9 8.8
5 13 -7 1.9 16.6
18 -13 7 7.6 10.4
4 -18 -7 10.7 11.9
-4 18 -7 -1.3 10.7
18 -4 7 -4.8 9.1
14 4 -7 -7.6 19.5
18 -14 -7 10.4 12
14 -18 7 3 9.5
4 -18 7 1.1 7.2
-4 -14 -7 2.4 10.5
18 -14 7 -1.3 10.6
4 14 -7 2.2 13.3
-14 18 -7 1.6 9.9
18 -4 -7 24.5 18
14 -18 -7 7.5 10.5
3 -18 -7 32.8 12.1
18 -3 7 13.5 9.2
-3 18 -7 29.8 11.6
15 3 -7 7.4 18.3
15 -18 7 14.6 9.7
18 -15 -7 23.7 12.1
18 -3 -7 15.6 16.3
-3 -15 -7 35 10.4
15 -18 -7 34.4 11.2
3 15 -7 21.7 13.4
3 -18 7 1.5 9.8
18 -15 7 34 11.1
2 -18 -7 9.1 11.4
16 2 -7 5.5 17.7
18 -16 -7 9.6 12
-2 18 -7 9.2 11
16 -18 7 3 9.4
18 -16 7 6.5 10.2
16 -18 -7 2.1 9.8
-2 -16 -7 13.7 9.7
2 16 -7 9.1 12.1
18 -2 -7 5.8 16.2
-1 18 -7 28.5 11.5
1 -18 -7 24.4 11.8
17 1 -7 3.9 15.7
17 -18 7 12.9 9.4
18 -17 -7 19 10.7
18 -17 7 13.2 9.7
-1 -17 -7 15.9 9.6
18 -1 -7 4.6 15.3
17 -18 -7 17.7 9.8
1 17 -7 12.9 11.3
0 -18 -7 42.5 9.7
0 18 -7 51.39 11.1
18 -18 7 46.3 9.8
18 -18 -7 39.2 9.7
18 0 -7 15.4 13.8
10 9 -7 3.8 18.8
10 -19 7 3 8.9
9 -19 -7 0.3 11.5
19 -9 7 -0.7 9.9
19 -10 -7 5.7 15.2
10 9 -7 -0.2 7.7
19 -10 7 6.8 10
9 10 -7 6.4 11
19 -9 -7 4.9 15.9
9 -19 7 -0.3 8.8
10 -19 -7 5 11
9 10 -7 -4.3 18.6
8 -19 -7 27.4 12
19 -8 7 27.9 10.5
11 8 -7 19.4 19.6
11 -19 7 11.5 9
19 -11 -7 20.6 13.8
8 11 -7 6.9 12
19 -11 7 13.3 10.1
19 -8 -7 4.5 15.8
11 -19 -7 6.5 11.2
8 -19 7 21 8.7
19 -12 -7 34 14.3
12 -19 7 26.2 9.3
7 -19 -7 24.8 11.5
12 7 -7 18.9 18.9
19 -7 7 14.8 9.4
19 -7 -7 0 15
19 -12 7 6.1 10.1
7 12 -7 13.3 12.1
7 -19 7 18.2 8.1
12 -19 -7 40.7 11.6
19 -6 7 6.1 9.3
13 6 -7 20.1 19
19 -13 -7 26.1 12.9
-6 19 -7 -1 7.7
6 -19 -7 31.9 12.3
13 -19 7 7.7 9.1
6 -19 7 13.6 7.7
19 -6 -7 18.9 15.3
19 -13 7 20.6 10.3
13 -19 -7 23 11.5
6 13 -7 16.3 13.5
19 -5 7 1.2 8.9
14 5 -7 11.6 19.3
5 -19 -7 3.5 10.7
19 -14 -7 10.5 11.7
14 -19 7 8.7 8.9
-5 19 -7 14.6 9.3
19 -14 7 17.2 10.3
14 -19 -7 12.1 10.3
19 -5 -7 10.9 15.1
5 14 -7 8.5 13.1
5 -19 7 1.7 7
19 -15 -7 24.8 11.6
19 -4 7 8.8 8.6
-4 19 -7 20.7 10.6
4 -19 -7 12.1 11.1
15 -19 7 14.2 8.9
15 4 -7 -0.1 17.7
15 -19 -7 13.2 10.5
4 15 -7 3.9 12
4 -19 7 1.3 7
19 -15 7 8.1 9.9
19 -4 -7 -3.2 13.5
-3 19 -7 59.39 11.3
3 -19 -7 74.69 13.2
19 -3 7 35.4 9
16 3 -7 31.6 17.3
16 -19 7 48 9.8
19 -16 -7 61.39 12.6
19 -3 -7 34.7 15.8
19 -16 7 44.5 10.3
3 16 -7 38.5 11.9
16 -19 -7 48.1 9.9
19 -2 7 11.9 7.8
-2 19 -7 27.5 10.3
17 2 -7 10.2 14.8
2 -19 -7 22.6 10.6
17 -19 7 13.4 8.5
19 -17 -7 20.4 10.3
19 -17 7 15.4 9.5
17 -19 -7 18.1 9
-2 -17 -7 25.5 9.8
2 17 -7 19.4 10.6
19 -2 -7 17 14.5
-1 19 -7 8.9 9.6
19 -1 7 5.4 6.7
18 -19 7 2.1 7.8
18 1 -7 0.9 13.3
1 -19 -7 5.4 8.3
19 -18 -7 6.5 8.3
19 -1 -7 3.3 13.1
1 18 -7 16.9 10.2
18 -19 -7 6.1 8.2
-1 -18 -7 5.9 9.3
19 -18 7 14 8.2
19 -19 -7 10.3 7.7
19 -19 7 9.8 7.5
19 0 7 9.8 5.7
0 19 -7 7.5 9.2
19 0 -7 4 12.9
0 -19 -7 8.2 9.3
10 -20 7 7 8.3
20 -10 7 4.5 9
20 -10 -7 18.1 13.4
10 -20 -7 14.9 9.9
10 10 -7 4.7 15.7
10 10 -7 0.3 7.2
9 -20 -7 15.1 11.4
11 9 -7 12.7 18.5
11 -20 7 2 8.2
20 -11 -7 15.8 12.8
20 -9 7 1.8 9.1
9 11 -7 13.4 10.8
9 -20 7 5.1 8
20 -11 7 14.8 9.4
11 -20 -7 11.5 10.4
20 -9 -7 2.5 13.4
20 -8 7 11.6 9.3
8 -20 -7 27 11.6
20 -12 -7 14.5 12.6
12 -20 7 10.2 8.4
12 8 -7 4.2 17.8
20 -8 -7 20.5 14.4
8 12 -7 -3.9 10.5
20 -12 7 7.5 9.2
12 -20 -7 7.3 9.9
8 -20 7 5.5 7.5
13 7 -7 7.3 17.2
20 -7 7 7.5 8.6
20 -13 -7 0.8 11.2
13 -20 7 15.6 8.4
7 -20 -7 14 10.7
7 -20 7 10.8 7.2
7 13 -7 9.4 11.4
20 -7 -7 13.7 13.4
13 -20 -7 22.1 10.2
20 -13 7 18.6 9.3
6 -20 -7 1.4 10.4
20 -6 7 -2.8 8.2
14 -20 7 0.3 7.9
20 -14 -7 -6.2 10.6
14 6 -7 7 18
6 -20 7 2.9 6.3
20 -6 -7 6.9 13.2
6 14 -7 8.5 10.7
20 -14 7 6.3 9.4
14 -20 -7 -2.6 9
15 -20 7 18.9 8.2
5 -20 -7 31.1 10.5
-5 20 -7 17.7 8.2
20 -15 -7 20.6 10.5
15 5 -7 3 16
20 -5 7 19.8 8
15 -20 -7 38.9 9.9
20 -15 7 22.3 9.5
20 -5 -7 6.6 12.3
5 -20 7 1.2 9.6
5 15 -7 15.2 10.6
20 -16 -7 20.2 10.1
16 -20 7 25.7 8.3
20 -4 7 27.5 8
-4 20 -7 25.3 9.2
16 4 -7 0.4 16.1
4 -20 -7 39.8 11.7
20 -4 -7 12.4 12.4
20 -16 7 17.3 9.1
4 16 -7 18.3 10.1
16 -20 -7 35.4 9.2
3 -20 -7 4.2 10
20 -3 7 5.1 6.8
17 -20 7 2.5 7.4
-3 20 -7 12.6 9.3
17 3 -7 0.6 13.6
20 -17 -7 12.1 9.4
3 17 -7 7 9.6
20 -3 -7 2.6 12.2
20 -17 7 4.8 8.5
17 -20 -7 7.6 8.1
20 -18 -7 8.9 7.4
18 2 -7 8.5 13
18 -20 7 11.1 7.1
2 -20 -7 16.2 8.9
-2 20 -7 29 9.6
20 -2 7 8.3 6.1
2 18 7 12.8 7.6
20 -18 7 7.5 7.6
2 18 -7 16.5 9.6
18 -20 -7 11.2 7
20 -2 -7 -5.5 11
-1 20 -7 9.7 9.6
19 1 -7 5.4 13.6
20 -19 -7 0 5.2
1 19 7 10.6 8.4
1 -20 -7 6.2 8.8
20 -1 7 3 7.2
19 -20 7 4.2 6.3
20 -19 7 6.1 6.4
19 -20 -7 0.4 5.1
1 19 -7 10.7 9.5
20 -1 -7 -10.6 11.3
-1 20 7 9.3 7.9
20 0 -7 4.2 12.9
0 20 -7 9.1 10.3
0 20 7 1.6 9.6
10 -21 -7 13.9 9.4
11 -21 7 14 7.4
21 -11 -7 4.8 11.5
11 10 -7 -4.8 14.7
21 -10 7 7.6 8.3
11 -21 -7 15.2 9.3
21 -10 -7 4.7 11.7
21 -11 7 13.9 8.6
10 -21 7 11.1 6.9
9 -21 -7 27.8 9.4
12 -21 7 14.5 7.7
21 -12 -7 13.1 10.7
12 9 -7 19.4 16.7
21 -9 7 13 8.2
21 -9 -7 23.5 11.6
12 -21 -7 17.8 8.9
9 -21 7 18.5 6.9
9 12 -7 10.9 7.6
21 -12 7 7.5 8.5
8 -21 -7 13.6 9.7
13 -21 7 9.3 7.8
21 -8 7 7.1 8
13 8 -7 4.3 16.3
21 -13 -7 6.6 10.4
21 -13 7 8.5 8.5
21 -8 -7 7.3 12.1
8 13 -7 5.8 9.1
8 -21 7 -0.3 5.9
13 -21 -7 16.8 8.8
21 -14 -7 -6.1 9.8
14 7 -7 2.9 15.8
21 -7 7 -3.3 7.8
7 -21 -7 -5.1 8.9
14 -21 7 5.2 7.5
7 14 -7 -12.4 9.6
14 -21 -7 11.1 8.7
7 -21 7 0.1 8.2
21 -7 -7 -5.8 11.3
21 -14 7 8.1 8.7
21 -6 7 -0.7 7.3
15 -21 7 6.2 7
21 -15 -7 9.9 9.3
6 -21 -7 13.6 9.5
15 6 -7 7.6 16
15 -21 -7 3.6 7.9
6 15 -7 -4.2 9.4
21 -15 7 6.7 8.2
21 -6 -7 1 11
21 -16 -7 4.4 9
21 -5 7 2.9 6.5
5 -21 -7 -2.7 8.9
5 16 7 -6 5.9
16 -21 7 7.9 6.9
16 5 -7 -2.1 14.6
21 -16 7 0.6 7.8
16 -21 -7 17.3 7.9
21 -5 -7 8.6 11
5 16 -7 10.8 9.1
-4 21 -7 4.1 6.1
4 17 7 12.6 6.3
21 -17 -7 14.6 7.7
17 4 -7 2.1 14.5
4 -21 -7 7.8 9.5
17 -21 7 6.4 6.3
21 -4 7 9.2 5.5
17 -21 -7 9.5 6.6
21 -17 7 15.6 7.7
21 -4 -7 -1.1 10.6
4 17 -7 28.5 9.4
3 -21 -7 10.1 8.7
21 -3 7 0.5 7.8
18 3 -7 2.2 14.1
3 18 7 22.3 7.5
18 -21 7 -5.2 5.1
-3 21 -7 11.1 7.8
-3 21 7 15.8 8.5
21 -18 7 14.3 6.4
3 18 -7 16.7 9.7
21 -3 -7 12 11.3
2 19 7 9 8.6
19 2 -7 -3.9 14.1
-2 21 -7 1 8.2
2 19 -7 2.1 10.1
21 -2 -7 5.1 12.5
-2 21 7 12.9 9.3
22 -11 7 13.4 7.1
22 -11 -7 10.7 9.4
11 -22 7 1.1 5.4
11 -22 -7 14.4 8.5
12 -22 7 1.1 5
22 -10 7 9.8 7.1
10 -22 -7 6 8.6
22 -12 -7 13.6 9.5
12 -22 -7 6.8 8.5
22 -12 7 1 7.4
22 -10 -7 1.2 9.8
13 9 -7 11.9 12.1
22 -13 -7 10.6 9.1
22 -9 7 11.8 6.9
13 -22 7 -1.5 5.3
9 -22 -7 21.7 8.8
22 -9 -7 4.5 10.4
13 -22 -7 17.6 8.5
22 -13 7 20.7 7.8
8 -22 -7 25 8.9
14 -22 7 0 5.5
22 -14 -7 14.5 8.9
14 8 -7 -8.7 15
22 -8 7 15.3 7
14 -22 -7 4.3 7.3
22 -8 -7 3.9 10.2
22 -14 7 4.6 7.5
8 14 -7 3 6
22 -15 -7 -3.9 7.7
7 -22 -7 13.4 8.9
15 7 -7 21.3 16.9
15 -22 7 -0.4 5.4
22 -7 7 3 5.9
15 -22 -7 -0.3 6.5
7 15 -7 -0.4 8.2
22 -15 7 1.6 6.9
22 -7 -7 -5.4 10.1
16 6 -7 -2 14.7
22 -16 -7 0 5.8
16 -22 7 -0.8 6.8
22 -6 7 0.7 5.6
6 -22 -7 22.1 9.7
22 -6 -7 1 10.6
16 -22 -7 1 4.8
6 16 -7 14.7 9
22 -16 7 12.2 6.8
-6 22 7 10.9 8.5
17 5 -7 0.2 15.5
5 -22 -7 9 9.5
5 17 -7 -0.4 9.9
22 -5 -7 1.7 11.3
-5 22 7 10 9.1
22 -17 7 -1.7 5.5
23 -12 -7 6.7 7
11 -23 -7 4.8 8
23 -11 7 -1.9 5.1
23 -11 -7 4 8.5
12 -23 -7 1.4 6.8
23 -12 7 2.5 5.1
10 -23 -7 12.6 8.7
23 -10 7 0.3 6.8
23 -13 -7 0.5 5.2
23 -10 -7 0.2 8.6
23 -13 7 -1.8 5.4
13 -23 -7 1 4.8
9 -23 -7 7.9 9.4
23 -14 7 -1.7 7
23 -9 -7 9.7 10.2
0 0 -8 5 10.4
0 0 8 -7 6.5
0 0 -8 3.3 11.5
1 -1 8 81.29 12.4
0 1 -8 96.29 15.1
-1 0 8 83.29 14.1
0 1 8 83.09 12
-1 0 -8 94.99 14.8
-1 1 8 83.59 12.5
0 -1 8 82.39 13.4
1 0 8 85.39 12.3
-1 1 -8 89.19 15.1
1 0 -8 98.29 13.5
1 -1 -8 100.59 13.8
2 -1 8 92.89 12.3
1 -2 -8 101.19 14.2
-1 -1 8 100.49 13.3
-2 1 8 92.29 15.4
2 -1 -8 90.29 13.6
2 -1 8 94.69 19.6
1 -2 8 108.79 14.4
1 1 8 97.49 13.7
1 -2 8 79.99 18
-2 1 -8 110.09 15.3
1 1 -8 100.59 15.5
-1 2 -8 100.99 13.7
-1 2 -8 102.89 14.2
-1 -1 -8 119.99 16.2
-1 2 8 86.29 14
0 -2 -8 13.7 11.1
-2 2 -8 6.4 12.7
2 -2 8 10.3 14.1
-2 2 -8 13.9 7.5
2 -2 8 5.4 7.4
2 0 -8 2.9 18.7
-2 0 8 17.6 8
0 -2 8 12.4 7.1
2 0 8 9.6 14.5
0 2 -8 22.1 11.7
-2 2 -8 5.5 9.4
-2 0 -8 11.1 10.7
2 0 -8 20.9 10.7
2 0 8 13.1 7.4
0 2 -8 10.3 13.4
-2 2 8 13.5 8.2
0 2 8 9.9 6.7
2 -2 -8 18.7 9.9
-1 3 -8 33.1 14.9
-2 3 8 45 9.6
-2 -1 -8 34.7 11
-3 2 -8 51.89 11.8
3 -2 -8 25.8 11.9
2 1 -8 54.29 11.6
-3 2 -8 54.39 8.9
3 -1 8 68.49 9.6
2 1 -8 0 14.5
2 -3 8 28.2 14
-3 1 8 50.49 9.3
1 2 8 31.2 15.8
2 -3 8 34.7 8.1
-1 3 -8 58.49 9.6
-1 -2 8 38 8.7
1 2 8 41.8 8.8
3 -1 8 48 16.5
1 -3 -8 75.89 13.4
-1 3 -8 68.29 13.7
3 -2 -8 77.79 13.1
3 -1 -8 33.4 11.6
3 -1 -8 62.09 12.5
3 -2 8 41.9 9
2 1 8 28.3 7.5
-2 3 -8 46.8 12.7
2 1 8 33.3 15.7
-2 -1 8 41.3 8.8
3 -2 8 36.1 16.6
1 -3 8 47.8 9.2
-3 2 8 42.5 9
-2 3 -8 15 14
-1 3 8 42 9.2
2 -3 -8 57.99 11.8
1 2 -8 45.8 11.3
1 -3 8 24.4 14.6
-3 1 -8 46 11.2
-1 -2 -8 51.09 12.1
-2 3 -8 31.2 8.1
0 3 -8 21.3 7.8
3 0 8 19.5 7.3
0 3 -8 39.4 12.1
0 -3 8 25.6 8.5
3 -3 8 18.3 7.6
-3 3 8 30.2 9.2
3 0 -8 32.6 11.4
0 -3 -8 24.4 10.7
-3 3 -8 31.6 11.3
3 -3 8 13.1 14.2
-3 3 -8 29.4 7.7
-3 0 8 25.6 9
-3 0 -8 31.4 10.9
3 0 -8 16.1 11.4
3 -3 -8 37.1 12
0 3 -8 6.1 13.8
-3 3 -8 14.1 13.8
3 0 8 16.8 15.7
3 -3 -8 16.6 11.3
0 3 8 19.2 7.8
4 -2 -8 111.09 20.7
-2 4 -8 136.59 15.1
-4 2 8 160.28 17.7
2 2 8 143.29 15.1
2 -4 8 165.98 16
-2 4 -8 152.78 17.1
-2 -2 -8 143.19 17.1
-2 4 8 141.79 16.2
-2 -2 8 183.18 17.1
2 2 -8 151.48 15.4
2 -4 -8 158.28 17.6
4 -2 -8 140.29 16.4
-4 2 -8 157.48 15
3 -4 8 128.09 14.6
-3 -1 -8 111.39 15.1
-4 1 8 133.59 16.8
3 1 -8 131.39 15.9
-1 -3 8 123.29 15.7
-1 4 -8 117.29 16.7
1 3 8 109.19 13
4 -3 -8 94.89 15.5
-1 4 -8 102.09 13.9
4 -1 8 76.09 18.3
-4 3 -8 113.99 14.5
-3 4 8 128.19 15.7
1 -4 -8 113.59 16.5
-3 4 -8 96.79 11.6
1 3 -8 94.09 15.6
1 -4 8 95.69 14.4
3 1 8 79.79 12.9
-4 3 8 118.89 13
-3 4 -8 85.69 13.9
-4 1 -8 59.19 11.3
-1 -3 -8 84.79 13.7
4 -1 -8 99.79 13.8
-1 4 8 92.19 14.4
3 -4 -8 140.89 16.4
-3 -1 8 92.39 14
0 -4 8 33.8 8.8
4 -4 8 0.4 12.5
4 -4 -8 7.7 11.1
0 4 -8 23.4 7.8
-4 4 -8 30.9 7.9
-4 4 8 33.4 8.8
-4 4 -8 28.8 10.1
4 0 -8 33.9 11.7
4 0 -8 4.8 10.6
0 4 8 22.9 7.4
0 4 -8 36.2 12.1
-4 0 8 47.6 10.3
-4 0 -8 23.5 9.9
0 4 -8 1 12.4
-4 4 -8 4.7 14.3
0 -4 -8 26.9 11.6
4 -4 -8 27.1 10.2
4 0 8 5.8 12.6
-3 5 8 61.49 10.2
-5 3 -8 64.49 9.5
2 -5 -8 66.09 13.9
-2 5 -8 68.19 14.1
3 -5 8 49.3 8.9
-5 2 8 60.39 10.3
2 3 8 58.79 9.7
5 -3 -8 69.49 13.2
-2 -3 8 60.09 10.6
-3 -2 -8 65.49 12.9
-3 5 8 61.09 8.9
3 2 -8 93.49 14.3
-2 5 -8 53.89 9.3
2 -5 8 59.79 10.1
5 -2 -8 60.29 11.9
-2 -3 -8 72.49 13.4
-3 5 -8 60.09 9.8
-5 3 8 88.09 11.7
2 3 -8 70.69 13.6
3 -5 -8 96.59 15.3
-3 5 -8 72.29 13.5
-2 5 8 60.89 10.4
3 2 8 42.9 8.5
-3 -2 8 70.79 10.8
-5 2 -8 68.49 10.5
-4 5 8 91.69 13.9
-1 5 -8 84.09 13
-1 5 -8 119.79 16.4
-1 -4 8 74.79 10.5
1 4 8 74.89 10.4
4 1 -8 78.19 13.4
-5 4 -8 103.99 12.9
-4 -1 -8 60.39 12
-4 5 8 96.69 12.1
-5 1 8 116.49 16.5
5 -4 -8 108.59 14.8
4 -5 8 85.89 12.9
1 -5 -8 126.09 16.6
-4 5 -8 89.69 13.7
-5 4 8 88.89 14
4 1 8 81.59 12.2
1 4 -8 130.89 16.3
5 -1 -8 129.29 15.4
-1 5 8 84.09 14.5
4 -5 -8 97.19 13.8
-4 -1 8 102.49 16.1
-4 5 -8 79.79 13.6
1 -5 8 90.39 13.5
-5 4 8 102.29 14.6
-5 0 8 192.38 18.6
0 5 -8 157.98 18.1
0 5 8 168.08 16.4
-5 5 8 160.48 16.3
5 -5 -8 137.59 16.9
0 5 -8 139.69 14.5
-5 5 8 175.98 16.1
0 -5 8 140.29 15.5
-5 5 -8 154.78 16.1
5 0 -8 149.29 17.3
-3 6 -8 243.88 21.7
-3 -3 8 209.08 19.7
3 3 8 271.47 19.6
3 -6 -8 272.77 22.2
-3 6 8 259.57 18.7
-6 3 8 288.07 21
3 -6 8 236.48 19.3
6 -3 -8 254.87 20.8
-3 6 8 260.57 20.6
-6 3 -8 254.77 20.2
-3 6 -8 221.78 19
3 3 -8 273.47 21.6
-2 6 -8 211.98 17.9
-2 -4 8 176.68 17.7
-6 4 -8 228.18 18.9
-4 6 8 223.08 17.3
-4 6 8 228.98 18.4
-2 6 -8 244.98 21.2
4 -6 8 236.38 18.8
-6 2 8 221.88 20.8
4 2 -8 209.98 19.6
6 -4 -8 202.38 19.4
2 4 8 229.38 18.3
2 -6 8 155.38 15.8
-6 2 -8 206.08 17.4
-4 6 -8 167.88 17.9
6 -2 -8 182.98 17.8
-2 6 8 210.88 17.1
-2 6 8 194.58 17.6
-4 6 -8 175.08 15.7
-6 4 8 206.08 18.3
2 4 -8 181.48 17.5
-6 4 8 144.59 16
-4 -2 8 186.08 18.1
4 2 8 186.58 15.8
4 -6 -8 180.78 17.7
1 5 8 27.1 8.1
-1 6 -8 23.3 11.3
-6 1 8 24 9.9
-6 5 -8 33.3 8.6
-5 6 8 31.4 9.1
-5 6 8 28.5 9.4
-1 6 -8 29.2 8.1
5 1 -8 31.4 11.5
6 -5 -8 25.1 11.7
6 -1 -8 12.7 10.4
-1 6 8 31.1 8.5
1 -6 8 13.5 6.6
-6 5 8 15.3 7.9
5 -6 -8 22.9 10.4
-1 6 8 16.6 8
1 5 -8 23.3 10.9
-6 5 8 32.8 10.6
-5 6 -8 -0.8 10.8
-5 6 -8 20.9 8.4
-5 -1 8 20.4 9.6
0 6 -8 8.2 10.8
-6 6 8 6.2 8.3
0 6 8 4.7 6.3
0 6 -8 -0.8 6.2
6 0 -8 1 10.6
6 -6 -8 -5.5 10.5
-6 6 -8 8.7 7.9
0 6 8 8.1 7.3
-6 6 8 2.6 9.7
-6 0 8 -2.1 9.9
-3 7 -8 32.9 13
7 -4 -8 39.3 11.7
-7 3 8 27.4 10
-3 7 -8 30.8 8.6
-4 7 8 36.1 9.4
-4 7 8 45.2 9.4
-7 4 -8 51.69 9.8
4 -7 8 32.8 8.5
4 3 -8 45.3 11.8
3 4 8 34 9
-4 7 -8 32.6 12.5
-7 3 -8 47 10
3 -7 8 23.4 7.5
-7 4 8 49.99 10.8
-3 7 8 32.9 8.2
-4 7 -8 45.3 9.4
3 4 -8 62.89 13.1
4 3 8 44.6 9.1
-4 -3 8 21.3 8.6
7 -3 -8 54.69 12.8
-3 7 8 47.7 10
-2 7 -8 137.39 17.2
-7 2 8 112.59 19.2
-7 5 -8 123.59 15.6
-5 7 8 135.49 17.1
7 -5 -8 118.59 16.6
-2 7 -8 127.79 14.7
-5 7 8 128.49 15.8
2 5 8 122.39 14.4
5 2 -8 135.09 16.7
-2 7 8 132.59 15.4
5 -7 -8 137.19 17.4
-2 7 8 132.79 15.2
7 -2 -8 153.58 17.3
2 5 -8 128.59 15.5
-7 2 -8 153.18 16.1
-7 5 8 138.29 19.2
-7 5 8 101.39 14.9
-5 -2 8 104.99 16.8
-5 7 -8 143.69 15.6
-1 7 -8 47.4 12.5
7 -6 -8 38 12
1 6 8 32.4 7.9
-6 7 8 50.99 10.5
6 1 -8 42.6 12
1 6 8 29.8 7.6
-6 7 8 27.6 9.9
-1 7 -8 33.2 8.2
-7 1 8 38.4 10.8
-7 6 -8 49.1 9.5
-7 6 8 47.4 11
-6 7 -8 42.5 8.9
-1 7 8 48 9
7 -1 -8 68.59 13.4
-6 -1 8 43.2 11.4
1 6 -8 51.49 11.9
-1 7 8 27.5 8.1
-7 6 8 32.1 9.1
6 -7 -8 45.9 12.4
-7 7 8 25.9 10.1
-7 0 8 12 11.4
-7 7 -8 29.1 9.2
-7 7 8 14.7 10.2
0 7 8 -0.2 5.4
0 7 -8 -0.8 6.7
7 0 -8 19.6 11.9
0 7 8 15.3 7.7
0 7 -8 33.9 13.1
7 -7 -8 23.1 11.8
-4 8 -8 205.58 19
4 4 8 243.58 18.4
-8 4 -8 223.38 19
-4 8 -8 186.68 19.9
-4 8 8 208.48 20
-4 8 8 214.98 19.1
4 4 -8 207.38 19
-8 4 8 183.78 23.2
8 -4 -8 238.88 20.4
-8 3 8 94.89 14.5
-3 8 -8 124.49 15.2
-3 8 -8 110.79 16.7
5 3 -8 104.49 15
-5 8 8 112.89 17.2
8 -5 -8 109.39 16.6
5 -8 8 100.69 14.1
-5 8 8 109.39 15.9
-8 5 -8 108.29 15.2
3 5 8 102.49 13
-3 8 8 63.49 10.8
5 3 8 108.09 14
3 5 -8 98.19 16
-8 5 8 106.49 14.5
-8 3 -8 108.69 15.6
-5 8 -8 76.49 11.2
-3 8 8 102.09 14.6
8 -3 -8 99.09 15.9
-6 8 8 41.5 10.9
-6 8 8 32.7 10.8
-2 8 -8 29.2 8.7
-8 6 -8 47.5 10.1
-2 8 -8 50.59 13.6
8 -6 -8 48.3 13
6 2 -8 64.09 13.7
2 6 8 54.09 9.5
-8 2 8 40.1 11.8
-8 6 8 33.7 12.5
-6 8 -8 35.7 9.7
-8 6 8 18.7 9.5
-2 8 8 40.4 9.2
8 -2 -8 48.7 12.8
2 6 -8 47.3 13.4
-6 -2 8 10.8 9.7
-8 1 8 24.8 12.7
-1 8 -8 14.1 6.9
-8 7 -8 36.4 9.8
-1 8 -8 39.9 14.1
7 1 -8 41.2 13
8 -7 -8 25.8 12
1 7 8 25.9 8.2
-7 8 8 35.1 11.2
-7 8 8 28.6 10.8
-8 7 8 30 10.4
-1 8 8 42 9.4
-8 7 8 16.8 11.9
8 -1 -8 32.8 11.9
1 7 -8 41.2 13.8
-7 8 -8 35.1 9
-7 -1 8 11.3 11.5
-8 8 8 -4.9 9.3
-8 8 8 2.4 11.7
0 8 -8 0.1 12.5
-8 8 -8 4.2 8.6
0 8 8 6 8.1
8 0 -8 2.5 12
-8 0 8 -9.2 10.9
9 -5 -8 107.19 16.5
-9 5 -8 121.49 16.4
5 4 -8 118.59 17.1
-4 9 -8 110.89 16.6
-5 9 8 121.99 14.3
-4 9 -8 99.49 16.2
-9 4 8 107.69 16.6
-5 9 8 85.79 13.3
-5 9 -8 132.29 17
-5 9 -8 77.79 14.4
4 5 -8 110.09 16.9
-4 9 8 102.99 16.4
9 -4 -8 112.59 16.4
-9 5 8 111.59 16.4
5 4 8 113.19 14.2
-9 4 -8 116.99 16.2
3 6 8 46.6 9.6
-9 3 8 19.3 12.1
-6 9 8 17.6 10.8
-6 9 8 35.4 10.9
9 -6 -8 49.4 12.4
-3 9 -8 27.1 12
-9 6 -8 43.6 10.2
6 3 -8 41 12.9
-3 9 -8 26.4 9
-9 3 -8 37.3 9.7
-9 6 8 27.9 13.1
-3 9 8 47.3 10.6
-6 9 -8 43.2 10.4
3 6 -8 54.69 13.5
9 -3 -8 45.7 12.6
6 3 8 35.2 8.8
-2 9 -8 49.1 14.1
2 7 8 52.99 9.9
-9 2 8 38.7 13.1
9 -7 -8 47.8 12.9
-9 7 -8 64.19 11.6
-7 9 8 40 11.1
-2 9 -8 43.2 9.4
-7 9 8 31.6 12
7 2 -8 50.29 13
-7 -2 8 21 11.6
-2 9 8 58.29 11.3
9 -2 -8 56.09 13
-9 7 8 27.6 9.7
-9 7 8 43.7 13.3
2 7 -8 82.89 15.8
-7 9 -8 54.29 11.1
-9 1 8 63.39 13.3
8 1 -8 111.29 17.3
-1 9 -8 119.89 17.9
1 8 8 92.49 12.1
-9 8 -8 112.69 16.6
-8 9 8 78.29 13.2
-8 9 8 58.39 14.3
-1 9 8 106.79 13.6
1 8 -8 102.59 16.4
-9 8 8 80.69 15.6
9 -1 -8 98.49 15.6
-8 9 -8 121.09 14.7
-9 9 8 52.89 13.1
0 9 8 53.79 11.1
9 0 -8 71.19 14.8
-9 9 8 55.99 12
-9 0 8 34.8 11.7
0 9 -8 79.89 15.7
-10 5 8 109.89 18.9
-5 10 -8 115.29 17.8
-10 5 -8 113.49 17.1
5 5 -8 133.79 17.4
-5 10 8 128.89 15.3
-10 4 8 72.49 14.4
-4 10 -8 48.5 13.2
-4 10 -8 72.59 12
4 6 8 59.49 10.2
6 4 -8 76.09 14.5
-10 6 -8 78.09 12.4
-6 10 8 47.1 11.1
-10 6 8 53.69 12.5
4 6 -8 99.19 16.7
-4 10 8 63.49 12
-6 10 -8 59.69 11.6
-10 4 -8 54.19 10.9
3 7 8 16.7 8.8
-7 10 8 -5.1 10
-3 10 -8 20.7 9.4
7 3 -8 33.3 12.4
-10 7 -8 25.8 9.9
-7 10 8 18.7 10.5
10 -7 -8 1.4 9.7
-3 10 -8 18.8 12.9
-10 3 8 17.2 12
-3 10 8 11.8 10
10 -3 -8 -1 9.8
3 7 -8 25 14
-10 7 8 9.5 12
-7 10 -8 15.7 10.2
2 8 8 67.89 11.4
-2 10 -8 79.09 16.8
-8 10 8 33.6 12.3
-8 10 8 59.59 12.9
-10 8 -8 92.39 13.3
8 2 -8 52.19 13.4
-10 2 8 76.79 14.4
-10 8 8 78.39 14.7
-8 10 -8 51.89 11.2
2 8 -8 61.99 15.5
-2 10 8 64.09 11.7
9 1 -8 66.79 14.9
-9 10 8 52.89 13.3
-1 10 -8 83.19 17.7
-10 9 -8 56.69 11.7
-9 10 8 54.59 12.3
-10 1 8 54.29 13.3
1 9 8 53.99 12
-9 10 -8 58.49 11.9
1 9 -8 70.49 16.7
-9 -1 8 17.5 11.3
-10 9 8 55.29 13.3
10 -1 -8 20.3 11.2
-10 9 8 32 10.4
-1 10 8 34.7 11
-10 10 8 112.79 18.4
-10 0 8 98.99 14.9
0 10 -8 147.79 22.7
0 10 8 104.69 14.1
-10 10 8 143.49 21.2
10 0 -8 76.59 14.6
-6 11 8 14.5 10.7
-5 11 -8 9 11.5
6 5 -8 23.3 12.1
-11 5 8 16 12.2
-11 6 -8 10.3 9.4
5 6 8 -1 7.7
-5 11 -8 14.1 10.3
-5 11 8 5.3 9.7
-11 6 8 14.5 12.1
-11 5 -8 12.8 9.7
6 5 8 -7.9 6.5
5 6 -8 8.8 11.9
-6 11 -8 9 10.1
-11 7 -8 62.39 12.2
-11 4 8 63.09 13.4
4 7 8 26.9 9.6
-7 11 8 48 11.9
-4 11 -8 62.29 12.1
-4 11 -8 53.29 14
7 4 -8 47 13.7
-11 7 8 88.99 15.4
4 7 -8 74.49 15.2
-7 11 -8 65.69 12.9
-11 4 -8 58.99 11.4
-4 11 8 67.29 12.8
-8 11 8 23.9 11.4
-11 8 -8 16.7 9.6
-8 11 8 -3 9.5
3 8 8 17.7 10.1
-11 3 8 14.7 11.9
8 3 -8 26.1 13
-3 11 -8 14.8 9.4
-3 11 -8 24.2 14.1
3 8 -8 24.5 14.4
-8 11 -8 10.7 10.5
-11 8 8 29.4 12.4
-3 11 8 15.6 10.5
3 8 -8 -5.1 14.9
2 9 8 38.3 11.8
-2 11 -8 89.39 18
9 2 -8 66.79 14
-11 9 -8 74.39 13.3
11 -9 -8 0.2 11.9
-9 11 8 39.5 11.8
-11 2 8 46.7 13
2 -11 -8 31 11.3
-9 11 8 48.6 11.7
-11 9 8 78.99 14.8
-9 11 -8 77.49 14
-2 11 8 60.59 12.9
2 9 -8 74.79 16.9
2 9 -8 38.4 13.9
10 1 -8 41.4 12.9
11 -10 -8 100.19 13.7
-11 1 8 70.29 13.6
-10 11 8 73.09 13.4
-10 11 8 68.69 12.8
-1 11 -8 133.79 21.4
1 10 8 73.89 13.2
1 10 -8 94.29 17.8
-10 11 -8 110.89 14.8
-1 11 8 79.79 13.5
-11 10 8 61.49 13.6
1 10 -8 126.69 17.7
10 -11 -8 92.19 13.2
-11 11 8 -9.6 10.8
-11 0 8 -24.6 10.8
0 -11 -8 21.4 13.7
-11 11 -8 3.8 10.6
0 11 -8 1.1 15.5
11 -11 -8 -8.6 14.3
0 11 -8 -0.7 13.8
-11 11 8 -2.9 9.7
0 11 8 -2.1 10.6
6 6 -8 13.7 12.4
6 -12 -8 -2 9.3
6 6 8 3.1 11.4
-12 6 8 5.7 11.8
-6 12 8 10.7 9.7
12 -6 -8 0.1 12.5
-6 12 -8 6.6 10.9
-12 6 -8 5 9.6
-7 12 8 83.39 13.3
-5 12 -8 42.1 13.2
-5 12 -8 59.59 12.7
12 -7 -8 15.1 13.7
7 5 -8 59.29 14.1
-12 5 8 66.09 13.3
5 -12 -8 12.2 12.3
-12 7 -8 41.9 11.2
7 -12 -8 33.9 11.6
-12 5 -8 40.2 11.1
-7 12 -8 58.69 13.1
-5 12 8 65.39 11.9
5 7 -8 51.89 14.4
-12 7 8 54.19 13.6
12 -8 -8 62.99 16.1
-12 8 -8 64.79 13.2
4 -12 -8 38.9 12.3
8 4 -8 56.89 14.5
-12 4 8 21.9 11.8
-8 12 8 60.19 12.4
-4 12 -8 53.59 14.8
-4 12 -8 46.2 11.7
-8 12 -8 31.5 11.9
-12 8 8 31.1 12.6
4 8 -8 44.5 15
12 -4 -8 1.8 16.1
4 8 -8 52.49 14.7
8 -12 -8 41.4 12.8
-4 12 8 47.5 12
3 -12 -8 32.3 15.9
3 9 8 -15.3 8.9
-12 9 -8 2 10.5
12 -9 -8 3.1 15.2
-12 3 8 -11.1 11.6
3 -12 -8 -1.1 9.3
-3 12 -8 5.7 13.8
-9 12 8 10 11.5
9 3 -8 5.5 12.3
-9 12 -8 7.7 11.6
-3 12 8 8.6 10.1
3 9 -8 2.5 15.3
-12 9 8 -6.9 10.8
3 9 -8 3 13.3
9 -12 -8 0.8 13.9
12 -3 -8 1 15.5
-2 12 -8 -2.3 12.2
2 10 8 53.09 16.2
-2 12 -8 26.2 15
-12 10 -8 32.8 11.4
12 -10 -8 26.7 14.4
2 -12 -8 14.3 14.6
10 2 -8 -1.3 10.6
2 -12 -8 7.5 9.2
-10 12 8 33.4 11.7
-12 2 8 3.3 11.5
2 10 8 18.3 11
-2 12 8 30.6 11.6
2 10 -8 32.3 16.8
-2 -10 -8 10.8 11.1
-10 12 -8 39.8 12
-12 10 8 19.3 12.9
2 10 -8 37.5 15.8
12 -2 -8 -2.3 15.5
10 -12 -8 36.4 14.9
-1 12 -8 47.3 15.5
12 -11 -8 38.5 15.4
-11 12 8 32.8 11.4
-11 12 8 7.3 12
-12 11 -8 43.2 12.4
-12 1 8 7.6 11.7
-1 12 -8 48.2 17.7
1 11 8 52.89 16.9
1 -12 -8 32.7 9.9
1 11 8 27.1 11.9
1 -12 -8 26 16
1 11 -8 66.09 16
-11 12 -8 43.4 12.4
11 -12 -8 58.59 14.6
12 -1 -8 25.3 15.3
-1 -11 -8 36.7 15.3
1 11 -8 45.8 17.8
-1 12 8 33.2 11.6
-12 11 8 23.5 12.7
-12 12 -8 -1.2 10.7
0 12 8 12.1 14.9
0 12 -8 0.1 16.4
-12 12 8 -17.6 11.1
12 -12 -8 -3.6 14
0 -12 -8 5 15.4
0 -12 -8 0.1 10.9
12 0 -8 26.7 19.5
0 12 -8 -21.8 15.4
-12 12 8 -18.3 9.8
0 12 8 2.1 10.8
13 -7 -8 9.8 17.6
7 6 -8 -1.9 11.7
-13 7 -8 2.4 9.9
6 -13 -8 23.6 13.5
7 6 -8 14.9 12.7
6 -13 -8 21.4 12.4
6 7 8 0.8 13
-13 6 8 -2.6 11.9
-7 13 8 10.1 11.3
-6 13 -8 3.4 11.5
6 7 -8 5.4 11.8
7 -13 -8 3.1 11.8
13 -6 -8 15.3 16.9
-13 7 8 2.2 11.4
6 7 -8 9.4 12.7
-6 13 8 7.7 11.2
7 -13 -8 4.7 14.8
-7 13 -8 3.1 11.3
-13 6 -8 -4.7 9.6
5 -13 -8 6.3 12.2
8 5 -8 23.6 13.3
-13 8 -8 13.6 10.3
13 -8 -8 27.2 17.1
5 -13 -8 19.6 15.9
-8 13 8 16.2 11.5
-5 13 -8 8.4 12
-5 13 -8 18.5 11.3
-13 5 8 6.3 12.4
5 8 8 13.8 14.3
-8 13 -8 10 11.3
-5 13 8 17.9 10.9
-13 8 8 -3.6 12.2
5 8 -8 17 13.9
5 8 -8 4.7 14.3
8 -13 -8 32.7 14.7
13 -5 -8 20.3 18.7
-9 13 8 61.29 12.8
4 -13 -8 69.59 13.8
-13 4 8 46.7 14.1
9 4 -8 64.79 14.6
-4 13 -8 52.09 15
-13 9 -8 47.5 12.1
4 -13 -8 64.79 15
13 -9 -8 74.39 17.5
4 9 8 97.79 18
-13 9 8 53.89 14.4
4 9 -8 59.49 15.3
4 9 -8 78.69 18.4
13 -4 -8 95.59 21.9
-4 13 8 69.09 13.3
-9 13 -8 55.19 13
9 -13 -8 58.79 14.2
3 10 8 119.79 19.5
13 -10 -8 129.59 19.2
-10 13 8 98.09 15.1
3 -13 -8 122.29 15.8
-13 10 -8 90.69 15.3
-3 13 -8 91.29 18.3
-13 3 8 83.59 15.8
3 -13 -8 106.19 18.2
3 10 -8 68.69 17.3
-13 10 8 42.9 14.1
10 -13 -8 78.89 15.4
13 -3 -8 113.89 22.1
3 10 -8 67.79 17.9
-10 13 -8 64.69 14.2
-3 13 8 89.59 14
13 -11 -8 60.79 16.2
2 11 8 55.09 16.3
11 2 -8 -3.3 17.7
-11 13 8 16.4 11.6
2 -13 -8 36.4 12.1
-2 13 -8 59.79 16.7
-2 13 -8 28.8 16.4
-13 2 8 7.7 11.9
-13 11 -8 41.9 12.4
2 -13 -8 32.2 16.3
-2 13 8 39.9 15.6
2 11 -8 56.39 18.2
-11 13 -8 51.89 13.4
11 -13 -8 56.59 15.8
2 11 -8 26.1 16.9
-13 11 8 30.8 14
13 -2 -8 40.9 18.9
-2 13 8 40.7 11.8
13 -12 -8 59.09 15
-12 13 8 20.3 11.3
1 -13 -8 37.1 12.8
12 1 -8 44.4 20
-1 13 -8 55.69 18.6
-13 12 -8 36.7 12.7
-1 13 -8 62.29 16.1
1 12 8 50.09 16.6
-1 13 8 16.7 11.2
1 12 -8 46.8 18.4
-1 -12 -8 39.5 11.9
-13 12 8 12.4 12.6
13 -1 -8 34.3 20.1
-12 13 -8 30.4 12.2
-1 13 8 43.7 16.9
1 12 -8 45 17.9
12 -13 -8 38.4 14.1
0 13 -8 73.49 18.7
-13 13 -8 42.6 12.7
0 13 -8 58.29 18.9
0 13 8 46.7 16.4
13 0 -8 43.3 21.5
13 -13 -8 51.19 14.8
0 -13 -8 53.79 14.1
-14 7 8 -2.9 12.2
7 7 -8 -10.9 12.5
7 -14 -8 17.2 15
-7 14 -8 4.1 12.1
7 -14 -8 0.4 12.8
14 -7 -8 16.2 16.5
-7 14 8 -2.4 10.1
7 7 -8 11 13
6 -14 -8 8.9 12.6
-8 14 8 19.9 11.4
14 -8 -8 25.8 17.7
-14 8 -8 -4.1 10.1
6 -14 -8 31 15.5
8 6 -8 22.4 13.5
8 6 -8 0.8 9.8
-6 14 -8 31.6 12.4
-14 6 8 2.2 13.1
6 8 -8 13 14.9
-14 8 8 6 12.4
8 -14 -8 23.8 12.6
8 -14 -8 8.4 11.2
6 8 -8 18 14.6
-8 14 -8 12.3 11.9
14 -6 -8 25.1 18.5
-6 14 8 15.6 10.9
14 -9 -8 95.89 18.3
-14 9 -8 34.3 11.3
5 9 8 28.7 14.1
9 5 -8 56.99 13.7
-14 5 8 74.69 15.2
5 -14 -8 79.99 15.7
5 -14 -8 93.69 14.4
-9 14 8 55.49 12.2
9 -14 -8 106.39 15.7
5 9 -8 94.69 17.8
-5 14 8 105.49 18.7
5 9 -8 74.39 18.2
-14 9 8 57.99 15.5
14 -5 -8 74.09 20.5
-5 14 8 61.89 13.6
-9 14 -8 46.9 12.9
-14 10 -8 16.8 10.9
-10 14 8 19 11.4
-4 14 -8 -1.8 10.7
4 -14 -8 22.1 15.6
4 -14 -8 35.6 13.1
14 -10 -8 29.7 15.5
-14 4 8 16 13.3
-4 14 -8 27.9 14.2
4 10 8 31.9 14.6
-10 14 -8 20 11.8
4 10 -8 46.6 17.3
-14 10 8 18.9 13.8
-4 14 8 30.8 15.1
4 10 -8 10.1 15.4
14 -4 -8 41.4 21.2
10 -14 -8 39.5 14.8
-4 14 8 25.3 12.2
3 -14 -8 29.1 15.4
-14 11 -8 19.7 11.6
-11 14 8 15.9 12
3 -14 -8 35.4 13.6
3 11 8 38.4 15.2
-14 3 8 8 12.5
-3 14 -8 20.9 15.4
-3 14 -8 33.7 13.4
11 3 -8 14.7 17.8
14 -11 -8 26.4 15.2
3 11 -8 38.5 17.6
-11 14 -8 33.7 12.3
3 11 -8 49 17.1
11 -14 -8 56.59 14.4
-3 14 8 31.1 12.1
-3 14 8 44.7 16.8
-14 11 8 28.1 13.9
-3 -11 -8 18.5 9.5
14 -3 -8 45.4 20.4
2 -14 -8 23.7 12.4
14 -12 -8 15.7 15
2 12 8 29 14.6
-2 14 -8 21.2 16.3
-12 14 8 -10.7 10.5
-2 14 -8 5.3 15.9
12 2 -8 25.1 20.9
-14 12 -8 8 11
-2 -12 -8 15.9 11.4
12 -14 -8 30.5 14.6
2 12 -8 12.8 18
-2 14 8 11.4 15.5
14 -2 -8 15.7 20.2
-12 14 -8 6 11.1
2 12 -8 2.9 15.3
-14 12 8 -4.7 12.3
-2 14 8 -5.4 10.3
14 -13 -8 54.09 14.6
-1 14 -8 60.99 17.4
13 1 -8 51.19 21.7
-13 14 8 -14.4 15.6
-14 13 -8 31.1 11.9
-1 14 -8 27.9 16.7
1 -14 -8 26.3 13.4
1 13 8 44.5 15.3
13 -14 -8 78.09 15.3
-1 14 8 52.19 17.1
-13 14 -8 36 12.5
1 13 -8 44.1 18.6
14 -1 -8 45.3 19.8
-1 -13 -8 58.09 13.8
1 13 -8 42.9 17.3
0 14 -8 7.4 16.7
0 14 8 2.2 14.7
0 -14 -8 7.4 12
14 0 -8 23.4 19.1
-14 14 -8 3.1 10.5
0 14 -8 -16.5 15.4
14 -14 -8 2.9 12.8
7 -15 -8 41.8 13.6
15 -8 -8 46.6 17.5
8 7 -8 22.8 12.6
-15 7 8 25.9 14.1
-7 15 -8 29 12.6
-8 15 8 27.2 12
-8 15 8 31.6 14.2
8 7 -8 27.4 13.9
7 -15 -8 38.6 16.6
-8 15 -8 36.5 13.3
8 -15 -8 52.39 16
7 8 -8 33 15.2
8 -15 -8 49.8 14.8
7 8 -8 31.3 14.8
-7 15 8 34.2 15.4
15 -7 -8 30 17.8
-7 15 8 42.7 12.2
-15 8 8 23.9 13.3
15 -9 -8 31 17.4
9 6 -8 0.9 11.7
9 6 -8 0.7 9.6
-15 6 8 8.7 12.6
6 -15 -8 28.3 14.2
6 -15 -8 36.8 17
-9 15 8 1.5 16.2
-9 15 8 13.5 10.9
9 -15 -8 26.1 12.9
-6 15 8 23.5 11.2
9 -15 -8 8.7 12
-6 15 8 19.7 15.7
-15 9 8 18.9 14
15 -6 -8 18.2 18.7
-9 15 -8 23.9 12.7
6 9 -8 28.3 15.7
6 9 -8 15.7 14.8
15 -10 -8 54.69 17.5
5 -15 -8 64.69 14.3
-15 5 8 17.1 12.8
-10 15 8 41.4 12.5
10 -15 -8 39.6 13
15 -5 -8 20.6 17.9
5 10 -8 32.1 16.6
-10 15 -8 36.5 12.9
-5 15 8 14.1 10.9
-5 15 8 37.9 16.1
5 10 -8 30.7 16.3
-15 10 8 5.2 12.6
-4 15 -8 48.9 13.2
-15 4 8 22.2 13.5
-11 15 8 19.3 11.9
-4 15 -8 1.7 12.7
-15 11 -8 9.3 10.2
15 -11 -8 44.4 15.7
4 -15 -8 48.9 13.6
4 11 8 9.8 13.1
11 4 -8 38.2 19.4
-4 -11 -8 49.9 11.7
-4 15 8 31.3 11.5
-11 15 -8 25.3 12.4
4 11 -8 38.5 18.2
-4 15 8 40 16
4 11 -8 37.6 16.1
11 -15 -8 42 15.2
-15 11 8 29.9 13.4
15 -4 -8 58.39 20.4
-12 15 8 28.8 12.4
15 -12 -8 60.69 15.3
12 3 -8 45.9 21
3 -15 -8 57.89 14.5
-3 15 -8 55.99 15.4
3 12 8 34.9 14.1
-15 12 -8 19.3 10.3
-3 15 -8 24.9 14.6
15 -3 -8 21.9 19.1
12 -15 -8 50.39 13.9
-15 12 8 17.1 13
3 12 -8 49.3 18.8
-3 -12 -8 32.6 11.8
3 12 -8 30.1 17
-3 15 8 25.8 15.2
-12 15 -8 30.1 12.5
-3 15 8 -1.5 10.1
-15 13 -8 14 10.4
-13 15 8 -9.1 12.3
13 2 -8 14.8 20.8
15 -13 -8 39.6 14.9
2 13 8 14.9 14.8
2 -15 -8 32.1 13.1
-2 15 -8 20.4 15.9
-2 15 -8 33.8 16.1
2 13 -8 39.3 17.9
13 -15 -8 42.7 13.8
-2 15 8 40.3 15.9
-13 15 -8 24 11.3
2 13 -8 45.7 17
-2 -13 -8 50.99 13
15 -2 -8 43.8 19.9
-1 15 -8 13.2 15.5
1 14 8 8.7 14.3
-15 14 -8 5.8 10.1
14 1 -8 7.8 20.1
15 -14 -8 12 13.9
14 -15 8 -2.5 7.7
-1 15 -8 11.3 16
1 -15 -8 14.4 12.8
1 14 -8 2.6 15.9
-1 15 8 7.4 14.7
-1 -14 -8 8.4 12.2
15 -1 -8 -12.5 18.4
15 -14 8 -1.8 7.4
-14 15 -8 6 10.9
1 14 -8 4.6 16.1
14 -15 -8 9 13.7
15 -15 8 1.3 7.8
0 15 8 -1.5 13.1
15 0 -8 6.7 17.7
-15 15 -8 2.9 9.1
0 15 -8 -0.9 15.6
15 -15 -8 3.7 12.6
0 -15 -8 -6.3 12
0 15 -8 11.9 14.4
-8 16 8 16.9 10.9
-8 16 8 0.2 13.5
-8 16 -8 0.6 10.9
8 8 -8 4.2 12.3
16 -8 -8 41.8 17.2
8 -16 -8 34.6 13.3
8 8 -8 12.4 12.9
-16 8 8 19.8 13.3
9 7 -8 78.49 13.2
-16 7 8 45.4 14.2
16 -9 -8 82.19 18.4
-9 16 8 45.8 12.4
16 -7 -8 65.19 18.1
-7 16 8 60.79 15.5
7 9 -8 69.69 15.9
7 9 -8 77.79 16.4
-7 16 8 82.09 13.5
-9 16 -8 52.49 13.4
-16 9 8 69.19 15.1
10 6 -8 -5.2 18.9
-10 16 8 0.1 11
-16 6 8 4.1 12.6
16 -10 -8 14.6 15.4
6 -16 -8 11.2 12.8
16 -6 -8 34.7 18.1
6 10 -8 4.6 14.9
-16 10 8 -1.4 12.7
10 -16 -8 14.1 12.8
-6 16 8 3.8 14.9
6 10 -8 7.6 15.2
-10 16 -8 16.1 12.1
-6 16 8 5.4 10.5
5 -16 -8 37.1 13.8
-16 5 8 12.8 12
16 -11 -8 22.9 15.5
-11 16 8 15.1 12
-5 16 -8 3 9.2
11 5 -8 23.8 20.9
5 11 -8 38.4 16.2
5 11 -8 29.2 14.9
-5 16 8 31 15.2
11 -16 -8 59.89 13.1
-5 -11 -8 38 10.1
-11 16 -8 29.2 12.1
-5 16 8 14.2 10.8
16 -5 -8 24.8 19
-16 11 8 19.5 13.4
16 -12 -8 44.9 15.8
4 -16 -8 50.09 14.5
12 4 -8 24.9 19.8
-4 16 -8 35 12.7
4 12 -8 26.2 16.7
-4 16 8 32.7 15.2
12 -16 -8 61.09 13.6
4 12 -8 37.4 15.7
16 -4 -8 39.1 19.6
-4 -12 -8 28.9 11.8
-16 12 8 12 11.8
-12 16 -8 9.7 11.2
3 -16 -8 15.6 13.3
3 13 8 -2.2 17
-3 16 -8 6.8 13.8
13 -16 8 -2.7 7.2
13 3 -8 7.1 20
16 -13 -8 0.2 13.9
-3 16 8 7.9 14.3
-3 -13 -8 8.1 11.4
16 -3 -8 27.9 19
13 -16 -8 13 13.5
16 -13 8 -3.3 7.8
-13 16 -8 3.4 10.4
3 13 -8 -5.7 16.8
3 13 -8 -3.5 14.4
16 -14 -8 26.3 13.3
-2 16 -8 8.9 14.9
14 2 -8 3.2 19.5
14 -16 8 -4.4 6.9
2 -16 -8 28.5 12.7
14 -16 -8 23.1 12.9
16 -2 -8 21.9 19.6
16 -14 8 15.5 9.2
-2 -14 -8 31.1 13
-14 16 -8 0.8 9.8
-2 16 8 8.7 13.8
2 14 -8 11.2 16.2
2 14 -8 2.6 14.6
16 -15 -8 12.6 12.1
15 -16 8 6.1 8.3
-1 16 -8 9.3 13.8
15 1 -8 5.3 17.3
1 -16 -8 -1 12.1
15 -16 -8 9.3 12.9
-15 16 -8 2 14.4
-1 16 8 -3.1 11.9
1 15 -8 -5.9 13.7
16 -15 8 0.6 9.2
16 -1 -8 -7.3 17.3
1 15 -8 3.4 14.4
-1 -15 -8 5.7 12
16 0 -8 -7 16.1
16 -16 8 10.2 9.1
0 -16 -8 -3.2 12
16 -16 -8 5.2 12.2
0 16 -8 7.5 13.9
-9 17 8 4.2 11.2
8 -17 -8 32.9 13.3
17 -8 8 4 7.3
-17 8 8 14.5 12.7
17 -9 -8 25.9 16.5
9 8 -8 16.3 12.1
-17 9 8 21.9 12.6
9 -17 -8 48.5 13.5
17 -9 8 1.3 7.4
-8 17 8 3.6 10.6
17 -8 -8 17.8 17.2
8 9 -8 10 12.3
7 -17 -8 16.1 12.6
-10 17 8 -11.8 10.5
17 -10 -8 17.3 15.2
10 7 -8 -7.9 17.6
-17 7 8 8.1 11.2
17 -7 8 3.4 7.1
10 7 -8 2.9 7.4
-17 10 8 5.4 12.1
-7 17 8 -14.8 9.7
-10 17 -8 1.6 10
7 10 -8 6.6 13.5
17 -7 -8 32 17.2
17 -10 8 3.2 7.8
7 10 -8 1.4 12.4
10 -17 -8 27 13.2
11 6 -8 49 21
-11 17 8 34.5 11.7
17 -11 8 56.99 9.7
-17 11 8 41.9 12.3
17 -6 -8 50.99 17.3
6 11 -8 49.6 14.2
5 -17 -8 5.4 11.7
17 -5 8 2.6 6.7
12 5 -8 -4.4 19.5
17 -12 -8 8.3 14
-5 17 -8 6.7 10
12 -17 8 -3.4 7.1
-12 17 8 -12 8.7
17 -5 -8 21.5 17.2
-5 -12 -8 21.6 10.7
-12 17 -8 3.6 9.8
17 -12 8 13.5 9.2
12 -17 -8 1 11.5
5 12 -8 3 13.5
5 12 -8 1.5 14.2
-5 17 8 -0.6 12.7
-17 12 8 -6.8 10.1
-4 17 -8 11 11
13 4 -8 25.3 19.2
4 -17 -8 46 13.5
17 -4 8 2.7 6.7
13 -17 8 -2 6.7
17 -13 -8 25.4 13.4
17 -4 -8 14.7 17.1
-4 -13 -8 20.3 9.9
13 -17 -8 19.7 11.8
-4 17 8 1.4 12.3
17 -13 8 16.2 9.7
4 13 -8 -3.4 13.5
4 13 -8 10.3 14.3
-13 17 -8 3.2 9.2
3 -17 -8 53.39 13.4
17 -14 -8 38.8 13.4
14 3 -8 31.9 20.4
-3 17 -8 40.4 12.4
3 14 -8 1.7 16.5
17 -3 -8 15.8 16.8
17 -14 8 42.4 10.3
14 -17 -8 59.19 12.9
-3 -14 -8 47.6 11.7
3 14 -8 44.6 15.6
2 -17 -8 19.3 11.6
15 -17 8 10.6 8
17 -2 8 4.5 6.4
17 -15 -8 9.3 12.1
15 2 -8 14.5 17.1
-2 17 -8 7.5 12.3
-2 -15 -8 16.7 12.1
17 -15 8 14 9.4
15 -17 -8 6.1 10.4
2 15 -8 3.5 12.5
17 -2 -8 3.8 16.7
16 1 -8 9.5 16.3
-1 17 -8 16.3 13
1 -17 -8 10.2 11.6
16 -17 8 7.7 8.3
17 -16 -8 8.5 12
-1 -16 -8 16.4 11.8
17 -1 -8 16 16
1 16 -8 23.8 13.2
17 -16 8 9.3 9.1
16 -17 -8 25.5 11.6
0 17 -8 19.6 11.2
17 -17 -8 17.4 10.8
17 -17 8 15.9 8.4
0 -17 -8 16.7 11.7
17 0 -8 -2.3 15.5
18 -9 -8 30.4 16.3
-9 18 8 -10.6 8.2
-18 9 8 -6.5 9.7
18 -9 8 16.9 9
9 -18 -8 32.5 11.7
9 9 -8 8.8 11
8 -18 -8 82.99 13.1
18 -8 8 67.19 10.2
10 8 -8 36.9 8.5
-18 8 8 -7.6 17.8
18 -10 -8 79.89 17
8 10 -8 67.79 13.9
10 -18 -8 98.29 13.6
18 -10 8 76.89 10.9
18 -8 -8 66.49 17.7
18 -7 8 24.4 8.8
11 -18 8 -0.2 7.3
11 7 -8 10.7 18.8
18 -11 -8 26.9 14.1
7 -18 -8 44.2 12.4
18 -7 -8 17.1 15.7
11 -18 -8 59.29 13.2
7 11 -8 16.6 13.1
18 -11 8 32.1 9.6
6 -18 -8 46.2 13.1
12 -18 8 -4.2 6.4
18 -12 -8 40.7 14.5
12 6 -8 16.6 19.3
18 -6 8 19.6 7.7
18 -12 8 36.8 9.7
12 -18 -8 36.8 11.6
18 -6 -8 21.2 16.3
6 12 -8 10.3 12.8
-5 18 -8 27.1 10.4
13 5 -8 34.6 19
18 -13 -8 17.9 12.7
18 -5 8 20.5 7.7
13 -18 8 3.2 6.6
5 -18 -8 45.3 12.5
18 -13 8 21.8 9.7
13 -18 -8 26.6 10.9
18 -5 -8 18.8 15.3
5 13 -8 19.6 13.2
14 -18 8 -1.1 6.8
14 4 -8 10.2 18.4
18 -4 8 2.6 6.8
4 -18 -8 1 11.2
18 -14 -8 14.4 12.2
-4 18 -8 16 10.4
18 -4 -8 -0.7 15.3
4 14 -8 5.9 12.3
14 -18 -8 13.1 10.6
-4 -14 -8 7.6 10.2
18 -14 8 2.8 9.3
18 -3 8 3.2 6.2
3 -18 -8 21.7 11.3
18 -15 -8 16 11.5
15 -18 8 15.4 7.5
15 3 -8 13.2 16.2
-3 18 -8 17.3 10.9
3 15 -8 8.9 12.6
18 -3 -8 14.2 14.1
-3 -15 -8 11.8 10.1
18 -15 8 16.6 9.3
15 -18 -8 26 10.8
2 -18 -8 1.8 10.6
18 -2 8 3.2 5.8
16 -18 8 1.6 7.4
16 2 -8 3.8 15
-2 18 -8 5.2 11.1
18 -16 -8 -0.2 10.9
2 16 -8 10.5 11.4
16 -18 -8 2.1 9.7
18 -2 -8 21.5 15.4
18 -16 8 14.5 9.1
-2 -16 -8 3.9 9
17 -18 8 1.3 6.8
18 -17 -8 -4.4 10
1 -18 -8 11.8 10.9
17 1 -8 4.6 14.1
-1 18 -8 1.1 10.1
-1 -17 -8 6.2 9.1
1 17 -8 0.5 10.3
18 -1 -8 -5.1 13.4
18 -17 8 2.3 7.4
17 -18 -8 -0.7 8.5
18 -18 8 -1.3 6.4
18 0 -8 -1.9 13.3
0 18 -8 12.6 9.8
18 -18 -8 13.2 8.5
0 -18 -8 4.8 8.7
10 9 -8 7.1 7.6
9 -19 -8 56.59 12.4
19 -9 8 31.5 9
19 -10 -8 22.4 14.6
10 -19 -8 39.8 11.4
19 -9 -8 11.9 14.8
19 -10 8 15.5 8.9
9 10 -8 10.8 10.8
19 -11 -8 22.3 14.4
11 8 -8 5.7 16
8 -19 -8 56.99 12.4
19 -8 8 29.9 8.7
11 -19 8 -0.2 8.9
19 -11 8 22.5 9.1
19 -8 -8 32.9 14.9
11 -19 -8 64.19 12.1
8 11 -8 16.2 11.3
12 -19 8 0 6.1
12 7 -8 2.4 17.9
7 -19 -8 7.8 10.8
19 -7 8 16.4 8.2
19 -12 -8 10.7 12.3
12 -19 -8 19.5 10.5
19 -12 8 15.2 9.1
7 12 -8 4.2 11.8
19 -7 -8 14.9 14.7
6 -19 -8 -2.6 10.7
13 -19 8 -2.4 5.8
19 -6 8 5.7 7.4
19 -13 -8 5.1 12.6
13 6 -8 8.7 17.7
19 -6 -8 2.5 13.8
19 -13 8 3.7 8.9
6 13 -8 -0.3 11.9
13 -19 -8 18.1 10.3
5 -19 -8 7.4 10.3
19 -5 8 3.7 6.5
14 -19 8 -1.7 5.8
19 -14 -8 12.3 11.6
-5 19 -8 9.4 7.8
14 5 -8 -3.5 16.2
19 -5 -8 -10 13.1
5 14 -8 12 11.7
14 -19 -8 6.5 9.2
19 -14 8 2.7 8.7
19 -15 -8 16.6 10.8
4 -19 -8 18.7 11.1
15 4 -8 -4.6 15.4
19 -4 8 1 5.5
15 -19 8 -3.4 5.9
-4 19 -8 14.3 9.3
15 -19 -8 11.8 9.9
19 -15 8 9.2 8.5
19 -4 -8 13.8 12.9
4 15 -8 16.8 11.1
16 3 -8 2.6 14.2
16 -19 8 -3.4 5.9
3 -19 -8 9.5 10.8
-3 19 -8 8 9.1
19 -16 -8 15.4 10.2
19 -3 8 2.6 8.5
19 -16 8 14.2 7.9
3 16 -8 10.2 10.7
16 -19 -8 4.3 8.8
19 -3 -8 -2.4 12.5
19 -17 -8 11.2 9.3
-2 19 -8 12.6 9.2
17 2 -8 -7.5 13.4
17 -19 8 -3.5 7.4
2 -19 -8 6.7 9.8
19 -2 -8 -0.6 12.4
2 17 -8 12.3 9.7
17 -19 -8 9.2 8.7
19 -17 8 4 6.6
19 -18 -8 9.4 7.9
1 -19 -8 5.5 8.4
-1 19 -8 9.3 9.2
18 1 -8 3.9 13.3
19 -1 -8 -0.4 11.4
18 -19 -8 12.8 7.8
1 18 -8 15 9.5
19 0 -8 9 12.3
19 -19 -8 2.2 7.1
0 19 -8 10.8 9.7
20 -10 -8 38 12.9
10 -20 -8 53.79 11
20 -10 8 37.8 8.6
20 -11 -8 14.9 12.1
9 -20 -8 23.3 11.1
20 -9 8 9.6 7.7
11 -20 -8 14.2 9.6
20 -11 8 10.5 8.1
20 -9 -8 0.9 11.9
9 11 -8 8.6 9.7
8 -20 -8 19.5 11
12 8 -8 -5.9 14.3
20 -12 -8 4.3 11
20 -8 8 16 7.5
8 12 -8 9.7 9.6
12 -20 -8 22.3 9.3
20 -8 -8 15 13.3
20 -12 8 18.1 8.3
20 -13 -8 23.9 10.9
20 -7 8 10.2 6.5
13 7 -8 2.2 16.4
7 -20 -8 22.2 10.3
20 -7 -8 7.9 12.4
7 13 -8 14.4 10.3
13 -20 -8 21.3 8.9
20 -13 8 17.3 8
6 -20 -8 16.8 9.9
20 -6 8 0.7 6
14 6 -8 3.5 15.8
20 -14 -8 1.5 10
20 -14 8 12.3 7.8
20 -6 -8 10.9 12.2
6 14 -8 14.4 9.7
14 -20 -8 10.7 8.6
20 -15 -8 9.4 9.7
5 -20 -8 13.7 9.7
15 5 -8 -0.1 13.4
5 15 -8 -0.2 9.7
15 -20 -8 10.4 8.9
20 -5 -8 -3.7 11.4
20 -15 8 7.7 7
4 -20 -8 5.4 9.9
16 4 -8 0.7 14
-4 20 -8 11.7 7.4
20 -16 -8 9.2 9.4
20 -4 -8 3.7 11.5
4 16 -8 11.6 9
20 -16 8 0.5 6.4
16 -20 -8 4.7 7.8
20 -17 -8 13.2 8.7
3 -20 -8 10.8 9.9
17 3 -8 13.8 14.5
-3 20 -8 8.7 8.7
3 17 -8 7.3 9.7
17 -20 -8 8.6 7.8
20 -3 -8 9.3 11.8
2 18 8 2.3 7.7
20 -18 -8 2.1 7.4
2 -20 -8 9.6 8.8
18 2 -8 -1.9 13.6
-2 20 -8 0.7 9.3
20 -2 -8 14.1 11.7
18 -20 -8 -3.6 7.1
2 18 -8 16.6 9.7
-1 20 -8 3.3 10
19 1 -8 4.1 13.5
20 -19 -8 0.1 4.5
1 19 8 0.6 9.5
1 19 -8 -2.3 10.1
20 -1 -8 17.5 12.8
-1 20 8 -4.2 9.6
19 -20 -8 0.8 4.8
21 -10 8 0.2 6.2
21 -11 -8 1.7 10.4
10 -21 -8 2.7 8.6
11 -21 -8 15 8.9
21 -10 -8 -0.4 10.8
21 -11 8 -1.6 5.9
9 -21 -8 18.2 9.3
21 -12 -8 7.1 10
21 -9 8 -0.2 7.4
21 -9 -8 13.2 10.7
21 -12 8 1.9 6
9 12 -8 7.7 6.8
12 -21 -8 9.3 8.1
21 -13 -8 -0.7 9.5
8 -21 -8 12.1 9.5
21 -13 8 -3.7 6.2
21 -8 -8 5.6 10.5
13 -21 -8 -1.2 7.6
8 13 -8 2.4 8.6
7 -21 -8 5.5 9
21 -14 -8 10.2 9.5
14 7 -8 4.6 11.1
21 -14 8 -1.6 6.8
7 14 -8 12.5 9.1
14 -21 -8 4.1 7.8
21 -7 -8 -0.6 10.3
15 6 -8 7.9 13.5
21 -15 -8 9.3 9.4
6 -21 -8 7.6 9.4
15 -21 -8 2.8 7.5
21 -6 -8 -2.3 10.6
6 15 -8 0.7 9
5 -21 -8 1 9.6
21 -16 -8 7.5 8.8
16 5 -8 1.9 14
5 16 -8 4.8 9.1
16 -21 -8 7 7.2
21 -5 -8 1.8 10.7
21 -17 -8 6.7 8.2
4 -21 -8 10.1 10.7
17 4 -8 6.1 14.8
4 17 -8 -3.7 9.8
21 -4 -8 -3.2 11.6
17 -21 -8 9.2 6.6
22 -11 -8 -4.6 9.6
11 -22 -8 5.6 8.5
22 -12 -8 8.8 9.5
10 -22 -8 -2.7 8.5
22 -10 -8 5.5 9.9
12 -22 -8 1.9 7.6
9 -22 -8 9.6 9.2
22 -13 -8 8.9 9.2
13 -22 -8 4 8.1
22 -9 -8 3 9.9
8 -22 -8 -0.7 9.8
22 -14 -8 -4.3 8.7
22 -8 -8 -2.8 10.8
14 -22 -8 4.5 8.1
22 -15 -8 2.2 8.4
7 -22 -8 -1.5 10.3
15 -22 -8 1.8 7.3
22 -7 -8 11.5 11.5
7 15 -8 2.2 5
0 0 -9 -2.3 10.9
0 0 9 -5.7 6.9
0 -1 -9 226.18 19.8
1 0 9 234.58 19
-1 0 -9 234.08 20.8
1 -1 -9 224.48 20.6
1 -1 9 226.38 19
-1 1 9 212.98 19.6
-1 1 -9 225.58 21.1
0 1 -9 232.78 21
1 0 -9 230.88 20.9
0 -1 9 240.48 19.8
-1 0 9 218.28 18.7
0 1 9 230.38 19.4
2 -1 -9 9.1 11
-1 -1 9 12.4 8.9
2 -1 9 2.5 7.6
-1 -1 -9 5.3 11.3
1 -2 9 3.1 7.6
-1 2 -9 11.9 11.7
1 1 9 8.8 7
1 1 -9 10.1 11.6
-1 2 9 14.9 8.4
1 -2 -9 6.7 11.6
-2 1 -9 12.1 11.6
-2 1 9 15.5 8.8
2 0 9 52.29 9.7
0 -2 9 35.5 9.2
0 -2 -9 49.5 13.1
2 -2 9 45.2 9.6
2 -2 -9 53.39 13.9
-2 0 -9 34.3 12.3
0 2 -9 56.39 13.2
-2 2 9 41.6 9.6
2 0 -9 41.9 11.6
-2 0 9 34.6 8.9
0 2 9 30.8 8.4
-2 2 -9 42.5 12.1
3 -2 -9 141.89 18.2
-2 -1 -9 139.99 17.5
1 -3 -9 139.79 16.4
1 2 9 151.78 14.9
2 -3 9 181.88 17.2
-3 1 9 162.18 17.9
-1 -2 9 157.78 17.8
2 1 -9 142.89 18
-3 2 -9 137.29 17.5
-2 3 9 151.88 17.3
-1 3 -9 157.48 19
3 -1 9 145.99 16
1 -3 9 199.28 17.6
3 -2 9 185.38 17
-3 1 -9 146.09 17.8
1 2 -9 158.28 18.8
3 -1 -9 157.28 17
-3 2 9 193.48 18.6
-2 3 -9 158.18 16.5
-2 3 -9 162.38 19.2
-1 3 9 153.48 16.1
2 -3 -9 163.98 17.2
2 1 9 175.18 16.7
-1 -2 -9 185.18 19.1
-2 -1 9 176.68 18.4
3 -3 9 52.59 9.4
0 3 -9 85.89 15.3
0 -3 -9 73.29 14.4
-3 3 -9 60.69 13.2
0 -3 9 66.19 11
-3 0 -9 61.89 13.1
-3 0 9 56.69 10.1
3 -3 -9 83.49 15
0 3 9 37.2 8.7
3 0 9 56.59 9.5
-3 3 9 52.19 9.9
3 0 -9 72.79 13.4
-3 3 -9 51.89 9.6
-2 -2 9 10.7 8.9
-4 2 -9 11.3 10.5
-2 4 -9 12 7.8
-4 2 9 10.4 9.4
2 -4 9 6.4 8.2
2 2 -9 11.5 10.6
4 -2 9 7.2 7.4
-2 -2 -9 14.1 11.8
4 -2 -9 7.5 11.3
-2 4 9 11.9 8.7
2 -4 -9 15.4 12
-2 4 -9 4.2 11.7
2 2 9 6.9 7.6
4 -1 9 112.49 13.3
-4 3 -9 93.19 15.7
4 -3 -9 119.89 17.1
1 -4 -9 107.49 17.2
-4 3 -9 115.19 15.8
-3 -1 -9 101.49 16.1
-1 -3 9 124.29 16.8
-1 4 -9 113.79 14.9
-3 4 9 111.19 16.5
3 1 -9 116.79 17.3
-1 4 -9 112.99 17.4
3 -4 9 111.49 14
1 3 9 124.29 15.4
-4 1 9 123.59 17.4
-1 -3 -9 105.79 16.7
-3 -1 9 115.79 17.2
-3 4 -9 112.79 16.3
-4 3 9 134.09 17.3
1 3 -9 114.19 17.3
-3 4 -9 101.79 15.3
4 -1 -9 115.29 16.5
3 -4 -9 112.49 15.1
3 1 9 103.79 13.3
-4 1 -9 74.29 13.4
4 -3 9 105.89 13.3
-1 4 9 125.79 16.1
1 -4 9 119.59 15.7
4 -4 -9 55.79 13
4 0 -9 59.59 13.6
0 4 -9 70.29 14.4
0 -4 9 50.79 10.7
-4 4 -9 63.89 10.8
-4 0 -9 40.4 12.1
4 0 9 60.09 9.8
0 -4 -9 53.49 12.6
-4 4 9 44.9 10.1
-4 4 -9 48.3 12.7
-4 0 9 55.79 11.7
0 4 9 56.99 10.4
4 -4 9 55.79 10.2
-3 -2 -9 65.59 13.5
5 -3 -9 58.19 12.6
-2 5 -9 61.19 10.5
-5 3 -9 64.19 11.4
3 -5 9 65.89 11.1
-2 -3 9 42.4 9.7
-2 5 -9 64.69 14.8
3 2 -9 101.79 15.9
-3 5 9 57.89 10.2
2 3 9 57.69 10
-5 2 9 63.39 11.5
2 -5 -9 62.29 13.6
-3 5 9 74.99 10.7
2 3 -9 64.79 12.5
2 -5 9 57.59 10.5
5 -2 -9 60.49 12.1
-3 -2 9 48.1 10.5
-3 5 -9 36.1 8.9
3 -5 -9 78.19 15
-3 5 -9 43 13.1
-2 -3 -9 56.79 13.9
-5 3 9 63.99 11
3 2 9 49.3 9.8
-2 5 9 56.09 10.2
4 -5 9 21.7 8.8
-5 4 -9 -0.1 9.5
-4 5 9 29.1 9.2
-4 5 9 22.2 8.9
4 1 -9 32.9 13.1
-5 1 9 18.5 9
1 -5 -9 27.2 12.2
-4 -1 -9 16.1 10.8
-1 -4 9 28.4 9.5
1 4 9 25 9.3
5 -4 -9 26.6 11.7
-5 4 -9 24.2 9
-1 5 -9 27.8 8.7
-1 5 -9 23.5 12.3
5 -1 9 19.9 7.4
-4 5 -9 19.2 8.4
-5 4 9 23.9 10
-4 -1 9 14 8.8
4 -5 -9 16.6 11.9
5 -4 9 10.9 7.4
4 1 9 13.6 7.4
-1 5 9 14.3 9.2
-5 4 9 10.7 8.2
-4 5 -9 19.7 11.9
5 -1 -9 10.2 11.2
1 -5 9 10.9 7.9
1 4 -9 16 11.9
-5 1 -9 2 8.8
0 5 9 462.35 28
-5 0 9 448.06 28.8
-5 5 -9 408.26 27.7
0 -5 9 400.86 28.2
-5 5 9 425.86 29.5
5 0 -9 421.26 29.6
5 0 9 436.76 27.4
5 -5 -9 414.66 29.6
0 5 -9 389.96 27.3
-5 5 9 448.16 28.2
5 -5 9 516.45 29.2
-3 6 -9 4.4 12.1
3 3 -9 1.3 10.3
-3 6 9 6.3 9.1
-6 3 9 6 9.1
-6 3 -9 6.1 8.2
-6 3 9 -7.5 6.2
6 -3 -9 8.5 11
3 -6 -9 9.4 10.6
3 -6 9 2.6 8.4
3 3 9 1.4 8
-3 -3 9 3.6 8.6
-3 6 -9 10.2 8.4
-3 6 9 2.7 7.8
6 -4 -9 194.98 19.9
-4 6 9 199.78 18.7
-2 6 -9 218.88 21.5
-2 -4 9 163.78 19.2
-6 2 9 213.28 21.6
-4 6 9 221.58 20.5
4 -6 9 215.48 19.7
2 4 9 240.98 19.3
-2 6 -9 204.58 18.5
4 2 -9 209.58 20.8
-6 4 -9 208.78 19.6
2 -6 9 190.48 18.1
2 4 -9 203.78 20.5
-4 -2 9 186.28 19.8
6 -2 -9 201.78 19.7
-2 6 9 200.78 18.1
-6 4 9 207.98 19.6
-2 6 9 211.28 19.4
4 -6 -9 195.58 20.3
-4 6 -9 180.28 19.9
-4 6 -9 195.98 18.5
-6 4 9 163.18 16.9
4 2 9 218.68 18.7
-1 6 -9 122.99 17.4
-6 1 9 114.09 18.7
1 5 9 119.39 15.8
5 -6 9 126.59 16.3
-6 5 -9 102.49 15.1
-5 6 9 111.99 15.7
-5 6 9 117.19 18
-1 -5 9 78.99 11.7
5 1 -9 120.69 17.7
6 -5 -9 104.79 16.5
-1 6 -9 101.39 14.7
-6 5 9 137.69 15.4
-1 6 9 105.79 16
-6 5 9 90.19 14.6
-5 6 -9 103.19 15.6
6 -1 -9 103.79 17.1
1 -6 9 71.29 11.4
5 -6 -9 122.89 16.6
-5 -1 9 107.79 14
-1 6 9 90.89 13.3
5 1 9 100.59 15
6 0 -9 144.99 18.9
0 6 -9 154.08 19.6
0 6 9 173.88 16.7
-6 6 9 166.08 17.4
-6 0 9 158.68 20.9
6 -6 -9 142.19 18.6
-6 6 9 153.38 20.2
0 6 9 167.48 17.7
0 6 -9 128.19 15.2
-6 6 -9 161.48 17.7
4 -7 9 35.2 9.7
-7 3 9 50.79 11.9
-3 7 -9 76.09 15.6
-7 4 -9 81.09 12
-3 7 -9 51.79 10.2
7 -4 -9 68.69 14
-4 7 9 70.19 11.2
-4 7 9 61.69 11.4
3 4 9 52.59 10.2
4 3 -9 82.09 14.4
-3 7 9 39.2 9.1
-3 7 9 49.3 10.4
3 -7 9 42.1 9.4
-7 3 -9 43.8 10.1
-7 4 9 45 12.6
3 4 -9 62.69 14.4
4 3 9 42.3 9.9
-4 -3 9 29.4 9.9
-4 7 -9 36.3 13.2
7 -3 -9 50.69 13.9
-4 7 -9 54.89 10.6
-7 5 -9 105.49 13.1
-5 7 9 98.39 13.7
-5 7 9 106.39 13.2
5 -7 9 80.29 12
2 5 9 105.89 15.9
7 -5 -9 104.29 15.4
5 2 -9 121.99 16.5
-7 2 9 100.69 15.2
-2 7 -9 99.29 15
-2 7 -9 86.19 16
-2 7 9 68.99 11.2
-7 5 9 58.49 10.4
7 -2 -9 102.39 17
5 2 9 105.89 15
-5 7 -9 86.99 13.7
-7 5 9 70.89 12.5
-5 7 -9 30.1 12.5
-2 7 9 81.39 13.1
-5 -2 9 54.49 11.7
-6 7 9 304.07 23.5
7 -6 -9 293.07 24.1
-7 1 9 285.27 26.5
6 1 -9 305.97 24.8
6 -7 9 340.27 23.8
1 6 9 302.97 22.2
-1 7 -9 308.17 26.2
-1 7 -9 254.77 21.8
1 6 9 287.27 23.2
-7 6 -9 305.37 23.5
6 -7 -9 251.97 22.8
-7 6 9 268.37 24.8
-1 7 9 259.07 21.7
-7 6 9 189.38 20.8
-6 7 -9 272.47 21.5
-6 -1 9 219.88 23.7
7 -1 -9 260.27 23
1 6 -9 258.57 23.4
6 1 9 274.07 20.8
-1 7 9 263.27 20.6
-7 7 9 26.2 10.5
0 7 -9 67.09 15.8
7 0 -9 46.2 13.9
-7 7 9 24.4 11
-7 0 9 19.6 11.7
-7 7 -9 38.3 9.6
7 -7 -9 44.1 13.8
0 7 9 30.5 8.7
4 4 9 39.7 10.2
-8 4 -9 50.19 11.4
4 4 -9 64.49 14.4
-4 8 9 40.6 10.9
-4 8 9 40.9 10.4
-4 8 -9 35.2 9.7
-8 4 9 38.3 13.5
4 -8 9 20 8.3
-4 8 -9 31.6 13.7
8 -4 -9 29.7 12.9
5 3 -9 101.99 15.2
-3 8 -9 116.89 17.6
-3 8 -9 102.09 15.9
5 -8 9 108.69 15.6
-5 8 9 80.79 13.8
-8 3 9 90.69 16
-5 8 9 75.59 11.8
-8 5 -9 92.29 13
3 5 9 99.39 15.1
8 -5 -9 115.89 16.7
-3 8 9 74.99 11.7
-3 8 9 95.99 14.2
-5 8 -9 54.89 14.3
8 -3 -9 100.19 16.2
5 3 9 121.39 15.8
-8 5 9 91.39 15.9
3 5 -9 101.89 15.6
-5 8 -9 100.79 16.1
2 6 9 30.9 8.8
-6 8 9 13 10.4
-2 8 -9 28.6 9.4
-8 6 -9 39.6 10.8
-8 2 9 27.9 13.7
-6 8 9 15.1 10.3
8 -6 -9 37.9 13.2
-2 8 -9 47.2 15.1
6 -8 9 28.2 9.4
6 2 -9 47.6 13.8
-2 8 9 31.1 9.2
-8 6 9 11 11.6
8 -2 -9 35.6 13.4
-6 8 -9 28 9.4
2 6 -9 23.7 12.9
6 2 9 37.1 9.5
-6 -2 9 1.2 10.8
-8 1 9 68.39 15.4
-8 7 -9 118.99 17.2
7 1 -9 119.69 18.5
-7 8 9 113.39 16.4
8 -7 -9 117.09 17.8
1 7 9 120.99 16
-1 8 -9 145.89 19
-7 8 9 99.49 14.3
8 -1 -9 128.29 19.1
1 7 -9 118.49 19.2
-1 8 9 125.69 16.7
-7 8 -9 146.99 17.2
-8 7 9 97.99 16.4
0 8 9 262.67 21.9
-8 8 9 186.38 26
0 8 -9 295.17 25.1
-8 8 -9 280.47 23
8 0 -9 282.17 24.8
4 5 9 3.5 7.1
-5 9 9 21.4 11.2
-9 5 -9 29.7 10.8
-9 4 9 8.1 11.6
-4 9 -9 17.5 13
5 4 -9 45.1 13.9
5 -9 9 8.1 8.4
-4 9 -9 18.4 9.1
9 -5 -9 18.3 12.4
-5 9 9 10.1 10.8
-5 9 -9 12.6 12.6
-4 9 9 25.7 10
-5 9 -9 32.4 10.3
-9 5 9 8.6 11.8
9 -4 -9 25.2 13.1
-9 4 -9 41.2 10.4
4 5 -9 27.6 12.4
5 4 9 29.2 9.2
-9 3 9 37.4 14.5
6 -9 9 31.1 8.7
9 -6 -9 58.99 14.3
-3 9 -9 50.69 10.9
-6 9 9 40.6 12.7
3 6 9 43.8 10
-9 6 -9 41.3 10.6
-6 9 9 42.9 11.9
6 3 -9 55.69 14.2
-3 9 -9 56.99 15
6 3 9 44 9.8
3 6 -9 70.09 14.7
-3 9 9 37.3 10.3
9 -3 -9 64.89 15.2
-9 6 9 24 12.8
-6 9 -9 55.59 11.5
-9 2 9 78.69 16.2
7 -9 9 95.09 16.3
-2 9 -9 128.59 18.6
-2 9 -9 96.79 15.2
-7 9 9 93.19 14.9
7 2 -9 120.09 17.6
9 -7 -9 104.29 16.8
-9 7 -9 111.39 17
2 7 9 112.59 16.9
7 2 9 111.39 15.9
-2 9 9 108.99 14.2
-9 7 9 76.59 16.2
-7 9 -9 110.79 17.8
2 7 -9 119.59 19.1
9 -2 -9 121.69 17.7
8 1 -9 30 14.4
1 8 9 16.9 9.3
-9 1 9 3.3 12.7
-9 8 -9 24.7 10.2
-8 9 9 15.9 11.6
-8 9 9 2.5 11.7
-1 9 -9 18.5 12.9
-9 8 9 11 11.3
9 -1 -9 33.2 13.6
-8 -1 9 -5.8 11.3
1 8 -9 23.9 12.8
-9 8 9 14.9 10.5
-1 9 9 30.8 10.2
-8 9 -9 31.1 11.1
9 0 -9 2.2 12.6
0 9 -9 -1.8 12.6
-9 9 9 6.1 10.4
-9 9 -9 -2.9 8.9
-9 0 9 -2.2 11.2
0 9 -9 11.6 12.9
0 9 9 0.8 9.9
-9 9 9 2.3 12.5
0 -9 -9 7.2 11.2
-5 10 9 -3.1 9.6
10 -5 -9 3.4 11.7
-10 5 9 -10.1 12.2
-10 5 -9 1.6 10
5 5 -9 11 12.9
-5 10 -9 5.9 9.4
-5 10 -9 1.2 12.1
5 5 9 -0.8 8.1
-4 10 -9 13.9 9.6
4 6 9 11.4 9
-10 6 -9 25.6 10.8
-6 10 9 8.4 10.8
-4 10 -9 20.8 13.5
4 -10 -9 2.6 11.3
6 4 -9 7.4 12.2
-10 4 9 11.2 12.4
10 -6 -9 14.4 12
-6 10 -9 13.9 9.8
4 6 -9 -1.3 11.6
-10 6 9 13.7 12.9
6 4 9 5.8 7.1
10 -4 -9 0.8 11.5
-4 10 9 -0.8 9.9
4 6 -9 15 12.5
7 -10 9 9 8.5
7 3 -9 10.4 11.7
3 7 9 8.8 9.1
-3 10 -9 17 9.6
-7 10 9 3.5 11.2
3 -10 -9 -0.5 10.3
-3 10 -9 15.1 13.2
-7 10 9 -18.5 11.4
10 -7 -9 20.2 12.3
-10 7 -9 17 10.7
-10 3 9 17.8 13.1
7 3 9 13.1 8.5
-3 10 9 -1.7 9.2
-10 7 9 10.8 12.6
3 7 -9 11 11.6
10 -3 -9 15.1 12.8
-7 10 -9 16.3 10.2
3 7 -9 5.3 12.7
-10 2 9 35.2 13.5
-8 10 9 32.7 13.2
-10 8 -9 44.8 11.8
-2 10 -9 62.59 15.9
8 2 -9 61.69 15.5
2 8 9 38 10.7
2 -10 -9 59.69 13.8
-8 10 9 37 11.8
-8 10 -9 47 11.3
10 -2 -9 43.4 14
2 8 -9 80.79 15.8
-2 10 9 49.9 12.3
-10 8 9 58.29 14.6
8 2 9 49.3 10.4
2 8 -9 72.49 16.3
1 9 9 32.3 11.1
-9 10 9 52.39 14
-1 10 -9 64.69 16.7
-10 1 9 35.5 13.5
-9 10 9 37.4 11.6
9 1 -9 59.69 15.8
-10 9 -9 48 12
1 -10 -9 43 12.1
10 -9 -9 0.9 11.2
-9 -1 9 0.1 11.6
-10 9 9 38.1 12.6
9 -10 -9 5.5 10.7
-10 9 9 13.9 10.1
10 -1 -9 36.6 13
-1 10 9 21.6 11
1 9 -9 37.7 13.3
-9 10 -9 44.6 12.3
-1 -9 -9 7.3 10.2
1 9 -9 47 16.1
0 10 9 51.39 12.7
-10 10 -9 70.99 13.5
10 -10 -9 98.99 16.5
0 10 -9 53.09 15.7
-10 10 9 65.09 14.4
-10 10 9 53.19 12.2
0 -10 -9 53.79 15
10 0 -9 42 13.5
-10 0 9 30.9 12.5
0 10 -9 94.59 17.5
5 -11 -9 14.7 11.7
-6 11 9 9.2 10.8
-5 11 -9 3.1 12
-11 6 -9 19.6 11.7
6 5 -9 20.1 13.1
-11 5 9 26.1 13
6 5 -9 3.3 10
5 6 9 9 9.1
-5 11 -9 20.6 10.9
6 5 9 -7.2 7.6
6 -11 -9 7.3 8.7
-11 5 -9 12.2 10.7
5 6 -9 25.9 13.2
-5 11 9 18.4 11.5
-6 11 -9 16.7 11.2
-11 6 9 14.7 13.3
5 6 -9 17.7 13.9
4 -11 -9 21 13.7
7 4 -9 1.6 12.8
4 7 9 6.7 9.3
11 -7 -9 -0.6 12
-4 11 -9 8.6 10
-11 4 9 -5.9 12.3
-7 11 9 -1.9 14.1
-7 11 9 10 11.6
-4 11 -9 7 12.5
-11 7 -9 5.1 10.3
-11 7 9 4.2 12.1
4 7 -9 8.8 12.2
-4 11 9 0.8 10.7
7 -11 -9 -3 10.9
-7 11 -9 11.4 10.3
4 7 -9 -3.3 13.5
3 -11 -9 25.4 14.1
-11 8 -9 23.7 11.4
3 8 9 27.7 10.8
-8 11 9 31.9 12.1
8 3 -9 33.6 14.3
-11 3 9 33.8 13.7
-3 11 -9 19.8 13.3
11 -8 -9 25.6 13.9
3 8 -9 34 14.1
3 8 -9 72.49 16.7
-8 11 -9 29.3 11.5
-3 11 9 32.4 11.4
8 -11 -9 44.1 13.4
-11 8 9 58.59 14.8
-2 11 -9 -2.9 9.9
-11 2 9 18.2 12.6
-9 11 9 2.3 11.5
-2 11 -9 39.3 15.7
2 9 9 24.2 11.5
-11 9 -9 17.9 11
-9 11 9 30.4 12.1
9 2 -9 28.2 14.3
2 -11 -9 29 15.3
11 -9 -9 37.2 14.9
-11 9 9 0.4 12.4
2 9 -9 26.8 15.2
9 -11 -9 20.3 14.8
-9 11 -9 10.8 10.9
2 9 -9 13.7 16.7
-2 -9 -9 7.3 10.4
-2 11 9 4.4 10.4
11 -10 -9 49.8 14.9
-1 11 -9 63.89 17.1
10 1 -9 11.4 11.8
-11 10 -9 44.3 11.9
1 -11 -9 34.6 14
-10 11 9 40.6 12.2
-10 11 9 32.4 12.6
-1 11 -9 86.19 17.4
1 10 9 42 12.5
-10 11 -9 40.6 11.9
-1 -10 -9 38.6 14.4
1 10 -9 100.69 19.1
1 10 -9 50.79 16.6
-11 10 9 37.1 12.7
10 -11 -9 74.99 16.2
-1 11 9 46.8 12.8
-11 11 9 -9.7 9.2
11 -11 -9 6.3 14
0 -11 -9 14.5 13.5
0 11 -9 10.4 15.6
-11 11 -9 1.7 10.5
-11 11 9 -10.7 11.5
0 11 -9 18.4 16.6
0 11 9 5.8 11.4
6 6 -9 4.8 14.2
-12 6 9 6.3 12.1
-12 6 -9 3.3 10.6
-6 12 9 -4.3 10.8
12 -6 -9 4.8 16.4
6 6 -9 15.9 14.2
-6 12 -9 20 11.5
6 -12 -9 18.2 13.1
6 -12 -9 16.5 11.9
-7 12 9 16.2 11.3
-5 12 -9 8.6 11
-12 7 -9 5.6 11
5 -12 -9 21.1 14.5
12 -7 -9 18.3 16.7
-12 5 9 5 12.6
5 -12 -9 11.6 12.6
7 5 -9 17 13.7
7 5 -9 14.8 9.7
-5 12 -9 -0.9 11.5
7 -12 -9 27.4 13.5
-5 12 9 9.3 10.9
5 7 -9 13.8 14.4
12 -5 -9 19.1 16.5
7 -12 -9 13.8 9.9
-12 7 9 4.9 11.4
-7 12 -9 11.3 11.9
5 7 -9 8.6 12.8
-4 12 -9 3.4 9.4
4 -12 -9 9.8 15.2
8 4 -9 22 13.4
12 -8 -9 2.2 15.1
-4 12 -9 11.2 12.8
4 -12 -9 17.6 11.1
-12 4 9 14.1 12.3
4 8 9 -12.8 7.7
-12 8 -9 10 11.6
-8 12 9 7 11.7
4 8 -9 -3.7 12.8
-8 12 -9 6.9 11.2
-4 12 9 9.8 11.2
-12 8 9 2.8 12.6
8 -12 -9 15.3 14.3
12 -4 -9 13.9 15.4
4 8 -9 22.5 14.9
-3 12 -9 30.6 14.3
-3 12 -9 -1.2 13
-12 9 -9 17.8 11.3
-12 3 9 10.7 13.1
3 -12 -9 25.4 15.2
-9 12 9 25.3 12.4
3 -12 -9 12.2 11.1
9 3 -9 21.2 13.6
12 -9 -9 15.7 14.7
3 9 -9 8.8 15.7
-3 12 9 15.2 11.6
-9 12 -9 24.6 11.9
9 -12 -9 27.8 14.6
-12 9 9 6.6 12.4
12 -3 -9 38.6 16.7
-3 -9 -9 10.7 11.4
3 9 -9 13.2 14.4
10 2 -9 0.7 12.6
-2 12 -9 30.7 15.6
-12 2 9 -2.8 11.9
-10 12 9 29 12.1
2 -12 -9 28.7 10.7
2 -12 -9 37.6 14.1
2 10 9 5.2 10.7
-2 12 -9 38.4 16.1
-12 10 -9 48.4 13.1
12 -10 -9 49.5 15.4
10 -12 -9 61.19 14.7
-10 12 -9 28.7 11.6
-2 12 9 49.8 13.2
2 10 -9 51.49 16.6
2 10 -9 63.39 17.6
-12 10 9 46.9 14.8
-2 -10 -9 36.7 15.2
12 -2 -9 48.3 18.5
1 -12 -9 36.4 15.4
-1 12 -9 65.09 16.5
-11 12 9 27.4 11.4
1 11 9 51.79 16.4
-12 11 -9 33.9 12
1 11 9 28.7 11.7
12 -11 -9 49.9 15
1 -12 -9 39.5 11.4
-12 1 9 1.3 11.5
-1 12 -9 53.09 18
1 11 -9 81.79 17.3
12 -1 -9 42.9 17.6
-12 11 9 35.2 13.4
-11 12 -9 37.3 12.4
-1 -11 -9 41.1 15.9
11 -12 -9 100.39 17.2
1 11 -9 72.89 19.2
-1 12 9 58.69 13.1
0 -12 -9 6.3 15.1
0 -12 -9 5.3 11.6
0 12 -9 -21.4 16.2
12 -12 -9 6.9 14.8
-12 12 -9 -4.1 10.4
0 12 9 -2.5 10.9
0 12 9 0.4 15
0 12 -9 23.7 16.8
12 0 -9 11.3 17.7
-7 13 9 12.7 11.3
6 -13 -9 19.1 13.5
-13 7 -9 12.9 11.1
13 -7 -9 23.8 17.6
-6 13 -9 3.4 11.5
6 -13 -9 38.1 14.3
7 6 -9 22.5 14.1
7 6 -9 9.8 13
-13 6 9 10.8 13.4
-7 13 -9 25.2 12.5
-13 7 9 0.6 12.2
6 7 -9 15.1 14.9
7 -13 -9 20.4 13.7
-6 13 9 21.2 11.3
7 -13 -9 18.3 12.9
6 7 -9 6.2 14.4
13 -6 -9 5.1 16.5
8 5 -9 4.1 11.2
-13 8 -9 1.9 11.2
-13 5 9 -11.8 12
5 -13 -9 3.6 13.3
5 -13 -9 15.2 15.5
13 -8 -9 -5.8 15.2
5 8 9 -1.3 14.3
-8 13 9 14.1 12.1
-5 13 -9 0.3 10.5
8 5 -9 13.2 13.7
-5 13 9 9.6 10.7
8 -13 -9 9 13.8
8 -13 -9 17.1 11.4
5 8 -9 7.8 14.8
5 8 -9 -4.3 15.1
-8 13 -9 20.5 12.2
-13 8 9 -15 12.7
13 -5 -9 15 17.1
-4 13 -9 4.5 12.1
-13 9 -9 14.7 11.6
4 -13 -9 36 13
4 9 9 20.1 14.9
4 -13 -9 31.3 16.4
-9 13 9 26.8 12.2
9 4 -9 31.4 13.6
-13 4 9 -5.3 12.7
13 -9 -9 37.6 16.5
-9 13 -9 19.9 11.9
13 -4 -9 34.8 17.5
4 9 -9 16.7 14.3
9 -13 -9 24 14.8
4 9 -9 21.1 16.3
-13 9 9 12.9 12.7
-4 13 9 28.1 11.8
-13 10 -9 59.99 13.7
-13 3 9 47.1 14.8
13 -10 -9 97.79 18.1
-3 13 -9 76.39 14
3 10 9 62.89 17.1
-10 13 9 63.39 13.4
-3 13 -9 46.1 15.4
3 -13 -9 68.79 14.2
3 -13 -9 44.9 17
13 -3 -9 113.89 20.9
-10 13 -9 82.79 15
-13 10 9 42.5 14.4
-3 -10 -9 62.79 15.1
3 10 -9 124.09 19.8
10 -13 -9 139.39 18.2
-3 13 9 81.59 14.1
3 10 -9 82.99 18.7
-2 13 -9 22.4 16.2
2 -13 -9 -2.5 15.3
-11 13 9 8.2 10.7
-13 11 -9 16.3 11.8
2 11 9 23.7 16
2 -13 -9 10.7 12.9
-13 2 9 -17 11.3
-2 13 -9 3.9 15.2
11 2 -9 2.8 18.5
13 -11 -9 5.9 15.5
-11 13 -9 14 11.5
-2 13 9 19.3 15.4
2 11 -9 9.2 16
11 -13 -9 14.8 14.5
-13 11 9 -10.7 12.7
13 -2 -9 2.5 19.1
-2 13 9 9.7 11.5
2 11 -9 -1.3 17.4
1 12 9 14.9 15.6
13 -12 -9 45.4 15.5
-13 12 -9 18.9 10.7
-1 13 -9 17.8 15.6
12 1 -9 25.2 18.7
-1 13 -9 16.2 16.4
1 -13 -9 32.1 16.4
-12 13 9 -11.2 10.8
1 -13 -9 35.6 12.8
-12 13 -9 14.2 11.4
-1 13 9 17.1 15.6
1 12 -9 28.5 16
1 12 -9 34.5 18.1
13 -1 -9 30.8 19
-1 13 9 -1 10.6
12 -13 -9 40.3 15.3
-1 -12 -9 17.6 11.5
-13 12 9 -13.7 11.6
0 13 9 142.99 22.9
13 0 -9 75.79 19.1
0 -13 -9 86.89 14
-13 13 -9 63.09 14.2
0 13 -9 104.29 20.6
0 13 -9 140.89 18.9
7 -14 -9 19.5 14.1
7 7 -9 11.3 13
-7 14 9 19.4 11.6
14 -7 -9 22.6 17.3
-7 14 -9 14.6 12.1
7 -14 -9 20.4 14.9
-14 7 9 14.5 13.5
7 7 -9 23.7 14.4
8 6 -9 8.4 13.4
8 6 -9 4.6 12.5
-14 6 9 -0.9 13.3
-6 14 -9 1.4 10.6
6 -14 -9 10.9 13
-8 14 9 5.7 11.4
-14 8 -9 -3.4 11.4
6 -14 -9 3.4 14.6
14 -8 -9 15.9 16
8 -14 -9 9.3 13.5
6 8 -9 -4.4 14.1
8 -14 -9 16 13.2
-6 14 9 -2.8 11.2
-14 8 9 -9.2 12.6
14 -6 -9 -1.1 17.7
-8 14 -9 2.5 12
6 8 -9 6.7 14.6
-14 5 9 -3.5 13.3
9 5 -9 15.6 9.9
5 -14 -9 34.4 16
-14 9 -9 0.8 10.4
14 -9 -9 20.7 16.4
9 5 -9 -1.8 11
-9 14 9 9 11.3
5 -14 -9 3 13
5 9 -9 12.6 14.8
-9 14 -9 18.3 12.5
9 -14 -9 24.4 13.8
5 9 -9 21.4 15.4
-5 14 9 -0.8 11
14 -5 -9 23.7 18.1
-14 9 9 0.8 13.2
9 -14 -9 17.1 12.6
-4 14 -9 1.8 14.6
4 -14 -9 17.4 15.5
-14 4 9 -0.8 13
-14 10 -9 0.9 10.6
4 -14 -9 13.8 12.6
-10 14 9 5 11.7
14 -10 -9 11.6 15.8
-4 14 -9 10.4 11
4 10 9 -1.1 12.7
4 10 -9 23.6 15.9
-10 14 -9 11.2 11.9
4 10 -9 23.6 16.7
14 -4 -9 31.1 17.9
-14 10 9 -5.9 13.2
-4 14 9 6.7 11.4
-4 14 9 16.6 15.8
10 -14 -9 16.8 15.1
-14 11 -9 3.5 10.8
3 11 9 11.3 14.1
-3 14 -9 7.1 13.5
-14 3 9 -6.7 11.6
14 -11 -9 5.1 14.4
-3 14 -9 11.9 13
-11 14 9 -3.3 11.1
3 -14 -9 13.1 16
11 3 -9 -3.3 17.6
3 -14 -9 20.2 12.4
-3 14 9 4.2 11.3
3 11 -9 -0.2 16.8
14 -3 -9 3.8 19.3
11 -14 -9 8.9 14
-3 -11 -9 -0.4 9.3
3 11 -9 5.7 15.5
-14 11 9 -12.7 12.2
-11 14 -9 9 11.8
-3 14 9 22.4 16.3
-14 12 -9 24.8 11.5
2 12 9 45.4 15.9
-2 14 -9 67.19 17.2
-2 14 -9 27.6 15.4
12 2 -9 34.5 17.8
2 -14 -9 59.39 14.6
14 -12 -9 46.5 14.5
14 -2 -9 50.69 20.8
-2 -12 -9 55.79 12.4
-2 14 9 53.49 16.9
-12 14 -9 37.5 13.1
2 12 -9 54.59 17.8
2 12 -9 57.09 18.1
12 -14 -9 85.89 15.5
-1 14 -9 62.29 17.1
-1 14 -9 27.2 15.9
13 1 -9 38 18.9
1 -14 -9 51.09 13.2
14 -13 -9 38 14.4
-14 13 -9 25.2 11.7
1 13 9 34.3 15
1 13 -9 27.3 16.8
-1 -13 -9 37 12
14 -1 -9 36.3 19.7
-13 14 -9 21 11.2
-1 14 9 34.3 15.9
1 13 -9 58.39 18.5
13 -14 -9 51.59 14.2
14 -14 -9 14 13.7
0 -14 -9 8 12.3
-14 14 -9 6.3 9.9
14 0 -9 0.4 17.7
0 14 9 14.4 13.7
0 14 -9 13.5 15.7
0 14 -9 10.6 14.6
-7 15 -9 3.8 16
-8 15 9 0.1 13.5
7 -15 -9 28.6 15.8
8 7 -9 7.7 12.8
7 -15 -9 13.4 14.1
-15 7 9 -7.6 13
15 -8 -9 15.6 16.8
8 7 -9 2.8 11.7
-8 15 9 6.8 10.7
-7 15 9 17 14.8
-7 15 9 5.8 10.4
7 8 -9 8.4 14.3
15 -7 -9 17.8 17.8
8 -15 -9 13.3 14.5
7 8 -9 3.8 13.9
-15 8 9 -11.7 13
8 -15 -9 2.5 12.9
-8 15 -9 7.2 11.3
-15 6 9 -8.5 12
9 6 -9 -2.3 11.7
6 -15 -9 5.5 14.8
6 -15 -9 11.4 13.1
-9 15 9 0.6 11
15 -9 -9 19 15.9
15 -6 -9 4.6 17.5
-9 15 -9 -3.3 11.2
6 9 -9 10.6 15.1
-6 15 9 3.2 10.7
-6 15 9 9.5 14.6
9 -15 -9 1.2 12.1
9 -15 -9 16 13.7
-15 9 9 -4.8 13.2
6 9 -9 -2.6 14.4
5 -15 -9 24.7 14.2
15 -10 -9 14.3 16.2
-10 15 9 6 10.8
-15 5 9 2 12.5
5 -15 -9 22.3 13.2
-5 15 -9 2.4 14.8
10 5 -9 0.4 7.8
5 10 -9 15.2 15.2
-5 15 9 9.4 10.7
5 10 -9 25.2 14.8
-10 15 -9 -0.4 11.3
10 -15 -9 17.4 12.7
15 -5 -9 21.8 17.4
-15 10 9 1.2 12.3
-5 15 9 14 15.5
10 -15 -9 7.2 9.7
-11 15 9 -2.4 10.5
11 4 -9 3.4 16.7
4 -15 -9 25.9 12.8
-15 4 9 -23.4 10.8
15 -11 -9 5.7 14.7
-4 15 -9 24 13
4 11 -9 12.5 15.3
-15 11 9 -7 12
15 -4 -9 23.1 18.8
4 11 -9 12.1 16
-11 15 -9 10.7 11.8
-4 15 9 5.9 10.5
-4 -11 -9 2.4 8.8
11 -15 -9 20.2 13.3
-4 15 9 19.2 15.2
-3 15 -9 -2.1 13.5
3 -15 -9 7.8 12.3
-15 12 -9 -0.4 10.8
12 3 -9 0.3 19.5
-12 15 9 -15.3 15
15 -12 -9 13 13.6
3 12 -9 2 15.4
3 12 -9 11.3 15.7
-3 15 9 -4.1 9.9
15 -3 -9 17.9 18.4
-3 15 9 6.5 15.3
-12 15 -9 6.7 11
12 -15 -9 13.4 13.2
-3 -12 -9 9.1 11.3
2 -15 -9 14.2 12.6
13 2 -9 18.9 18.3
2 13 9 -0.8 18.1
-2 15 -9 28 14
-15 13 -9 -0.5 14.9
15 -13 -9 24.9 13.2
2 13 -9 14 15.9
15 -2 -9 37.8 19.3
-2 15 9 16.2 14.3
13 -15 -9 40.2 13.6
-13 15 -9 11.6 10.8
2 13 -9 27.8 16.6
-2 -13 -9 29.6 11.7
14 1 -9 51.69 18.3
15 -14 -9 86.59 14.6
-1 15 -9 99.09 15.7
1 -15 -9 96.49 15.2
-1 -14 -9 61.69 13.2
15 -1 -9 41.7 18.3
1 14 -9 83.79 15.8
14 -15 -9 92.79 15.6
15 0 -9 45.8 18.5
0 15 -9 77.29 16
15 -15 -9 96.09 14.6
0 -15 -9 85.29 14.7
8 8 -9 0.4 12.2
-16 8 9 -13.9 12.6
-8 16 9 -8.4 10.6
8 -16 -9 5.4 13.5
16 -8 -9 -9.2 15.7
7 -16 -9 27.5 13
16 -9 -9 15.1 15.2
9 7 -9 4.2 11.5
-16 7 9 -6 11.9
-9 16 9 -3.6 10.6
7 9 -9 14.5 13.9
7 9 -9 4.9 12.4
16 -7 -9 9.2 16.2
-9 16 -9 3.4 14.9
9 -16 -9 34.4 13.9
-7 16 9 0.3 10.6
-16 9 9 -5.8 12.6
-7 16 9 0.5 15.1
10 6 -9 7.5 8.3
-16 6 9 -11.6 11
16 -10 -9 16 15
6 -16 -9 20.9 12.8
-10 16 9 -11.5 9.8
-6 16 9 -10.5 9.7
6 10 -9 6 13.8
-6 16 9 1.7 13.1
10 -16 -9 17.6 13.4
16 -6 -9 7.7 16.4
-16 10 9 -14.2 11.6
-10 16 -9 1.9 10.2
6 10 -9 -4.5 13.8
5 -16 -9 -1.4 11.9
-5 16 -9 5.6 9.5
-16 5 9 -17.7 17
11 5 -9 3.4 17.2
16 -11 -9 3.5 14.1
-16 11 9 -19.3 10.3
-5 16 9 -9.4 8.7
-5 -11 -9 1.5 8.5
5 11 -9 14.2 14.9
16 -5 -9 -3.1 17.1
-11 16 -9 4 10.1
5 11 -9 10.2 13.2
-5 16 9 1.6 13
11 -16 -9 11.8 11.5
4 -16 -9 10.5 12.4
12 4 -9 35.6 19.6
-4 16 -9 15.9 11.4
16 -12 -9 21.5 14.5
16 -4 -9 11.3 17.7
12 -16 -9 7.9 12
4 12 -9 5.3 13.7
-12 16 -9 0.6 9.6
4 12 -9 -1.9 14.4
-4 16 9 10.5 12.7
-4 -12 -9 7.3 9.2
-3 16 -9 42.4 13.7
13 3 -9 22.4 17.2
3 -16 -9 40.7 13.1
16 -13 -9 48 13.8
16 -3 -9 7 17.2
3 13 -9 -0.2 13.5
-3 -13 -9 23.7 11
3 13 -9 19.7 15.3
13 -16 -9 37 12.7
-13 16 -9 1.1 9.1
-3 16 9 -0.4 12.5
16 -14 -9 11.3 12.5
14 2 -9 18.8 17.1
2 -16 -9 21.1 12.6
-2 16 -9 19.1 12.6
16 -2 -9 19.6 16.9
2 14 -9 -0.1 13
14 -16 -9 20.6 12
-2 -14 -9 19.4 11.2
1 -16 -9 4.9 11.8
15 1 -9 14.9 16.3
-1 16 -9 12.6 13.4
16 -15 -9 13.3 12.3
15 -16 -9 23 12.6
16 -1 -9 6.1 16.4
1 15 -9 14.5 14.2
-1 -15 -9 17.7 11.6
16 0 -9 -15.6 14.7
0 16 -9 16.1 12.2
0 -16 -9 -2.9 11.4
16 -16 -9 8.1 11.9
9 8 -9 8 11.1
-17 8 9 -6.5 9.6
17 -9 -9 22.2 14.9
8 -17 -9 30 12
-9 17 9 -15.8 8.1
9 -17 -9 35 12.2
17 -8 -9 20.6 15.4
8 9 -9 12.2 11.7
-17 9 9 -5.6 10
10 7 -9 1.6 9.1
-10 17 9 -13.2 9.6
17 -10 -9 -6.7 14.4
7 -17 -9 4.5 11.8
-7 17 9 -8.7 12.5
-17 10 9 -6.5 9.9
17 -7 -9 17.3 16.5
10 -17 -9 -3.8 11.3
7 10 -9 6.5 12.4
17 -11 -9 33.2 14.9
6 -17 -9 48.9 13.1
17 -6 -9 14.8 15.4
6 11 -9 2.4 12.5
11 -17 -9 40.3 13
17 -12 -9 3.6 12.9
-5 17 -9 5.1 8.6
5 -17 -9 14.8 12.2
12 5 -9 4.7 17.6
12 -17 -9 14.5 11.1
17 -5 -9 7.2 15.5
5 12 -9 -17.3 12.9
13 4 -9 -2.8 16.3
-4 17 -9 12.7 10.3
17 -13 -9 14.7 12.3
4 -17 -9 15.6 12.2
13 -17 -9 24.6 11
-4 -13 -9 13.5 9.7
4 13 -9 11.6 13.2
17 -4 -9 2.3 14.6
17 -14 -9 22.7 12.5
3 -17 -9 26.4 12.4
-3 17 -9 25.9 11.2
14 3 -9 12.7 15.7
3 14 -9 13.9 13.1
17 -3 -9 15.5 15
14 -17 -9 18.4 11.1
-3 -14 -9 10.6 9.2
-2 17 -9 16.2 11.6
15 2 -9 3 15.6
2 -17 -9 19.4 11.9
17 -15 -9 14.6 11.9
15 -17 -9 20.1 10.1
-2 -15 -9 10.4 8.7
2 15 -9 15.3 12.4
17 -2 -9 20 14.3
1 -17 -9 19 10.7
-1 17 -9 23.5 10.9
16 1 -9 7.2 15.3
17 -16 -9 14.8 10.6
17 -1 -9 -6.4 12.8
16 -17 -9 10.3 9.3
-1 -16 -9 14 10.7
1 16 -9 15.9 11.2
0 -17 -9 33.2 11
0 17 -9 21.9 11
17 0 -9 3.3 14
17 -17 -9 24.7 9.3
9 -18 -9 3 11.3
18 -9 -9 2.6 14.2
9 9 -9 2.8 10
8 -18 -9 52.59 12.6
10 8 -9 23.4 8.7
18 -10 -9 18.7 13.8
18 -8 -9 12.8 14.1
10 -18 -9 38.7 12.3
8 10 -9 10.8 11.3
7 -18 -9 12.4 11.3
18 -11 -9 13.9 12.9
11 -18 -9 13.2 10.7
18 -7 -9 8.4 15
7 11 -9 12 11.7
6 -18 -9 25.8 11.8
18 -12 -9 24.3 13
12 6 -9 4.4 15.1
18 -6 -9 -0.5 14.1
12 -18 -9 20.8 11
6 12 -9 9.7 11.8
13 5 -9 14.7 15.8
18 -13 -9 41.8 12.2
5 -18 -9 70.09 12.6
13 -18 -9 52.89 11.5
5 13 -9 33.1 12.2
18 -5 -9 11.3 14
18 -14 -9 18.8 12.1
14 4 -9 3.7 15.2
-4 18 -9 14.7 9.5
4 -18 -9 6.5 11.3
4 14 -9 6.6 11.9
14 -18 -9 15.7 10
18 -4 -9 3.2 13.9
-3 18 -9 8.3 9.8
15 3 -9 5.9 14.7
18 -15 -9 -5 11.2
3 -18 -9 -3.5 10.8
-3 -15 -9 7.2 8.8
3 15 -9 -2.1 11.3
15 -18 -9 4.9 9.6
18 -3 -9 8.9 13.1
18 -16 -9 5.8 10.3
16 2 -9 -0.6 14.2
-2 18 -9 12.5 10
2 -18 -9 10 10.3
-2 -16 -9 6.3 8.9
2 16 -9 10 10.5
18 -2 -9 3.5 12.4
16 -18 -9 5.2 9
18 -17 -9 2.8 8.3
17 1 -9 4.2 13.5
1 -18 -9 10 10.2
-1 18 -9 8.8 9.4
1 17 -9 11.6 9.8
17 -18 -9 14.6 8.2
-1 -17 -9 7.3 9
18 -1 -9 8.1 12.7
18 0 -9 3.4 12.2
0 -18 -9 7.4 9.3
0 18 -9 11.9 9.2
18 -18 -9 15.4 8.4
19 -10 -9 22 12.6
10 9 -9 10.3 7.1
9 -19 -9 30 10.4
9 10 -9 14 9.5
19 -9 -9 20.2 12.5
19 -11 -9 24.7 12.3
8 -19 -9 21.6 10.5
8 11 -9 4.9 10.5
19 -8 -9 1.1 12.9
11 -19 -9 17.8 9.9
7 -19 -9 53.39 11.8
19 -12 -9 23.9 11.7
19 -7 -9 10.6 12.2
12 -19 -9 47.2 11.4
7 12 -9 14.2 10.5
13 6 -9 -1.4 12.5
6 -19 -9 7.9 10.1
19 -13 -9 4.6 10.9
19 -6 -9 1.2 12.2
6 13 -9 4 10.6
13 -19 -9 13.6 10
14 5 -9 26.9 14.3
19 -14 -9 15.8 10.5
5 -19 -9 13.8 10.6
5 14 -9 11 10.6
19 -5 -9 -4.2 12
14 -19 -9 18.8 9
15 4 -9 3.3 13.6
19 -15 -9 11.9 10
-4 19 -9 10.8 7.7
4 -19 -9 8.7 10
15 -19 -9 13.9 8.8
19 -4 -9 -1.2 11.5
4 15 -9 6.7 9.3
16 3 -9 1 13.6
19 -16 -9 3.6 9.3
-3 19 -9 6.3 9
3 -19 -9 -1.1 9.9
16 -19 -9 -2.6 8.1
19 -3 -9 1.3 11.4
3 16 -9 -1.4 8.2
17 2 -9 1.8 13.8
2 -19 -9 1.8 10.3
19 -17 -9 -0.9 7.8
-2 19 -9 10.5 8.8
19 -2 -9 0.1 11.5
2 17 -9 8.6 9.9
17 -19 -9 12.1 8.3
-1 19 -9 10 9.2
19 -18 -9 17.6 8.4
1 -19 -9 18.8 10.2
18 1 -9 7.3 13.2
19 -1 -9 8.9 12.2
1 18 -9 28 10.4
18 -19 -9 17 8.3
20 -10 -9 6 11
10 -20 -9 9.7 9.1
20 -11 -9 12.1 10.8
9 -20 -9 22.1 9.4
11 -20 -9 18.8 8.9
9 11 -9 6.9 8
20 -9 -9 24.8 12
20 -12 -9 3.3 9.9
8 -20 -9 2.9 9.5
12 -20 -9 11.8 9.1
20 -8 -9 7 11.2
8 12 -9 0.8 8.8
7 -20 -9 23.2 9.7
20 -13 -9 9.4 9.8
7 13 -9 4.4 9.4
13 -20 -9 30.9 9.2
20 -7 -9 7.6 11.1
6 -20 -9 47.2 10.4
20 -14 -9 20.6 9.7
6 14 -9 17.1 9.7
20 -6 -9 6.2 11.2
14 -20 -9 30.2 8.3
15 5 -9 -2.8 10.7
20 -15 -9 9.4 9.9
5 -20 -9 10.8 10
5 15 -9 -10.2 8.8
20 -5 -9 -7.4 10.3
15 -20 -9 9.9 8.2
20 -16 -9 3.2 9.2
4 -20 -9 -4.5 9.9
16 4 -9 3 10.5
20 -4 -9 2.2 11.2
4 16 -9 2.6 9.7
16 -20 -9 19.3 8.1
20 -17 -9 0 8.4
3 -20 -9 3.2 9.3
17 3 -9 1.9 10
17 -20 -9 -0.9 8.2
20 -3 -9 2.3 11.4
3 17 -9 1.9 9.7
21 -11 -9 -3.8 10.1
10 -21 -9 7.4 9.1
11 -21 -9 4 8.6
21 -10 -9 4.7 10.4
9 -21 -9 11.3 9.3
21 -12 -9 11.1 10.1
12 -21 -9 14.4 8.4
21 -9 -9 12.4 10.6
8 -21 -9 27.3 9.9
21 -13 -9 11.9 10.2
21 -8 -9 6.3 10.6
8 13 -9 10.3 6.5
13 -21 -9 11.6 8.1
21 -14 -9 6.1 10.1
7 -21 -9 8.9 9.9
14 -21 -9 -0.6 8.2
21 -7 -9 11.3 10.6
7 14 -9 2.8 8.4
21 -15 -9 10.5 10.4
6 -21 -9 -4.5 10.3
6 15 -9 2.2 9.5
21 -6 -9 2.2 11.4
15 -21 -9 1.2 8.3
0 0 10 -1.1 8.4
0 0 -10 1.3 12.4
1 -1 10 193.68 18.7
0 -1 10 199.38 19.4
-1 1 10 179.08 19.4
-1 1 -10 189.18 20.8
1 0 10 185.28 18.3
-1 0 -10 181.68 20.3
1 -1 -10 167.98 20.3
1 0 -10 179.48 20.1
0 1 10 186.48 19.1
-1 0 10 203.28 19.8
0 1 -10 170.58 20.4
0 -1 -10 170.88 20.7
1 1 10 91.99 15.4
-1 2 10 83.39 11.9
1 -2 10 75.49 11.4
-1 -1 -10 87.49 15.3
-2 1 10 84.79 12
-2 1 -10 116.59 17.8
1 -2 -10 99.79 16
1 1 -10 113.09 17.1
-1 -1 10 92.89 12.7
2 -1 -10 129.79 18.4
2 -1 10 114.29 13.3
-1 2 -10 106.49 17.3
0 -2 -10 63.89 14.5
-2 0 10 77.29 12.1
2 -2 -10 83.39 16
0 2 10 66.39 10.8
2 0 10 75.19 11.3
-2 2 -10 68.29 15.6
2 0 -10 68.09 14.6
0 -2 10 69.29 12.2
-2 2 10 59.49 10.9
-2 0 -10 76.39 15.6
0 2 -10 96.59 16.6
2 -2 10 71.69 11.1
2 -3 10 149.79 17.8
-2 3 10 147.69 18.9
-2 -1 -10 153.08 20.2
3 -1 10 148.39 15.6
-3 2 -10 138.19 19.3
1 2 10 161.48 18
1 -3 -10 131.69 18.6
-1 -2 10 149.29 18.8
3 -2 -10 136.49 18.9
-1 3 -10 150.18 19.5
-3 1 10 157.18 19
2 1 -10 126.39 19.1
2 -3 -10 157.98 19.1
-1 -2 -10 155.78 19.3
-3 1 -10 124.69 18.7
-2 3 -10 141.89 19.8
2 1 10 140.89 16.8
-2 -1 10 153.68 17.6
3 -2 10 142.49 15.8
1 -3 10 179.58 18.7
-3 2 10 132.39 18.7
1 2 -10 156.78 19.8
3 -1 -10 159.78 19.4
-1 3 10 148.29 18.3
3 0 -10 26.9 11.7
-3 3 10 37.3 10.7
0 3 -10 34.4 14.2
-3 3 -10 29.5 12.9
0 -3 10 33.4 10.8
3 0 10 25.6 9.1
-3 0 -10 23 12.2
0 -3 -10 17.9 11.9
-3 0 10 27.7 9.5
3 -3 10 40.6 10.1
3 -3 -10 27.1 11.5
0 3 10 30.7 9.8
-2 -2 10 37 11.3
4 -2 10 59.59 11
-2 4 10 38.7 10.7
2 -4 -10 52.99 14.5
-4 2 -10 32.7 13.2
2 2 -10 58.09 14.6
-2 4 -10 33.7 13.5
-4 2 10 45.8 11.3
4 -2 -10 49.99 14.6
2 2 10 37.1 9.8
2 -4 10 46.1 10.7
-2 -2 -10 33.7 13.2
-3 4 10 149.09 19.3
1 3 10 173.48 18.1
-4 3 -10 128.09 19.9
-1 -3 10 167.38 19.9
3 1 -10 146.29 18.9
3 -4 10 186.38 18.5
4 -1 10 141.89 17
-1 4 -10 142.09 20.4
-4 1 10 156.18 19.8
1 -4 -10 146.49 19.2
4 -3 -10 154.38 19.3
-3 -1 -10 141.09 18.6
3 1 10 143.49 16.5
3 -4 -10 123.39 17.1
1 -4 10 150.88 18.8
-3 -1 10 157.28 17.9
-3 4 -10 146.59 17.1
4 -3 10 143.69 17.1
-4 3 10 127.29 17.4
-4 1 -10 102.59 17.3
-1 4 10 141.39 16.8
-1 -3 -10 141.39 19.2
4 -1 -10 144.99 18.4
1 3 -10 145.49 19.9
-3 4 -10 120.89 19.3
0 4 -10 -4.3 12.6
-4 4 10 6.3 10.2
4 -4 10 6.6 9
4 -4 -10 8.7 10.7
-4 0 -10 6.1 11.3
0 4 10 7.9 8.9
4 0 -10 2.4 11.3
-4 4 10 -1.7 8.4
-4 4 -10 19.4 12.8
-4 0 10 4.2 9.3
0 -4 -10 9.4 12.8
-4 4 -10 13.2 9
4 0 10 7.8 8.6
0 -4 10 5.9 9.6
-3 -2 -10 101.69 17.5
-2 5 -10 101.99 16
5 -2 10 123.59 16.2
5 -3 -10 121.79 19
-2 5 -10 116.79 18.7
-5 2 10 123.89 19.6
-3 5 10 131.19 18.7
2 -5 -10 126.69 18.7
2 3 10 111.59 15.2
-2 -3 10 117.19 18.2
3 2 -10 129.69 19.1
3 -5 10 142.69 17.5
-3 5 10 107.79 16.8
3 -5 -10 97.19 15.5
5 -3 10 105.59 16.1
-3 5 -10 115.89 16.7
-2 5 10 113.19 16
3 2 10 108.49 15.8
5 -2 -10 148.89 18.8
-2 5 10 120.39 18
2 3 -10 126.39 17.5
-5 3 10 85.19 11.9
2 -5 10 130.89 17.8
-5 3 10 110.99 14.6
-3 -2 10 117.49 19.4
-3 5 -10 122.79 18
1 4 10 120.19 17.8
-5 4 -10 106.89 15.3
5 -1 10 113.49 14.6
5 -4 -10 153.68 19.1
-4 5 10 107.79 16.8
-1 5 -10 115.19 19.5
-5 1 10 103.59 17.3
4 1 -10 132.59 17.5
-1 -4 10 86.99 13.2
-4 5 10 125.49 19.1
4 -5 10 119.29 17.6
-4 -1 -10 81.99 15.4
-4 5 -10 124.69 17.6
1 4 -10 120.99 18.4
-5 4 10 151.78 16.4
5 -1 -10 128.49 18.5
5 -4 10 116.99 15.4
4 1 10 132.59 16.8
-5 4 10 104.89 16.1
1 -5 10 121.59 18.3
-1 5 10 126.29 18.2
-4 5 -10 87.69 16.5
-4 -1 10 138.59 19.7
4 -5 -10 118.89 16.9
-5 0 -10 -3.5 10.5
0 5 10 20.2 9.9
5 0 10 14.7 7.9
0 -5 10 18.1 9.8
5 -5 10 17.6 8.5
-5 0 10 14.6 9.8
5 0 -10 15.5 12
-5 5 10 12.1 10.8
-5 5 -10 2 11
-5 5 10 20.2 9.8
0 5 -10 34 14.8
5 -5 -10 22.4 13.2
-5 5 -10 29.3 9.9
-3 6 -10 46.2 10.8
3 3 10 38.1 10.4
3 -6 10 32.4 10.2
6 -3 -10 43.3 14.2
-3 -3 10 31.7 11.3
-3 6 -10 54.69 15.6
3 3 -10 57.09 14.5
6 -3 10 37.1 9.2
-6 3 10 30.7 12.2
-3 6 10 32.7 9.8
-3 6 10 41.5 11.8
-2 -4 10 83.09 13.2
-6 4 -10 100.39 13.3
-6 2 10 70.19 13
-4 6 10 66.29 11.3
-2 6 -10 68.99 11.5
6 -2 10 63.89 10.3
2 4 10 59.89 11
-2 6 -10 98.19 17.9
-4 6 10 73.59 12.6
6 -4 -10 108.39 16.9
4 -6 10 85.19 12.7
4 -6 -10 79.59 14.7
-6 4 10 50.19 10.7
2 -6 10 76.19 12.3
-4 6 -10 73.09 15.6
-6 4 10 88.29 14.1
6 -2 -10 111.49 17.7
-2 6 10 90.59 12.3
6 -4 10 85.09 13.8
-4 -2 10 50.99 12
-4 6 -10 110.99 17.1
2 4 -10 127.59 18.4
-2 6 10 73.29 12.4
4 2 10 94.09 15.7
5 -6 10 27.8 10.3
6 -1 10 14.8 8.7
-5 6 10 22 9.6
1 5 10 21.6 9.7
-1 -5 10 27 10.4
-6 5 -10 36.5 10.9
-1 6 -10 19.1 8.8
5 1 -10 33.2 13.7
-1 6 -10 45 15.4
-5 6 10 33.7 11.9
-6 1 10 24.5 10.8
6 -5 -10 20.6 12.8
-5 -1 10 15.3 11.6
5 1 10 17.3 8.8
-1 6 10 16.7 9.8
-1 6 10 20.5 9
-6 5 10 10.8 9.1
-6 5 10 15.8 11.7
-5 6 -10 24.3 10
-5 6 -10 0.7 11.4
1 5 -10 18.8 12.6
1 -6 10 9.2 9.2
6 -5 10 14 9.2
5 -6 -10 20.3 12.9
6 -1 -10 19.9 13.3
-6 0 10 11.6 11.4
-6 6 10 26 12.3
6 -6 -10 24 13
0 6 10 32.5 10.2
0 -6 10 0.5 8.7
6 0 10 19.5 8.4
6 -6 10 18.6 9.5
6 0 -10 37.6 14.3
0 6 10 24.1 10.5
-6 6 -10 22.3 10.5
-6 6 10 13.2 9.4
0 6 -10 34.2 14.3
-3 7 -10 78.69 12.5
7 -4 -10 99.29 16.9
-7 4 -10 76.29 12.1
-4 7 10 67.79 12.7
-3 7 -10 63.69 15.5
4 3 -10 103.69 16.8
-3 -4 10 38 11.3
-4 7 10 69.59 11.7
3 4 10 71.29 11.8
-7 3 10 77.29 14.7
4 -7 10 64.09 11.7
-4 7 -10 75.69 12.3
-3 7 10 61.79 12.4
4 3 10 58.99 10.7
3 4 -10 61.49 14.6
-7 4 10 35.7 12.5
-4 -3 10 33.8 11.6
3 -7 10 60.89 11.3
7 -3 -10 79.09 15.8
-3 7 10 76.19 12.1
-4 7 -10 73.49 16.3
7 -2 10 94.69 14.5
-7 2 10 70.09 13.9
7 -5 -10 98.09 16.4
-2 7 -10 101.19 18
-5 7 10 90.39 13
5 2 -10 89.89 16.2
2 5 10 118.59 18
-2 7 -10 98.99 16.4
-5 7 10 90.29 14.1
5 -7 10 101.29 17.1
-7 5 -10 122.79 15
-2 7 10 124.49 14.5
2 5 -10 92.69 15.5
-7 5 10 105.49 16.5
7 -2 -10 105.59 16.9
5 2 10 105.89 16.4
7 -5 10 106.29 15.7
-2 7 10 112.39 18.6
-5 7 -10 112.49 14.6
7 -6 -10 0.5 12.1
-7 6 -10 8.4 9
-6 7 10 7.9 10.7
1 6 10 0.4 9
1 6 10 12 9.6
6 1 -10 1 12.2
-1 7 -10 7.7 8.4
-1 7 -10 17 14.4
-6 7 10 3 12
6 -7 10 17 9.9
-7 1 10 1.9 10.9
7 -1 10 7.2 8
-6 7 -10 17.1 9.9
7 -6 10 4.4 9.1
1 6 -10 10.4 13.9
6 1 10 17.5 9.2
-7 6 10 2.6 11.2
-6 -1 10 -8.8 11.2
-1 7 10 13.1 8.8
-7 6 10 -1 9.6
6 -7 -10 14.4 12.9
7 -1 -10 7.5 12.9
-1 7 10 4.3 9.6
0 7 10 -8.9 8.3
7 -7 -10 0.8 12.7
-7 7 10 -10.4 10.3
7 0 -10 -2.3 13
7 0 10 6.5 8.4
7 -7 10 5.9 9.1
0 7 10 -0.6 8.7
-7 0 10 -13.2 12.7
0 7 -10 -2.9 13.8
-7 7 -10 -2.1 9.5
-7 7 10 -8.9 11.6
4 4 -10 428.16 30.7
-4 8 -10 326.37 29.3
8 -4 -10 405.76 29.8
-4 8 -10 443.46 29.6
-4 8 10 404.26 28.9
-8 4 10 340.77 32.6
4 4 10 431.26 28.4
-4 8 10 382.96 29.5
3 5 10 18 9.8
-3 8 -10 2.8 13.3
-5 8 10 6.1 11.8
-5 8 10 12.8 10.9
5 -8 10 14.2 9.6
-8 3 10 8.3 12
-3 8 -10 22.7 10.2
-8 5 -10 12.6 10.5
3 -8 -10 4.7 8.6
8 -5 -10 14.4 13
5 3 -10 6.3 12.1
-8 5 10 11.7 13.9
-5 8 -10 16.7 9.8
-5 -3 10 -20.7 10.1
8 -3 -10 11.5 13.4
3 5 -10 22.6 13.8
3 5 -10 2.5 9.2
-5 8 -10 1.4 12.4
-3 8 10 7.2 10.4
5 3 10 24.6 10.1
-3 8 10 18.2 10.4
2 -8 -10 7.1 10.3
8 -6 -10 -0.7 12.8
2 6 10 -1.2 8.1
2 6 10 -1.4 8.8
-2 8 -10 13.5 14.9
6 -8 10 11.4 9.4
6 2 -10 18.3 13.5
-8 6 -10 3 10.6
-8 2 10 0 13.5
-6 8 10 -8.3 11.8
-6 8 10 -3.8 11.1
-2 8 -10 11.7 9.6
-6 8 -10 4.9 9.9
6 2 10 3.6 9
-2 8 10 -1.5 9.4
-6 -2 10 -10.1 11.3
-8 6 10 -18.8 8.9
2 6 -10 0.5 13.5
-2 8 10 -17.2 8.7
2 6 -10 3.5 9.5
8 -2 -10 6.3 13.1
-8 6 10 -1.5 12.5
1 -8 -10 25.5 8.9
1 7 10 -0.6 12
8 -7 -10 41.7 14.6
-7 8 10 25.1 11.8
7 -8 10 35.6 9.9
-1 8 -10 59.19 17
-8 1 10 7.3 13.2
-8 7 -10 46.3 11
1 7 10 33 10
-7 8 10 28.2 13.2
7 1 -10 52.29 14.8
-8 7 10 16.6 12.7
-7 8 -10 36.5 11.5
-1 8 10 -9.6 11.3
7 1 10 30.5 9.4
-1 8 10 33 10.3
-8 7 10 -6.2 10.6
1 7 -10 11.7 11
1 7 -10 33.6 15.2
-7 -1 10 -2.2 13.1
8 -1 -10 49.9 15.4
-8 0 10 -14.3 12.9
8 -8 10 21.6 9.9
0 8 -10 10.4 11.1
-8 8 -10 18.7 10.5
8 0 -10 12.7 13.3
0 8 10 27.7 10.2
-8 8 10 -3.7 10.6
8 0 10 13.1 8.4
-8 8 10 -11 13.3
0 -8 -10 14.3 10.6
0 8 -10 34.7 16
9 -5 -10 64.29 15.3
-4 9 -10 49.6 14.7
-5 9 10 71.99 14.4
5 4 -10 86.89 17.4
-9 4 10 28 13.7
-4 9 -10 54.89 12.3
4 -9 -10 57.89 12.3
5 4 -10 72.39 13.2
-9 5 -10 45.6 11.6
4 5 -10 50.99 12.7
5 4 10 51.99 10.7
-5 9 -10 49.7 12.1
-9 5 10 24.6 13
-4 9 10 43.8 12
5 -9 -10 35.5 10.1
4 5 -10 70.09 15.6
9 -4 -10 66.29 15.8
-3 9 -10 45.6 11.2
6 -9 10 17.9 8.8
-3 9 -10 41.3 14.9
3 6 10 34.1 10.2
-6 9 10 17 12.9
6 3 -10 8.5 9.1
-9 3 10 15 14.7
6 3 -10 55.59 15.2
9 -6 -10 48.9 14.9
-6 9 10 33.4 12.9
3 -9 -10 29.1 11.7
-9 6 -10 47.8 12
-6 9 -10 46.8 11.3
-9 6 10 8.4 13.3
3 6 -10 75.59 17
-3 9 10 53.59 12.2
3 6 -10 65.99 13.6
9 -3 -10 70.49 16.6
6 3 10 42.6 10.6
7 2 -10 49.1 15.9
-7 9 10 1.8 12.9
-9 2 10 20.4 14.6
-7 9 10 18.3 12.5
2 7 10 33.2 10.7
7 -9 10 30.1 9.9
2 -9 -10 40.7 13.9
-9 7 -10 29.4 10.9
-2 9 -10 31.7 15.8
9 -7 -10 40.8 14.4
-7 9 -10 33.6 11.1
-9 7 10 16.5 14.1
-2 9 10 49.3 12.2
7 2 10 51.69 10.8
2 7 -10 49.4 15.8
9 -2 -10 57.19 15.9
2 7 -10 61.39 16.2
-8 9 10 4.7 12.7
8 1 -10 16.8 13.6
1 -9 -10 11.1 11.3
-8 9 10 7.6 11.8
-1 9 -10 18.7 12.5
-1 9 -10 18.1 15
8 -9 10 8.8 9.2
1 8 10 19.5 10.4
-9 1 10 9.6 13.4
-9 8 -10 18.4 11.1
-1 -8 -10 23.8 10.2
-8 -1 10 -0.9 12.3
-1 9 10 24.1 11.4
-9 8 10 5.4 13
1 8 -10 43.3 16.2
-8 9 -10 27.3 10.9
1 8 -10 43.8 13.6
9 -1 -10 26.3 14.2
8 1 10 25 9.4
-9 8 10 8.3 10.6
-9 9 -10 20.7 11.5
9 0 10 18.3 9.4
-9 0 10 7.3 12.3
0 9 10 7.7 10.6
-9 9 10 5.5 13.9
0 9 -10 21.2 16
0 -9 -10 20.7 13.9
9 0 -10 14.2 13.6
-9 9 10 9.9 11.1
0 9 -10 14.5 15.2
9 -9 -10 -0.9 11.5
5 5 -10 22.1 13.6
-10 5 10 1.6 13.2
-5 10 -10 10.3 10.8
10 -5 -10 15.9 13.8
5 5 -10 8.2 13.8
-5 10 -10 -0.7 12.3
5 -10 -10 9.3 11.8
-5 10 10 -2.6 10.7
5 5 10 15.3 9.8
-10 4 10 108.09 18.1
-4 10 -10 120.59 19.4
6 4 -10 112.39 15.9
-4 10 -10 77.59 16.8
6 4 -10 92.69 17
4 -10 -10 89.79 14.8
10 -6 -10 80.59 16.5
-10 6 -10 124.89 16.2
4 6 10 121.99 18.2
-6 10 10 112.99 16.5
6 -10 -10 109.79 14.9
-4 10 10 60.79 13.2
-6 10 -10 74.79 13.4
4 6 -10 120.59 15.3
-10 6 10 93.39 16.6
10 -4 -10 86.69 16.7
-7 10 10 -25.3 12.6
-10 7 -10 4.1 11.9
-10 3 10 -3.5 13.5
7 3 -10 11.4 13.4
7 3 -10 5.6 10.3
-3 10 -10 16.7 14.6
-7 10 10 -1.9 11.8
10 -7 -10 7.1 13.6
3 7 10 14.2 9.9
3 -10 -10 8.9 12.8
-3 10 -10 1.8 9.2
7 -10 -10 9.6 10.5
10 -3 -10 11 14.3
-3 10 10 -11.5 10.2
-7 10 -10 2.5 10.9
-10 7 10 -0.8 13.2
3 7 -10 4 15.5
7 3 10 0 8.8
3 7 -10 5.3 14.8
-10 2 10 34.7 14.7
8 2 -10 3 10
-8 10 10 10.6 13.5
8 2 -10 43.8 16
2 8 10 30.6 11.1
-10 8 -10 33.1 11.6
-2 10 -10 33.5 16.4
-8 10 10 16.9 12.2
10 -8 -10 7.2 11.7
2 -10 -10 39.8 14.7
-2 10 -10 8.6 11.1
2 8 -10 43.4 15.1
2 8 -10 32.8 16.6
8 -10 -10 12.5 12.4
-2 10 10 24.3 11.5
10 -2 -10 23.8 14.6
-10 8 10 32.2 14.3
8 -10 -10 3.1 10.2
-2 -8 -10 23.8 10.3
8 2 10 28.6 9.8
-8 10 -10 42.9 12.7
-10 9 -10 0.5 11.1
-9 10 10 -2.8 13
10 -9 -10 14 14.4
1 -10 -10 16.3 12.8
-1 10 -10 -6.6 15.4
-1 10 -10 13.6 13.5
-10 1 10 -11.4 12.5
-9 10 10 2.1 10.8
9 -10 10 3 8.5
9 1 -10 5.4 13.2
1 9 10 0.5 11.1
-10 9 10 -9 12.4
10 -1 -10 3.1 13.1
1 9 -10 14.6 15.9
9 -10 -10 -0.3 14.7
-1 10 10 -7.3 10.4
-9 10 -10 1 10.3
1 9 -10 2.7 14.4
-10 9 10 0.9 10.4
-1 -9 -10 15.9 13.5
-9 -1 10 -25.5 11.3
9 1 10 -1.1 8.9
-10 0 10 0 11.7
0 10 -10 67.29 18
0 -10 -10 33.2 13.2
0 10 -10 27.7 16.5
-10 10 -10 29.5 11.6
-10 10 10 27.1 14.1
0 10 10 29.5 12.5
-10 10 10 6.7 10.4
10 0 -10 5.1 12.9
10 -10 -10 55.09 15.9
-6 11 10 7.5 11.7
-11 6 -10 4.2 11.5
6 5 -10 14.2 13.4
11 -6 -10 5.3 14
-5 11 -10 13.9 11.5
6 5 -10 9 12
5 6 10 -3.3 9.1
5 -11 -10 12 13.1
5 -11 -10 -2.2 10.3
-11 5 10 -0.4 13.4
11 -5 -10 -3.7 13.1
6 -11 -10 3.9 12.8
5 6 -10 5 13.9
5 6 -10 9.7 14.1
-11 6 10 4.7 13.7
6 -11 -10 7.3 10.8
6 5 10 -9.6 8
-6 11 -10 12.7 11.9
-5 11 10 -2.9 11.6
-4 11 -10 22.3 11.3
-4 11 -10 15.4 13.8
7 4 -10 26.7 14.4
7 4 -10 17.7 12.7
-7 11 10 30.9 12.9
4 -11 -10 27.3 14.4
4 7 10 19.8 10.1
11 -7 -10 29.8 14.7
-11 4 10 18 13.3
-11 7 -10 22.6 12.2
7 4 10 0.4 7.4
7 -11 -10 27.9 13.7
7 -11 -10 10.8 10.8
-11 7 10 21.6 14.2
-4 11 10 8.7 11.8
4 7 -10 24.6 15
4 7 -10 27.4 14.9
-7 11 -10 7.6 11.3
-3 11 -10 1.1 12
11 -8 -10 0.4 15.4
8 3 -10 5.2 14.2
-3 11 -10 11.6 15.1
-11 8 -10 8.8 12
-11 3 10 -1.1 12.8
-8 11 10 11.3 12.3
3 -11 -10 9.3 14.1
-8 11 10 -5.5 9.4
3 8 10 -1.3 10.3
8 3 -10 20.5 10.9
-3 11 10 2.4 11
-8 11 -10 15.8 12
8 -11 -10 18.8 11.9
8 -11 -10 13.2 15
-11 8 10 4.4 13.1
3 8 -10 35.9 14.1
-3 -8 -10 3.7 10.7
3 8 -10 8.3 15.6
2 9 10 44.7 12.9
9 2 -10 50.79 15.2
-11 2 10 43.4 15.2
2 -11 -10 49.2 13.8
-2 11 -10 59.29 17.8
-9 11 10 43.1 12.9
11 -9 -10 85.49 17.3
-2 11 -10 78.39 16.1
-11 9 -10 45.5 12.5
-2 -9 -10 38.9 14.7
2 9 -10 51.29 18.1
-2 11 10 12.2 11.4
-9 11 -10 11.1 11.2
-11 9 10 29.4 14
2 9 -10 41.2 15.7
9 -11 -10 49 16.3
-11 1 10 -7 12.6
-1 11 -10 24.1 16.9
1 -11 -10 28.7 14.7
-1 11 -10 27.1 16.6
-11 10 -10 28 12.3
11 -10 -10 43.9 16.1
-10 11 10 6 10.9
1 10 10 9.3 11.8
10 1 -10 -0.6 13.2
-10 11 10 8.7 12
-10 11 -10 34.4 13.1
-1 -10 -10 35.9 15.2
-1 11 10 15.4 12.3
10 -11 -10 37.8 14.9
-11 10 10 10.7 13.2
1 10 -10 34.3 17.8
10 1 10 12.9 8.1
1 10 -10 52.99 17.5
-11 11 10 -1.4 12.4
-11 11 -10 23.3 12.5
0 11 -10 20.8 17.4
0 -11 -10 7.3 14.2
11 -11 -10 44.5 16.1
0 11 -10 21.4 16.2
0 11 10 11.8 11.8
12 -6 -10 10.9 16.1
-12 6 10 6.6 13.7
6 6 -10 11.2 13.9
-6 12 10 10.3 11.7
6 6 -10 9.1 14.2
6 -12 -10 24.8 13.4
6 -12 -10 12.5 12.4
-6 12 -10 14.3 12.2
7 5 -10 7.9 14.3
5 -12 -10 3.7 12.5
-12 5 10 -0.6 12.1
-7 12 10 -0.4 11.4
5 -12 -10 15.3 14.4
-5 12 -10 5.8 10.5
12 -7 -10 9.8 16.9
-12 7 -10 5.5 11.8
7 5 -10 14.7 13.2
5 7 -10 3.7 15
-12 7 10 -13.4 13
5 7 -10 10.3 14.7
7 -12 -10 9.6 12.4
7 -12 -10 2.5 14
12 -5 -10 17.5 15.8
-5 12 10 0.3 11.3
-7 12 -10 8 12
-4 12 -10 2.6 13.8
12 -8 -10 33.6 15.8
8 4 -10 34.1 14.8
4 -12 -10 47.4 15.9
-12 4 10 18.1 13.7
-8 12 10 33.8 13.1
-12 8 -10 36.4 13.7
4 -12 -10 23.7 12.7
8 4 -10 36.7 12.9
-8 12 -10 26.2 12.4
-12 8 10 10.8 12.5
8 -12 -10 31.1 12.9
4 8 -10 29.7 15.9
8 -12 -10 40.2 15.5
4 8 -10 41.1 15.9
-4 12 10 36.5 12.7
12 -4 -10 34.5 16.3
9 3 -10 36.3 15.4
12 -9 -10 60.19 16.3
3 -12 -10 28.7 12.8
-3 12 -10 30.3 15.3
-9 12 10 44 13.5
-12 9 -10 21.9 11.9
3 -12 -10 51.49 16
-3 12 -10 51.39 14.2
-12 3 10 6.1 12.8
9 3 -10 33.2 10.5
-9 12 -10 25.6 12.1
-3 12 10 38.9 13.1
3 9 -10 32.8 17.4
3 9 -10 52.89 17.5
-3 -9 -10 43.1 13.9
9 -12 -10 67.89 16.4
-12 9 10 20.6 13.5
9 -12 -10 32.4 10.6
12 -3 -10 62.29 18.1
2 10 10 -3.6 9.2
-2 12 -10 12.3 15.8
12 -10 -10 25.4 15.8
2 -12 -10 0.2 14.3
2 -12 -10 15.4 11
-12 10 -10 13.3 12.2
-2 12 -10 34.4 16.1
-10 12 10 -0.7 10.7
2 10 -10 6.6 16.6
2 10 -10 8.1 17.2
-10 12 -10 5.4 12.1
-12 10 10 -5.7 12.4
-2 -10 -10 -3.2 14.5
10 -12 -10 14.5 14.5
12 -2 -10 12.7 16
-2 12 10 0.5 11.6
1 -12 -10 99.49 14
-12 11 -10 70.69 14.1
1 11 10 126.49 20.6
-1 12 -10 112.59 20.9
-1 12 -10 158.78 18.9
1 11 -10 136.59 22.3
12 -1 -10 59.49 17.8
-11 12 -10 93.79 16
-1 12 10 76.99 14.2
1 11 -10 146.09 19.1
12 0 -10 19.6 17.3
0 12 -10 2.9 16.5
12 -12 -10 16 14.8
0 12 -10 -15.4 16.1
0 -12 -10 19.5 11.5
0 -12 -10 5.6 15.2
-12 12 -10 9.7 11.9
0 12 10 1.4 14.8
0 12 10 6.1 10.5
7 6 -10 43.3 13
7 6 -10 40.4 14.5
-13 6 10 8.5 13
13 -7 -10 63.89 17.7
6 -13 -10 50.99 14.3
-7 13 10 32.9 12.3
6 -13 -10 42.6 14.4
-7 13 -10 34.6 13.1
6 7 -10 31 14.3
13 -6 -10 57.29 18.4
-6 13 10 34.1 12.6
7 -13 -10 68.99 15.5
7 -13 -10 65.89 14.4
6 7 -10 41.6 16.2
-13 7 10 9.6 13.4
8 5 -10 0.8 12
8 5 -10 4.9 13.8
-13 8 -10 11.7 11.6
-8 13 10 4.7 12.1
13 -8 -10 4.2 15.1
-13 5 10 -1.5 13.6
5 -13 -10 19.8 15
5 -13 -10 1.3 13.2
13 -5 -10 11.9 17.9
-5 13 10 2.3 10.9
8 -13 -10 16.2 12.7
5 8 -10 3.8 14.3
5 8 -10 9.4 15.4
-13 8 10 -8.2 12.6
8 -13 -10 16.5 13.3
-8 13 -10 0.1 12.1
-13 9 -10 26.9 13
9 4 -10 2.7 12.9
-4 13 -10 8.8 10.6
13 -9 -10 66.79 17.2
4 9 10 -0.2 17.5
4 -13 -10 66.69 15.6
4 -13 -10 56.89 13.6
-9 13 10 38.2 12.9
9 4 -10 39.3 11.4
-13 4 10 14.8 14.6
9 -13 -10 47.6 14.1
4 9 -10 21.2 13.9
-4 -9 -10 24.1 10.4
9 -13 -10 46.6 13.7
13 -4 -10 29.6 17.8
-13 9 10 16.4 13.9
4 9 -10 45.4 17.7
-4 13 10 27.2 12.4
-9 13 -10 26.3 12.7
-13 3 10 -5.5 12.2
13 -10 -10 30.8 14.8
3 -13 -10 39.2 15.9
3 -13 -10 27.5 12.7
3 10 10 11 15.2
10 3 -10 2.6 8.2
-13 10 -10 8.8 12.1
-10 13 10 17.4 11.7
-3 13 -10 23.1 14
-3 13 -10 -1.5 14.3
-3 13 10 13 11.9
3 10 -10 18.1 15.7
-3 -10 -10 21.8 14.4
-13 10 10 -12.2 13.1
10 -13 -10 4.9 9.7
13 -3 -10 33.8 16.9
10 -13 -10 16.9 14.7
-10 13 -10 6.4 11.6
3 10 -10 16.2 17.2
2 11 10 22.1 15.3
-13 11 -10 4.6 11.7
-11 13 10 -9 11.5
2 -13 -10 29.3 12.5
-2 13 -10 9.7 15.3
-2 13 -10 51.89 16.3
2 -13 -10 9.6 15.5
13 -11 -10 53.39 14.9
-2 -11 -10 7.6 14.1
2 11 -10 9.7 15.2
2 11 -10 27.9 18.4
-11 13 -10 17.3 12.4
-2 13 10 22.8 15.5
11 -13 -10 48.3 15.7
13 -2 -10 21.8 16.6
-2 13 10 5.3 10.9
13 -12 -10 44.6 15.3
1 -13 -10 20.4 16.2
1 12 10 30.5 15.8
12 1 -10 10.4 17.3
-1 13 -10 30.1 15.7
-1 13 -10 28.7 16.8
-13 12 -10 17.4 11.8
1 -13 -10 31.2 12.7
13 -1 -10 41.2 17.7
-1 13 10 -1.5 16.6
-12 13 -10 10.8 11.8
-1 -12 -10 22.7 10.5
1 12 -10 18 16.9
12 -13 -10 33.3 15.5
1 12 -10 21 16.3
-1 13 10 18.9 15.9
0 13 -10 34.7 16.5
-13 13 -10 31.6 11.6
0 13 10 22.3 14.7
0 -13 -10 63.69 12.8
0 13 -10 76.39 16.7
13 0 -10 48.5 18.3
7 7 -10 9.1 13.7
-7 14 -10 0.5 13.6
14 -7 -10 2.8 15.8
7 -14 -10 20.9 14.8
7 -14 -10 13.7 14.5
-14 7 10 -8.5 12.3
7 7 -10 14 13.2
-7 14 10 3.4 11.1
14 -8 -10 25.4 15.7
8 6 -10 5.4 13
8 6 -10 11.5 12.2
-8 14 10 19.9 11.8
6 -14 -10 21.1 13.8
6 -14 -10 16 14.2
-14 6 10 -5.5 13.2
-6 14 10 4.8 11.8
-8 14 -10 4.3 11.2
14 -6 -10 0.1 15.8
-14 8 10 -0.7 12.3
8 -14 -10 13.1 13.1
6 8 -10 5.8 15.1
8 -14 -10 20.8 13.9
6 8 -10 6.1 12.8
14 -9 -10 48.9 16.9
-9 14 10 29.1 12
9 5 -10 33.1 11.8
5 -14 -10 53.59 14
-14 5 10 8.4 13
5 -14 -10 33.8 13.5
-14 9 10 -4.1 13
9 -14 -10 35.8 13.9
5 9 -10 27.2 16.8
-5 14 10 14.3 11.5
-9 14 -10 20 12.1
14 -5 -10 35.2 17.2
9 -14 -10 35.2 13.7
5 9 -10 18.4 14.6
10 4 -10 16.2 10
-10 14 10 -0.2 10.6
-4 14 -10 12.5 12.2
14 -10 -10 26.2 14.8
-14 4 10 -14.7 11.8
4 -14 -10 22.4 14.7
4 -14 -10 16.2 12.7
-14 10 -10 -1.7 11
-4 14 10 6.4 11.2
10 -14 -10 16.6 10.9
-4 14 10 23.5 15
14 -4 -10 0.2 16.9
4 10 -10 8.3 15
4 10 -10 24.9 17.1
10 -14 -10 38.9 13.6
-10 14 -10 11.1 12
-14 10 10 -4.5 12.2
-3 14 -10 46.8 13.3
14 -11 -10 61.29 15.9
3 -14 -10 33.9 12.7
3 -14 -10 51.69 15.2
-11 14 -10 27.1 12.2
-3 14 10 48.8 16.8
3 11 -10 48.2 16.2
3 11 -10 36.6 18.2
11 -14 -10 66.39 15.3
14 -3 -10 31.8 17.8
12 2 -10 2.7 15.7
-14 12 -10 0.4 9.9
14 -12 -10 9.2 13.9
2 -14 -10 38.6 13.2
-2 14 -10 48.5 15.5
2 12 -10 0.8 16.4
12 -14 -10 34.1 14.5
14 -2 -10 17.9 16.7
-12 14 -10 7.3 11.1
2 12 -10 -0.6 16.8
-2 14 10 21 15.1
-2 -12 -10 10.8 9.3
-14 13 -10 -1.4 10.1
-1 14 -10 5.3 13.3
14 -13 -10 3.9 12.8
13 1 -10 7.3 17.1
1 -14 -10 9.9 11.6
13 -14 -10 8.7 13.4
1 13 -10 -4.1 15.1
-1 -13 -10 2.2 11.1
-13 14 -10 1.9 9.7
-1 14 10 1.2 13.2
1 13 -10 0.9 13.8
14 -1 -10 21 16.1
14 0 -10 18.1 16.5
0 -14 -10 20.1 11.5
0 14 -10 7.3 15.2
14 -14 -10 17.6 12.9
8 7 -10 26.7 12.8
15 -8 -10 45.4 16.5
7 -15 -10 46.6 15
7 -15 -10 52.79 14.5
-7 15 10 -0.5 10.5
7 8 -10 14 12.8
15 -7 -10 25.7 16.1
8 -15 -10 48.7 15
-15 8 10 0.6 12.2
8 -15 -10 32.1 14.2
-7 15 10 2.3 14.9
7 8 -10 3.1 12.8
15 -9 -10 18.5 14
-9 15 10 -6.2 10.1
-15 6 10 -20.5 11.7
6 -15 -10 13.4 12.9
6 -15 -10 19 14.8
9 6 -10 6.9 10.7
-9 15 -10 1.4 15.4
-15 9 10 -19 11.8
-6 15 10 -3.2 10.1
9 -15 -10 9.8 12.5
9 -15 -10 9.7 13.4
6 9 -10 3.1 13.9
-6 15 10 1.8 13.3
6 9 -10 -1.5 13.1
15 -6 -10 -6.5 15.5
5 -15 -10 83.49 14.6
10 5 -10 64.39 12.2
5 -15 -10 75.39 15.5
15 -10 -10 85.89 16
15 -5 -10 56.39 17.7
10 -15 -10 55.09 12.2
-5 15 10 17.1 13.6
-10 15 -10 1.6 10.3
5 10 -10 22.4 15.8
-5 15 10 -6.2 8.6
5 10 -10 44.3 15.2
15 -11 -10 65.29 15.5
-4 15 -10 43.6 12.5
4 -15 -10 50.29 13.3
-15 11 10 -30.4 13.7
11 -15 -10 45.1 12.6
4 11 -10 33.8 14.6
-11 15 -10 1.4 9.7
-4 15 10 6.6 13.1
15 -4 -10 27 16.5
4 11 -10 12.5 16.1
15 -12 -10 32.3 14
12 3 -10 -0.6 14.6
3 -15 -10 37 13.4
-3 15 -10 17 12.7
15 -3 -10 -7.6 16.1
-12 15 -10 0.6 9.6
3 12 -10 12 15.4
12 -15 -10 19.1 12
-3 15 10 1.4 12.9
-3 -12 -10 1.8 8.8
3 12 -10 0.1 15
2 -15 -10 54.39 13.2
13 2 -10 15.2 17
-2 15 -10 57.19 13.8
15 -13 -10 44.8 13.1
15 -2 -10 15.5 16.3
2 13 -10 15.2 14.1
13 -15 -10 46.6 12.9
-2 -13 -10 39.3 11.2
1 -15 -10 3.3 10.9
14 1 -10 -4.1 15.6
-1 15 -10 2.3 12.8
15 -14 -10 9.4 12.1
-1 -14 -10 16.8 11
1 14 -10 8.6 13.5
14 -15 -10 14.9 12.3
15 -1 -10 9.7 14.9
0 -15 -10 6.1 11.2
15 -15 -10 -1.2 11.3
0 15 -10 19.4 13.7
15 0 -10 7.5 14.4
8 8 -10 3.1 11.3
-8 16 10 -9.4 8.7
8 -16 -10 -1.8 12.3
-16 8 10 -17.8 10.2
16 -8 -10 2.3 14.6
9 7 -10 46.5 11.8
16 -9 -10 81.99 16
7 -16 -10 93.49 14.5
16 -7 -10 45.6 15.6
7 9 -10 39.4 12.8
10 6 -10 11.1 9.7
16 -10 -10 -1.4 12.7
6 -16 -10 22.5 12.9
16 -6 -10 8.7 16.1
6 10 -10 10.7 12.9
10 -16 -10 5.2 11.9
5 -16 -10 11.8 12.2
-5 16 -10 -1.9 8
16 -11 -10 18.1 13.2
11 -16 -10 34.7 12.1
16 -5 -10 10.6 15.2
5 11 -10 13.6 13.7
16 -12 -10 48.9 13.4
4 -16 -10 36.6 12.6
-4 16 -10 20.7 10.2
16 -4 -10 29.5 15.6
4 12 -10 18.7 13.9
12 -16 -10 46.1 11.7
-3 16 -10 9.3 11.7
16 -13 -10 7.6 12.4
13 3 -10 12.8 15.1
3 -16 -10 11 12.2
3 13 -10 -1.7 12.9
16 -3 -10 13.5 15.6
13 -16 -10 3.6 10.5
-3 -13 -10 2.3 7.8
2 -16 -10 19.2 12.2
16 -14 -10 7.8 11.8
-2 16 -10 19.4 11.5
14 2 -10 15.3 15.6
16 -2 -10 7.8 14.6
2 14 -10 8.2 12.9
-2 -14 -10 16.6 10.7
14 -16 -10 19.5 11.1
15 1 -10 2.1 13.7
-1 16 -10 3.9 10.9
1 -16 -10 10.5 10.6
16 -15 -10 15.7 11.1
1 15 -10 6.8 11.6
15 -16 -10 4.4 9.9
16 -1 -10 -4.8 13.5
-1 -15 -10 3.7 10.4
0 16 -10 2 11
16 -16 -10 12.7 10.7
16 0 -10 3.9 12.4
0 -16 -10 8.5 10.1
8 -17 -10 5.7 11.3
17 -9 -10 8.4 13.1
9 8 -10 11.8 10.2
17 -8 -10 10 14
8 9 -10 6.5 10.3
9 -17 -10 7 11.2
10 7 -10 6.3 9.2
17 -10 -10 7.5 12.7
7 -17 -10 18.2 11.5
10 -17 -10 12.5 11.3
17 -7 -10 18.6 14.5
7 10 -10 -8.1 10.7
17 -11 -10 32.4 13
6 -17 -10 55.99 12.8
17 -6 -10 30.2 14.8
6 11 -10 11.7 12.4
11 -17 -10 43.3 11.8
17 -12 -10 42.8 13.5
5 -17 -10 49.99 13.2
12 -17 -10 55.09 12.5
5 12 -10 24 13.5
17 -5 -10 27 14.4
4 -17 -10 56.39 12.6
13 4 -10 -5.4 18.2
-4 17 -10 31.8 10
17 -13 -10 37.1 12
4 13 -10 25.7 12.5
17 -4 -10 16.5 14.2
13 -17 -10 59.49 12.3
3 -17 -10 25.4 11.4
-3 17 -10 14.4 10
14 3 -10 7.5 14.1
17 -14 -10 10.3 11.1
3 14 -10 15 11.7
17 -3 -10 1.7 13.2
14 -17 -10 6.8 9.4
-3 -14 -10 13.2 8.3
15 2 -10 8 13.2
2 -17 -10 13.2 10.8
17 -15 -10 18.9 10.9
-2 17 -10 15.4 10
15 -17 -10 13.7 9.8
-2 -15 -10 9.8 9.3
2 15 -10 9.9 11.5
17 -2 -10 1.3 12.6
-1 17 -10 15.9 10.1
1 -17 -10 12.6 10.5
16 1 -10 2.7 12.3
17 -16 -10 9.4 9.8
1 16 -10 5.6 10.4
16 -17 -10 6.1 9.1
-1 -16 -10 17.7 8.9
17 -1 -10 -5.5 12.4
0 -17 -10 6.3 9
17 -17 -10 1.4 8.4
0 17 -10 10.5 10
17 0 -10 -5.2 12.5
9 -18 -10 5.9 10.8
9 9 -10 7.4 10
18 -9 -10 6.2 12.4
10 8 -10 15.9 7.6
8 -18 -10 23.9 11
18 -10 -10 9.1 12.7
10 -18 -10 28.7 10.5
8 10 -10 15.4 10.5
18 -8 -10 13.1 12.6
7 -18 -10 15.8 10.6
18 -11 -10 11.3 12.2
18 -7 -10 26.6 13.3
7 11 -10 2.9 10.1
11 -18 -10 22.1 10.4
6 -18 -10 0.8 10.6
18 -12 -10 2.3 10.8
6 12 -10 3 10.5
12 -18 -10 4.6 9.4
18 -6 -10 -0.3 12.2
5 -18 -10 13.8 10.4
18 -13 -10 6.3 10.8
5 13 -10 5.7 10.7
13 -18 -10 6.1 9.1
18 -5 -10 4.1 12.1
4 -18 -10 0.8 10.3
-4 18 -10 11.1 7.1
18 -14 -10 10.2 10.3
18 -4 -10 -6.2 12
4 14 -10 10 10.5
14 -18 -10 -0.6 9.4
18 -15 -10 11.1 10.3
3 -18 -10 2.8 10
-3 18 -10 7.7 8.9
15 3 -10 6.6 11.3
18 -3 -10 3.9 11.7
3 15 -10 4.4 10.3
15 -18 -10 10.1 8.8
16 2 -10 6.8 11.1
2 -18 -10 17.6 10.4
18 -16 -10 19.4 9.7
-2 18 -10 13.5 9.6
2 16 -10 1.6 9.5
18 -2 -10 8.7 12.1
16 -18 -10 8.6 8.4
17 1 -10 2.2 10.9
18 -17 -10 3.2 8.5
1 -18 -10 -6 9
-1 18 -10 3.4 8.7
18 -1 -10 -5 12
17 -18 -10 3.5 8.7
1 17 -10 13 9.5
18 -18 -10 -2.2 10.1
18 0 -10 1.2 9.9
0 18 -10 1.8 10.2
10 9 -10 1.7 5.8
19 -10 -10 8.7 11.6
9 -19 -10 13.9 9.6
9 10 -10 -2.6 8.4
19 -9 -10 -4.1 10.8
10 -19 -10 8.7 9.5
8 -19 -10 34.7 10.6
19 -11 -10 12 11
19 -8 -10 11.3 11.9
8 11 -10 11.8 8.6
11 -19 -10 18.1 9.1
19 -12 -10 2.7 10.8
7 -19 -10 29.1 10.8
7 12 -10 12.7 9.3
19 -7 -10 4.9 11.3
12 -19 -10 20.3 8.9
6 -19 -10 10.8 9.7
19 -13 -10 1.2 10.9
6 13 -10 6.4 9.6
19 -6 -10 -6.3 11.6
13 -19 -10 -4.8 8.2
19 -14 -10 9.3 10.1
5 -19 -10 8.3 10.1
19 -5 -10 2.9 11.2
14 -19 -10 0 8.5
5 14 -10 2 9.2
19 -15 -10 6.3 9.7
4 -19 -10 12.1 10.7
4 15 -10 5.2 9.5
19 -4 -10 -6.1 11.2
15 -19 -10 11.3 8.6
3 -19 -10 11.6 10.9
-3 19 -10 1 5.7
19 -16 -10 -2.4 10
16 -19 -10 0.1 8.7
3 16 -10 -3 9.9
19 -3 -10 -10.3 11.1
19 -17 -10 7 9.2
-2 19 -10 2.9 5.2
2 -19 -10 6.2 9.9
2 17 -10 3.4 10.7
17 -19 -10 8.1 9.5
19 -2 -10 -4.6 12.1
20 -10 -10 2.2 10.2
10 -20 -10 27.5 9.8
9 -20 -10 4.1 9.5
20 -11 -10 1.8 10.2
11 -20 -10 6 8.6
20 -9 -10 -3 11.2
9 11 -10 2.2 5
20 -12 -10 -4.1 10.1
8 -20 -10 12.5 9.5
8 12 -10 4.3 7.5
20 -8 -10 3.9 10.7
12 -20 -10 0.1 8.3
20 -13 -10 8.2 10.1
7 -20 -10 -0.2 9.5
20 -7 -10 3.5 11.2
7 13 -10 7.6 8.7
13 -20 -10 8.2 8.7
6 -20 -10 8.5 10.2
20 -14 -10 19.9 10.8
20 -6 -10 -8.2 11.1
14 -20 -10 9.5 8.9
6 14 -10 1 9.3
20 -15 -10 0 10.9
5 -20 -10 -2.4 11.1
5 15 -10 8.6 10.5
15 -20 -10 1.3 9.2
20 -5 -10 -0.1 12
10 -21 -10 6.9 10.2
21 -11 -10 0.2 11.4
11 -21 -10 4.7 9.9
21 -10 -10 5.2 11.1
9 -21 -10 21.6 10.2
21 -12 -10 9.3 10.1
12 -21 -10 26.4 10.4
21 -9 -10 3.8 11.1
0 0 11 1.9 9.1
0 0 -11 -6.8 13.4
0 -1 11 4.4 8.4
0 1 -11 9.5 12.9
1 -1 -11 18.7 13
1 0 11 7.9 8.5
1 0 -11 6.5 13.7
-1 1 11 12.3 10.1
0 1 11 1.2 8.8
-1 1 -11 13.4 13.9
0 -1 -11 5.6 13.3
1 -1 11 4.1 8.6
-1 0 -11 8.8 13.4
-1 0 11 1.7 9.8
1 1 11 60.89 12.1
-1 -1 -11 34 14.3
-2 1 11 58.19 12.5
-2 1 -11 54.89 15.4
-1 -1 11 43.5 11.5
2 -1 11 62.39 12
2 -1 -11 58.09 15
-1 2 11 39.4 11
1 -2 11 60.59 12.3
-1 2 -11 62.49 16.5
1 1 -11 46.2 15.2
1 -2 -11 62.39 16.1
-2 0 -11 13.2 13.8
0 2 -11 0.9 12.9
-2 0 11 2.4 9.7
2 -2 -11 15.2 12.9
0 -2 -11 10.4 14.1
2 0 -11 12.8 13.4
2 0 11 12.3 9
-2 2 -11 13.8 14.7
0 2 11 16.1 10.2
0 -2 11 15.9 10.6
2 -2 11 5 8.7
-2 2 11 11.1 10.2
-2 3 11 99.09 13.9
-3 2 -11 100.19 18.4
-1 3 -11 119.39 19.7
-1 -2 11 92.59 14.3
-3 1 11 115.09 15.7
3 -2 -11 130.19 18.9
2 -3 11 110.29 18.8
3 -1 11 110.19 14
1 2 11 110.79 14.4
-2 -1 -11 117.19 19.2
1 -3 -11 130.39 19.1
2 1 -11 154.48 20
2 1 11 112.99 17.8
2 -3 -11 128.19 18.8
-1 3 11 100.09 14.6
3 -2 11 101.99 17.1
-1 -2 -11 135.79 19.8
-2 -1 11 124.29 19.9
3 -1 -11 100.79 17
-2 3 -11 134.89 20.2
-3 1 -11 68.39 16.2
1 -3 11 108.59 15.2
1 2 -11 102.79 17.9
-3 2 11 131.89 16.2
0 -3 -11 10.5 13.1
-3 0 -11 16.3 13.6
3 -3 -11 3.8 12.6
0 3 -11 3.4 13.3
-3 3 11 8.1 10.5
0 -3 11 7 10.1
3 -3 11 4.4 8.9
3 0 11 9.2 8.8
3 0 -11 9.5 11.8
-3 0 11 9.9 10.9
0 3 11 5.1 10.2
-3 3 -11 2 13.8
4 -2 11 54.49 10.8
-2 4 -11 64.09 16.8
-2 4 11 45.9 11.6
2 2 -11 62.49 14.9
4 -2 -11 82.19 17
2 -4 -11 86.29 17
-2 -2 11 50.59 12.8
2 -4 11 60.19 12.6
-2 -2 -11 66.59 16.4
-4 2 11 65.29 13.4
2 2 11 54.69 11.5
-4 2 -11 43.9 15.2
-3 -1 -11 19 13.9
-1 -3 11 19.3 11.6
-4 1 11 22.3 10.5
4 -1 11 26.9 9.6
-1 4 -11 5.5 13.6
-3 4 11 27.7 11.8
4 -3 -11 23.1 12.6
1 -4 -11 13.7 12.7
-4 3 -11 27.5 14.7
1 3 11 21.1 10.8
3 -4 11 17.8 10
3 1 -11 37.7 14.3
-3 4 11 25.5 10.4
-4 1 -11 16 13.8
-3 -1 11 37.5 12.2
3 1 11 32.4 10.1
-1 -3 -11 16.7 14.4
-1 4 11 30.5 10.9
4 -3 11 24 10
4 -1 -11 41.9 15.3
-3 4 -11 31.5 14.7
1 -4 11 26.8 11
-4 3 11 32 11.9
3 -4 -11 50.29 14.9
1 3 -11 28.5 14.2
4 0 11 38.4 9.3
-4 4 11 50.29 12.4
4 -4 -11 75.59 16.6
4 -4 11 37.7 10.2
-4 0 -11 37.2 14.4
4 0 -11 0.8 12.5
4 0 -11 72.59 15.7
-4 4 -11 45.9 15.6
0 4 11 45.7 11.5
0 -4 11 43.8 12.3
-4 0 11 52.09 12.9
-4 4 11 53.89 12.2
0 4 -11 58.49 16
3 2 -11 11.3 12.9
-5 3 -11 -2.3 12.1
-5 2 11 12.6 10.4
-2 5 -11 1 14.1
-5 2 11 -2.9 7.9
2 3 11 10.7 9.6
2 -5 -11 1.2 8.2
3 2 -11 5.4 10
5 -3 -11 15.8 13.4
-3 5 11 18.1 11.3
-3 5 11 4.3 10.3
2 -5 -11 14.8 13.3
3 -5 11 4.1 9.8
5 -2 11 13.1 9.4
-2 -3 11 4.5 11.5
2 3 -11 5 9.7
3 2 11 12.5 9.1
-3 -2 11 14.1 12.2
2 3 -11 5.1 13.2
5 -3 11 11.5 9.7
-2 5 11 17.9 11.6
-3 5 -11 4.6 13.7
-5 2 -11 0.3 12
3 -5 -11 3.9 9
-5 3 11 0.2 10.9
3 -5 -11 10 12.5
2 -5 11 14 10.5
5 -2 -11 8 13.8
-2 5 11 8.1 9.8
-5 3 11 2 9
4 -5 11 13.4 10.3
-5 4 -11 0.2 13.2
-4 5 11 25 11.2
-1 5 -11 12.8 14.9
-4 5 11 15.4 10.7
1 4 11 7.6 9.9
5 -4 -11 14.8 12.8
5 -4 -11 -0.4 9.5
1 -5 -11 -0.8 9.5
5 -1 11 13.4 9
4 1 -11 4.5 9
-1 -4 11 7.5 10.8
4 1 -11 20 13.1
-5 1 11 17.9 12.1
-5 4 11 5.3 10.7
-4 5 -11 6.4 13.8
-4 -1 11 3.9 10.2
4 1 11 15.8 8.9
-1 5 11 16.6 11.2
1 4 -11 2.4 10.8
4 -5 -11 11.2 9.1
1 -5 11 14 10.3
-1 5 11 22.7 9.9
5 -4 11 13.1 8.9
5 -1 -11 -2.3 10.7
-5 4 11 6.9 9.7
-5 1 -11 1.1 11.8
5 -1 -11 26.1 14.4
4 -5 -11 19.1 12.7
1 4 -11 9.6 13.3
5 0 11 -0.7 8.9
0 5 11 6.5 8.9
5 -5 11 7.6 9.5
5 0 -11 -2.5 9.4
-5 5 -11 -1.8 15.6
-5 5 11 0.4 9.8
-5 0 11 1.5 12.1
5 -5 -11 -1.7 7.8
0 5 11 11.9 10.7
5 -5 -11 20.7 13.9
-5 5 11 6 11.2
5 0 -11 3.6 12.2
0 5 -11 6.7 15.2
0 -5 11 2.2 10.3
-3 6 11 13 11.3
-6 3 11 -6.7 7.7
6 -3 -11 11.4 13.2
-3 6 -11 9.6 14
6 -3 -11 5.1 10.8
3 3 -11 10.3 12.2
-3 -3 11 4.2 11.3
-3 6 11 6.5 10.3
3 -6 11 5.6 9.7
6 -3 11 -3.6 8.2
3 -6 -11 19 11.1
3 3 -11 8.7 13.5
-6 3 11 0.6 11
3 3 11 5.5 10.1
-4 6 11 -1 11.6
-2 -4 11 4.1 11.5
4 -6 11 5.8 9.6
-6 2 11 -1.1 12.3
4 2 -11 7.3 13
6 -2 11 9.7 9
-4 6 11 3.1 10.3
2 4 11 8 10.6
6 -4 -11 15.8 12.8
2 -6 -11 7.3 10.5
-2 6 -11 6.6 15.6
4 2 -11 19.6 11.8
6 -4 -11 3.1 9.6
-6 4 11 -10.8 8.9
-2 6 11 9.8 10.1
2 -6 11 4.2 10.6
4 -6 -11 6.3 11
-4 6 -11 5.8 13.6
4 2 11 -3.6 9.2
-6 4 11 -1.4 11.5
6 -4 11 12.2 9.5
4 -6 -11 9.8 13.4
-2 6 11 6 11.4
6 -2 -11 2 9.8
2 4 -11 6.5 14.6
6 -2 -11 10 13.4
2 4 -11 20.3 12.5
-4 6 -11 8.5 10
-4 -2 11 -7.2 11.2
6 -5 -11 10.4 8.3
-1 6 -11 19.4 15.6
5 1 -11 20 11.9
-1 -5 11 -8.6 10.8
5 1 -11 27.4 14.3
1 -6 -11 27.2 10.9
1 5 11 17.3 11.2
5 -6 11 19 10.3
-5 6 11 -0.3 10.5
-5 6 11 15.5 11
-6 1 11 11.1 11.9
6 -1 11 13.2 9.4
6 -5 -11 24.8 14.1
6 -5 11 32 10.8
-5 -1 11 4.6 12
5 1 11 17.3 8.5
1 5 -11 16.5 15.1
6 -1 -11 30.4 13.9
-6 5 11 13.9 10.1
-1 6 11 24.8 11.7
6 -1 -11 7.4 9.4
5 -6 -11 25.6 10.4
-6 5 11 31.5 13.7
-5 6 -11 23.9 10.1
1 -6 11 1 10.4
-1 6 11 41.7 11.5
5 -6 -11 22.6 13.2
1 5 -11 38.8 11.7
6 -6 -11 15.9 10.4
-6 6 11 14.5 13.1
0 -6 -11 10.7 9.4
6 -6 11 26.6 10.6
-6 6 -11 25 10.8
0 6 -11 34.1 15.4
-6 6 11 19.9 11
-6 0 11 14.3 13.5
6 0 -11 34.8 14.9
6 -6 -11 40.3 14.3
0 6 11 35.3 11.6
0 6 11 27.6 10
6 0 -11 31.3 11.9
0 6 -11 21.6 11.4
6 0 11 15.8 9.7
-4 7 11 4.9 12
-3 7 -11 13.2 15.4
3 4 11 32.1 10.9
7 -4 -11 1.3 10.6
7 -3 11 10.8 9.3
-7 3 11 6.7 13.1
4 3 -11 24.2 12.6
3 -7 -11 11.2 10.3
-4 7 11 16.1 11.2
-3 -4 11 -16.6 10.7
4 3 -11 19.3 13.9
-3 7 -11 16.3 10.2
4 -7 11 7.9 9.3
7 -4 -11 22.8 14.2
3 4 -11 12.9 13.1
-4 -3 11 -17.6 10.7
7 -4 11 11.9 9.5
4 -7 -11 6.9 10
-3 7 11 -2.3 11.2
-4 7 -11 3.3 14.1
-3 7 11 6.2 9.6
-7 4 11 5.7 12.3
-4 7 -11 1.9 9.7
3 -7 11 5.2 10.4
4 3 11 7.1 9.9
7 -3 -11 4.5 10.2
7 -3 -11 2.3 13.9
3 4 -11 4.7 14.3
-2 7 -11 12 15.4
7 -5 -11 2.2 9.5
7 -5 -11 13.1 14.3
2 -7 -11 21.5 12.4
5 -7 11 3.3 9.1
-5 7 11 5 11.3
-7 2 11 4.8 13.1
-5 7 11 2.8 12.8
5 2 -11 25.5 14.7
7 -2 11 16.8 9.7
5 2 -11 21.6 13
2 5 11 10.8 10.3
2 5 11 10.5 8.9
-5 7 -11 19.9 10.5
-5 -2 11 -7.6 12.1
2 5 -11 13.8 13
7 -2 -11 19.4 14.9
5 2 11 17.7 9.6
5 -7 -11 27.4 11.7
7 -2 -11 7.7 10
2 -7 11 -2.6 8.7
2 5 -11 13.3 14.8
-7 5 11 9.4 13.6
-2 7 11 8.7 11.2
-2 7 11 3.2 9.7
7 -5 11 19.6 10.2
1 6 11 2.8 9.1
-7 1 11 -13.2 12.9
-6 7 11 -14.9 12.4
6 1 -11 5.8 10.2
-7 6 -11 -2.7 10
7 -1 11 3.4 8.7
1 -7 -11 7.2 10.3
6 -7 11 5.9 10.3
-6 7 11 -2.9 11.3
7 -6 -11 4.2 9
1 6 11 -2.3 10.6
6 1 -11 8.5 13.7
-1 7 -11 -0.1 10
-1 7 -11 5.5 15.3
7 -6 -11 6.4 13.3
1 6 -11 -4.5 14.1
7 -1 -11 0.2 9.8
6 1 11 7.1 9.4
-6 -1 11 -11.2 11.9
-1 -6 -11 3.8 9
-7 6 11 -14.8 10.3
1 6 -11 -2.4 14.3
-6 7 -11 3.2 10.5
6 -7 -11 6.3 10.9
-7 6 11 -11.4 11.7
-1 7 11 0 10.1
-1 7 11 3.5 11.1
7 -6 11 -0.6 9.6
7 -1 -11 12.8 14.2
-7 0 11 7.4 14.9
7 -7 -11 18.1 11.2
0 -7 -11 2.2 10.1
-7 7 11 -10.1 11.3
7 -7 11 9.5 10.8
7 0 -11 20.7 14.6
0 7 -11 12.9 15.4
-7 7 -11 11.2 10.8
-7 7 11 -8.4 12.8
7 0 -11 19.6 12.5
0 7 -11 13.7 14.5
0 7 11 10.7 9.9
7 0 11 -0.1 9.3
-4 8 -11 231.18 22.7
4 4 11 241.08 23.2
8 -4 -11 223.78 24.4
-4 8 11 217.78 23.3
-4 8 11 169.68 24.3
-8 4 11 160.08 27.5
4 -8 -11 170.68 17.3
4 4 -11 214.18 24.4
4 4 -11 215.48 20.6
-5 8 11 21.5 13.6
8 -5 -11 6 11.2
3 5 11 40.1 10.5
-3 8 -11 29 10.8
-5 8 11 32 12.7
8 -3 11 40.3 10.2
8 -5 -11 48.8 15.6
-8 3 11 23.9 15.4
5 3 -11 48.4 13.6
-3 8 -11 37.2 15.8
3 5 11 37.8 11.7
5 3 -11 40.2 15.9
3 -8 -11 32.8 12
5 -8 11 22.4 10.2
5 -8 -11 66.49 11.8
-3 8 11 21.1 12.2
8 -3 -11 51.69 16
3 5 -11 76.29 15.4
8 -5 11 46.3 10.9
5 3 11 44.7 11.1
3 5 -11 72.69 17.8
-5 8 -11 54.89 13.4
-8 5 11 50.59 16.6
-3 8 11 68.19 13.8
8 -2 11 39.4 10.5
6 -8 11 46.8 11.5
6 2 -11 66.09 14.2
-2 8 -11 0.3 11.5
6 2 -11 81.19 17.2
-6 8 11 30.2 14.9
2 -8 -11 63.39 14
2 6 11 63.59 12.4
-2 8 -11 31 16.1
-8 2 11 38.7 16.6
8 -6 -11 60.59 16.3
-8 6 -11 62.39 13.6
-6 8 11 32.7 13.7
6 -8 -11 57.89 12
8 -6 11 43 11.6
-6 -2 11 15.6 13.7
-8 6 11 11.6 14.3
2 6 -11 69.79 15.3
8 -2 -11 43.9 16.4
2 6 -11 38.9 15.7
-6 8 -11 42 12.1
6 2 11 56.49 11.5
-2 8 11 60.69 12.8
7 -8 11 25 10.6
8 -7 -11 20 9
7 1 -11 37.5 15.5
7 1 -11 50.89 13.5
-1 8 -11 54.59 18
-8 1 11 13 15.7
-7 8 11 14 12.5
-1 8 -11 39.3 14
8 -1 11 29.1 10.3
-7 8 11 26.6 15.1
-8 7 -11 37.2 12.5
1 -8 -11 40.5 12.5
1 7 11 49.2 11.8
-1 -7 -11 51.39 13
8 -1 -11 62.09 16.5
1 7 -11 41.6 16.4
7 -8 -11 45 11.5
-8 7 11 12.2 14.8
8 -1 -11 26.9 9.5
-7 8 -11 32.3 11.9
7 1 11 32 10.4
-7 -1 11 5.2 14.4
8 -7 11 45.2 11.8
1 7 -11 62.49 16.3
-1 8 11 55.19 12.4
0 -8 -11 22.9 12
-8 8 -11 16.3 12.2
0 8 -11 27.6 15
8 0 -11 14.5 14.4
8 0 11 11.9 9.6
8 -8 -11 26.7 11.1
-8 8 11 -1.6 11
0 8 11 19 11
-8 0 11 -8.6 14.3
-8 8 11 -9 13.1
8 0 -11 19.3 10.9
0 8 -11 29.2 16
8 -8 11 18.7 10.5
-5 9 11 51.69 14.2
-9 4 11 42 16.5
9 -5 -11 74.09 17.1
9 -4 11 65.79 12.8
5 4 -11 65.89 17.3
-4 9 -11 54.89 13
-4 9 -11 19.3 14.9
5 4 -11 67.69 14.9
4 -9 -11 74.09 13.7
4 5 11 52.29 11.5
5 4 11 40.9 10.9
4 5 -11 82.39 13.6
-4 9 11 47.7 13.4
9 -4 -11 69.39 16.7
-5 9 -11 57.09 14
4 5 -11 82.59 18.2
5 -9 -11 55.39 12.5
-9 5 11 37.3 16.4
9 -5 11 75.99 13.2
3 6 11 136.89 18.5
6 3 -11 101.39 18
9 -6 -11 103.29 18.5
-9 3 11 56.49 16.6
3 -9 -11 93.69 14.6
6 3 -11 85.39 14.1
-3 9 -11 76.89 13
9 -3 11 108.29 17.8
-6 9 11 79.29 15.2
-3 9 -11 73.19 17.2
6 3 11 104.49 17.6
-6 9 -11 71.89 14.3
-9 6 11 59.49 17.2
6 -9 -11 112.19 14.8
-3 9 11 87.39 14.6
9 -3 -11 107.59 18.9
3 6 -11 140.49 18
3 6 -11 129.09 20.5
9 -6 11 117.29 18.9
2 -9 -11 23.6 12
-2 9 -11 6.8 12.2
-7 9 11 -10.2 12.4
9 -7 -11 2.6 9.2
7 2 -11 10.4 14
2 7 11 3.5 9.9
7 -9 11 8.7 9.6
-2 9 -11 13.6 15.7
-9 7 -11 16.2 11.4
-7 9 11 -16.9 13.8
7 2 -11 26.4 12.3
-9 2 11 -8 14.3
9 -2 11 16.6 10.1
9 -7 11 16.6 11.2
9 -2 -11 2.7 11.3
2 7 -11 24.3 16.5
-2 -7 -11 15.5 11.6
9 -2 -11 2.1 14.8
7 -9 -11 15.8 11.2
-2 9 11 9.4 11.7
-7 9 -11 14 12.1
7 2 11 11.7 9.6
-9 7 11 -15.5 14
2 7 -11 24.7 14.2
9 -8 -11 -1.1 12.4
-8 9 11 9 12.1
1 8 11 22.8 11
-9 8 -11 20.4 12.1
1 -9 -11 27 13.6
8 1 -11 43.2 12.7
9 -1 11 19.2 9.5
9 -8 -11 4.5 8.6
-8 9 11 -0.1 14.1
-1 9 -11 30.1 15.9
-1 9 -11 62.09 15.8
-9 1 11 16.1 14.9
8 -9 11 22.7 9.8
8 1 -11 50.99 15.9
-8 9 -11 30.6 12.9
-9 8 11 14 14.6
-1 9 11 23.4 12.5
1 8 -11 34.2 15.1
8 1 11 25.3 9.7
9 -8 11 17 10.6
1 8 -11 34.9 16.4
9 -1 -11 29.6 15.4
9 -1 -11 0.1 8.9
-1 -8 -11 27.6 14.4
8 -9 -11 -1 13.2
8 -9 -11 27.4 10.2
-8 -1 11 -8 12.7
-9 0 11 -2.1 13.1
-9 9 11 -2.3 13.5
9 0 -11 17.8 10.3
9 0 -11 20.8 14.6
9 -9 -11 19.2 10.2
9 -9 -11 20.6 13.9
-9 9 -11 20.8 12.4
-9 9 11 2.2 10.3
9 -9 11 14.4 10.2
0 9 -11 2.2 15.6
0 -9 -11 6 13.4
0 9 -11 30.3 15.7
0 9 11 10.4 12
9 0 11 15.9 10
10 -5 11 4.5 9.6
5 5 -11 15.5 15.1
-10 5 11 -4.9 13.7
5 5 -11 -1.1 13.8
10 -5 -11 -3 13.3
-5 10 -11 0.6 11.2
-5 10 11 -11.5 12
5 5 11 13.4 10.1
5 -10 -11 1.3 12.6
4 -10 -11 70.99 14.9
-6 10 11 19 12.9
6 4 -11 40.4 16.2
6 4 -11 44.4 13.5
4 6 11 27.5 10.8
10 -6 -11 6.6 13.4
10 -4 11 40.7 11.6
-10 4 11 31.9 14.4
-4 10 -11 33.3 11.7
-4 10 -11 1.6 14.4
4 6 -11 36.7 15.2
10 -4 -11 9.2 13.2
6 -10 -11 38.4 13.2
-4 10 11 26.7 13.3
4 6 -11 26 16.1
10 -6 11 31.9 11.3
-10 6 11 22.4 14.8
-6 10 -11 31.6 12.3
-10 7 -11 16.9 12.8
7 3 -11 10.3 14.4
-7 10 11 4 12.5
10 -7 -11 -1.5 11.3
-3 10 -11 3.4 10.2
3 -10 -11 17.1 14.2
7 3 -11 30.2 13.2
-3 10 -11 21.7 15.2
-10 3 11 7.6 14
10 -3 11 12.4 9.6
3 7 11 9.6 10.4
-7 10 -11 30.4 13
-10 7 11 16.6 13.8
-3 -7 -11 17 10.7
10 -7 11 13.6 10.8
10 -3 -11 -2.1 13.2
7 3 11 5.7 7.9
7 -10 -11 1.7 11.1
3 7 -11 39.7 14.9
7 -10 -11 23.3 12.3
-3 10 11 6.2 11.8
3 7 -11 30.9 16.4
-2 10 -11 17.5 14
10 -8 -11 22 13.5
-8 10 11 14.8 13
-2 10 -11 16 15.4
2 8 11 2.3 11
2 -10 -11 26.9 14
-10 8 -11 1.8 11.4
-8 10 11 -6.8 12.6
8 2 -11 21 14.3
10 -2 11 14.8 9.7
8 2 -11 21.8 12.1
-10 2 11 14.6 13.4
2 8 -11 6.3 15.7
8 -10 -11 6.9 13.9
-2 10 11 -11.7 11.4
-2 -8 -11 3.1 11.8
-8 10 -11 6.5 12.2
8 -10 -11 19.2 12.1
2 8 -11 12.4 15
10 -2 -11 0.2 13.6
8 2 11 3.1 8.4
10 -8 11 2.5 10.1
-10 8 11 4.7 13.2
-1 10 -11 10.2 14.4
-1 10 -11 14.7 16.4
10 -9 -11 -10.6 13.5
9 1 -11 11.1 12.6
1 -10 -11 -9.5 14.2
-9 10 11 -3.5 10.5
1 9 11 -10.5 11.2
10 -1 11 9.2 9.6
-10 9 -11 -4.4 11.6
-10 1 11 -4.3 13.1
9 1 -11 9.5 14.2
-9 10 11 -4.3 12.7
1 9 -11 -3.8 15.2
-1 -9 -11 1.6 14
9 -10 -11 -5.1 14.4
10 -9 11 1.1 9.5
10 -1 -11 3.9 14.7
-10 9 11 -6.7 13.7
1 9 -11 3.7 15.2
9 -10 -11 9.3 11.5
10 -1 -11 -0.4 14.9
-1 10 11 -12.6 11.3
9 1 11 7.6 9.1
-9 10 -11 -1 11.8
0 10 11 -17.2 11.1
10 0 11 13.6 9
10 -10 -11 4.1 9.2
0 -10 -11 3.2 14.5
0 10 -11 8.8 16.7
10 -10 11 8.8 8.1
-10 10 11 -6.3 12.3
10 -10 -11 11.7 14.5
-10 10 -11 -7.3 12.2
10 0 -11 -1.1 9.5
0 10 -11 7.7 15.4
5 6 11 -5 8.4
-11 5 11 15.3 13.4
-6 11 11 2.6 12.8
6 5 -11 19.9 13.3
11 -6 -11 34.4 14.7
5 -11 -11 2.2 10.7
5 -11 -11 37.7 14.2
6 5 -11 24.8 16.3
-5 11 -11 22 11.6
5 6 -11 31 15.9
6 -11 -11 24.3 12.3
-6 11 -11 26 12.5
-11 6 11 8.1 13.9
-5 11 11 11.9 12.5
11 -5 -11 2.7 12.7
6 5 11 -5.7 11.5
5 6 -11 3.4 12.9
6 -11 -11 16.8 11.8
-11 4 11 27.4 15.1
11 -7 -11 38.3 15.5
7 4 -11 33.1 12.9
-7 11 11 12.1 12.7
4 -11 -11 35.7 12.6
7 4 -11 47.2 17.1
11 -4 -11 1.8 14.5
-4 11 11 25.2 12.8
4 7 -11 30 17.1
-7 11 -11 28.6 13.2
7 -11 -11 52.59 14.6
4 7 -11 32.2 13.4
7 -11 -11 30.7 12.4
-11 7 11 25 13.7
8 3 -11 51.79 13
-8 11 11 49.7 13.9
8 3 -11 51.09 15.4
-3 11 -11 81.69 14.8
-11 8 -11 59.79 14.6
3 -11 -11 72.49 15.4
-11 3 11 40.1 16
11 -3 11 63.09 12.7
11 -8 -11 70.09 15.7
-8 11 -11 55.19 14.4
3 8 -11 60.89 16.9
-3 11 11 32.9 13.2
11 -8 11 61.49 13.1
8 -11 -11 71.79 15.7
-3 -8 -11 50.29 14
-11 8 11 51.29 15.7
8 -11 -11 57.99 13.3
3 8 -11 69.99 16.2
9 2 -11 23.1 12.1
-11 9 -11 20.8 13
-2 11 -11 26.6 13.3
11 -9 -11 30.9 14.9
-2 11 -11 13.3 14.8
2 -11 -11 26.2 14.7
9 2 -11 9.5 13.1
11 -2 11 22 10.5
-9 11 11 3.2 11.4
-11 2 11 -0.9 13.1
11 -9 11 19.5 10.8
-9 11 -11 28.5 13.4
-2 11 11 16.6 12.3
2 9 -11 26.8 15.9
2 9 -11 26.7 16
-11 9 11 8.5 13.9
9 -11 -11 38.5 15.3
9 -11 -11 23.5 11.6
-2 -9 -11 13.2 13.5
10 1 -11 18 10.4
-1 11 -11 23.4 14.3
-1 11 -11 26.1 17.3
11 -1 11 24.4 9.4
1 -11 -11 21.9 15.1
11 -10 -11 38.6 15.8
-11 10 -11 12.9 13.4
1 10 11 -2 10.4
-1 11 11 22.5 12.3
1 10 -11 48 15.9
1 10 -11 38 17.9
-11 10 11 1.6 12.7
-10 11 -11 21.9 12.4
10 -11 -11 19.3 9.9
10 -11 -11 60.59 17.1
11 -10 11 9.3 8.7
-1 -10 -11 24.6 14.3
11 -11 -11 20.7 14.4
-11 11 -11 5.3 12
0 11 -11 -11.3 15.3
0 -11 -11 0.1 15.2
0 11 11 -0.4 9.7
0 11 -11 6 16.6
12 -6 -11 46.9 15.5
6 6 -11 48.8 13.4
-12 6 11 16.4 13.6
-6 12 11 47.1 13.9
6 6 -11 41.3 16.3
6 -12 -11 73.89 14.3
6 -12 -11 47.6 13.8
-7 12 11 6.4 11.7
7 5 -11 16.8 15.6
5 -12 -11 18.1 12.4
12 -7 -11 27.8 14.9
-12 5 11 5.1 13.9
7 5 -11 15.7 13
5 -12 -11 12.5 12.5
7 -12 -11 30.1 13.9
-12 7 11 3.5 13.2
-7 12 -11 2.4 12
12 -5 -11 4.6 14.5
7 -12 -11 13.1 13.3
5 7 -11 18.3 15.8
-5 12 11 11.3 11.9
5 7 -11 13 13.2
12 -8 -11 33.2 15.8
8 4 -11 19.5 11.6
4 -12 -11 27.8 12.8
4 -12 -11 17.3 13.8
8 4 -11 19.2 13.7
-8 12 11 18.1 12.5
-4 12 -11 2.3 10.2
-12 4 11 4.6 13.1
8 -12 -11 24.8 13.6
8 -12 -11 22.5 12.6
12 -4 -11 22.4 16.5
-4 -8 -11 19.7 10.5
4 8 -11 29.6 16.5
-12 8 11 8.4 13.8
-8 12 -11 5.4 12.2
-4 12 11 5 11.6
4 8 -11 20.3 13.3
3 -12 -11 108.39 14.6
-12 3 11 57.59 15.7
9 3 -11 77.19 14
-9 12 11 56.69 13.5
3 -12 -11 94.79 15.7
12 -9 -11 117.19 16.8
-3 12 -11 102.09 15.1
12 -3 11 73.89 12.8
-12 9 -11 66.99 14.5
-12 9 11 49.4 14.8
-3 12 11 68.89 13.8
12 -3 -11 56.29 16.6
3 9 -11 109.29 20
-9 12 -11 50.69 13.7
-12 10 -11 33.2 13.1
2 -12 -11 65.49 16.3
-2 12 -11 1.5 14.3
10 2 -11 57.09 11.9
-2 12 -11 67.69 15.6
2 -12 -11 13 9.9
12 -2 11 30 9.7
-10 12 -11 40.1 13.3
12 -2 -11 9.5 14.4
10 -12 -11 74.39 13.3
-2 12 11 42.7 12.5
2 10 -11 94.69 16.7
2 10 -11 67.99 19.5
-12 10 11 12.1 13.6
-2 -10 -11 46.9 14.6
1 -12 -11 -1.6 9.2
-12 11 -11 -3.6 12.2
-1 12 -11 0.9 14.6
-1 12 -11 -1.3 15
1 11 11 6 14.3
12 -11 -11 9.7 13.8
1 -12 -11 8.7 13.8
-1 -11 -11 1.1 14.4
11 -12 -11 20.3 14.2
1 11 -11 6 16.8
-11 12 -11 -1.3 11.4
12 -1 -11 3.3 13.3
1 11 -11 5.2 15.8
-1 12 11 5.1 8.9
0 12 -11 6.8 15.4
0 -12 -11 -8.8 13.3
12 0 -11 -0.2 17.2
-12 12 -11 -1.9 11.2
0 12 11 1.3 13.8
12 -12 -11 -9.3 13.4
0 12 -11 -3.3 15.5
6 -13 -11 -4.8 13.5
7 6 -11 15.1 15.1
13 -7 -11 7.4 14.5
-7 13 11 2.1 11.7
6 -13 -11 12.7 13
-13 6 11 -14 12.9
7 6 -11 -2.8 11.3
13 -6 -11 9 14.8
-13 7 11 -17.4 12.2
6 7 -11 8.2 15
-7 13 -11 -1.4 14.3
-6 13 11 -1.7 11.5
7 -13 -11 10.9 11.9
6 7 -11 4.8 12.6
7 -13 -11 -1.2 13.6
8 5 -11 21.8 12.1
5 -13 -11 33.9 13.9
-8 13 11 14.2 12.3
13 -8 -11 47.7 16
-13 5 11 -7.4 12.6
5 -13 -11 29.6 12.8
8 5 -11 -1.1 13.2
8 -13 -11 15.6 13.5
13 -5 -11 23.7 16
-8 13 -11 1.3 10.8
-13 8 11 3.8 13.3
8 -13 -11 29.2 14
5 8 -11 18.9 13
-5 13 11 12.8 11.9
5 8 -11 18.7 16.6
4 -13 -11 54.29 15.4
-4 13 -11 18.3 10.8
9 4 -11 27 11.5
4 -13 -11 31.1 12.3
13 -9 -11 44.7 15.6
-13 9 11 -9.5 12.6
4 9 -11 41.4 15.5
13 -4 -11 35.4 15.6
-4 13 11 21.3 11.6
-9 13 -11 0.4 11.8
9 -13 -11 32 13.6
9 -13 -11 32.9 12.3
4 9 -11 23.1 15.8
-4 -9 -11 27.9 12.9
13 -3 11 8.1 8.2
-3 13 -11 -1 12.4
13 -10 -11 6.7 13.3
3 -13 -11 12.5 14.2
10 3 -11 10.2 11
3 -13 -11 1.8 11.6
-13 10 -11 -1.4 10.8
10 -13 -11 2.8 12.7
3 10 -11 -1.2 15.1
-3 13 11 -0.8 10
-10 13 -11 -4 11.7
10 -13 -11 17.8 11.5
-3 -10 -11 -7.2 13
13 -3 -11 0.5 15.2
3 10 -11 11.4 16.7
-13 11 -11 -0.4 10.4
13 -11 -11 20.9 14.3
-2 13 -11 31.8 13.7
11 2 -11 2 7.4
2 -13 -11 28.1 12.2
2 -13 -11 28.6 13.9
11 -13 -11 4.2 8.6
11 -13 -11 30.1 14.3
-11 13 -11 5.5 11.2
2 11 -11 24.6 15.1
2 11 -11 21.4 16.8
13 -2 -11 31.6 15.9
-2 13 11 16.6 15.1
-13 12 -11 -0.8 10.7
1 -13 -11 1.6 13.8
-1 13 -11 6.4 13.9
13 -12 -11 21.2 13.7
1 -13 -11 22.4 11.4
-1 13 11 -1.2 13.6
12 -13 -11 25.5 13.3
1 12 -11 17.5 15.2
-12 13 -11 -3 9.9
1 12 -11 2.4 15.3
13 -1 -11 3.8 15.1
0 -13 -11 10 9.7
13 0 -11 2.1 14.1
13 -13 -11 12.9 13
0 13 -11 12.2 14.1
-7 14 11 -10.8 10
14 -7 -11 19.4 15.6
7 7 -11 4.2 13
7 -14 -11 -0.7 13.4
7 -14 -11 6.2 12.7
-14 7 11 -24.7 11.4
7 7 -11 0.2 15.5
6 -14 -11 28.3 13.3
8 6 -11 17.9 11.6
6 -14 -11 35.3 13.1
14 -8 -11 36.9 15.7
6 8 -11 27.1 13.8
-6 14 11 0.1 10.9
8 -14 -11 24.9 12.6
14 -6 -11 17.8 14.8
8 -14 -11 26.3 14
6 8 -11 -1.9 13.6
-9 14 11 -7 10.4
9 5 -11 9.5 10.7
5 -14 -11 -5.5 14
5 -14 -11 6.6 12.2
14 -9 -11 10.6 14.2
-5 14 11 -18 9.7
5 9 -11 1.1 14.4
14 -5 -11 14.9 14.9
5 9 -11 3 13.5
9 -14 -11 0 12.3
9 -14 -11 7.3 12.4
10 4 -11 24.7 10.7
-4 14 -11 32 11.2
14 -10 -11 45.9 14
4 -14 -11 60.29 13
4 -14 -11 56.59 15.3
4 10 -11 4.5 14.1
-4 14 11 3.4 13.3
10 -14 -11 47.1 12.4
14 -4 -11 28.7 15.1
10 -14 -11 82.79 14.6
4 10 -11 44.5 15.8
-3 14 -11 58.39 13.2
3 -14 -11 42.9 12.4
14 -11 -11 59.89 15.1
3 -14 -11 43.8 15.2
-11 14 -11 -1 17.8
-3 14 11 2.4 15.7
3 11 -11 1.2 15.3
11 -14 -11 6.8 8.6
14 -3 -11 37.4 14.9
11 -14 -11 45.2 12.7
3 11 -11 44.6 15.4
-2 14 -11 -3.5 12.3
2 -14 -11 3.8 11.7
14 -12 -11 9.7 12.6
12 -14 -11 -6.9 11.1
2 12 -11 3.4 13.7
14 -2 -11 -5.3 14.4
13 1 -11 0.3 13.1
-1 14 -11 12 12.7
1 -14 -11 2.9 11
14 -13 -11 16.3 12.4
-1 -13 -11 -2.2 9.6
13 -14 -11 8.1 12.2
1 13 -11 4.9 13.3
14 -1 -11 8.7 14.7
14 -14 -11 2.5 12
0 -14 -11 11.8 10.3
14 0 -11 3.8 13.9
0 14 -11 4.2 12
7 -15 -11 8 13
8 7 -11 8.7 11.7
15 -8 -11 4.4 13.5
7 -15 -11 12.2 12.9
7 8 -11 -0.5 11.3
8 -15 -11 3.4 12.1
8 -15 -11 3 12.1
15 -7 -11 5.5 14.6
6 -15 -11 -3.3 12.6
15 -9 -11 10.5 13.2
6 -15 -11 8.6 12.6
9 6 -11 2.5 9.8
6 9 -11 -2.2 11.4
9 -15 -11 8.7 12.5
15 -6 -11 22.3 14.6
9 -15 -11 16.9 12.8
5 -15 -11 26 12.6
-5 15 -11 0.9 10.6
15 -10 -11 35 13.6
10 5 -11 11.5 10
5 -15 -11 18.3 11.9
5 10 -11 15.8 12.9
10 -15 -11 35.2 13.5
10 -15 -11 27.7 12.2
15 -5 -11 17.4 15
4 -15 -11 5.5 11.4
-4 15 -11 5.4 9.7
11 4 -11 0.6 6.9
15 -11 -11 11.1 13.2
11 -15 -11 7.6 8.1
11 -15 -11 0.8 11.2
4 11 -11 -9.5 13
15 -4 -11 9.1 14.4
15 -12 -11 6.9 12.1
-3 15 -11 2.3 10.4
3 -15 -11 4 11
12 -15 -11 2.9 10.6
15 -3 -11 11.5 13.8
3 12 -11 -6.2 12.9
2 -15 -11 20.6 11.1
-2 15 -11 13.3 10.3
15 -13 -11 20.1 12.1
2 13 -11 2.9 12.7
13 -15 -11 19.1 10.7
15 -2 -11 8.6 13.5
-1 15 -11 -2.9 11
15 -14 -11 2.5 11.7
14 1 -11 -6.2 11.3
1 -15 -11 5.7 10
1 14 -11 -5 11.6
-1 -14 -11 2.1 8.4
14 -15 -11 10.8 10.5
15 -1 -11 4.7 13.2
15 -15 -11 19.3 10.3
15 0 -11 24.6 13.2
0 -15 -11 20.8 10.3
0 15 -11 14.1 11
16 -8 -11 14.1 13.1
8 8 -11 5.9 11.1
8 -16 -11 13.8 12.2
9 7 -11 7.9 10.1
7 -16 -11 -0.5 11.4
16 -9 -11 -3.8 12.5
16 -7 -11 4.9 13.3
7 9 -11 5.1 10.8
9 -16 -11 18.8 12.4
16 -10 -11 4.2 12.1
10 6 -11 10.9 8.9
6 -16 -11 9.1 11.8
6 10 -11 2.5 12.2
10 -16 -11 5.3 11
16 -6 -11 1.6 13.6
11 5 -11 0.8 7.6
16 -11 -11 9.7 11.9
5 -16 -11 13 11.8
11 -16 -11 4.6 11.1
5 11 -11 0.2 11.3
16 -5 -11 11.7 13.8
16 -12 -11 33.4 12.5
-4 16 -11 16.9 8.7
4 -16 -11 21.6 11.2
16 -4 -11 6.6 13.5
12 -16 -11 18 11
4 12 -11 -4.9 11.5
3 -16 -11 31.1 11.3
-3 16 -11 25.9 9.8
16 -13 -11 37 11.9
3 13 -11 20.4 11.9
16 -3 -11 11 11.5
13 -16 -11 34.7 10.5
16 -14 -11 20.8 10.7
2 -16 -11 25.7 10.8
-2 16 -11 12.4 9.3
2 14 -11 6.2 11.1
14 -16 -11 15.6 9.5
16 -2 -11 18 12.2
-1 16 -11 -3.2 9.5
15 1 -11 -1.9 16.8
16 -15 -11 9.8 10.3
1 -16 -11 12.2 9.9
1 15 -11 7.1 10.3
15 -16 -11 17.4 9.8
16 -1 -11 6 11.6
0 -16 -11 6 6.6
16 -16 -11 32.4 9.3
0 16 -11 25.2 9.8
16 0 -11 3.9 10.1
8 -17 -11 -0.5 10.2
9 8 -11 -0.3 9
17 -9 -11 19.2 12.4
17 -8 -11 8.5 11.5
9 -17 -11 -3.2 10
8 9 -11 8.4 9.8
17 -10 -11 -3.7 11.2
7 -17 -11 2.1 10.6
10 7 -11 5.8 8
10 -17 -11 1.9 10.3
17 -7 -11 5.4 12.4
7 10 -11 -5.4 10
17 -11 -11 7.5 11.1
6 -17 -11 -0.2 10.7
6 11 -11 1.3 10.2
11 -17 -11 2.3 9.7
17 -6 -11 2.8 11.9
17 -12 -11 17 11.5
5 -17 -11 9.8 11.1
5 12 -11 -6.4 10.3
12 -17 -11 8.5 10.2
17 -5 -11 -1.4 12.3
4 -17 -11 3.4 10.6
-4 17 -11 -0.9 6.4
17 -13 -11 2.3 10.6
4 13 -11 3.3 10.7
17 -4 -11 3.7 11.8
13 -17 -11 13 9.6
17 -14 -11 19.4 11
-3 17 -11 14.5 8.2
3 -17 -11 19.3 10.3
3 14 -11 9.3 10.3
17 -3 -11 4.9 11.6
14 -17 -11 8.1 9.2
-2 17 -11 22 9.3
2 -17 -11 18.1 10
17 -15 -11 28.3 10.3
15 -17 -11 19.5 9.1
2 15 -11 5.7 10
17 -2 -11 2.5 11.1
17 -16 -11 24.6 8.6
-1 17 -11 24 9.4
1 -17 -11 7 6.9
1 16 -11 30.1 10.4
16 -17 -11 21.7 8.9
17 -1 -11 7.5 9.3
0 17 -11 18.8 10
17 -17 -11 5.3 9.5
9 9 -11 1.2 8.5
18 -9 -11 0 10.6
9 -18 -11 9.9 9.9
8 -18 -11 8.7 10.3
18 -10 -11 -3.1 10.2
10 8 -11 3.9 6.4
8 10 -11 3.4 8.8
10 -18 -11 7.1 9.1
18 -8 -11 2.5 10.9
18 -11 -11 -2 10.1
7 -18 -11 4.4 9.5
18 -7 -11 6.8 11.3
7 11 -11 7.3 9.4
11 -18 -11 10.1 9.5
6 -18 -11 1.4 9.9
18 -12 -11 -1.4 10
6 12 -11 -5.7 9.1
12 -18 -11 0.5 8.8
18 -6 -11 5.3 10.8
5 -18 -11 3.1 10
18 -13 -11 4.9 10.2
18 -5 -11 -8.5 10.9
5 13 -11 -8.8 8.5
13 -18 -11 -2.5 8.8
4 -18 -11 16.5 10.6
18 -14 -11 15.4 10.4
18 -4 -11 -1.8 11.7
4 14 -11 13.6 10
14 -18 -11 19.6 9.3
18 -15 -11 16.9 10.1
3 -18 -11 27.1 10.7
3 15 -11 9.8 10.1
18 -3 -11 7.2 11
15 -18 -11 25.9 9.2
2 -18 -11 -3.1 6.5
-2 18 -11 2.5 5.3
18 -16 -11 -0.3 9.4
16 -18 -11 3 9.5
18 -2 -11 1.6 7.6
2 16 -11 6 10.2
9 -19 -11 -0.9 9.5
19 -10 -11 1.6 10.1
19 -9 -11 0.2 10.9
10 -19 -11 10.9 9.6
9 10 -11 -0.6 5.2
19 -11 -11 1 10.8
8 -19 -11 5.2 10
19 -8 -11 1.3 10.7
8 11 -11 -6.9 7.5
11 -19 -11 4.4 9.1
19 -12 -11 8.6 10.6
7 -19 -11 5 9.8
19 -7 -11 -6.5 10.9
12 -19 -11 0 8.8
7 12 -11 6 8.8
6 -19 -11 5.6 10.8
19 -13 -11 6.3 10.4
19 -6 -11 -2.6 11.1
6 13 -11 -3.5 9.1
13 -19 -11 0.1 8.9
5 -19 -11 2.6 11.2
19 -14 -11 7.6 11.2
5 14 -11 -1.1 10
14 -19 -11 6.3 9.3
19 -5 -11 0.3 11.8
4 -19 -11 -2.9 8.9
19 -15 -11 2.9 11.2
15 -19 -11 10.4 9.8
19 -4 -11 -4.1 10
4 15 -11 6.3 10.7
10 -20 -11 0.4 10
20 -10 -11 5.3 11.2
20 -11 -11 -0.9 11.5
9 -20 -11 16.6 10.7
20 -9 -11 -8.7 11.1
11 -20 -11 4.2 10.4
0 0 -12 449.56 34.2
0 0 12 466.45 32.8
1 -1 -12 106.49 13.7
1 0 -12 144.39 21.4
0 -1 12 124.59 16.6
-1 1 -12 158.18 22.5
0 -1 -12 105.89 18.3
-1 0 12 99.69 14.9
0 1 -12 112.69 19
-1 1 12 93.79 14.9
0 1 12 118.89 15.8
1 -1 12 118.49 19.5
-1 0 -12 129.79 20.8
1 0 -12 114.89 14.1
1 -1 -12 139.99 20.9
1 0 12 94.69 14.2
2 -1 12 270.97 24.7
-2 1 -12 232.28 25.8
1 1 -12 194.88 18.9
-1 -1 12 273.67 25.5
-1 2 -12 244.58 27.2
2 -1 -12 253.17 25.7
1 -2 -12 256.67 26
-2 1 12 272.97 25.6
1 1 12 270.97 24.5
2 -1 -12 223.68 20.1
1 1 -12 257.67 26.8
-1 2 12 257.07 23.1
1 -2 12 298.17 25.8
-1 -1 -12 236.28 26.9
1 -2 -12 204.08 18.6
0 -2 12 101.79 15.2
-2 2 -12 92.09 19.3
-2 2 12 109.09 16.1
2 0 -12 151.68 21.7
-2 0 12 124.69 16.7
0 2 12 93.99 14.6
2 0 -12 105.79 14.8
2 -2 -12 113.29 14.7
-2 0 -12 75.19 18
0 -2 -12 137.09 20.1
0 2 -12 109.99 19.8
2 -2 -12 145.79 21
2 -2 12 79.99 13.9
2 0 12 97.99 14.5
1 -3 -12 31.1 14.9
-3 1 12 17.4 11.9
1 -3 -12 23.9 12.5
2 1 -12 22.5 14.7
-1 3 -12 1.5 12
3 -2 -12 28 11.8
-1 3 -12 12.1 15.3
-2 -1 -12 21.8 15
2 -3 12 17.2 11.9
3 -1 12 17.5 10.6
-3 2 -12 24.6 15.4
2 1 -12 23.2 13.8
-1 -2 12 24.1 12
1 2 12 15.5 10.3
3 -2 -12 33.9 15.7
-2 3 12 24.3 11.5
2 1 12 10.6 11
2 -3 -12 30.4 11.4
-1 -2 -12 0.9 9.8
-3 2 12 18.3 11.4
3 -2 12 24.7 11.2
2 -3 -12 21.7 15.8
1 2 -12 28.8 13.1
1 2 -12 28.8 15.1
-2 -1 12 25.3 13.3
3 -1 -12 24.4 15.4
-2 3 -12 11.8 15.7
-3 1 -12 37.6 16
1 -3 12 33.5 12.3
-1 3 12 14.4 11.3
3 -1 -12 21.3 11.8
-1 -2 -12 36.8 16.1
3 -3 12 164.98 20.9
3 0 -12 152.78 23.6
-3 0 12 143.89 23.6
3 0 12 140.69 18.6
0 -3 12 149.79 23.3
0 -3 -12 144.29 22.5
0 3 -12 150.98 16.3
-3 3 -12 139.59 21.3
0 3 12 149.19 21.3
0 3 -12 163.58 23.5
3 -3 -12 141.79 21.9
3 -3 -12 127.19 17.8
-3 0 -12 123.49 20.4
3 0 -12 191.88 18.2
-3 3 12 159.38 23
2 2 12 133.49 20.6
2 -4 -12 151.98 16.1
2 -4 -12 96.19 18.1
2 2 -12 171.78 22.7
-2 -2 12 130.39 17.9
-4 2 12 94.89 13.7
4 -2 -12 120.89 18.9
-2 4 12 94.99 15.4
4 -2 -12 128.49 16
2 -4 12 126.19 16.9
-4 2 12 96.89 15.4
4 -2 12 132.89 18.7
-2 -2 -12 98.39 18.7
-2 4 12 140.39 20.8
2 2 -12 156.68 15.9
-2 4 -12 122.99 20.5
4 -3 -12 51.99 15.9
1 -4 -12 60.99 12.6
-3 4 12 42.5 12.6
3 1 -12 80.49 13.3
4 -1 12 49.5 10.8
-1 4 -12 61.99 17.8
-3 -1 -12 52.79 16.2
-4 1 12 63.59 14.4
3 -4 12 48.2 11.8
-3 4 12 72.19 14.2
1 3 12 53.89 12.3
-4 3 -12 31.9 15.4
3 1 -12 105.09 19.3
-1 -3 12 67.29 14.9
4 -3 -12 83.49 14.2
1 -4 -12 84.19 18.3
1 3 -12 71.89 15.2
1 -4 12 62.89 14.4
-4 3 12 56.59 12.4
-3 4 -12 51.39 17.5
1 3 -12 72.59 17
3 1 12 52.79 12
-4 3 12 50.79 12.5
-1 4 12 37.1 11.9
3 -4 -12 62.19 16
-3 -1 12 56.69 14.7
4 -1 -12 80.59 18.2
3 -4 -12 87.99 14.2
-4 1 -12 27.2 15.1
4 -3 12 59.39 11.9
4 -1 -12 75.59 13.7
4 0 -12 9.5 14.6
4 0 -12 4.8 13.1
0 -4 12 2.8 11.2
0 4 -12 0.7 14.8
4 -4 -12 8.9 11.8
0 4 12 6.5 11.1
4 -4 -12 -6.1 13.2
0 -4 -12 1.3 11.1
-4 0 -12 -1.6 14.3
4 0 12 3.2 9.3
4 -4 12 2.1 9.7
0 4 -12 1.8 10.9
-4 4 12 2.6 10.3
-4 0 12 -1.9 11.9
-4 4 12 12.8 12.6
-4 4 -12 -0.4 14.8
3 2 -12 -9.8 11.7
-3 5 12 -2.6 11.4
5 -2 12 -2.7 9.4
-3 5 12 3 11.3
-5 2 12 -9.3 11.8
-2 5 -12 16.2 16
-2 -3 12 0.7 11.9
3 2 -12 5.1 15.4
3 -5 12 7 11.9
5 -3 -12 20.8 14.1
2 -5 -12 -5.3 10.8
5 -3 -12 -3.3 12.6
2 3 12 1.1 10.7
5 -3 12 9.1 10.3
3 2 12 1.2 9.2
3 -5 -12 11.5 11.4
2 3 -12 2.2 11.8
5 -2 -12 0.5 13.4
-2 -3 -12 3.4 14.4
5 -2 -12 26 13.2
2 -5 12 2.5 11.5
2 3 -12 8 14.6
-2 5 12 0.4 10.4
-2 5 12 -7.4 11.9
-3 -2 12 -6.2 11.5
-3 5 -12 3.1 14.8
-5 3 12 -7.4 9.5
3 -5 -12 4.9 14.2
-5 3 12 -2.8 12.2
5 -1 12 19.3 10.3
5 -4 -12 43.5 13.2
-4 5 12 28.3 12.4
-1 5 -12 24.6 12.1
4 -5 12 16.2 10.9
4 1 -12 27.2 15.4
-1 -4 12 16.5 13
1 4 12 19.7 11.9
4 1 -12 32.9 11.6
5 -4 -12 11.9 14.3
-5 1 12 8 13.7
-1 5 -12 15 15.6
-4 5 12 15.7 12.9
1 -5 -12 32.3 12.7
-1 5 12 13.6 12.6
1 -5 12 16.1 12.2
-1 -4 -12 12 10.1
1 4 -12 13.8 14.7
-1 5 12 11.8 10.8
4 -5 -12 31.7 11.1
4 1 12 12.2 10.6
5 -1 -12 41 16.3
-4 5 -12 6.3 14.6
-5 4 12 4.8 11.9
1 4 -12 33 14
-4 -1 12 1.9 12.3
5 -1 -12 25.3 12
5 -4 12 18.3 10.5
4 -5 -12 33.6 15.7
-5 4 12 11.8 10.7
5 -5 12 39 12.2
5 0 12 50.59 12
5 0 -12 66.59 13.8
0 5 12 58.79 13.2
-5 0 12 29.2 14.9
0 5 12 43.1 12.6
5 -5 -12 63.39 13.2
0 -5 12 32.7 12.4
5 -5 -12 48.3 15.2
-5 5 12 22.9 11.6
0 5 -12 46.3 16.3
-5 5 12 37.4 14.3
5 0 -12 59.39 16.3
0 -5 -12 51.29 13.3
0 5 -12 72.59 15.2
-3 -3 12 2.3 12.4
6 -3 -12 18.5 14.2
3 3 -12 20.3 15.1
-3 6 -12 7.5 14.8
-3 6 12 9.7 12.3
3 -6 -12 10.2 12.4
-3 6 12 21.1 12
3 3 12 19.9 11.7
3 3 -12 16.4 11.7
-6 3 12 7.2 13.5
3 -6 12 10.6 11.5
6 -3 -12 13.8 12.7
6 -3 12 14.9 9.6
6 -4 -12 29.4 15
4 -6 12 30.2 11.8
-2 -4 12 4.5 11.7
-4 6 12 11.7 11.5
-4 6 12 11.1 13.2
6 -2 12 23.1 10.2
-2 6 -12 1.6 10
-6 2 12 -3.5 12.4
2 4 12 23.9 11.9
4 2 -12 36.6 15.8
4 2 -12 33.8 13.2
2 -6 -12 33 12.8
-2 6 -12 31.2 16.4
6 -4 -12 39.1 13.1
-4 -2 12 3.7 12.9
-2 6 12 45.3 12.7
6 -2 -12 50.99 16.5
2 4 -12 40.3 14.6
4 2 12 30.5 11
-2 -4 -12 11.7 9.6
-2 6 12 18.6 12.4
4 -6 -12 43.4 12.5
2 -6 12 25.6 11.7
-4 6 -12 -3.9 14.6
6 -2 -12 46.3 12.3
2 4 -12 39.5 15.4
-6 4 12 20.9 13.7
6 -4 12 35.5 11.2
5 -6 12 19.8 11
1 5 12 42.2 11.7
6 -1 12 24.6 10.1
1 -6 -12 24.5 11.7
1 5 12 22 12.1
-5 6 12 25.8 12.2
6 -5 -12 49 12.7
-6 1 12 -1.1 13.9
6 -5 -12 26.9 14.7
-1 6 -12 42 16.9
-1 6 -12 33.6 14
5 1 -12 37.6 13.4
5 1 -12 34.3 14.7
-5 6 12 19.3 13.7
-1 -5 -12 28 11.9
-1 6 12 34.9 12.7
1 5 -12 41.4 13.6
-6 5 12 8.4 10.7
6 -5 12 26.1 10.6
6 -1 -12 29.6 15.3
5 -6 -12 43.1 11.6
-5 -1 12 4 14
-1 6 12 34.8 13.4
1 5 -12 33.9 16.9
5 1 12 34.4 10.9
-6 5 12 9.8 13.3
6 -1 -12 40.8 13.7
0 6 12 18 12.2
-6 0 12 -1.2 14.3
6 -6 12 22.7 10.6
6 0 12 15.1 9.5
0 6 -12 32.5 16.6
6 -6 -12 31.8 11.3
6 -6 -12 18.5 14.4
0 6 12 13.8 10.7
6 0 -12 7.6 14.6
-6 6 12 -0.4 12.8
0 6 -12 29.7 13.3
-6 6 12 -1.8 11.1
0 -6 -12 17.6 11.7
6 0 -12 19.6 13.3
-3 7 -12 44.4 15.8
4 3 -12 57.99 14.3
-4 7 12 46.5 13.3
3 4 12 35.8 11.9
7 -3 12 47.8 11.4
-4 7 12 43.8 15.1
4 3 -12 53.19 16.1
-7 3 12 24.7 15
7 -4 -12 47.7 13.6
3 -7 -12 68.49 13.2
4 -7 12 35.7 11.9
7 -4 -12 76.79 17.7
3 4 -12 48.4 14.2
-4 7 -12 -2.1 18.6
7 -3 -12 59.79 14.4
4 -7 -12 65.89 12.4
7 -4 12 36.7 11.4
-7 4 12 16.5 15.1
3 4 -12 50.09 16.1
4 3 12 36.4 11
-3 7 12 48.7 13.5
-3 7 12 23.4 13.1
7 -3 -12 63.99 16.8
-5 7 12 18.3 12.6
2 5 12 23 11.5
2 5 12 7.3 10.9
-7 2 12 -8.8 14.6
-2 7 -12 17.3 11.7
2 -7 -12 20.7 11.4
7 -2 12 20.5 11
-5 7 12 7.9 13.7
7 -5 -12 21.1 12.1
5 2 -12 19.7 12.6
5 2 -12 20.1 15.3
7 -5 -12 23.6 14.8
5 -7 12 12.8 10.6
-2 7 -12 12.8 15.9
-7 5 12 0.8 13.7
-2 7 12 18 12.3
2 5 -12 33.4 17.2
5 2 12 31.9 11.5
7 -2 -12 35.1 15.5
5 -7 -12 29 12.7
7 -2 -12 42.4 13.2
2 5 -12 35.6 13.5
-2 7 12 24.5 12.4
-2 -5 -12 20.2 11
7 -5 12 40 12.3
6 -7 12 75.09 14.2
7 -6 -12 93.69 13.9
6 1 -12 85.09 14.6
-6 7 12 51.99 14.4
7 -6 -12 97.09 18.7
-7 1 12 49.3 17.9
1 6 12 62.39 12.7
-6 7 12 49.4 16.7
-1 7 -12 105.59 16.5
6 1 -12 68.29 16.5
1 -7 -12 81.49 14.2
7 -1 12 87.99 13.4
-1 7 -12 69.39 18.2
7 -1 -12 125.79 16
-1 -6 -12 82.29 14.8
1 6 -12 119.69 20.7
7 -1 -12 117.49 19.3
-7 6 12 69.79 17.9
6 1 12 113.89 18.9
-1 7 12 86.59 14.2
1 6 -12 114.09 16.7
7 -6 12 144.09 21.1
6 -7 -12 130.99 15
0 7 -12 34.5 14.2
0 -7 -12 11.5 13
0 7 -12 45.6 18.6
0 7 12 12 10.9
7 0 12 31.6 10.9
7 0 -12 33.4 15.7
7 -7 12 15 11.3
-7 7 12 -19.3 10.9
-7 7 12 -1.1 15.6
7 0 -12 38.2 13.3
-7 0 12 -17.2 15.5
7 -7 -12 43.5 12.6
8 -4 12 100.79 15
-8 4 12 49.5 17.7
8 -4 -12 126.79 19.9
4 4 -12 109.29 19.8
4 4 12 75.09 13.2
8 -4 -12 96.39 14.6
4 -8 -12 132.59 15.7
4 4 -12 132.09 16.5
-4 8 12 96.99 15.9
8 -3 12 31.7 11.8
8 -5 -12 42.7 15.9
3 5 12 34 11.4
-3 8 -12 17.4 14.6
-8 3 12 4 15
-5 8 12 32.4 14.6
5 3 -12 43 14.2
-5 8 12 11.3 14.1
8 -5 -12 44.4 12.3
-3 8 -12 1.9 9.5
5 3 -12 34.2 15.4
5 -8 12 6.8 11.5
3 -8 -12 53.29 14.2
-3 8 12 55.99 13.5
3 5 -12 74.39 15.8
5 -8 -12 55.69 12
3 5 -12 47.4 16.6
-8 5 12 19 16.3
8 -3 -12 82.09 14.6
8 -5 12 70.79 13.9
5 3 12 58.69 12.5
8 -3 -12 67.69 17.7
-2 8 -12 19.1 12
6 -8 12 3.1 8.8
-6 8 12 -11.6 13.6
8 -6 -12 5.9 14.6
-2 8 -12 20.3 15.5
2 -8 -12 1.5 12.8
-8 2 12 -21.2 14.9
2 6 12 7.1 10.9
-6 8 12 -8.9 13
8 -6 -12 22.8 11.6
8 -2 12 10.1 9.9
6 2 -12 12.1 15.1
6 2 -12 5.9 11.9
6 -8 -12 20.6 12.1
8 -6 12 7.5 10.8
6 2 12 12.3 9.8
8 -2 -12 26.1 13.6
-8 6 12 -13.2 14.5
2 6 -12 33.3 18.1
2 6 -12 26.3 13.7
8 -2 -12 21.5 15.7
-2 -6 -12 8.6 11.8
-2 8 12 4.7 11.7
8 -1 12 32.7 10.7
7 -8 12 34.5 11.2
-1 8 -12 80.89 16.2
1 7 12 38.8 11.7
1 -8 -12 52.09 14.3
-8 1 12 5.4 15.7
-7 8 12 24.7 15.4
7 1 -12 54.99 16.3
8 -7 -12 46.9 11.4
-7 8 12 8.5 12.6
-1 8 -12 39.4 18.4
7 1 -12 33.5 12.6
1 7 -12 59.89 15
8 -7 12 52.29 12.5
-1 8 12 34.3 12.6
-1 -7 -12 29.6 13.3
-8 7 12 12.2 15.1
1 7 -12 57.89 19.5
8 -1 -12 39.7 12.9
8 -1 -12 62.49 17.3
7 -8 -12 63.49 12.6
7 1 12 34.4 11
0 -8 -12 34.1 14
8 -8 -12 30.7 12.2
0 8 -12 59.79 15.5
0 8 -12 36.8 18
8 -8 12 19.8 10.8
-8 0 12 -7 14.3
-8 8 12 0.7 15.5
0 8 12 19.9 11.7
8 0 -12 46.8 16.9
8 0 -12 31.2 12.8
8 0 12 34 11.2
9 -5 -12 17.8 11.8
5 4 -12 13.3 13.4
4 5 12 2.8 10.1
9 -5 -12 6.3 14.2
-5 9 12 -1.8 13.1
5 4 -12 12 15.3
9 -4 12 2.1 10.1
4 -9 -12 23 11.7
-9 4 12 -12.7 14.1
-4 9 12 -5.2 12.6
-9 5 12 -23.7 14.3
4 5 -12 4.4 13.6
5 -9 -12 18.7 12.7
9 -5 12 10.3 10.8
9 -4 -12 9.5 14.8
5 4 12 8.5 9.8
9 -4 -12 26.3 13
4 5 -12 12.9 15.5
-3 9 -12 1.3 13.6
-3 9 -12 37.6 12
6 3 -12 35 12.7
9 -3 12 32.3 11.2
-6 9 12 14.3 14
3 -9 -12 45 12.8
6 3 -12 37.3 15.6
-9 3 12 16.7 15.8
9 -6 -12 33.9 15.1
9 -6 -12 34.7 11.1
3 6 12 22.1 11.4
9 -3 -12 43.4 12.2
-3 9 12 16.4 14.2
9 -6 12 30.5 11.8
3 6 -12 42.1 17.7
3 6 -12 19.4 14
-9 6 12 4.3 14.5
9 -3 -12 25.6 15
-3 -6 -12 26.7 11
-6 9 -12 26.4 13
6 -9 -12 30.9 11.3
-2 9 -12 31.2 17
7 2 -12 32.1 15.8
-9 2 12 28.1 16.7
-7 9 12 18.9 13.4
2 7 12 22.8 11.4
9 -7 -12 49 11
7 2 -12 44.7 13.2
2 -9 -12 37.5 14.2
-2 9 -12 57.39 14.5
9 -2 12 29.5 10.7
9 -2 -12 26.4 14.6
7 -9 -12 52.99 12.5
-7 9 -12 28.9 12.8
9 -2 -12 45.3 12.8
9 -7 12 27.9 11.6
-2 -7 -12 44.1 13.8
7 2 12 18 8.9
2 7 -12 28.3 17.2
2 7 -12 57.29 16
-2 9 12 10.2 12.5
-9 7 12 12.6 15.5
-8 9 12 13.2 11.4
9 -8 -12 7.7 11.3
-1 9 -12 -4 13.5
1 8 12 -7.8 11
9 -1 12 9.5 9.9
1 -9 -12 14.5 13
8 1 -12 12.3 12.4
-9 1 12 -11 13.8
8 1 -12 1.7 14.4
-1 9 -12 12.9 17
-8 9 12 -18.7 12.8
9 -1 -12 4.3 12.2
9 -1 -12 2.7 13.7
1 8 -12 12.9 17
-8 9 -12 -6.1 11.6
8 -9 -12 6.9 11.7
9 -8 12 8 10.8
-1 9 12 -12.4 11.9
-9 8 12 -12.4 14.2
8 1 12 3.9 8.5
1 8 -12 -13.4 14.8
-1 -8 -12 15.2 14.1
0 9 -12 14.1 17.6
0 9 -12 -2.5 13.9
9 -9 12 11.1 10.5
-9 9 -12 -4.1 12.1
9 0 12 9.4 9.1
9 0 -12 1.8 14
0 -9 -12 -3.6 13.1
-9 9 12 3.1 13.3
9 -9 -12 4.5 13.2
-9 0 12 -18.7 20.2
9 -9 -12 7.8 12.2
9 0 -12 21.7 13
0 9 12 -6.5 11.9
-5 10 12 -12.9 12.1
10 -5 -12 21.3 11
5 -10 -12 7.6 11.6
-10 5 12 -8.4 14.1
5 5 -12 6.2 12.8
10 -5 12 12.7 11.1
5 5 12 -6.8 9.1
5 5 -12 2.7 14.8
6 4 -12 28.6 12.3
10 -4 12 18.9 10.8
10 -6 -12 49.5 11.6
-10 4 12 33.4 14.9
4 -10 -12 42.8 13.6
-6 10 12 34.3 14.4
4 6 12 22.8 10.4
-4 10 -12 5.2 11.6
6 4 -12 43.4 16.2
4 6 -12 52.09 14.2
-6 10 -12 26.8 12.5
-4 10 12 20.3 13.4
4 6 -12 62.49 18.6
-4 -6 -12 8.1 13
10 -4 -12 65.99 12.9
-10 6 12 29.8 15.1
10 -6 12 39.8 11.8
6 -10 -12 66.69 13.3
10 -7 -12 29.5 11.3
10 -7 -12 0 11.6
3 -10 -12 3.2 13.4
10 -3 12 20.1 11
-10 3 12 2.3 14.1
7 3 -12 21.7 14.6
-7 10 12 2.2 13
-3 10 -12 4.9 11.8
3 7 12 4.9 10.2
7 3 -12 31.3 13
-7 10 -12 9.6 12.1
3 7 -12 27 14.6
7 -10 -12 -1.4 10.8
3 7 -12 20.3 17.7
-3 -7 -12 21.2 13
-3 10 12 1.3 12.3
7 -10 -12 35 12.4
-10 7 12 6.9 13.9
10 -3 -12 19.5 11.3
10 -7 12 25.2 11.9
-10 2 12 5.7 13.9
2 8 12 14 11.1
8 2 -12 30.2 14.9
10 -2 12 25.8 10.9
-2 10 -12 43.8 13.2
8 2 -12 47.3 13.2
-2 10 -12 0.2 15.3
10 -8 -12 28.8 13.5
2 -10 -12 29.9 13.6
10 -8 -12 30.6 11.5
-8 10 12 2.7 11
10 -2 -12 48.5 12.2
2 8 -12 71.39 15
10 -8 12 30.8 11.6
8 -10 -12 34.7 11.8
8 -10 -12 47.6 14.3
-8 10 -12 38.6 13.3
-2 -8 -12 30.6 13.7
-2 10 12 7.6 12.4
2 8 -12 36.3 18.4
-10 8 12 22.7 14.1
1 -10 -12 8.6 14.2
-1 10 -12 -0.5 14
-1 10 -12 -0.7 15.9
9 1 -12 16.1 11.6
10 -9 -12 8.7 11
1 9 12 -20.2 11.2
10 -9 -12 8.8 13.9
9 1 -12 -1.6 20.8
10 -1 12 7.2 9.2
-10 9 12 -19.4 12.7
9 -10 -12 -1.4 14.1
-9 10 -12 -8 11.6
1 9 -12 1.4 15.2
-1 -9 -12 2.3 14.2
-1 10 12 -3.9 11.6
10 -9 12 10.7 9.7
10 -1 -12 8.2 12.1
9 -10 -12 2.9 11.2
1 9 -12 5.3 16.8
0 10 12 -11.9 10.5
10 0 -12 24.5 11.8
10 -10 -12 10.4 10.6
0 10 -12 -4.2 13.5
-10 10 12 -30.1 13.3
-10 10 -12 -8.6 11.4
10 -10 -12 -3.1 13.3
0 -10 -12 2.4 14.1
0 10 -12 2.2 16.2
5 -11 -12 13.1 13.4
-6 11 12 2.6 13.3
11 -6 -12 3.4 7.7
-11 5 12 -0.3 13.3
11 -5 12 10.7 10.6
6 5 -12 25.4 15.6
11 -6 -12 -0.8 11.6
6 5 -12 18.6 12.7
11 -6 12 14.1 10.8
-6 11 -12 -4 11.9
6 -11 -12 2.8 10.9
5 6 -12 21.8 17.2
11 -5 -12 2.5 8.2
-11 6 12 6.8 14
6 -11 -12 20 11.6
-5 11 12 19.6 13.2
5 6 -12 16.1 13.2
11 -4 12 55.39 12.2
-11 4 12 57.09 16.1
-7 11 12 68.79 14.5
4 -11 -12 101.39 14.3
11 -7 -12 68.89 15.1
7 4 -12 64.29 13.1
7 4 -12 59.49 15.7
7 -11 -12 86.19 12.8
-11 7 12 36.3 14.2
-4 -7 -12 41.1 10.3
4 7 -12 60.19 18.6
-4 11 12 51.99 14.6
11 -7 12 45 11.8
-7 11 -12 29.1 12.7
4 7 -12 66.19 15.5
3 -11 -12 58.69 14.8
-8 11 12 -4.8 10.5
-3 11 -12 35.9 12.9
11 -3 12 20.9 9.9
8 3 -12 29.5 12.4
11 -8 -12 37.1 14
11 -8 -12 3.5 7.8
8 3 -12 -3.8 11.8
-3 11 12 3.2 11.9
11 -3 -12 5.3 8.2
8 -11 -12 29.9 13.2
3 8 -12 20.7 17.8
8 -11 -12 41.9 13.3
-11 8 12 3.7 13.8
-3 -8 -12 2.1 13
-8 11 -12 22.8 12.5
3 8 -12 40.1 13.7
11 -8 12 17.5 9.9
11 -9 -12 3.8 7.8
11 -2 12 8.5 8.3
2 -11 -12 10 14.2
9 2 -12 29.6 11.5
-2 11 -12 20.6 12.2
11 -9 -12 14.5 13.6
11 -2 -12 1.3 7.9
-9 11 -12 20.8 13.2
9 -11 -12 23.7 10.9
-2 -9 -12 23.1 13
11 -9 12 9.3 11.4
2 9 -12 26.7 17.4
2 9 -12 45.2 15.5
-2 11 12 6 11.5
9 -11 -12 28.3 14.4
-1 11 -12 16.1 13.4
11 -10 -12 6.9 13.7
10 1 -12 10.8 11.2
1 -11 -12 6.5 14.2
11 -10 -12 8.5 7.6
11 -1 -12 1.3 7.5
-1 -10 -12 -3 13.3
-10 11 -12 -7 11.8
1 10 -12 3 14.3
10 -11 -12 -4.3 13.3
1 10 -12 1.3 15.6
-1 11 12 6.6 10
10 -11 -12 5.2 11.4
0 11 -12 -3.8 14.5
0 -11 -12 -5.2 14.1
11 -11 -12 -11.5 13.1
-11 11 -12 -3.7 10.8
11 0 -12 6.3 7.9
11 -11 -12 8.1 7.9
-12 6 12 7.2 13.6
6 6 -12 48.1 12.5
6 -12 -12 73.59 13.9
12 -6 -12 58.19 15.3
-6 12 12 33.5 12.4
6 -12 -12 63.79 13.6
6 6 -12 36.6 15.4
12 -6 12 38.7 10.8
7 5 -12 35 12.7
5 -12 -12 46 13.1
7 5 -12 -1 13.4
5 -12 -12 23.7 11.8
-7 12 12 -5 10.9
12 -5 12 25.9 10.4
12 -7 -12 29.4 14.1
7 -12 -12 16.5 12.5
7 -12 -12 26.7 13.5
12 -5 -12 14.5 13.5
5 7 -12 23.3 12.1
-12 7 12 -15.5 12.7
12 -7 12 20 10.1
5 7 -12 21.1 17.2
-5 12 12 8.3 11.9
4 -12 -12 0.2 9.7
12 -8 -12 19.9 13.7
-4 12 -12 14 10.1
4 -12 -12 25.9 13.2
-8 12 12 -4.6 13.2
8 4 -12 9.1 10.9
12 -4 12 4 8.8
-12 8 12 -10.5 12.2
12 -4 -12 2.7 11.9
8 -12 -12 27.9 12.5
8 -12 -12 32.9 12.2
-4 12 12 9.5 11.5
12 -8 12 4.4 8.6
-8 12 -12 -3.2 16.5
4 8 -12 31.6 14.1
4 8 -12 32.5 17.3
-4 -8 -12 17.8 11.3
12 -9 -12 65.79 14.8
9 3 -12 60.89 11.6
3 -12 -12 97.79 15.2
-3 12 -12 60.49 12.7
-3 -9 -12 38.7 12.9
3 9 -12 15.8 16.6
3 9 -12 77.19 16.1
9 -12 -12 74.49 13.7
2 -12 -12 -8.3 12.4
10 2 -12 -1.1 10.2
-2 12 -12 4.9 12.4
12 -10 -12 -3.1 12.4
-2 -10 -12 -2.2 12.9
2 10 -12 -11.5 13.8
-10 12 -12 -2.8 10.7
10 -12 -12 7.4 11.1
10 -12 -12 -2.3 11.9
2 10 -12 -5.7 14.9
1 -12 -12 13.6 13.3
11 1 -12 15.3 8
-1 12 -12 6.5 13.2
12 -11 -12 26.9 13.8
1 11 -12 15.5 14.5
-11 12 -12 -2.3 13.3
11 -12 -12 18.7 8.9
11 -12 -12 15.1 12.9
-1 -11 -12 12.1 13.8
0 12 -12 -5.2 13.5
12 -12 -12 5.4 12.8
0 -12 -12 -7.2 12.9
6 -13 -12 64.19 14.3
6 -13 -12 55.79 13
-7 13 12 -7.6 13.7
13 -7 -12 44.4 14
13 -6 12 7.6 8.2
7 6 -12 23.4 12.5
7 -13 -12 58.99 12.7
6 7 -12 26.6 11.5
13 -7 12 8.2 8.3
13 -6 -12 32.4 13.7
7 -13 -12 38.5 13.3
5 -13 -12 79.29 14.5
8 5 -12 39.8 11.7
13 -8 -12 74.99 14.5
5 -13 -12 95.99 14.3
8 -13 -12 116.39 15.2
5 8 -12 71.49 14.7
13 -5 -12 53.99 14.9
8 -13 -12 73.19 14.1
4 -13 -12 23 13.7
4 -13 -12 24.7 11.2
-4 13 -12 13.6 9.2
13 -9 -12 11.4 13.1
9 4 -12 14.4 10.4
13 -4 -12 10.5 13.4
9 -13 -12 10.2 11.8
4 9 -12 0.4 18.4
9 -13 -12 8.5 11.1
4 9 -12 -0.9 12.2
-3 13 -12 10.8 11.2
3 -13 -12 4.8 10.1
13 -10 -12 10.4 12.5
3 -13 -12 0.1 13.2
10 3 -12 1.7 10.3
10 -13 -12 5.2 10.7
13 -3 -12 4 12.4
10 -13 -12 -1.5 11.2
3 10 -12 2.9 12.4
-2 13 -12 14.4 11.9
13 -11 -12 9.4 12.9
2 -13 -12 -1.7 12.8
11 2 -12 3.8 7.9
11 -13 -12 20.4 11.4
2 11 -12 3.1 13.5
13 -2 -12 -0.6 12.2
11 -13 -12 8.1 8.4
13 -12 -12 5.9 12.7
-1 13 -12 -1.2 11.8
12 -13 -12 3.9 10.8
1 12 -12 -6 13.5
13 -13 -12 14.6 11.9
0 13 -12 6.4 11.9
7 7 -12 44.8 12
14 -7 -12 53.79 13.6
7 -14 -12 91.29 14.1
7 -14 -12 95.39 13.6
8 6 -12 17 10.5
14 -8 -12 29.4 13.1
6 -14 -12 26.4 12
6 -14 -12 31.2 12.7
14 -6 -12 10.8 12.8
6 8 -12 15 11.6
8 -14 -12 11.4 11.4
8 -14 -12 13.7 11.6
5 -14 -12 17.1 11.4
5 -14 -12 20.1 13.5
9 5 -12 13.1 10.3
14 -9 -12 9.5 12.5
9 -14 -12 17.2 11.4
5 9 -12 11.6 11.8
9 -14 -12 20.3 11.5
14 -5 -12 13.4 13
14 -10 -12 17.9 12.9
4 -14 -12 22.3 11.6
4 -14 -12 27.1 12.1
10 4 -12 13.4 9.1
-4 14 -12 13.1 8.8
4 10 -12 12.6 12.6
14 -4 -12 13.8 12.9
10 -14 -12 17.1 11.1
10 -14 -12 15.7 12.5
3 -14 -12 0.4 10.1
3 -14 -12 -3.9 11.8
14 -11 -12 -0.8 11.2
11 3 -12 1.8 6.4
-3 14 -12 1.9 9.8
3 11 -12 -3.2 12
11 -14 -12 -5.1 10.8
11 -14 -12 8.9 8.2
14 -3 -12 11.8 12.8
14 -12 -12 16.2 11.8
-2 14 -12 3 10.1
2 -14 -12 2.1 8.6
2 12 -12 14.6 12.6
14 -2 -12 -0.5 10.7
12 -14 -12 3.2 10.2
-1 14 -12 -1.7 10.4
14 -13 -12 -3.5 10.4
13 -14 -12 0.6 9.7
1 13 -12 -8.4 11.3
14 -14 -12 21.4 9.9
0 14 -12 6.5 10.8
7 -15 -12 34.4 12.2
15 -8 -12 30.4 12.3
8 7 -12 15.4 10.3
7 -15 -12 21.3 11.5
8 -15 -12 41.3 11.8
8 -15 -12 32.7 11.2
7 8 -12 -1.6 10.4
15 -7 -12 12.4 11.8
6 -15 -12 42.8 12.3
15 -9 -12 51.09 12.6
9 6 -12 32.6 10.5
6 -15 -12 68.19 12.3
9 -15 -12 38.5 11.7
15 -6 -12 32.5 12.6
6 9 -12 22.4 11.3
9 -15 -12 56.79 12.5
15 -10 -12 10.7 11.7
10 5 -12 2.4 8.7
5 -15 -12 16.9 11
5 10 -12 9 11.6
10 -15 -12 21.2 10.8
15 -5 -12 18.5 12.2
10 -15 -12 11.3 11.4
-4 15 -12 10.9 7.5
15 -11 -12 7.1 11.1
11 4 -12 0.1 6.2
4 -15 -12 19.5 10.9
15 -4 -12 3.8 12.1
11 -15 -12 4.5 7.3
11 -15 -12 12.9 10.2
4 11 -12 3 11.6
15 -12 -12 17.8 11.8
-3 15 -12 7.3 8.5
3 -15 -12 18.4 10.4
15 -3 -12 3.8 11.6
12 -15 -12 5.8 10.1
3 12 -12 -5.5 11.3
2 -15 -12 -0.1 9.5
15 -13 -12 1.6 10.4
-2 15 -12 12.7 9
15 -2 -12 1.8 10.9
13 -15 -12 8.5 9.4
2 13 -12 0.6 10.7
15 -14 -12 12 9.2
-1 15 -12 10.8 9.9
14 -15 -12 12.8 9.6
1 14 -12 18.5 10.7
0 15 -12 0.9 9.7
15 -15 -12 10.9 9.4
8 8 -12 20.2 9.9
16 -8 -12 34.9 12.1
8 -16 -12 43.5 11.6
9 7 -12 13.5 8.5
16 -9 -12 9.9 10.7
7 -16 -12 17.4 10
16 -7 -12 1.5 10.5
7 9 -12 -2.8 9.6
9 -16 -12 18 10.7
6 -16 -12 -6.1 9.9
16 -10 -12 0.4 10.4
10 6 -12 9.5 8
6 10 -12 -4 9.5
10 -16 -12 10 10.2
16 -6 -12 -6.5 10.4
5 -16 -12 4.9 10
16 -11 -12 4.7 10.4
16 -5 -12 4 11
5 11 -12 6 10.4
11 -16 -12 -2.4 9.7
16 -12 -12 6.7 10.3
4 -16 -12 1.9 9.6
12 -16 -12 2.1 9
4 12 -12 -3.4 9.9
16 -4 -12 -2.4 10.6
3 -16 -12 3.7 7.8
16 -13 -12 0.2 10.6
-3 16 -12 13.4 7.4
13 -16 -12 5.2 9.1
16 -3 -12 6.6 9.8
3 13 -12 -14.3 9.8
-2 16 -12 3.3 8.8
16 -14 -12 -4.4 9.7
14 -16 -12 3 8.9
2 14 -12 5.4 10.2
16 -15 -12 2.4 8.8
-1 16 -12 -10.8 9.2
15 -16 -12 -5.1 9.1
1 15 -12 2.1 9.7
16 -16 -12 12.7 9.6
0 16 -12 20.6 10
17 -9 -12 -8.8 10.3
8 -17 -12 12.6 10.3
9 8 -12 2.4 8.2
17 -8 -12 1.9 10.4
9 -17 -12 4.1 9.6
8 9 -12 3.8 7.8
17 -10 -12 -2.4 10.2
10 7 -12 1.7 6
7 -17 -12 7.3 10.1
7 10 -12 4.4 8
17 -7 -12 6.6 10.6
10 -17 -12 -4.4 9.1
6 -17 -12 11.8 10
17 -11 -12 11.5 10.2
17 -6 -12 8 10.3
11 -17 -12 15.4 9.8
6 11 -12 -4.9 9
17 -12 -12 3.8 9.6
5 -17 -12 6.4 9.7
12 -17 -12 15.9 9.7
17 -5 -12 7.6 10.3
5 12 -12 -4.9 9.2
4 -17 -12 4.2 8
17 -13 -12 7.5 10.7
4 13 -12 3.6 9.5
17 -4 -12 2 8.7
13 -17 -12 5.1 9.4
17 -14 -12 -2.1 10.5
14 -17 -12 7.7 9.5
3 14 -12 1.1 10.2
-2 17 -12 2.6 5.4
17 -15 -12 9.2 9.6
15 -17 -12 2.7 8.6
2 15 -12 3.1 10.6
9 -18 -12 8.4 9.9
18 -9 -12 -3.1 10.6
9 9 -12 -0.5 6
8 -18 -12 8.8 10.7
18 -10 -12 10.4 10.7
8 10 -12 3.8 7.9
10 -18 -12 5 9.4
18 -8 -12 0.5 10.2
7 -18 -12 27.8 10.4
18 -11 -12 5.5 10.5
11 -18 -12 12.9 9.6
18 -7 -12 5.5 10.1
7 11 -12 -4 8.8
18 -12 -12 7.2 11
6 -18 -12 -1 9.4
6 12 -12 8.1 9.6
18 -6 -12 0.8 10
12 -18 -12 -4.1 9.3
18 -13 -12 7.1 11
5 -18 -12 2.3 7.2
18 -5 -12 -0.5 7.6
13 -18 -12 10.6 9.9
5 13 -12 2.1 10.5
18 -14 -12 15 11.2
14 -18 -12 10.5 9.8
4 14 -12 -10.5 10.1
0 0 -13 16.6 16.3
0 0 -13 4.4 12.2
0 0 13 2.9 11
0 -1 -13 25.3 13.1
1 0 -13 18.4 13.6
1 -1 -13 9.8 15.9
1 -1 13 11.6 11.7
1 0 13 16.1 11.7
-1 0 -13 18.9 13.5
-1 1 -13 8.3 12.9
-1 0 13 16 12.4
0 1 -13 4.9 15.3
-1 1 13 16 11.8
0 -1 -13 20.9 17
0 -1 13 16.3 11.7
-1 1 -13 24.9 17.1
0 1 13 11.4 11
1 -1 -13 22.4 13.9
1 0 -13 16.9 16.2
0 1 -13 18.8 14.7
-1 0 -13 22.8 17.2
1 -2 -13 36.4 14.1
2 -1 13 23.7 12.1
-1 2 -13 26.4 16.8
1 -2 13 21.5 12.6
-2 1 -13 11.2 11.1
-2 1 -13 33.6 17.7
-2 1 13 31.4 14.1
1 1 13 34.8 12.2
-1 2 -13 24.2 15
1 -2 -13 42.3 16.6
2 -1 -13 36.8 14
1 1 -13 37 16.7
-1 -1 -13 29.8 16.8
-1 2 13 33.9 13.6
2 -1 -13 37.8 15.8
1 1 -13 35.8 15.2
-1 -1 13 36.3 14
-1 -1 -13 23.9 13.1
2 0 -13 19.5 16.1
-2 2 13 0.1 12.9
0 -2 -13 10.2 16.2
2 -2 13 2 11.2
2 -2 -13 6.5 13.6
0 -2 -13 1.8 12.2
2 0 -13 18.5 12.7
-2 0 -13 9.9 10.7
-2 2 -13 6.7 11.5
-2 0 -13 2.3 16.1
0 2 -13 9.3 12.9
2 0 13 2.5 10.8
0 2 13 9.5 11.9
0 2 -13 4.1 16.4
0 -2 13 12.6 12.3
2 -2 -13 -2 15
-2 0 13 3 13.1
-2 2 -13 10.1 16.6
3 -2 -13 19.3 13.4
1 -3 -13 24.8 15.4
2 1 -13 29 14.2
-2 -1 -13 11.3 10.7
-2 3 13 14.2 12.2
-1 3 -13 25.6 13.4
-1 -2 13 18.1 14
-3 1 13 6 11.8
-2 -1 -13 22.2 17.2
3 -2 -13 8.5 15.3
-1 3 -13 31.1 17.5
2 -3 13 19.2 12.5
-2 3 13 26.8 12.1
1 2 13 26.5 12.1
3 -1 13 18.3 11.2
2 1 -13 18.2 16.4
-3 2 -13 0.5 15.4
1 -3 -13 33 13.5
2 -3 -13 36.4 13.3
1 2 -13 23.6 16.9
3 -1 -13 30.9 13
3 -1 -13 28.8 16.6
1 2 -13 32.8 13.2
-3 2 13 14.5 10.6
-3 1 -13 10.9 15.1
3 -2 13 28 11.8
2 -3 -13 24.9 16
1 -3 13 29.7 13.3
-1 3 13 22.1 12.2
2 1 13 24 12.2
-1 -2 -13 37.2 17.5
-3 2 13 14.9 12.2
-2 -1 13 21.3 14
-1 -2 -13 23.2 12.7
-2 3 -13 27.8 12.6
-2 3 -13 25 17.1
-3 3 13 41.1 13.6
0 3 13 39.7 13.3
3 -3 -13 73.19 14.6
0 3 -13 59.49 19
0 -3 13 30.2 13.3
3 0 -13 38.9 16.5
-3 3 -13 17.5 15.9
-3 0 -13 13.3 15.1
0 3 -13 58.39 14.7
3 0 13 45.9 13.1
-3 3 13 30.7 12.2
-3 0 13 41.1 14.7
0 -3 -13 41 12.1
3 0 -13 68.29 15.1
3 -3 -13 35.2 16.4
3 -3 13 58.19 14.1
2 -4 -13 17.4 15.4
-4 2 13 14.4 13.8
-2 -2 13 -1.3 13.5
-2 4 -13 30.6 13.6
2 2 -13 27.3 16.6
4 -2 -13 35.9 16
2 2 -13 19.6 13.8
-2 4 13 17.9 12.6
-4 2 13 -5.1 12.4
-2 -2 -13 12.1 11.4
4 -2 13 13.9 11.1
2 -4 -13 17.1 13
-2 4 -13 12.5 16.5
2 2 13 11.9 11.8
2 -4 13 9.9 12
-2 4 13 16.8 12.4
4 -2 -13 21.7 13.7
4 -3 -13 19.6 15.8
-1 4 -13 8.7 13
4 -3 -13 21.9 12.1
4 -1 13 9.6 10.9
-3 -1 -13 2.9 9.3
1 -4 -13 17.8 12.6
3 1 -13 15.1 15.5
1 3 13 11.3 11.3
-3 4 13 17.9 12.6
3 1 -13 16.6 14.5
-1 4 -13 21.8 17.6
-4 1 13 -6.4 12.7
-3 4 13 13.3 12.2
3 -4 13 15.4 12.5
-1 -3 13 6.7 13.5
-4 3 13 1.5 10.2
4 -1 -13 18.2 13.1
-1 4 13 14.8 12.7
-1 4 13 16.9 12.6
3 -4 -13 12.9 13.1
4 -3 13 1.3 10.8
1 3 -13 34.8 17.2
4 -1 -13 21.4 15.2
-3 -1 13 10.5 14.2
1 -4 13 8.1 13.1
1 3 -13 28.5 14
3 1 13 8.8 10.4
-3 4 -13 5 11.2
-4 3 13 6 13.6
-1 -3 -13 14.8 11.8
-3 4 -13 1.7 15.1
3 -4 -13 18.2 15
4 -4 13 15.2 12.3
4 0 13 13.4 11
0 4 -13 16.7 17.1
4 0 -13 30.2 15.9
0 -4 -13 21.4 13
-4 4 13 14.9 11.8
4 -4 -13 17.4 15.1
0 4 13 19.7 13
0 4 -13 19.1 12.9
0 4 13 18.1 12.1
-4 0 13 10.6 14.4
-4 4 13 8 12.4
4 -4 -13 27.7 12.3
4 0 -13 17 13.8
0 -4 13 8.5 13.1
5 -3 -13 68.89 13.7
-2 5 -13 46.6 17.7
-3 5 13 34.4 13.8
2 3 13 59.89 13.7
2 -5 -13 100.69 14.4
5 -3 -13 77.29 17.8
-5 2 13 30.1 15.7
-2 5 -13 79.59 14.8
-2 -3 13 44.5 14.2
-3 5 13 46.1 13.5
3 -5 13 65.49 14.3
3 2 -13 63.19 17.3
5 -2 13 65.29 13.1
3 2 -13 81.79 15.4
-2 5 13 71.39 15.1
-2 5 13 52.09 14.5
-5 3 13 38.6 15.2
5 -2 -13 77.99 18.1
-2 -3 -13 65.09 13.7
5 -3 13 65.49 13.6
2 -5 13 51.89 14
2 3 -13 83.89 15.1
2 3 -13 81.09 19
3 2 13 62.09 13.6
3 -5 -13 90.99 14.3
5 -2 -13 88.29 15.5
-1 -4 13 -16.7 12.1
-5 1 13 -0.8 14.2
4 -5 13 5.4 12.5
4 1 -13 6.6 15.4
5 -4 -13 17.3 12.3
1 4 13 9.9 12.3
4 1 -13 5.5 13.3
-4 5 13 -3.8 12.8
-1 5 -13 25 14.1
-1 5 -13 15.1 16.5
5 -1 13 3.7 10.7
1 4 13 16.7 11.4
-4 5 13 -6 11.5
1 -5 -13 8.8 12
5 -4 -13 7.3 14.5
-1 5 13 3.5 11.8
-5 4 13 -11.1 9.2
-1 -4 -13 -1.9 13
-5 4 13 0.4 14.3
4 1 13 12.4 11
5 -1 -13 9.3 12
1 -5 13 -11.3 11.3
1 4 -13 4.1 15.6
-1 5 13 -15.5 12.4
-4 -1 13 -17.4 13.8
4 -5 -13 16.9 11.6
5 -1 -13 1.8 15
1 4 -13 13.7 14.1
5 -4 13 -0.8 11.5
5 -5 -13 25.3 12
5 0 -13 15.6 16.2
5 0 -13 21.6 12.5
0 5 13 8.1 12.9
0 -5 -13 10.6 12.7
5 -5 13 26.5 12.4
-5 5 13 -9.6 10.3
0 5 -13 11.3 16.3
-5 0 13 -8.1 14.3
-5 5 13 2.2 12.8
5 0 13 12.4 10.7
0 -5 13 -18.4 10.6
0 5 -13 14.5 14.1
5 -5 -13 17.1 15.2
0 5 13 11.7 11.1
3 3 -13 14.1 16.1
3 3 -13 16.3 13
-3 6 13 -4.7 13.6
-3 6 13 1.9 12.1
-3 6 -13 5.8 10.6
3 -6 -13 27.4 12.3
6 -3 -13 29.7 16.4
-3 6 -13 -1.4 15.9
3 3 13 1.5 10.7
-3 -3 -13 15.3 10
3 -6 13 -10.9 10.3
6 -3 13 12.7 10.2
6 -3 -13 16.2 12.7
-6 3 13 -17.4 13.8
2 4 13 36.3 12
4 2 -13 39.3 16.8
2 -6 -13 35.2 12.6
-6 2 13 10.9 14.9
-2 6 -13 35.3 13
6 -4 -13 26 15.2
4 2 -13 19.6 12.8
6 -2 13 26 10.9
4 -6 13 23.7 11.8
-4 6 13 17.5 14.6
2 4 13 33.7 12.9
6 -4 -13 37.7 12.2
-4 6 13 21.4 13.4
-2 6 -13 18.1 15.9
6 -2 -13 42.7 15.7
6 -4 13 44.4 12.3
6 -2 -13 45.8 12.9
-2 6 13 28.5 13.1
4 2 13 26.7 12.3
2 4 -13 58.19 14.7
4 -6 -13 45.7 11.7
-4 -2 13 -8.2 13.9
2 -6 13 -3.7 10.4
-6 4 13 -2.3 14
-2 6 13 2.7 12.3
-2 -4 -13 24.9 12.2
2 4 -13 29.7 16.3
6 -1 13 12.2 10.1
5 -6 13 18.6 11.6
6 -5 -13 18.5 14.7
5 1 -13 15.7 11.8
1 5 13 19.2 11.5
1 5 13 4.4 11.6
-5 6 13 2.1 13.3
-1 6 -13 19.9 17.4
5 1 -13 21.3 16.7
-6 1 13 -8.8 14.5
6 -5 -13 29.3 11.8
-5 6 13 8.1 12.5
1 -6 -13 14.9 13.1
-1 6 -13 14.6 13.3
5 -6 -13 34.4 11.7
6 -5 13 16.9 10.7
-6 5 13 10.3 15.1
-1 6 13 -8.1 11.8
1 5 -13 27.3 16.6
1 5 -13 28.9 12.7
6 -1 -13 19.8 14.7
5 1 13 25.7 11.3
6 -1 -13 24.7 13
-5 -1 13 -5.6 14.3
-1 6 13 12.8 12
-1 -5 -13 36.9 13.1
0 6 -13 36.5 14.4
6 0 -13 28.7 15.7
6 0 13 24.9 11.1
0 6 -13 14.2 15.9
-6 0 13 -14.9 15.1
-6 6 13 5 14.4
0 6 13 38.7 13.3
6 -6 -13 51.29 12
6 -6 13 31 12
0 -6 -13 28.6 12.2
6 0 -13 38.8 13.1
-3 7 -13 3.4 10.3
4 3 -13 1.1 15.2
7 -4 -13 2.8 12.1
7 -3 13 3.5 10.3
3 -7 -13 2.3 11.4
7 -4 -13 5.1 15.1
4 3 -13 2.5 13.3
3 4 13 0.3 9.9
-4 7 13 -15.2 12.1
-4 7 13 -28.7 12.7
-7 3 13 -7.3 15.4
3 4 13 3.8 11
-3 -4 -13 4.2 10.5
7 -3 -13 24.7 11.9
3 4 -13 10.4 15.8
-3 7 13 1.5 12.5
7 -3 -13 17.9 15.4
4 3 13 3.6 10
4 -7 -13 -0.5 11.9
3 4 -13 15.8 13.5
-7 4 13 -18.5 15.5
7 -4 13 12 11.1
5 -7 13 4.1 10
-2 7 -13 5 15.4
2 -7 -13 31.7 13.1
5 2 -13 23.8 15.7
5 2 -13 20.9 12.6
2 5 13 19.6 11
-5 7 13 4.5 15
7 -5 -13 46.3 16.4
2 5 13 -2.9 11
-2 7 -13 16 12.9
7 -2 13 25.5 11.4
7 -5 -13 24.6 11.7
-5 7 13 3.3 13.2
-7 2 13 -1.9 15.9
7 -2 -13 24.1 15.5
-2 -5 -13 24 12.9
2 5 -13 32 16.6
7 -2 -13 22.3 12.4
5 -7 -13 33.8 11.8
5 2 13 20.3 10.9
-7 5 13 -4 15.3
2 5 -13 43.6 14.2
-2 7 13 18.1 12.5
7 -5 13 12.3 11.4
-7 1 13 -23.8 15.4
-6 7 13 -20.9 11.1
-1 7 -13 3.4 15.4
6 1 -13 14.2 16
6 -7 13 -2.2 9.8
-6 7 13 -14.8 14.7
6 1 -13 5.2 11.5
1 -7 -13 13.4 12.8
7 -6 -13 15.5 10.7
1 6 13 9.3 11.7
-1 7 -13 2.9 13.3
7 -1 13 2.5 10.1
1 6 -13 5.4 15.8
-1 -6 -13 12.9 13.5
6 1 13 11.7 9.9
7 -1 -13 13.5 12.6
7 -1 -13 8.8 14.6
6 -7 -13 2.8 11
7 -6 13 8.2 11.1
-1 7 13 7.5 12.1
-7 6 13 -15.7 15.3
1 6 -13 25.5 12.7
7 -7 -13 13.9 10.8
0 7 -13 31.8 14.5
7 0 -13 31.2 12.6
7 0 -13 36.1 16.2
7 -7 13 7 9.4
-7 7 13 -7.4 15.5
0 -7 -13 35.7 13.8
0 7 13 16.7 11.6
7 0 13 19.2 10.5
0 7 -13 20.6 16.2
4 4 13 16.7 11.4
-8 4 13 -25.6 15.3
-4 8 13 -0.7 13.7
4 4 -13 15.9 13.4
8 -4 -13 17.5 12.5
8 -4 -13 12.9 14.9
8 -4 13 22 10.9
4 -8 -13 26 12.9
4 4 -13 18.5 16
8 -5 -13 18.5 14.6
5 3 -13 26.8 15.7
3 5 13 17.7 11.5
8 -3 13 16.6 10.1
-8 3 13 -16.3 14.9
-3 8 -13 39.9 11.7
3 -8 -13 37.3 13.8
5 3 -13 21 13
8 -5 -13 31.6 11.4
-5 8 13 0.4 13.3
8 -5 13 11.8 10.2
-8 5 13 -16.1 15.4
3 5 -13 33.2 13.8
8 -3 -13 27.4 15.4
5 3 13 6.9 10.9
-3 8 13 9.2 13
3 5 -13 23.2 15.6
8 -3 -13 39.3 12
-3 -5 -13 28.6 12.2
5 -8 -13 26.7 11.6
6 2 -13 36.2 15.9
8 -6 -13 55.09 12.1
-2 8 -13 -0.8 22.5
6 2 -13 28.4 12.5
8 -2 13 34.7 11.7
2 6 13 23.9 11.4
2 -8 -13 39.6 13.5
-2 8 -13 43.2 13.2
2 6 -13 57.19 15
-8 6 13 0.1 14.7
-2 8 13 33 13.9
2 6 -13 33 16.7
8 -6 13 33.6 12.3
-2 -6 -13 42.2 13
6 -8 -13 36.8 11.7
8 -2 -13 29.3 14.7
8 -2 -13 42.7 12.4
7 1 -13 8.6 12.9
-1 8 -13 2.7 14.4
-8 1 13 -20.7 13.6
7 1 -13 16.8 15.2
8 -1 13 9.9 10
8 -7 -13 32 11.6
-1 8 -13 8.8 12.7
1 -8 -13 9.6 11.9
1 7 13 3.2 11.2
8 -7 13 6.7 10
1 7 -13 11.7 15.9
8 -1 -13 17.4 11.5
8 -1 -13 5.7 13.4
-1 8 13 0.6 11.8
7 1 13 0.3 7.9
-1 -7 -13 7.8 13.3
7 -8 -13 -2.9 9.7
-8 7 13 -21.7 14.2
1 7 -13 15.1 14.2
0 -8 -13 6.7 12.3
8 0 13 2.7 7.9
-8 8 13 -27 12.4
0 8 -13 -8.2 12.8
8 -8 -13 8.6 11.5
8 0 -13 0.4 12.9
8 0 -13 2.6 12.6
0 8 -13 -2.1 15.4
0 8 13 -6.4 11.4
9 -5 -13 74.39 13.2
5 4 -13 53.39 16.8
-9 4 13 14.6 15.9
5 4 -13 73.39 14.4
4 -9 -13 76.09 13.5
9 -4 13 49.4 12.2
-5 9 13 29.4 14.2
9 -5 13 60.09 12.7
9 -4 -13 0.8 24.3
9 -4 -13 58.69 12.4
-9 5 13 36.1 16.2
-4 9 13 39.8 14.8
4 5 -13 30.4 15.9
4 5 -13 61.49 14.3
-4 -5 -13 10.5 10.2
6 3 -13 27.2 12.3
-9 3 13 8.3 14.5
3 6 13 2.6 9.9
9 -3 13 11 10.4
9 -6 -13 31.8 11.2
3 -9 -13 33.7 12.9
-3 9 -13 36.4 11.4
6 3 -13 12.9 14.5
-6 9 13 3.6 11.7
6 -9 -13 32.2 11.3
6 3 13 -0.4 8
9 -3 -13 40.3 12.6
-3 9 13 10.6 13.5
3 6 -13 35.5 13.1
3 6 -13 36.5 17.6
-3 -6 -13 22.3 12.2
9 -6 13 14 10.5
-9 6 13 7.5 15
7 2 -13 19.4 14.3
2 -9 -13 24.3 12.4
9 -7 -13 20.2 11.3
9 -2 13 8.1 9.4
-9 2 13 -15.9 12.7
-2 9 -13 18.5 11.6
7 2 -13 24.7 12.2
9 -7 13 3 8.9
-9 7 13 -9.5 13.8
-2 9 13 -4.9 12.4
2 7 -13 19.5 16.6
2 7 -13 14.4 13.1
-2 -7 -13 16.3 13.4
7 -9 -13 19.4 11.9
9 -2 -13 19.1 12.1
-1 9 -13 47 14
9 -8 -13 66.59 12.5
1 -9 -13 46.1 13.9
8 1 -13 0.8 18
8 1 -13 34.3 11.6
1 8 -13 49.9 13.7
1 8 -13 13.4 15.7
9 -1 -13 40.8 12
-1 9 13 -5.5 11.7
-1 -8 -13 44 14.5
-9 8 13 -15.1 12
8 -9 -13 47.7 11.9
0 -9 -13 16.1 13.9
0 9 -13 9 13.2
9 0 -13 14.5 12.1
9 -9 -13 29.4 11.5
5 5 -13 36 15.6
-5 10 13 5.5 12.2
5 5 -13 27.5 12.5
-10 5 13 13.2 14.6
10 -5 -13 60.19 11
10 -5 13 22.4 10.5
5 -10 -13 67.79 13.2
-6 10 13 13.9 11.7
-10 4 13 -14.8 13.1
4 -10 -13 37.3 13.5
10 -4 13 16.3 10.3
6 4 -13 15 11.6
10 -6 -13 33 11.2
-4 10 -13 11.2 8.5
6 4 -13 10.6 14
-4 10 13 0 12.4
-10 6 13 -2.4 13.6
4 6 -13 25.2 12.2
10 -6 13 7 9.9
-4 -6 -13 21.1 9.4
4 6 -13 10.3 15.7
10 -4 -13 32.7 11.2
6 -10 -13 35.2 13.1
3 -10 -13 59.79 14.4
-3 10 -13 43.2 12
10 -7 -13 45.4 11.7
7 3 -13 35.9 12.6
7 -10 -13 50.49 12.8
10 -7 13 9.8 8.9
10 -3 -13 42.1 11.7
-3 -7 -13 23.6 13.1
3 7 -13 29 13.5
3 7 -13 20.7 15.9
-10 7 13 -9.8 12.6
-3 10 13 -1.8 11.6
8 2 -13 15.8 10.8
10 -2 13 9.5 9.9
10 -8 -13 16 9.8
-2 10 -13 7.3 11.3
2 -10 -13 13.1 13.4
-2 10 13 -8.8 10.6
8 -10 -13 15.4 10.9
-2 -8 -13 1 12.1
2 8 -13 -2 14.7
10 -2 -13 24.9 11.1
2 8 -13 6.4 13.1
10 -9 -13 -1.5 10.8
1 -10 -13 -10.1 11.8
-1 10 -13 -4.9 12.5
10 -9 -13 11.1 10.6
9 1 -13 1.2 11.7
9 -10 -13 12.4 10.8
1 9 -13 -7.5 12.2
10 -1 -13 6.7 11.5
-1 -9 -13 5.7 13.3
9 -10 -13 -3.3 9.7
0 -10 -13 45.4 13
10 0 -13 24.4 10.6
0 10 -13 31.5 12.9
10 -10 -13 35.8 12.6
10 -10 -13 42.6 11
6 5 -13 17.8 12.4
11 -6 -13 35.1 9.5
11 -5 13 7.9 8.6
5 -11 -13 30.7 11.9
5 6 -13 -1.1 13.7
11 -6 13 8.7 8.8
6 -11 -13 33.7 12.2
5 6 -13 25.7 12.8
11 -5 -13 29.7 10
-5 11 13 8.2 11.1
-4 11 -13 8.1 8.6
4 -11 -13 44.7 12.8
7 4 -13 26.3 11.5
11 -7 -13 34.5 10.1
11 -4 13 8.4 9.4
4 7 -13 32.2 12.3
11 -4 -13 33.6 10.1
7 -11 -13 48.6 12.2
-4 -7 -13 24 10.3
-4 11 13 9.6 10.7
4 7 -13 -1 14.5
3 -11 -13 -3.1 12.3
8 3 -13 6.7 11.2
-3 11 -13 5.6 10.5
11 -8 -13 -2.5 10.2
11 -8 -13 9.3 9.2
-3 11 13 12.2 13.9
8 -11 -13 13 10.5
11 -3 -13 11.6 9.8
-3 -8 -13 -4.3 11.7
8 -11 -13 1.6 9.6
3 8 -13 -4.9 12.6
11 -9 -13 34.7 9.6
2 -11 -13 28.8 12.5
9 2 -13 29.3 11.3
11 -9 -13 16 12.2
-2 11 -13 19.2 11
9 -11 -13 29.9 11.4
11 -2 -13 28.6 9.8
-2 -9 -13 11.8 12.8
2 9 -13 27.9 12.8
9 -11 -13 27.5 11.2
-1 11 -13 36.4 12.6
10 1 -13 16.3 10.1
1 -11 -13 24.4 12.9
11 -10 -13 37.8 9.7
11 -10 -13 29.7 12.4
10 -11 -13 15.6 11.1
-1 -10 -13 16.1 13.7
11 -1 -13 25.4 9.6
1 10 -13 12.7 13.1
10 -11 -13 31.6 10.5
0 -11 -13 -6 12.2
11 -11 -13 31 9.5
11 0 -13 20.1 9
0 11 -13 16.9 12.7
11 -11 -13 37.8 11.4
6 6 -13 9 12
6 -12 -13 12.2 11.3
7 5 -13 -2.1 10.9
5 -12 -13 6.6 11.9
12 -7 -13 1.7 10.3
7 -12 -13 -3.5 9.9
7 -12 -13 4.1 10.9
5 7 -13 -4.4 11.6
12 -8 -13 14.9 11.3
8 4 -13 14.3 10
-4 12 -13 4.3 8
4 -12 -13 24.5 13.4
4 8 -13 11.7 11.3
8 -12 -13 35.9 11.8
8 -12 -13 23.8 11.2
-4 -8 -13 15.6 10.5
9 3 -13 23.5 10.2
3 -12 -13 42.8 13.9
12 -9 -13 24.9 12.2
-3 12 -13 19.7 10.1
-3 -9 -13 13.8 12
9 -12 -13 41.1 12.3
9 -12 -13 55.29 12.7
3 9 -13 23.1 12.1
-2 12 -13 16.2 10.5
12 -10 -13 21 11.9
2 -12 -13 13.5 12.3
10 2 -13 11.7 9.8
10 -12 -13 20.1 11.2
2 10 -13 7.3 12.6
-2 -10 -13 9.2 11.5
10 -12 -13 24.1 10.9
-1 12 -13 15.3 11.4
11 1 -13 26.8 8.2
1 -12 -13 25.2 12.9
12 -11 -13 19 11.6
1 11 -13 26.4 11.9
11 -12 -13 18.9 10.7
11 -12 -13 22.9 8.5
-1 -11 -13 11.6 12.2
0 12 -13 9 11.3
12 -12 -13 21.9 10
13 -7 -13 5.4 10.5
6 -13 -13 -1.4 11.4
7 6 -13 4.6 10.2
6 -13 -13 -0.1 8.8
6 7 -13 -1 10.7
13 -6 -13 -1.3 9.7
7 -13 -13 11.8 9.8
7 -13 -13 10.1 11.2
13 -8 -13 3.2 11.1
5 -13 -13 11.7 11.3
8 5 -13 4.1 9.5
5 8 -13 -6.7 11.2
8 -13 -13 17.1 10.7
8 -13 -13 21.4 11
4 -13 -13 14.7 11.9
13 -9 -13 10.4 11.2
9 4 -13 -1.4 9.3
-4 13 -13 -0.4 7.1
4 9 -13 -1.5 11.2
9 -13 -13 2.5 10.8
9 -13 -13 7.6 10.9
3 -13 -13 -5.9 11.3
10 3 -13 11.1 9.7
13 -10 -13 12.6 11.1
-3 13 -13 8.3 9.2
10 -13 -13 2.8 9.8
3 10 -13 7.1 11.6
10 -13 -13 7 10.6
2 -13 -13 -1.7 11.5
11 2 -13 5.4 6.4
13 -11 -13 -1.7 10.4
-2 13 -13 4.3 9.4
11 -13 -13 8.9 7.7
11 -13 -13 2.9 9.5
2 11 -13 -2.6 11.2
13 -12 -13 8.8 9.3
-1 13 -13 -5.3 9.8
1 12 -13 6.9 10.2
12 -13 -13 5.4 9
13 -13 -13 10.1 8.8
0 13 -13 15.9 10.3
7 7 -13 1 9.5
14 -7 -13 -1.6 10.3
7 -14 -13 -3.9 9.9
7 -14 -13 9.9 10
8 6 -13 4.9 9.2
6 -14 -13 0.6 10.9
14 -8 -13 3.8 10.7
6 -14 -13 -2.4 8.3
6 8 -13 -0.2 9.9
8 -14 -13 10.1 10.6
14 -6 -13 0.4 9.3
8 -14 -13 4.8 10.1
9 5 -13 8 8.7
14 -9 -13 8.9 10.4
5 -14 -13 4.7 11.2
9 -14 -13 7.3 9.8
9 -14 -13 5.4 9.9
5 9 -13 1.7 10.6
4 -14 -13 11.8 11.2
-4 14 -13 4.4 13.2
14 -10 -13 11.6 10.4
10 4 -13 11 8.7
10 -14 -13 7.2 9.8
4 10 -13 -3.8 10.7
10 -14 -13 11.9 9.8
11 3 -13 1.5 6.8
14 -11 -13 10.2 10.1
-3 14 -13 5.1 7.7
3 11 -13 13.1 10.7
11 -14 -13 7.8 6.6
11 -14 -13 13.4 9.8
-2 14 -13 -4.4 7.9
14 -12 -13 14.5 9.9
2 12 -13 6.8 10.6
12 -14 -13 9.8 9.2
-1 14 -13 2.9 9.5
14 -13 -13 5.2 8.8
13 -14 -13 4.6 8.9
1 13 -13 6.1 9.5
14 -14 -13 3.8 8.8
0 14 -13 2.2 10
7 -15 -13 9.8 9.9
15 -8 -13 8 10
7 -15 -13 2.8 9
8 7 -13 -2.2 8.4
7 8 -13 2.3 8.9
15 -7 -13 6.6 9.5
8 -15 -13 8.7 9.1
8 -15 -13 8.7 9.2
6 -15 -13 0.9 8.7
15 -9 -13 16.4 10
9 6 -13 1.4 8.4
9 -15 -13 4.9 9.4
15 -6 -13 0.3 9.1
6 9 -13 0.4 9.2
9 -15 -13 5.2 9.3
15 -10 -13 12.7 10.2
10 5 -13 7.3 7.3
10 -15 -13 -2.5 8.7
5 10 -13 -7.1 9.6
10 -15 -13 15.8 8.4
15 -11 -13 -5.4 9.9
11 -15 -13 -2.7 9.2
4 11 -13 4 10.1
15 -12 -13 -1.8 9.9
-3 15 -13 2.3 5.4
12 -15 -13 7.5 9.6
3 12 -13 4.7 10.3
15 -13 -13 5.3 8.9
-2 15 -13 6 7.5
2 13 -13 -1.2 10.3
13 -15 -13 -0.6 9.1
-1 15 -13 -0.9 8.7
15 -14 -13 1.7 9.1
14 -15 -13 1.1 9.3
1 14 -13 5.6 9.8
0 15 -13 6.7 9.2
15 -15 -13 7 9.7
8 8 -13 6.5 8.6
8 -16 -13 0.3 8.6
16 -8 -13 2.1 9.3
9 7 -13 5 7.6
7 -16 -13 -2.1 7
16 -9 -13 -0.4 9.4
9 -16 -13 6.7 8.7
7 9 -13 -1.5 8.7
16 -7 -13 -0.3 7.3
10 6 -13 0.7 4.8
16 -10 -13 10.3 10
10 -16 -13 11.3 8.9
6 10 -13 2.5 9.1
16 -11 -13 -1.6 10
5 11 -13 -7.8 9.7
11 -16 -13 -2.8 8.8
16 -12 -13 16.4 10.7
12 -16 -13 14.5 9.3
4 12 -13 11.8 10.1
16 -13 -13 0.6 9.2
3 13 -13 2 10.2
13 -16 -13 9.4 9.3
16 -14 -13 9 9.6
14 -16 -13 13.8 9.3
2 14 -13 10.9 10.1
17 -9 -13 0.2 6.9
9 8 -13 0 5.4
8 -17 -13 -0.5 8.1
17 -8 -13 -2.4 8.3
9 -17 -13 2.1 7
8 9 -13 2.2 8.3
17 -10 -13 3.2 9
7 10 -13 -1.6 9.4
10 -17 -13 4 7.9
17 -11 -13 2.4 9.9
11 -17 -13 7.9 8.7
6 11 -13 -3.5 10.1
17 -12 -13 0.5 9.5
5 12 -13 5.1 10
12 -17 -13 7.7 8.6
0 0 -14 9.8 17.3
0 0 14 -10.2 12.6
0 0 -14 0.1 12.4
1 -1 -14 17.4 16.3
-1 0 -14 18.6 16.2
0 1 -14 10 13.5
-1 1 -14 3.4 16.7
0 1 14 8 12.9
-1 0 -14 10.8 13.2
1 0 -14 19 17.2
-1 0 14 1.1 12.9
0 -1 -14 11.1 13
1 0 14 12 12.1
1 -1 14 16.9 12.3
0 1 -14 16.4 17.3
1 -1 -14 23.5 13.9
1 0 -14 26.7 13.4
0 -1 -14 16.5 16.6
0 -1 14 13.5 12.8
-1 1 14 9 13.6
-1 1 -14 6 12.7
2 -1 -14 12.7 15.7
1 -2 -14 13.4 16.6
-1 2 -14 10.9 13.5
1 1 -14 23 13.7
2 -1 -14 13.7 13.4
-2 1 14 4.6 12.7
-1 2 -14 -2 15.8
1 -2 14 1.9 12.6
-1 -1 14 -0.7 13
1 1 -14 16.3 16.2
-1 -1 -14 19.3 13.5
2 -1 14 7.3 11.9
1 1 14 6.9 11.5
-2 1 -14 4.5 12.1
-1 2 14 7.6 12.5
-2 1 -14 1.8 16.1
-1 -1 -14 3.4 16.3
-1 2 14 3.6 11.5
1 -2 -14 0.3 12
0 2 14 45.8 14.1
2 -2 -14 43.3 17.5
2 0 -14 76.99 14.9
-2 2 14 29.1 13.5
2 0 14 48.8 13.8
-2 2 14 21 11
-2 2 -14 -1.7 17.2
-2 0 14 43.7 13.9
0 -2 -14 73.79 14.6
2 0 -14 73.99 18.3
0 2 -14 42.5 17.6
0 2 -14 71.39 15.5
2 -2 -14 76.69 13.4
-2 2 -14 58.09 14.6
-2 0 -14 1.3 16.9
0 -2 14 38.5 14.8
2 -2 14 63.79 15
-2 0 -14 42.3 13.1
-1 -2 14 10.1 13.3
3 -2 -14 33 16.3
-2 3 14 19.2 12.1
3 -1 14 12.2 12.1
-1 3 -14 20.9 14
2 -3 14 8.9 12.2
3 -2 -14 19.5 13.4
1 2 14 17.4 11.9
2 1 -14 22.6 16.5
2 1 -14 23.9 12.6
-1 3 -14 7.1 16
-3 2 -14 11.5 11
-2 3 14 4.6 12.9
-3 1 14 -2.7 12.7
1 -3 -14 13.1 12.4
-2 -1 -14 8.6 12.6
1 2 -14 22.3 13.9
1 2 -14 13.8 16.6
2 -3 -14 22.3 15.6
3 -2 14 14.6 12.5
-2 3 -14 14.1 13.7
3 -1 -14 39.8 17.7
-1 -2 -14 22 12.9
-1 3 14 16.9 13.3
-3 2 14 -1.3 12.5
-2 3 -14 1.4 22.4
1 -3 14 14.4 13
2 -3 -14 21 12.4
2 1 14 19.9 12.3
3 -1 -14 38.3 13
-3 1 -14 28.8 11.6
-2 -1 14 11.7 13.6
-1 3 14 10.6 12.1
-3 3 -14 19.1 12.1
3 0 14 8.2 11
-3 0 -14 3.8 10
-3 0 14 -5 13.8
0 3 -14 16.2 16.8
0 3 14 6.7 12.6
3 -3 14 3.5 12
-3 3 14 -0.1 13.3
3 0 -14 2.2 12.8
0 3 14 4.7 11.4
-3 3 14 -7.4 10.3
3 -3 -14 7.9 11.9
0 3 -14 8.1 14.1
0 -3 14 -2.1 13.2
0 -3 -14 -2.2 12.5
3 0 -14 15.8 15.6
3 -3 -14 18.9 16.1
-2 4 14 -3 12.5
-2 -2 14 -12.8 12.6
-2 -2 -14 1.3 12.6
2 -4 14 -7.5 11.7
2 2 -14 14.2 15.9
-2 4 -14 -2.7 13.4
-2 4 14 4.5 11.5
2 2 14 2.1 11.4
4 -2 -14 9 15.7
4 -2 -14 8.7 11.2
4 -2 14 5.3 11.5
2 2 -14 20.4 14.1
2 -4 -14 -2.2 12
-4 2 14 -18.4 13.8
1 -4 -14 20.9 12.5
4 -3 -14 14.9 14.9
-3 4 14 -14.6 10.3
1 3 14 26.5 12.2
3 1 -14 31 16.4
3 1 -14 29 13.1
4 -1 14 27.9 12.3
-1 4 -14 23.4 13.9
-3 4 14 2.7 12.7
-4 1 14 8.6 14.3
-1 4 -14 8.4 15.7
1 3 14 11.5 11.6
-3 -1 -14 9.2 10.6
3 -4 14 20.6 12.2
4 -3 -14 24.9 12.4
-4 3 14 -13.4 13.8
4 -1 -14 33.2 16.5
1 3 -14 17.2 13.6
-3 4 -14 28.6 12.3
3 1 14 23.1 12.3
-1 -3 -14 26.4 13.1
3 -4 -14 27 12.3
-1 4 14 19.9 12.5
4 -3 14 27.2 12.9
-1 4 14 5.5 12.6
1 3 -14 25 17.8
4 -1 -14 30.9 12.6
-3 -1 14 -9.5 13.7
4 0 -14 2.8 15.2
-4 4 14 -2.6 13.5
-4 0 14 -24.6 14.1
4 -4 14 6 11.7
0 4 -14 6.8 13.2
4 -4 -14 0.5 15.2
0 -4 -14 4.4 12.8
4 0 14 -1.7 10.3
4 0 -14 19.1 12.7
0 4 14 -5.9 11
0 4 14 -10.5 12
0 4 -14 6 16.4
0 -4 14 -16.1 13.7
4 -4 -14 9.7 11.8
3 -5 14 -7 10.2
5 -3 -14 6.6 11.8
5 -3 -14 19.7 15.4
3 2 -14 20.3 16.2
2 -5 -14 9 12.4
5 -2 14 14.3 11.4
2 3 14 -5.5 10.4
-3 5 14 -13.9 12.2
-5 2 14 -23 13.1
3 2 -14 22.3 13.8
-3 -2 -14 1.3 9.9
-3 5 14 -10.5 11
2 3 14 -7.1 10.6
-2 5 -14 1.4 13.1
5 -2 -14 2.2 14.9
-5 3 14 -11.2 13.5
3 2 14 -2.2 10.7
-2 5 14 -1.1 11.9
-3 5 -14 10.1 12.4
5 -2 -14 24.1 13
-2 -3 -14 4.7 12
3 -5 -14 10.7 12
2 3 -14 12.1 13.6
-2 5 14 -13.6 12.4
2 3 -14 12.5 16.2
5 -3 14 9.6 11.5
1 4 14 8.9 11.8
5 -4 -14 36.6 16.7
4 1 -14 23.3 16.3
1 -5 -14 6.4 11.3
4 1 -14 38.6 12.8
4 -5 14 -2 10.2
-1 5 -14 0.8 16.4
-4 5 14 -0.5 13.9
-1 5 -14 20.1 14.8
5 -4 -14 21.8 11
-4 5 14 -11.4 14.9
-5 1 14 -20.9 14.6
1 4 14 -18.6 9.6
5 -1 14 15.5 11.7
-1 -4 -14 9.8 13.3
4 -5 -14 17.2 11.1
4 1 14 14.4 10.8
1 4 -14 15.1 16.3
1 4 -14 10.9 14.1
5 -1 -14 5.9 12.5
-1 5 14 -0.2 12
-5 4 14 -9.5 13.1
5 -1 -14 18.5 15.5
5 -4 14 1.8 11.8
5 0 14 5.8 10.4
0 5 14 -5.8 11.2
5 0 -14 23.9 15.5
5 0 -14 2.2 12.9
0 5 -14 -0.8 15.8
0 -5 -14 -5.8 12.9
0 5 -14 18.2 13.3
-5 5 14 -22.7 13.9
5 -5 14 -1.8 10.5
0 5 14 -16.3 12.3
5 -5 -14 -3.2 10.9
-3 6 -14 5.8 11.6
3 3 -14 -1.9 15.9
3 3 14 5.6 10.9
3 -6 -14 12.4 12.1
-3 6 14 -0.4 11.8
6 -3 -14 10.5 15.3
-6 3 14 -18.9 14.9
3 3 14 -3.3 8.7
-3 -3 -14 0.2 11.7
6 -3 14 8.2 11
6 -3 -14 18.3 11.1
3 3 -14 10.5 13
4 2 -14 1.8 15.1
-4 -2 -14 6.8 14.8
2 -6 -14 -8.6 12.1
2 4 14 -3.1 11
6 -2 14 5 11.2
6 -4 -14 16.4 11.8
6 -4 -14 8.4 15.3
-2 6 -14 -4 12.8
-6 2 14 -31.9 14.1
-4 6 14 -14.3 10.8
4 2 -14 0.3 12.8
-6 4 14 -31.6 14.4
6 -2 -14 15.8 15.1
2 4 -14 3 13.4
-2 6 14 -8.6 11.7
6 -2 -14 2.9 11.6
2 4 -14 3.4 15.9
4 -6 -14 7.9 11.2
-2 -4 -14 8.3 12.2
4 2 14 -4.8 8.7
6 -4 14 0.9 11.4
-4 6 -14 0.7 12.3
1 -6 -14 0.2 11.8
6 -5 -14 13.5 10.5
6 -1 14 19.1 10.8
5 1 -14 3.1 12.6
1 5 14 -1.3 11.3
5 1 -14 3.9 14.8
-1 6 -14 -5.3 12.8
6 -5 14 7.1 10.1
5 -6 -14 -2.2 11.1
6 -1 -14 7.6 14.2
1 5 -14 17.5 13.6
-1 -5 -14 5.6 13.1
6 -1 -14 6.2 11.6
1 5 -14 4.6 14.8
5 1 14 1.8 9
-6 5 14 -20.4 14.2
-1 6 14 -0.5 11.9
0 6 14 -11.3 10.7
6 0 -14 6.7 11
0 6 -14 4.1 12.8
6 0 -14 1.3 14.4
6 0 14 -3.1 8.6
0 -6 -14 3.3 12.5
6 -6 -14 6.4 10.9
0 6 -14 0.2 18.9
3 4 14 2.7 9.7
7 -3 14 13 10.4
-3 7 -14 26.8 12.2
-4 7 14 -18.7 12.1
3 -7 -14 30.6 12.3
7 -4 -14 27.6 10.8
4 3 -14 19.3 15.8
7 -4 -14 1.7 13
-7 3 14 -26.4 14.4
-4 -3 -14 6.5 10.5
4 3 -14 41.3 13.8
4 -7 -14 24.9 11.6
7 -4 14 15.6 10.6
-4 7 -14 1.9 9.9
-3 -4 -14 23.5 12.4
3 4 -14 29.4 12.8
-3 7 14 -11.8 11.5
7 -3 -14 30.6 11.6
7 -3 -14 2.5 13
4 3 14 -0.7 9.2
-7 4 14 -29.2 14.4
3 4 -14 22.2 16.1
7 -2 14 4.9 9.5
7 -5 -14 18.8 11.3
2 5 14 -0.1 9.9
5 2 -14 13.9 13.1
2 -7 -14 12.7 12
-2 7 -14 7.8 11.3
5 2 -14 7.2 14.8
7 -5 14 1.1 9
-7 5 14 -31.9 14.4
2 5 -14 8.9 13.2
5 -7 -14 2.1 10.6
-2 -5 -14 -1.2 11.8
7 -2 -14 4 13.4
2 5 -14 1 14.8
-2 7 14 -8.3 11.9
7 -2 -14 4.4 11.5
6 1 -14 -2.6 13.3
7 -6 -14 33.6 10.8
7 -1 14 0.8 7.9
-1 7 -14 12.4 13.1
1 -7 -14 39.6 12.2
6 1 -14 18.1 12.4
-1 -6 -14 26 12.9
1 6 -14 37.5 14
1 6 -14 -2.1 16.5
7 -1 -14 37.2 11.8
7 -1 -14 0.2 13.5
6 -7 -14 40.8 12.2
7 -7 -14 37.5 11.4
7 0 -14 33 12.8
0 7 -14 26.4 12.8
0 -7 -14 23.9 12.5
8 -4 -14 8.9 10.4
4 -8 -14 -0.1 11
-4 8 -14 5.6 8.9
4 4 -14 2.9 12.5
-4 8 14 -13.1 16.7
4 4 -14 0.7 13.9
8 -4 14 2.5 8.6
4 4 14 -4 12.3
-4 -4 -14 2.5 8.9
3 5 14 -4.8 10.2
8 -3 14 3.3 8.4
-8 3 14 -8.8 12.3
8 -5 -14 14.1 11.2
5 3 -14 22.3 12.9
3 -8 -14 17.4 11.8
5 3 -14 -4 13.9
-3 8 -14 8 10.9
-3 8 14 -15.7 10.5
3 5 -14 6.7 11.9
8 -3 -14 6.8 10.6
-3 -5 -14 -3 11.1
5 -8 -14 11.9 11.6
-8 5 14 -25.8 12.2
3 5 -14 0.3 14.3
8 -5 14 3.8 9.1
8 -2 14 5.8 9.3
6 2 -14 26.8 12.8
2 6 14 -8.3 15.3
2 -8 -14 4.7 11.7
-2 8 -14 13.8 12.3
6 2 -14 -1.3 21
8 -6 -14 12 10.4
6 -8 -14 22.7 12
8 -2 -14 13.3 11
-2 -6 -14 15.3 12.8
-2 8 14 -18.4 10.7
2 6 -14 0.7 17.9
2 6 -14 5.9 12.3
-8 6 14 -5.5 11.7
1 -8 -14 -0.1 12.9
7 1 -14 1 11.1
8 -7 -14 12.6 10.7
-1 8 -14 6.2 11.9
-1 -7 -14 3 12
8 -1 -14 3.1 11.5
7 -8 -14 8.1 10.8
-1 8 14 -14.4 12.3
1 7 -14 -5 11.9
0 8 -14 5.9 12.2
8 -8 -14 23.4 11.6
0 -8 -14 19.6 13.3
8 0 -14 16.5 10.8
4 -9 -14 3.6 10.8
-4 9 -14 3.5 8.5
5 4 -14 1.1 11.5
9 -5 -14 8.6 10.1
9 -4 -14 13.4 10.5
-4 -5 -14 9.1 8.6
4 5 -14 -2.4 11.5
5 -9 -14 8.5 11.2
-3 9 -14 1.3 10.1
3 -9 -14 4.2 11
9 -6 -14 8.9 9.7
6 3 -14 -10.8 11.5
-3 -6 -14 8.5 11
6 -9 -14 -3.1 11.2
3 6 -14 2.7 12.4
9 -3 -14 13.9 10.6
2 -9 -14 -0.3 12.6
7 2 -14 7.3 11
-2 9 -14 2.7 10.8
9 -7 -14 10.4 10.4
-2 -7 -14 3.2 12
2 7 -14 15.3 12.7
7 -9 -14 10.9 10.8
9 -2 -14 1.2 10.5
-1 9 -14 10.9 11.6
9 -8 -14 15.2 10.9
8 1 -14 11.2 10.8
1 -9 -14 10.6 12.2
-1 -8 -14 7.7 12.7
9 -1 -14 10.2 11.1
8 -9 -14 19.8 11.6
1 8 -14 15.8 12.2
9 -9 -14 18.3 11.3
0 9 -14 9 11.9
0 -9 -14 -0.1 12.1
9 0 -14 6.6 9.7
5 5 -14 0.1 10.6
5 -10 -14 1.8 10.9
10 -5 -14 6.1 9.6
-4 10 -14 -1.5 7.1
10 -6 -14 10.4 9.9
6 4 -14 11.6 10.7
4 -10 -14 16.9 11.9
10 -4 -14 11.1 9.7
6 -10 -14 16.9 11
-4 -6 -14 7.3 8.8
4 6 -14 -7 11.6
10 -7 -14 28.8 10.9
-3 10 -14 13.9 9.7
7 3 -14 22.7 12
3 -10 -14 14.9 12.4
-3 -7 -14 16.1 11.4
7 -10 -14 14.3 11
3 7 -14 6.2 11.3
10 -3 -14 15.6 9.9
2 -10 -14 -9.4 11.5
-2 10 -14 6.6 10.5
10 -8 -14 11.6 10
8 2 -14 4.2 10.4
2 8 -14 2.5 12.2
8 -10 -14 9.1 11
-2 -8 -14 4.3 11.3
10 -2 -14 13.9 9.7
1 -10 -14 15.2 13.1
-1 10 -14 5.1 10.6
10 -9 -14 5.1 10.1
9 1 -14 16.3 9.6
9 -10 -14 7 10.9
1 9 -14 -4.3 11.5
-1 -9 -14 -0.8 11.9
10 -1 -14 10.2 10.1
0 10 -14 6.4 11
10 -10 -14 9 10.1
10 0 -14 11.3 9.5
0 -10 -14 -0.7 11.6
6 5 -14 11.8 10.7
11 -6 -14 8.3 8.5
5 -11 -14 7 10.9
6 -11 -14 17.6 11.1
5 6 -14 5.7 10.8
11 -5 -14 12.5 8.6
7 4 -14 13.8 10.6
11 -7 -14 10 8.3
4 -11 -14 2.2 11.2
-4 11 -14 -1.3 6.8
11 -4 -14 10.9 8.3
4 7 -14 5.7 11.2
7 -11 -14 10.4 10.4
-4 -7 -14 7.7 9.3
3 -11 -14 26.5 12
-3 11 -14 17.8 9.3
11 -8 -14 30.7 9.1
8 3 -14 13.5 10.2
8 -11 -14 20.9 10.6
3 8 -14 8.3 11.5
-3 -8 -14 13.1 11.5
11 -3 -14 18.3 8.5
2 -11 -14 4.4 11.1
11 -9 -14 9.1 8.9
-2 11 -14 -1.8 9.3
9 2 -14 16.1 9.9
11 -2 -14 14.1 8.1
2 9 -14 -1.3 11
9 -11 -14 17 10.5
-2 -9 -14 4.5 11.7
1 -11 -14 -14.5 11
10 1 -14 5.1 8.6
-1 11 -14 7.3 9.7
11 -10 -14 5.2 8.3
-1 -10 -14 -0.2 11.7
1 10 -14 -6 10.5
11 -1 -14 8.4 7.6
10 -11 -14 5.6 10.1
11 0 -14 1.5 6.2
0 11 -14 -2.3 10
11 -11 -14 7 7.5
0 -11 -14 -5.3 11.1
6 6 -14 4.6 10.2
6 -12 -14 6.7 10.9
7 5 -14 5.5 9.8
5 -12 -14 14.2 11.1
7 -12 -14 18.3 10.7
5 7 -14 12.8 10.3
4 -12 -14 31.7 11.5
8 4 -14 14 9.8
4 8 -14 7.3 10.7
8 -12 -14 19.8 10.6
9 3 -14 7.6 8.8
3 -12 -14 -0.1 10.9
-3 12 -14 1.8 7.9
9 -12 -14 12.9 10.3
-3 -9 -14 2.1 9.5
3 9 -14 -7.1 10.2
2 -12 -14 7.3 11.3
10 2 -14 7.5 8.7
-2 12 -14 7.4 8.5
2 10 -14 3.7 10.2
10 -12 -14 11.9 9.5
11 1 -14 4.7 6.4
-1 12 -14 8.1 9.3
1 -12 -14 -1.6 11.2
11 -12 -14 3.9 7.3
1 11 -14 9.4 9.3
0 12 -14 0.2 10.4
6 -13 -14 12.9 10.3
7 6 -14 3.1 9.1
7 -13 -14 4.7 9.8
6 7 -14 8.9 9.2
5 -13 -14 1.1 9.6
8 5 -14 9.1 9.3
8 -13 -14 -3.9 8.9
5 8 -14 0.4 10.2
9 4 -14 21 8.9
4 -13 -14 40.3 10.9
9 -13 -14 45.1 10.1
4 9 -14 18 10.3
-3 13 -14 2.4 6.1
3 -13 -14 6.5 10.8
10 3 -14 10.8 8.1
3 10 -14 4.8 10.2
10 -13 -14 9.2 9.2
-2 13 -14 3 8.2
2 11 -14 -4.8 9.8
-1 13 -14 3.1 9.5
1 12 -14 8.7 10.3
0 13 -14 -5.3 9.6
7 7 -14 2.2 8.7
7 -14 -14 2.9 9.8
8 6 -14 2.8 8
6 -14 -14 14.1 10.2
8 -14 -14 26.3 9.6
6 8 -14 12.5 9.4
9 5 -14 15.7 7.9
5 -14 -14 21.9 10
9 -14 -14 29.2 10.1
5 9 -14 2.2 9.8
10 4 -14 7.9 5.7
10 -14 -14 10.6 6.4
4 10 -14 -5.4 9.6
3 11 -14 -8.4 9.8
-2 14 -14 0.3 6
2 12 -14 2.4 9.3
-1 14 -14 1.9 7.1
1 13 -14 6.1 11.2
8 7 -14 2.4 8.5
7 8 -14 2.6 8.4
9 6 -14 4.8 6.5
6 9 -14 -0.8 9.7
5 10 -14 0.5 9.9
4 11 -14 -0.2 10.9
3 12 -14 6.3 11.3
8 8 -14 6.7 7.4
7 9 -14 -1.6 9.6
0 0 15 -19.1 11.6
0 0 -15 9.3 13.1
0 -1 -15 41.5 12.8
1 0 -15 47.6 13.4
1 -1 -15 58.69 13.3
0 1 -15 38.6 11.7
-1 0 -15 21.8 11.8
-1 1 -15 25.6 12.5
1 -1 -15 0.5 17.8
1 0 -15 -0.8 17.1
-1 -1 -15 10.3 12
-1 2 -15 12.2 12.6
-2 1 -15 17.9 12.2
2 -1 -15 4.3 13.9
1 -2 15 -16.2 10.2
1 -2 -15 20.9 11.7
2 -1 15 -15.2 10.3
1 1 -15 12.7 13.1
1 1 -15 -0.6 23.9
2 -1 -15 12.9 11.9
1 1 15 -18.9 10.5
-2 2 -15 0.8 10.9
-2 0 -15 0.1 11
2 0 15 -17.3 9.9
0 2 -15 5.8 13.2
2 -2 -15 2.9 14.3
2 0 -15 0.4 12
0 -2 15 -22.2 18.1
0 -2 -15 6.3 11.1
2 -2 -15 8.3 11.1
2 0 -15 3.2 14
2 -2 15 -14.9 9.5
1 2 15 -3.7 9.5
-3 2 -15 15.8 11.1
2 1 -15 -2.2 16.2
3 -2 -15 -1.4 13.6
1 -3 -15 15.5 12.1
1 2 15 -14.8 9.5
3 -1 15 -10.6 9.6
-1 3 -15 -1.8 11.8
3 -2 -15 14.5 11.8
-2 -1 -15 4.3 11.8
2 1 -15 -1.7 12.2
2 1 15 -14.7 9.2
3 -1 -15 2.3 13.9
3 -1 -15 4.7 11.5
-2 3 -15 4.1 11.3
1 2 -15 -4 12.5
2 -3 -15 8.9 11.8
-3 1 -15 -4.1 10.3
3 -2 15 -8.3 9.5
-1 -2 -15 0.1 11.2
3 0 -15 1 13.8
3 -3 -15 5.1 10.8
-3 0 -15 3.3 9.9
0 3 -15 -5.1 12.6
0 -3 -15 -4.5 11.5
3 0 15 -8.2 9.1
-3 3 -15 12.3 10.9
3 0 -15 12.5 12.4
-2 -2 -15 -2.5 10
2 2 15 -0.4 8.7
4 -2 15 -5.4 9.6
2 2 -15 3.2 11.1
2 -4 -15 -6.2 10.5
-2 4 -15 2.9 11.9
4 -2 -15 8.3 11.4
4 -2 -15 -1.6 13.9
-1 4 -15 48.4 12.5
-3 -1 -15 29.1 10.1
1 3 15 -6 12.7
4 -3 -15 68.79 12.4
1 -4 -15 59.19 12.3
3 1 -15 58.19 12.9
3 1 -15 -1.8 18.9
3 -4 -15 70.49 12.9
4 -1 -15 74.09 12.6
-3 4 -15 40.9 12
4 -1 -15 -0.2 14.7
1 3 -15 64.69 13.6
-1 -3 -15 41.6 11.4
-4 0 -15 5.2 11.7
0 -4 -15 7.1 11.9
4 0 -15 -2.7 21.4
4 0 -15 20.1 12.3
0 4 -15 23.5 12.1
4 -4 -15 26.5 10.6
5 -3 -15 36.9 11.3
-2 5 -15 19.3 11.6
3 2 -15 32 11.3
-3 -2 -15 16 10.6
2 -5 -15 20.5 11.5
-2 -3 -15 27.1 11.7
2 3 -15 29.2 12.4
3 -5 -15 20.4 10.9
-3 5 -15 27.8 10.6
5 -2 -15 25.3 11.3
1 -5 -15 12.6 11.5
-4 -1 -15 6 12.6
-1 5 -15 12.3 11.6
4 1 -15 17.2 11.1
5 -4 -15 23.4 10.3
5 -1 -15 23.7 11.3
4 -5 -15 24.1 11.2
1 4 -15 9.6 12.2
-4 5 -15 7.8 14.4
-1 -4 -15 19.4 11.8
0 -5 -15 30.9 12.3
5 0 -15 37.5 11.7
5 -5 -15 55.39 12
0 5 -15 31.5 12.8
-3 -3 -15 8.6 10.5
6 -3 -15 2.6 9.6
-3 6 -15 9.5 10.8
3 3 -15 -7.9 11
3 -6 -15 6.5 10.7
2 -6 -15 89.19 13.4
4 2 -15 67.59 13.2
6 -4 -15 101.09 12.2
-2 6 -15 74.49 13
2 4 -15 71.89 14
6 -2 -15 77.29 12
-2 -4 -15 69.99 13.2
4 -6 -15 118.49 13.4
-1 6 -15 18.6 11.8
1 -6 -15 23 11.8
6 -5 -15 30 10.7
5 1 -15 30.1 11.7
6 -1 -15 23.6 11.5
-1 -5 -15 17.2 11.6
1 5 -15 13.7 12.3
5 -6 -15 39.8 10.3
0 6 -15 16.1 11.8
6 0 -15 15 10.9
0 -6 -15 11.1 11.7
6 -6 -15 9.4 9.7
-3 7 -15 26.9 10.9
4 3 -15 48.4 12.8
7 -4 -15 62.39 11.1
3 -7 -15 61.59 12
-3 -4 -15 41.8 11.5
4 -7 -15 77.39 12.3
3 4 -15 53.99 12.6
7 -3 -15 49.7 11
7 -5 -15 18.8 9.6
2 -7 -15 5.8 11.2
5 2 -15 7 11.5
-2 7 -15 6.2 11.2
5 -7 -15 19.9 10.6
2 5 -15 9.1 12
-2 -5 -15 -4.1 10.9
7 -2 -15 20.3 10
6 1 -15 80.59 12.8
7 -6 -15 96.99 12.4
-1 7 -15 94.19 13.8
1 -7 -15 105.19 14
1 6 -15 123.99 14.8
7 -1 -15 110.59 13.4
-1 -6 -15 84.09 13.9
6 -7 -15 110.89 13.2
7 -7 -15 27.2 10.2
0 7 -15 13.2 11.6
7 0 -15 9.9 10
0 -7 -15 9.1 12
4 4 -15 -0.1 11
4 -8 -15 0.9 10.2
8 -4 -15 13.4 9.2
5 3 -15 33.8 11.8
-3 8 -15 28.7 9.9
8 -5 -15 55.79 10.3
3 -8 -15 47.1 11.8
3 5 -15 51.89 13.2
-3 -5 -15 45 11.4
8 -3 -15 56.89 10.2
5 -8 -15 58.39 11.6
-2 8 -15 32.8 11.3
2 -8 -15 41.3 12.2
6 2 -15 33.1 11
8 -6 -15 36.6 10.3
-2 -6 -15 26.9 12.3
8 -2 -15 31.9 10.1
2 6 -15 32.6 12.9
6 -8 -15 49.5 11.1
8 -7 -15 25.7 9.9
1 -8 -15 30 12.4
-1 8 -15 15 11
7 1 -15 17.3 9.7
-1 -7 -15 11.6 11.3
7 -8 -15 41.7 10.6
8 -1 -15 28.1 9.7
1 7 -15 20.6 11.7
0 -8 -15 50.39 12.2
8 -8 -15 47.7 10.5
8 0 -15 35.9 10.3
0 8 -15 20 11.5
5 4 -15 11.3 10.9
9 -5 -15 23.6 9.6
4 -9 -15 34 10.9
5 -9 -15 26.4 10.6
9 -4 -15 23.1 9.4
4 5 -15 19.7 11.3
6 3 -15 1.8 10.1
3 -9 -15 -2.3 10.6
-3 9 -15 0.5 7.8
9 -6 -15 8.5 9.4
9 -3 -15 8.5 8.8
-3 -6 -15 -0.9 10.1
3 6 -15 4.6 11.4
6 -9 -15 -0.9 9.8
9 -7 -15 67.89 11.1
2 -9 -15 54.89 12
-2 9 -15 25 9.8
7 2 -15 36 10
-2 -7 -15 36.6 12
9 -2 -15 58.39 10.2
2 7 -15 44.7 12
7 -9 -15 65.29 11.3
-1 9 -15 17.2 10.3
1 -9 -15 19.2 11.5
8 1 -15 19.1 9.4
9 -8 -15 33.6 9.9
9 -1 -15 21.6 8.7
-1 -8 -15 18.9 11.1
1 8 -15 25.8 11.5
8 -9 -15 33.6 9.9
9 -9 -15 10.7 9.4
0 9 -15 0.9 10.7
9 0 -15 -4.1 8.4
0 -9 -15 1.6 11.3
10 -5 -15 0.5 8.7
5 5 -15 3.7 10.3
5 -10 -15 5.2 10.3
4 -10 -15 -2.6 9.5
10 -6 -15 1.3 8.2
6 4 -15 0.2 9.9
4 6 -15 4.2 10.5
10 -4 -15 11.4 8.6
6 -10 -15 -5.5 9.7
7 3 -15 -4.7 9.3
-3 10 -15 1.6 7.1
3 -10 -15 -1.9 10.5
10 -7 -15 4.9 8.3
10 -3 -15 3 7.8
-3 -7 -15 14.9 9
7 -10 -15 16.7 9.9
3 7 -15 5.5 10.8
-2 10 -15 1.5 9.1
8 2 -15 2.6 8.4
10 -8 -15 3.2 8.8
2 -10 -15 -0.3 10.5
2 8 -15 -4.8 9.6
10 -2 -15 5.7 8.1
8 -10 -15 2.1 9.3
-2 -8 -15 1.3 10.7
-1 10 -15 8.6 9.2
9 1 -15 11.9 8.6
10 -9 -15 23.9 8.6
1 -10 -15 9.4 10.9
10 -1 -15 20.8 8.4
-1 -9 -15 6.6 10.3
1 9 -15 13 10.2
9 -10 -15 18.3 9.4
0 10 -15 14.7 10
10 0 -15 18.9 7.7
10 -10 -15 44.9 9
0 -10 -15 3.7 11.4
11 -6 -15 3.9 7
5 -11 -15 -6.4 9.7
6 5 -15 -7.6 9.2
5 6 -15 -1.4 10.1
6 -11 -15 0.6 9.6
11 -5 -15 13.5 6.8
11 -7 -15 12.2 7
4 -11 -15 0.5 10.5
7 4 -15 8.1 9.1
7 -11 -15 16.5 9.4
11 -4 -15 9.4 6.5
4 7 -15 1.3 9.5
3 -11 -15 -3.5 10.7
8 3 -15 1.7 8.3
11 -8 -15 6.8 6.5
-3 11 -15 3.3 10.6
8 -11 -15 1.1 9.4
3 8 -15 -4.6 9.8
11 -3 -15 5.1 6
-3 -8 -15 8.2 12.4
2 -11 -15 10.8 10.6
9 2 -15 12.6 7.9
11 -9 -15 4.2 8.5
-2 11 -15 3.9 8.4
9 -11 -15 11.1 9.4
11 -2 -15 3.6 5.4
2 9 -15 5.3 10.1
-2 -9 -15 9.3 10.2
1 -11 -15 3.2 11.1
10 1 -15 5.2 7.1
-1 11 -15 1.8 9.5
10 -11 -15 11 8
1 10 -15 -6.5 10.2
-1 -10 -15 -9.5 11.3
0 11 -15 -7.9 9.3
6 -12 -15 -2.4 8.8
6 6 -15 3.7 9.6
5 -12 -15 -1.7 9.8
7 5 -15 1 9.5
5 7 -15 8.6 10.3
7 -12 -15 5.8 9.5
4 -12 -15 -2.6 9.3
8 4 -15 1.6 8.6
8 -12 -15 4.7 9.4
4 8 -15 -2.6 10.1
9 3 -15 -0.2 7.3
3 -12 -15 -4.1 10.5
9 -12 -15 -1.3 8.7
3 9 -15 -1 10
-2 12 -15 2.3 5.7
10 2 -15 2.5 5.4
2 -12 -15 6.9 11.6
10 -12 -15 4.8 6.4
2 10 -15 5.2 10.3
-1 12 -15 7.5 8
1 11 -15 5 10.2
0 12 -15 3.9 10.4
6 -13 -15 5.7 9.4
7 6 -15 9.5 9.3
7 -13 -15 0.2 9.3
6 7 -15 -3.7 9.9
8 5 -15 -6.8 8.8
5 -13 -15 -3.1 9
8 -13 -15 -0.3 9.3
5 8 -15 -1.3 10.2
4 -13 -15 3.7 10.6
9 4 -15 0.3 7.2
4 9 -15 -0.8 10.5
9 -13 -15 1.7 8.3
3 10 -15 7.2 11.9
2 11 -15 -5.8 11.7
7 7 -15 12.3 10.8
8 6 -15 2.4 9.2
6 8 -15 3.9 11.4
9 5 -15 2 8.7
5 9 -15 -7.8 11.8
0 0 -16 -10.3 10.2
0 1 -16 -5.7 10.1
-1 1 -16 -6.9 10.1
1 0 -16 4.6 10.2
1 -1 -16 -5.7 10
-1 0 -16 -1.7 10.3
0 -1 -16 -5.2 10
1 -2 -16 -2.3 9.8
2 -1 -16 -1.7 9.7
1 1 -16 2.6 10.1
-1 2 -16 3.8 10.1
-2 1 -16 1.2 9.3
-1 -1 -16 -5.4 10.1
0 2 -16 9.6 11.1
0 -2 -16 -0.4 10.9
-2 2 -16 5 9.2
2 0 -16 -1.8 10.7
2 -2 -16 6 10.7
-2 0 -16 6.7 10.4
-2 -1 -16 14.1 10.5
3 -2 -16 21.1 10.2
-3 2 -16 3.5 8.5
-1 3 -16 19.8 10.5
1 -3 -16 11.1 10.5
2 1 -16 8.1 10.4
3 -1 -16 22.1 10.3
-2 3 -16 9.7 9.8
-3 1 -16 9.2 8.7
-1 -2 -16 13.7 10.2
2 -3 -16 14.4 10.3
1 2 -16 16.1 10.7
-3 0 -16 11.6 8.9
0 -3 -16 1.1 10.8
3 0 -16 0.9 9.5
-3 3 -16 -3.7 8
0 3 -16 6.3 11
3 -3 -16 7.1 9.7
-2 -2 -16 0.1 10.4
-2 4 -16 3.5 9.6
4 -2 -16 1.6 9.2
2 -4 -16 7.8 9.7
2 2 -16 -13.1 9.8
-3 -1 -16 21.4 9.1
4 -3 -16 43.7 10.3
1 -4 -16 64.09 11.2
-1 4 -16 25.2 10.3
3 1 -16 25.8 10.6
-3 4 -16 22 8.5
3 -4 -16 51.99 11.6
-1 -3 -16 42.8 11.3
1 3 -16 39.8 11.6
4 -1 -16 55.69 10.4
4 -4 -16 18.7 9.7
0 4 -16 12.9 11
0 -4 -16 11.2 10.8
4 0 -16 15.1 10
5 -3 -16 8.1 9.2
-2 5 -16 5 9.5
3 2 -16 -4.6 10.2
2 -5 -16 7.7 10.2
-3 -2 -16 12.8 8.3
5 -2 -16 12.9 9.2
3 -5 -16 10.9 10.4
2 3 -16 9.1 10.4
-3 5 -16 4.2 7.5
-2 -3 -16 1.1 9.8
-1 5 -16 8.3 9.7
1 -5 -16 8.6 10.6
5 -4 -16 14.7 9
4 1 -16 -6.6 9.7
5 -1 -16 11.2 9.1
-1 -4 -16 -0.7 9.9
1 4 -16 1.7 9.9
4 -5 -16 10.1 10
5 -5 -16 20.4 9.2
5 0 -16 9.9 9.3
0 -5 -16 2.8 10.8
0 5 -16 11.4 10.6
-3 -3 -16 5.7 8.1
3 -6 -16 11.5 10
6 -3 -16 13.9 8.8
3 3 -16 0.7 9.9
-3 6 -16 4.3 7.1
2 -6 -16 2.5 10.2
4 2 -16 12.3 10.1
6 -4 -16 14.7 8.9
-2 6 -16 8.5 9.4
4 -6 -16 14.1 9.8
6 -2 -16 13.7 9
2 4 -16 14.8 10.4
-2 -4 -16 9.1 10.1
1 -6 -16 -1.9 10.4
-1 6 -16 4 9.3
6 -5 -16 -0.1 8.2
5 1 -16 4.2 9.5
5 -6 -16 10.3 9.7
-1 -5 -16 -5.3 9.8
1 5 -16 1 10.1
6 -1 -16 4 8.7
0 -6 -16 -9.5 10.4
6 -6 -16 -1.9 8.7
0 6 -16 -0.5 9.8
6 0 -16 2.9 9
3 -7 -16 -3.4 9.2
-3 7 -16 5 8.3
4 3 -16 9.6 10
7 -4 -16 -3.1 7.8
7 -3 -16 4.8 8.2
-3 -4 -16 4.1 8.6
4 -7 -16 3.3 9.6
3 4 -16 -6.9 9.7
-2 7 -16 2.8 8.3
2 -7 -16 2.8 9.4
7 -5 -16 -10.2 8.2
5 2 -16 -3.5 9.4
-2 -5 -16 0.3 9.8
2 5 -16 -6.7 9.9
5 -7 -16 2 9.1
7 -2 -16 5.3 8.3
1 -7 -16 -1.5 10.6
6 1 -16 -1.5 9.1
-1 7 -16 4.1 9
7 -6 -16 -5.9 8.3
7 -1 -16 5.7 8.1
1 6 -16 -2.5 9.4
-1 -6 -16 0.7 10.1
6 -7 -16 3.2 9
0 -7 -16 4.1 11
0 7 -16 2.2 10.3
7 -7 -16 6.6 8.1
7 0 -16 6.6 8.3
4 4 -16 2.7 8.8
8 -4 -16 10.2 8.4
4 -8 -16 3.5 9.8
8 -5 -16 -3.4 7.5
3 -8 -16 -0.4 9.1
5 3 -16 -2.6 9.1
5 -8 -16 0.5 9
8 -3 -16 1.7 7.9
3 5 -16 8.5 10.1
2 -8 -16 -6.1 9.9
6 2 -16 3.4 8.8
8 -6 -16 10.6 8.6
-2 8 -16 -1 8
6 -8 -16 -3.8 8.1
8 -2 -16 -2.3 7.6
2 6 -16 -5.1 9.3
-2 -6 -16 -2.3 9.1
7 1 -16 2.2 8.3
-1 8 -16 1.5 8.8
8 -7 -16 12 8.2
1 -8 -16 5.9 10.5
7 -8 -16 7.1 9
1 7 -16 8.4 10.3
8 -1 -16 9.5 7.9
-1 -7 -16 1.8 10.6
8 0 -16 5.2 7.8
8 -8 -16 -1.5 8.7
0 8 -16 3.6 10.1
0 -8 -16 -10.7 10.2
5 4 -16 -2.7 9.5
9 -5 -16 6.1 6.8
4 -9 -16 -8.5 9.7
9 -4 -16 5.2 7.9
5 -9 -16 3.8 9
4 5 -16 -4.3 9.8
3 -9 -16 4 10.1
9 -6 -16 -3.9 7.9
6 3 -16 2.4 9.2
3 6 -16 -7.7 9.8
6 -9 -16 -0.1 8.8
9 -3 -16 10.1 7.7
2 -9 -16 -3.3 10.8
9 -7 -16 9.2 8.5
-2 9 -16 -3.1 5.8
7 2 -16 8 9.1
-2 -7 -16 6.7 7.7
7 -9 -16 7.3 9.2
2 7 -16 1.4 9.9
9 -2 -16 7.6 7.6
9 -8 -16 0.6 7.4
-1 9 -16 2.6 8.9
8 1 -16 3 8
1 -9 -16 -3.3 10.8
9 -1 -16 8.2 7.4
1 8 -16 -0.8 10.1
-1 -8 -16 4.4 10.6
8 -9 -16 -7 8.5
0 9 -16 12.3 10.2
9 0 -16 7.6 7.4
0 -9 -16 9.5 11.4
9 -9 -16 9.6 8.6
5 5 -16 -6.2 9.8
5 -10 -16 3.4 9.7
10 -5 -16 6.9 6.8
6 4 -16 -7.2 9
4 -10 -16 -5.1 9.8
10 -6 -16 12.1 6.9
6 -10 -16 -5.4 8.3
4 6 -16 0.1 9.5
10 -4 -16 2.5 6.2
10 -7 -16 8.3 6.8
3 -10 -16 -2.5 10.8
7 3 -16 -4 9
10 -3 -16 2.7 6
7 -10 -16 -2.8 9.2
3 7 -16 -5.2 10.3
2 -10 -16 -11.3 10.6
10 -8 -16 8.1 5.7
8 2 -16 8.7 8
8 -10 -16 5.4 9.1
10 -2 -16 6.1 5.4
2 8 -16 8 10.7
1 -10 -16 1 11.5
-1 10 -16 2.5 6.1
9 1 -16 5.3 7.2
10 -9 -16 7.2 6.5
1 9 -16 -5.6 10.6
-1 -9 -16 6 7.2
9 -10 -16 9.3 8.8
10 -1 -16 2.8 5.4
0 10 -16 3 9.4
5 -11 -16 -16.6 10.2
6 5 -16 -5.2 10
6 -11 -16 -4.8 10.4
5 6 -16 2.5 10.2
4 -11 -16 1.9 11
7 4 -16 -5.6 9.7
4 7 -16 10.8 11.7
7 -11 -16 -1.5 10
3 -11 -16 6.7 11.8
8 3 -16 -4.6 8.2
3 8 -16 -17 11.1
8 -11 -16 -11.6 10.1
2 -11 -16 -2.6 11.7
9 2 -16 3.3 5.1
2 9 -16 -5.5 11.8
9 -11 -16 5.8 5.7
6 -12 -16 0.3 10.6
6 6 -16 2.2 11
5 -12 -16 5.5 11.8
7 5 -16 1.6 10.1
5 7 -16 0.7 11.3
7 -12 -16 11.3 11.2
0 0 -17 1 9.5
1 -1 -17 -2 9.1
0 1 -17 -3 9
-1 0 -17 -3.8 8.4
1 0 -17 -2.2 9.2
-1 1 -17 6.8 8.9
0 -1 -17 -1.9 8.7
1 1 -17 -5.6 8.9
-1 2 -17 3.4 8.5
2 -1 -17 -5.8 8.5
-2 1 -17 7.6 6.9
1 -2 -17 0.8 9
-1 -1 -17 4.1 9.3
-2 0 -17 -0.2 7.3
2 -2 -17 -8.3 8.9
2 0 -17 -4.4 8.8
-2 2 -17 4.4 7.1
0 -2 -17 -19.3 9.1
0 2 -17 -7.4 8.7
2 1 -17 -12.4 8.2
-2 -1 -17 -2.7 6.9
3 -2 -17 0.5 8.9
1 -3 -17 -6.8 8.3
-1 3 -17 6.2 8.8
2 -3 -17 -3.4 8.2
3 -1 -17 -1.1 8.6
-1 -2 -17 1.2 8.8
-2 3 -17 6.1 6.6
1 2 -17 -9.7 8.6
0 3 -17 -5.7 9.2
0 -3 -17 5.2 10.1
3 0 -17 -3 8.4
3 -3 -17 -0.1 9.1
-2 -2 -17 8.7 6.8
2 2 -17 -2.5 9
-2 4 -17 5.1 5.1
4 -2 -17 1 8.8
2 -4 -17 -2 9.5
4 -3 -17 2.7 8.2
1 -4 -17 4 10
-1 4 -17 -3.2 8.7
3 1 -17 -3.1 8.5
3 -4 -17 -2.3 8.8
4 -1 -17 -0.2 8.3
-1 -3 -17 5.9 9.9
1 3 -17 -1.4 8.9
4 -4 -17 2.7 9.4
4 0 -17 1.5 8.8
0 -4 -17 3.5 10
0 4 -17 -9.2 9.4
5 -3 -17 -1.2 8.5
2 -5 -17 -2.8 9.3
-2 5 -17 2.3 5.2
3 2 -17 1 8.8
-2 -3 -17 3.8 6
5 -2 -17 4.6 8.5
3 -5 -17 3.5 9.2
2 3 -17 6.3 9.5
1 -5 -17 2.2 10
4 1 -17 -1.3 8.8
-1 5 -17 0.8 8.4
5 -4 -17 -2.7 8.5
-1 -4 -17 -1.6 9.5
5 -1 -17 -5.6 8.2
1 4 -17 -4.9 9
4 -5 -17 -6.7 8.6
0 -5 -17 -6.8 9.8
5 0 -17 -3.5 8.2
5 -5 -17 -4.8 8.5
0 5 -17 -2.8 9
3 3 -17 3.3 9.1
3 -6 -17 -2.8 9.3
6 -3 -17 -3.9 8.5
2 -6 -17 -0.8 9.8
6 -4 -17 1.4 8.5
4 2 -17 -6.2 9.2
6 -2 -17 2.3 8.1
4 -6 -17 3.7 9.5
2 4 -17 3.1 8.8
5 1 -17 -0.9 8.4
1 -6 -17 -5.5 9.3
-1 6 -17 4.5 7.3
6 -5 -17 0.1 8.7
6 -1 -17 0 8.3
1 5 -17 2.8 9.5
5 -6 -17 -1.8 8.8
-1 -5 -17 -1.8 8.6
6 0 -17 -0.6 8.4
0 -6 -17 1.8 10.2
6 -6 -17 7.6 9.1
0 6 -17 6.1 9.9
7 -4 -17 1.2 8.4
4 3 -17 -1.6 9
3 -7 -17 12.8 10.4
4 -7 -17 1.6 9.5
3 4 -17 9.2 9.9
7 -3 -17 2.6 8.9
7 -5 -17 2.4 8.6
2 -7 -17 -10.3 10.6
5 2 -17 9.5 9.2
7 -2 -17 -3.4 8.1
5 -7 -17 3.4 9.2
2 5 -17 -8.5 9.8
1 -7 -17 -3.4 11.1
-1 7 -17 1.1 6.4
6 1 -17 -2.6 8.9
7 -6 -17 0.5 9.2
1 6 -17 5.2 10.7
6 -7 -17 -1.1 8.4
7 -1 -17 2.4 8.1
-1 -6 -17 5.9 7
0 7 -17 0.7 8.6
7 0 -17 5.4 8.6
0 -7 -17 -2 10.1
7 -7 -17 5.9 9.5
4 -8 -17 1.3 10.9
4 4 -17 2 10.6
8 -4 -17 -0.8 8.2
8 -5 -17 -11.2 8.5
3 -8 -17 -2.3 11.1
5 3 -17 2.5 9.4
8 -3 -17 7.8 8
3 5 -17 -5 11.1
5 -8 -17 -11.6 10.1
8 -6 -17 4 8.9
6 2 -17 -4.8 9.2
2 -8 -17 -0.7 11.8
8 -2 -17 3 8.3
6 -8 -17 21.4 10.5
2 6 -17 -7.7 10.9
7 1 -17 7.6 9.6
8 -7 -17 7 8.9
1 -8 -17 -2 12.3
8 -1 -17 6.9 8
1 7 -17 1.2 10.5
7 -8 -17 19.9 11
4 -9 -17 -6.2 10.2
5 4 -17 1.9 10.5
9 -5 -17 4 4.6
4 5 -17 -15.1 11.8
5 -9 -17 5.9 10.4
9 -4 -17 1 4.8
0 0 -18 11.1 6.7
1 0 -18 14.6 10.1
0 -1 -18 7 6.5
1 -1 -18 -3.8 9.7
0 1 -18 -0.7 5.9
1 1 -18 -0.3 10
2 -1 -18 27.6 10.8
1 -2 -18 6.5 10
0 2 -18 3.9 5.7
2 -2 -18 0.8 10.5
0 -2 -18 3.6 5.8
2 0 -18 0.3 9.6
1 -3 -18 -5.5 9.5
3 -2 -18 7.7 10.6
2 1 -18 -14.4 10.5
1 2 -18 -3.8 9.2
3 -1 -18 -9.5 9.7
2 -3 -18 -5.8 10.3
3 0 -18 23.2 10.9
0 3 -18 4.3 7.4
3 -3 -18 30.4 11.2
0 -3 -18 5.5 7.9
