#------------------------------------------------------------------------------
#$Date: 2019-11-03 18:10:02 +0200 (Sun, 03 Nov 2019) $
#$Revision: 222029 $
#$URL: file:///home/coder/svn-repositories/cod/cif/4/12/90/4129022.cif $
#------------------------------------------------------------------------------
#
# This file is available in the Crystallography Open Database (COD),
# http://www.crystallography.net/
#
# All data on this site have been placed in the public domain by the
# contributors.
#
data_4129022
loop_
_publ_author_name
'Qazvini, Omid T.'
'Babarao, Ravichandar'
'Shi, Zhao-Lin'
'Zhang, Yue-Biao'
'Telfer, Shane G.'
_publ_section_title
;
 A Robust Ethane-Trapping Metal-Organic Framework with a High Capacity for
 Ethylene Purification.
;
_journal_issue                   12
_journal_name_full               'Journal of the American Chemical Society'
_journal_page_first              5014
_journal_page_last               5020
_journal_paper_doi               10.1021/jacs.9b00913
_journal_volume                  141
_journal_year                    2019
_chemical_formula_moiety         'C20 H13 Co3 O12, 4[CH3OH]'
_chemical_formula_sum            'C32 H61 Co3 O24'
_chemical_formula_weight         1006.59
_chemical_name_systematic        MUF-15
_space_group_crystal_system      orthorhombic
_space_group_IT_number           52
_space_group_name_Hall           '-P 2a 2bc'
_space_group_name_H-M_alt        'P n n a'
_atom_sites_solution_hydrogens   mixed
_audit_creation_date             2019-01-17
_audit_creation_method
;
Olex2 1.2
(compiled 2018.04.26 svn.r3504 for OlexSys, GUI svn.r5492)
;
_audit_update_record
;
????
;
_cell_angle_alpha                90
_cell_angle_beta                 90
_cell_angle_gamma                90
_cell_formula_units_Z            8
_cell_length_a                   28.714(2)
_cell_length_b                   21.1265(7)
_cell_length_c                   10.9460(3)
_cell_measurement_reflns_used    5893
_cell_measurement_temperature    293
_cell_measurement_theta_max      50.2
_cell_measurement_theta_min      2.1
_cell_volume                     6640.1(5)
_computing_cell_refinement       'FSProcess in Process-Auto (Rigaku, 1998)'
_computing_data_collection       'CrystalClear (Rigaku, 2005)'
_computing_data_reduction        'FSProcess in Process-Auto (Rigaku, 1998)'
_computing_molecular_graphics    'Olex2 (Dolomanov et al., 2009)'
_computing_publication_material  'Olex2 (Dolomanov et al., 2009)'
_computing_structure_refinement  'SHELXL-97 (Sheldrick, 1997)'
_computing_structure_solution    'SHELXS97 (Sheldrick, 2008)'
_diffrn_ambient_temperature      293.15
_diffrn_detector                 'Image plate'
_diffrn_detector_area_resol_mean 10
_diffrn_measured_fraction_theta_full 0.236
_diffrn_measured_fraction_theta_max 0.983
_diffrn_measurement_device_type  'Rigaku Spider'
_diffrn_measurement_method       \w-scans
_diffrn_radiation_monochromator  'Rigaku VariMax-HF Confocal Optical System'
_diffrn_radiation_type           CuK\a
_diffrn_radiation_wavelength     1.54178
_diffrn_reflns_av_R_equivalents  0.1075
_diffrn_reflns_av_unetI/netI     0.0582
_diffrn_reflns_Laue_measured_fraction_full 0.236
_diffrn_reflns_Laue_measured_fraction_max 0.983
_diffrn_reflns_limit_h_max       21
_diffrn_reflns_limit_h_min       -21
_diffrn_reflns_limit_k_max       15
_diffrn_reflns_limit_k_min       -15
_diffrn_reflns_limit_l_max       8
_diffrn_reflns_limit_l_min       -8
_diffrn_reflns_number            16306
_diffrn_reflns_point_group_measured_fraction_full 0.236
_diffrn_reflns_point_group_measured_fraction_max 0.983
_diffrn_reflns_theta_full        67.679
_diffrn_reflns_theta_max         35.120
_diffrn_reflns_theta_min         6.022
_diffrn_source                   'Rigaku MM007 rotating anode'
_exptl_absorpt_coefficient_mu    12.580
_exptl_absorpt_correction_T_max  1.000
_exptl_absorpt_correction_T_min  0.224
_exptl_absorpt_correction_type   multi-scan
_exptl_absorpt_process_details   '(ABSCOR; Higashi, 1995)'
_exptl_crystal_colour            violet
_exptl_crystal_colour_primary    violet
_exptl_crystal_density_diffrn    2.014
_exptl_crystal_density_meas      ?
_exptl_crystal_description       plate
_exptl_crystal_F_000             4208
_exptl_crystal_size_max          0.1
_exptl_crystal_size_mid          0.02
_exptl_crystal_size_min          0.01
_refine_diff_density_max         0.721
_refine_diff_density_min         -0.424
_refine_diff_density_rms         0.088
_refine_ls_extinction_method     none
_refine_ls_goodness_of_fit_ref   1.160
_refine_ls_hydrogen_treatment    mixed
_refine_ls_matrix_type           full
_refine_ls_number_parameters     296
_refine_ls_number_reflns         1426
_refine_ls_number_restraints     219
_refine_ls_restrained_S_all      1.082
_refine_ls_R_factor_all          0.1056
_refine_ls_R_factor_gt           0.0878
_refine_ls_shift/su_max          0.000
_refine_ls_shift/su_mean         0.000
_refine_ls_structure_factor_coef Fsqd
_refine_ls_weighting_details
;
 w=1/[\s^2^(Fo^2^)+(0.2000P)^2^]
 where P=(Fo^2^+2Fc^2^)/3
;
_refine_ls_weighting_scheme      calc
_refine_ls_wR_factor_gt          0.2481
_refine_ls_wR_factor_ref         0.2680
_reflns_Friedel_coverage         0.000
_reflns_number_gt                1066
_reflns_number_total             1426
_reflns_threshold_expression     'I > 2\s(I)'
_cod_data_source_file            ja9b00913_si_002.cif
_cod_data_source_block           muf-15
_cod_depositor_comments
;
The following automatic conversions were performed:

data item '_exptl_crystal_density_meas' value 'not measured' was
changed to '?' -- the value is perceived as not measured.

Automatic conversion script
Id: cif_fix_values 6909 2019-04-08 15:41:33Z antanas 
;
_cod_database_code               4129022
_shelxl_version_number           2013-2
_shelx_space_group_comment
;
The symmetry employed for this shelxl refinement is uniquely defined
by the following loop, which should always be used as a source of
symmetry information in preference to the above space-group names.
They are only intended as comments.
;
_shelx_estimated_absorpt_t_max   0.885
_shelx_estimated_absorpt_t_min   0.366
_olex2_refinement_description
;
1. Fixed Uiso
 At 1.2 times of:
  All C(H) groups
 At 1.5 times of:
  All O(H,H) groups
2. Uiso/Uaniso restraints and constraints
Uanis(O9) \\sim Ueq, Uanis(C18) \\sim Ueq, : with sigma of 0.05 and sigma for
terminal atoms of 0.02
3. Rigid body (RIGU) restrains
 O9, O11, O6, O10, C10, C12, C15, C14, C13, C11, C9, C16
 with sigma for 1-2 distances of 0.004 and sigma for 1-3 distances of 0.004
 O5, O3, O4, O2, C4, C2, C3, C7, C6, C5, C8, C1
 with sigma for 1-2 distances of 0.004 and sigma for 1-3 distances of 0.004
 O8, O7, C20, C19, C18, C21, C17
 with sigma for 1-2 distances of 0.004 and sigma for 1-3 distances of 0.004
4. Others
 Sof(O12A)=Sof(H12C)=Sof(H12D)=1-FVAR(1)
 Sof(O12)=Sof(H12A)=Sof(H12B)=FVAR(1)
 Fixed X: H1(0.55807)
 Fixed Y: H1(0.40802)
 Fixed Z: H1(1.142241)
5.a Rotating group:
 O12(H12A,H12B), O12A(H12C,H12D)
5.b Aromatic/amide H refined with riding coordinates:
 C12(H12), C14(H14), C13(H13), C11(H11), C20(H20), C19(H19), C4(H4), C3(H3),
 C6(H6), C5(H5), C21(H21)
5.c Fitted hexagon refined as free rotating group:
 C10(C12,C15,C14,C13,C11), C4(C2,C3,C7,C6,C5)
;
_smtbx_masks_special_details
;
A solvent mask was calculated and 582.0 electrons were found in a volume of 2654.0\%A^3 in 1 void. This is consistent with the presence of 4[CH3OH] per formula unit which account for 576.0 electrons. Methanol was chosen as uncoordianted molecules in the pores as it was the main solvent used for MUF-15 synthesis.
;
_shelx_res_file
;
TITL MUF-15.res in Pnna
REM Old TITL ot136_e.res in P222(1)
REM SHELXT solution in Pnna
REM R1 0.283, Rweak 0.018, Alpha 0.097, Orientation a'=b, b'=c, c'=a
REM Formula found by SHELXT: C23 O11 Co3
CELL 1.54178 28.7139 21.1265 10.946 90 90 90
ZERR 8 0.002 0.0007 0.0003 0 0 0
LATT 1
SYMM 0.5-X,-Y,+Z
SYMM 0.5-X,0.5+Y,0.5-Z
SYMM +X,0.5-Y,0.5-Z
SFAC C Co H O
UNIT 256 24 488 192
RIGU O9 O11 O6 O10 C10 C12 C15 C14 C13 C11 C9 C16
RIGU O5 O3 O4 O2 C4 C2 C3 C7 C6 C5 C8 C1
RIGU O8 O7 C20 C19 C18 C21 C17
ISOR 0.05 0.02 O9 C18 O12A

L.S. 6
PLAN  20
SIZE 0.01 0.1 0.02
TEMP 20
BOND $H
list 4
ABIN
fmap 2
acta
SHEL 8 1.34
OMIT 2 1 3
OMIT 0 1 3
OMIT 4 3 1
OMIT 1 1 2
REM <olex2.extras>
REM <HklSrc "%.\\MUF-15.hkl">
REM </olex2.extras>

WGHT    0.200000
FVAR       0.12661   0.49211
CO3   2    0.543418    0.536041    0.077993    11.00000    0.05455    0.15051 =
         0.06174   -0.01083   -0.00437    0.00283
CO2   2    0.589489    0.409795    0.940500    11.00000    0.06383    0.16163 =
         0.09438   -0.02655    0.00158   -0.00347
CO1   2    0.632104    0.453232    1.218046    11.00000    0.08272    0.19297 =
         0.07287   -0.00405    0.00293    0.01314
O9    4    0.524671    0.515223    0.895674    11.00000    0.09034    0.15853 =
         0.06990    0.00159    0.04561    0.02547
O8    4    0.492780    0.381925    0.954619    11.00000    0.10087    0.12069 =
         0.08124   -0.00519    0.00857    0.01512
O1    4    0.576076    0.445291    1.102052    11.00000    0.09949    0.15345 =
         0.04264    0.02612    0.00220   -0.03187
O5    4    0.897253    0.427703    1.008648    11.00000    0.06139    0.16317 =
         0.05647    0.00548    0.00885    0.01162
O11   4    0.544513    0.559208    0.258207    11.00000    0.08905    0.16579 =
         0.06420   -0.00995    0.01351    0.00072
O6    4    0.580184    0.467702    0.799258    11.00000    0.07657    0.17297 =
         0.08034   -0.02055    0.01530    0.01309
O3    4    0.657222    0.387185    0.916827    11.00000    0.04288    0.23483 =
         0.10112   -0.04155    0.00454    0.00771
O10   4    0.591050    0.492731    0.355497    11.00000    0.09744    0.16337 =
         0.06414   -0.00923    0.01785    0.00703
O4    4    0.847942    0.458704    1.149646    11.00000    0.09630    0.17352 =
         0.06866    0.00127    0.02677    0.00156
O2    4    0.680170    0.408632    1.105974    11.00000    0.06851    0.29285 =
         0.09903   -0.04501    0.00977    0.00756
AFIX  66
C10   1    0.542349    0.545945    0.693203    11.00000    0.03757    0.14617 =
         0.06615   -0.02290    0.02034   -0.01887
C12   1    0.556009    0.523444    0.579381    11.00000    0.09301    0.14593 =
         0.06762   -0.02125    0.02390   -0.00847
AFIX  43
H12   3    0.570813    0.484433    0.572939    11.00000   -1.20000
AFIX  65
C15   1    0.547544    0.559250    0.475186    11.00000    0.07051    0.13916 =
         0.07149   -0.02025    0.01691   -0.03199
C14   1    0.525419    0.617557    0.484813    11.00000    0.12045    0.15143 =
         0.08339   -0.02004    0.03216   -0.00472
AFIX  43
H14   3    0.519755    0.641513    0.415099    11.00000   -1.20000
AFIX  65
C13   1    0.511759    0.640058    0.598635    11.00000    0.14498    0.17525 =
         0.07842   -0.01513    0.03117    0.02664
AFIX  43
H13   3    0.496956    0.679069    0.605075    11.00000   -1.20000
AFIX  65
C11   1    0.520223    0.604253    0.702831    11.00000    0.11956    0.16386 =
         0.07638   -0.02502    0.02387    0.01561
AFIX  43
H11   3    0.511084    0.619308    0.778985    11.00000   -1.20000
AFIX   0
O7    4    0.558065    0.332128    0.895829    11.00000    0.08314    0.16554 =
         0.17223   -0.05193   -0.00174   -0.00286
C20   1    0.438727    0.289917    0.825067    11.00000    0.07280    0.13766 =
         0.10181   -0.01899    0.01104   -0.00333
AFIX  43
H20   3    0.421828    0.315400    0.878308    11.00000   -1.20000
AFIX   0
C19   1    0.510046    0.250000    0.750000    10.50000    0.06876    0.11563 =
         0.08195   -0.00827    0.00000    0.00000
AFIX  43
H19   3    0.542435    0.249999    0.749997    10.50000   -1.20000
AFIX   0
C9    1    0.548526    0.512156    0.804018    11.00000    0.07043    0.17129 =
         0.07005   -0.01605    0.02883    0.00618
AFIX  66
C4    1    0.746196    0.349282    0.850105    11.00000    0.05278    0.32900 =
         0.18617   -0.12662    0.01465    0.01382
AFIX  43
H4    3    0.721903    0.332231    0.804556    11.00000   -1.20000
AFIX  65
C2    1    0.736688    0.383843    0.955242    11.00000    0.05311    0.14684 =
         0.10287   -0.01024    0.01385    0.01118
C3    1    0.772997    0.409327    1.023319    11.00000    0.05481    0.15607 =
         0.11007   -0.01293    0.01847    0.00527
AFIX  43
H3    3    0.766635    0.432451    1.093663    11.00000   -1.20000
AFIX  65
C7    1    0.818814    0.400250    0.986259    11.00000    0.06041    0.15195 =
         0.08759   -0.00585    0.01566    0.01521
C6    1    0.828322    0.365689    0.881122    11.00000    0.04877    0.34778 =
         0.16875   -0.13343    0.02386   -0.00039
AFIX  43
H6    3    0.858977    0.359616    0.856327    11.00000   -1.20000
AFIX  65
C5    1    0.792014    0.340204    0.813044    11.00000    0.04748    0.45253 =
         0.24479   -0.21161    0.01721    0.00274
AFIX  43
H5    3    0.798375    0.317081    0.742700    11.00000   -1.20000
AFIX   0
C18   1    0.486206    0.293115    0.823251    11.00000    0.06922    0.13359 =
         0.11464   -0.03198    0.00646    0.00128
C8    1    0.859067    0.430292    1.054269    11.00000    0.06523    0.15636 =
         0.07228    0.00758    0.01748    0.00844
C16   1    0.562220    0.535421    0.354759    11.00000    0.09387    0.15636 =
         0.06747   -0.01722    0.01192    0.00222
C1    1    0.688088    0.398767    0.999633    11.00000    0.04874    0.12274 =
         0.09572   -0.01415    0.00617    0.00532
PART 1
O12   4    0.686788    0.455372    1.343461    21.00000    0.03945
AFIX   7
H12A  3    0.706447    0.417972    1.384443    21.00000   -1.50000
H12B  3    0.701769    0.495353    1.388240    21.00000   -1.50000
AFIX   0
PART 0
C21   1    0.416573    0.250000    0.750000    10.50000    0.06834    0.14250 =
         0.11850   -0.02414    0.00000    0.00000
AFIX  43
H21   3    0.384184    0.249999    0.750004    10.50000   -1.20000
AFIX   0
C17   1    0.511732    0.340438    0.900215    11.00000    0.08025    0.13592 =
         0.11901   -0.03651    0.00223   -0.00051
H1    3   10.558070   10.408020   11.142241    11.00000    0.27495
PART 2
O12A  4    0.614400    0.361239    1.283336   -21.00000    0.05904
AFIX   7
H12C  3    0.601555    0.325047    1.233344   -21.00000   -1.50000
H12D  3    0.613536    0.343181    1.370187   -21.00000   -1.50000
AFIX   0
HKLF 4

REM  MUF-15.res in Pnna
REM R1 =  0.0878 for    1066 Fo > 4sig(Fo)  and  0.1056 for all    1426 data
REM    296 parameters refined using    219 restraints

END

WGHT      0.2000      0.0000

REM Highest difference peak  0.721,  deepest hole -0.424,  1-sigma level  0.088
Q1    1   0.6300  0.4534  0.7870  11.00000  0.05    0.72
Q2    1   0.5402  0.5276  0.9251  11.00000  0.05    0.59
Q3    1   0.5889  0.4062  1.0666  11.00000  0.05    0.56
Q4    1   0.6095  0.3815  1.3488  11.00000  0.05    0.42
Q5    1   0.6966  0.4942  1.3164  11.00000  0.05    0.39
Q6    1   0.6722  0.4462  1.3957  11.00000  0.05    0.38
Q7    1   0.6364  0.3576  1.2192  11.00000  0.05    0.34
Q8    1   0.5951  0.3414  1.2580  11.00000  0.05    0.31
Q9    1   0.8405  0.4634  0.8915  11.00000  0.05    0.29
Q10   1   0.5289  0.3532  1.0879  11.00000  0.05    0.29
Q11   1   0.5693  0.4573  1.2155  11.00000  0.05    0.27
Q12   1   0.7019  0.4245  1.2844  11.00000  0.05    0.26
Q13   1   0.5781  0.5371  0.1350  11.00000  0.05    0.26
Q14   1   0.6562  0.3969  1.0738  11.00000  0.05    0.22
Q15   1   0.7864  0.3980  0.9890  11.00000  0.05    0.22
Q16   1   0.4919  0.3808  1.0379  11.00000  0.05    0.22
Q17   1   0.5224  0.5144  0.6702  11.00000  0.05    0.22
Q18   1   0.5074  0.6160  0.4077  11.00000  0.05    0.22
Q19   1   0.5219  0.5163  0.1833  11.00000  0.05    0.22
Q20   1   0.7723  0.3838  0.9981  11.00000  0.05    0.21
;
_shelx_res_checksum              66443
_shelx_hkl_file
;
  -2   0   0 2128.78   93.05
  -2   0   0 2139.37   97.59
  -2   0   0 2186.61   93.96
   2   0   0 2163.08   94.73
   2   0   0 2147.36  107.96
   2   0   0 2191.63   99.42
  -2   0   0 2255.10  113.72
   2   0   0 2137.54   91.40
  -3   0   0    0.29    0.51
   3   0   0   -1.72    2.42
   3   0   0    1.25    1.25
   3   0   0    0.00    0.88
   3   0   0   -0.07    0.62
  -3   0   0   -0.04    2.68
  -3   0   0    0.26    0.59
  -4   0   0   66.07    3.22
   4   0   0   58.34    2.75
   4   0   0   59.59    5.13
  -4   0   0   62.96    1.58
  -4   0   0   67.43    3.41
   4   0   0   66.48    2.13
   4   0   0   63.25    2.38
  -4   0   0   68.79    5.97
   5   0   0    0.22    0.99
  -5   0   0    0.77    1.43
   5   0   0   -0.15    0.92
   5   0   0    0.00    2.60
  -5   0   0    0.59    0.99
  -5   0   0    1.47    2.97
   5   0   0    0.07    1.25
  -6   0   0   21.18    7.81
   6   0   0   11.73    7.62
  -6   0   0   18.51    3.81
  -6   0   0   18.62    2.97
  -7   0   0   -0.84    6.67
   7   0   0    3.26    4.80
  -7   0   0   -0.81    1.21
   7   0   0    1.50    1.10
   7   0   0   -1.03    1.17
   8   0   0  467.03   15.87
  -8   0   0  476.96   20.23
  -8   0   0  488.98   20.52
  -8   0   0  503.42   36.10
   8   0   0  478.87   28.22
   8   0   0  518.99   21.37
  -9   0   0   -0.15    4.91
   9   0   0   -0.33    3.44
  -9   0   0    1.83    3.66
   9   0   0   -0.77    1.25
  -9   0   0    0.15    1.43
  10   0   0  218.78   11.32
 -10   0   0  227.72   32.51
 -10   0   0  230.40    9.45
  10   0   0  222.63    8.91
  10   0   0  198.55   26.35
 -10   0   0  245.42   12.46
  11   0   0   -1.21    4.18
 -11   0   0   -1.54    4.54
 -11   0   0    0.33    2.93
  11   0   0   -1.32    1.54
 -11   0   0    0.88    2.53
  12   0   0   25.87    8.10
 -12   0   0   37.45    8.76
 -12   0   0   32.84    3.77
 -12   0   0   37.67    8.50
 -13   0   0    2.68    3.30
 -13   0   0    1.43    8.91
 -13   0   0   -0.44    3.37
  13   0   0    1.47    7.33
 -14   0   0   51.31   11.18
 -14   0   0   42.11    4.36
  14   0   0   56.73    9.93
 -14   0   0   48.37    7.00
  15   0   0    4.47    4.91
 -15   0   0   -0.70    3.66
 -16   0   0   37.12   15.76
 -16   0   0   30.89    5.02
  16   0   0   17.04   14.44
 -17   0   0    1.83    5.42
 -17   0   0    0.40    7.48
 -17   0   0   10.41   10.48
  17   0   0   11.76    7.00
 -18   0   0   51.82   21.69
 -18   0   0   64.68   18.73
 -18   0   0   41.23    9.67
  18   0   0   55.48   12.46
 -19   0   0   -1.69    3.33
 -19   0   0   -7.73   17.22
  20   0   0   71.94   18.14
 -20   0   0   60.36   23.78
 -20   0   0   64.65   29.13
 -21   0   0    8.94   14.44
 -21   0   0   -9.27   11.76
  21   0   0   -0.15   14.18
 -22   0   0  602.84  160.04
 -22   0   0  675.66  132.77
  22   0   0  609.25   75.82
  23   0   0   12.79   11.58
 -23   0   0   -2.75   16.31
 -23   0   0   -0.88   15.46
   0  -1   0    5.50    1.32
   0   1   0    6.41    1.32
  -1  -1   0   -0.66    0.66
   1   1   0   -0.22    1.25
  -1  -1   0    1.32    1.25
  -1  -1   0   -0.29    0.88
   1   1   0    0.88    0.95
   1   1   0    0.22    0.70
   2  -1   0  631.46   26.86
   2  -1   0  655.98   22.50
   2   1   0  715.79   31.66
  -2  -1   0  686.18   23.86
  -2   1   0  649.57   28.14
   2   1   0  697.65   28.51
  -2  -1   0  738.77   32.03
  -3  -1   0   -0.37    1.14
  -3  -1   0    0.22    3.33
  -3  -1   0   -0.66    1.76
  -3   1   0   -1.94    2.13
   3   1   0   -0.99    1.54
   3  -1   0    0.73    1.17
   3  -1   0    0.51    2.02
   3  -1   0    2.09    2.20
  -3   1   0   -1.25    1.36
   4  -1   0   34.85    9.09
  -4   1   0   40.82    8.28
  -4  -1   0   31.44    4.65
  -4  -1   0   37.97    6.49
   4   1   0   33.75    4.14
   5  -1   0    1.32    3.08
   5   1   0   -0.07    0.77
  -5   1   0    0.00    2.82
  -5  -1   0   -0.40    4.43
  -5   1   0   -0.62    0.66
  -5  -1   0   -0.70    0.92
   5   1   0   -1.65    2.49
   5  -1   0    0.62    1.58
  -5   1   0    1.58    3.26
  -5   1   0    0.00    1.87
  -5  -1   0    1.06    1.39
  -6   1   0 1210.52   58.20
  -6  -1   0 1279.56   62.96
   6   1   0 1282.06   54.31
  -6   1   0 1226.13   53.47
   6  -1   0 1352.89   59.88
   6   1   0 1259.22   69.70
  -6  -1   0 1239.77   70.77
  -6   1   0 1220.97   75.46
  -6   1   0 1298.69   53.28
  -6  -1   0 1305.69   55.89
   6  -1   0 1230.42   74.98
   6  -1   0 1225.47   58.01
  -6  -1   0 1267.80   57.32
   7  -1   0    0.07    1.94
  -7   1   0    0.92    1.94
  -7   1   0   -0.99    1.36
   7  -1   0    2.16    2.93
  -7  -1   0   -2.31    2.93
   7  -1   0   -2.46    3.44
  -7   1   0   -0.44    3.74
  -7  -1   0    0.18    1.25
  -7  -1   0   -0.04    3.48
  -7   1   0    0.55    1.21
   7   1   0    1.43    3.04
   7   1   0    1.54    1.43
  -8   1   0  383.84   18.47
  -8  -1   0  382.67   13.67
  -8  -1   0  397.95   26.72
  -8  -1   0  391.50   17.19
   8   1   0  362.95   23.23
   8   1   0  397.18   12.50
  -8   1   0  395.82   12.94
   8  -1   0  381.27   17.15
   8  -1   0  402.24   13.93
   8  -1   0  364.71   25.10
   8  -1   0  393.73   17.19
  -8   1   0  392.31   27.52
  -8   1   0  361.38   13.89
   9  -1   0   -0.73    1.28
   9  -1   0    6.34    3.70
  -9  -1   0   -0.04    2.24
   9   1   0    1.91    1.65
  -9   1   0    0.77    2.27
  -9  -1   0   -3.77    4.32
   9   1   0    0.18    3.30
  -9   1   0    1.47    4.54
  -9  -1   0    1.32    2.13
   9  -1   0   -0.66    1.98
 -10   1   0  157.58   18.95
 -10  -1   0  188.73   10.48
  10   1   0  166.71    7.48
  10  -1   0  171.95    8.98
  10   1   0  166.01   14.51
 -10  -1   0  157.36   15.90
 -10   1   0  184.19   11.29
 -10  -1   0  174.51    7.66
  10  -1   0  181.59   17.00
  10  -1   0  175.28    9.38
 -11   1   0    0.37    1.87
  11  -1   0    0.15    1.47
 -11  -1   0    1.43    7.92
  11  -1   0   -4.25    4.25
 -11  -1   0   -1.39    2.24
 -11  -1   0   -0.95    1.54
 -11   1   0    2.35    4.58
  11   1   0   -0.11    3.96
  11  -1   0   -0.48    2.75
 -12   1   0   18.84    3.08
 -12   1   0   14.88   11.43
  12   1   0   15.03    9.67
 -12  -1   0   13.19    4.18
 -12  -1   0   20.23    3.70
  12   1   0   12.75    2.16
 -12  -1   0   17.33    7.81
  12  -1   0   10.55    6.56
  13  -1   0    3.37    2.49
  13   1   0   -2.16    4.18
 -13  -1   0    1.14    4.32
  13  -1   0   -6.23    7.26
 -13   1   0    0.66    3.08
 -13  -1   0   -1.69    1.87
 -13  -1   0   -2.20    7.62
 -13   1   0    2.90    5.31
  14   1   0   27.49    8.10
 -14  -1   0   26.24   11.51
 -14  -1   0   25.25    6.08
 -14  -1   0   25.51    9.67
  14  -1   0   29.17    3.15
  14  -1   0   37.01    9.02
 -14  -1   0   28.66    5.39
 -14   1   0   26.94    3.85
 -14   1   0   26.61    9.97
 -15  -1   0   -0.95    8.03
 -15  -1   0    0.26    6.93
 -15  -1   0   -0.88    2.20
 -15   1   0   -3.11    5.68
  15   1   0    6.60    4.84
  15  -1   0    0.88    8.54
 -15   1   0   -2.31    3.44
  16   1   0   11.43   13.96
 -16  -1   0   16.27    5.53
 -16   1   0   25.25    6.67
 -16  -1   0   14.33    5.50
 -16  -1   0   17.66    8.65
  16  -1   0   12.83    8.25
 -16   1   0    9.34   14.73
 -16  -1   0    8.17   17.11
  17   1   0    1.80    6.49
 -17  -1   0    4.91    5.97
  17  -1   0    4.54    6.23
 -17  -1   0   -2.60   12.31
 -17   1   0   -1.72    2.82
 -17  -1   0   -0.59    4.47
 -17   1   0   -4.69    6.67
 -18  -1   0    5.57   11.95
 -18  -1   0    5.64   15.39
 -18  -1   0    0.92   22.76
 -18   1   0   21.37    6.74
 -18  -1   0   12.50    4.69
  18   1   0   18.58    9.38
  18  -1   0   15.17   12.75
 -18   1   0   13.12   10.30
 -19  -1   0    3.19    9.67
 -19  -1   0   -1.28    5.02
 -19  -1   0   -3.01   12.02
 -19   1   0   -2.75   11.32
  19   1   0   10.22   11.98
  19  -1   0    7.07    7.04
  20   1   0   63.77   17.11
 -20  -1   0   63.03   34.78
 -20  -1   0   57.87   28.47
 -20   1   0   75.75   26.13
  20  -1   0   72.67   24.88
 -21   1   0    1.36   17.44
 -21  -1   0    0.51   16.93
  21  -1   0    9.53    7.99
 -21  -1   0   -0.70   10.48
 -21   1   0    0.84   21.40
  22  -1   0    2.90    9.24
 -22  -1   0   -2.86   16.86
 -22   1   0    0.62   11.98
  22   1   0   -3.63   13.12
 -22  -1   0    1.94   11.76
 -22   1   0   -5.86   14.77
  23  -1   0    0.26   17.19
  23   1   0   -1.36   10.77
 -23   1   0    4.14   23.89
 -23  -1   0   -3.33   23.45
 -23  -1   0  -13.30   14.04
 -23   1   0  -12.28   29.39
   0  -2   0 9999.00 1077.75
   0  -2   0 9723.71 1045.79
   0   2   0 9733.97 1001.38
   0   2   0 9592.33 1035.97
   0   2   0 9377.76 1006.84
   1   2   0    1.80    1.21
   1   2   0    0.44    1.14
  -1  -2   0   -0.59    1.21
  -1  -2   0   -0.33    1.39
  -1  -2   0   -0.77    1.03
   2   2   0 1318.56   72.16
  -2  -2   0 1386.54   73.59
  -2  -2   0 1398.30   66.95
  -2  -2   0 1277.03   67.10
   2   2   0 1352.67   72.19
   2   2   0 1326.25   68.68
  -3  -2   0    0.59    2.31
   3   2   0    3.15    3.22
   3   2   0    0.73    2.27
  -3  -2   0    2.46    2.16
   3  -2   0    0.00    1.50
   3  -2   0   -2.27    3.26
  -3  -2   0    0.26    3.26
  -4  -2   0  534.20   28.36
   4   2   0  562.57   33.94
   4  -2   0  519.32   41.52
  -4  -2   0  533.87   24.99
   4  -2   0  524.56   24.22
  -4   2   0  611.01   53.76
  -5   2   0    8.43    6.34
  -5  -2   0   -1.58    2.68
   5  -2   0    2.49    2.13
   5  -2   0    0.00    2.05
   5   2   0   -3.55    4.32
  -5   2   0   -0.04    2.60
  -5  -2   0    1.03    2.02
  -5  -2   0   -2.02    5.20
   5  -2   0   -1.69    3.52
  -6   2   0   98.58    8.54
   6  -2   0   99.50    4.62
  -6   2   0   84.25   11.65
  -6  -2   0  102.03   10.26
   6  -2   0  110.20    9.89
  -6  -2   0   98.91    8.83
   6   2   0  101.48    9.82
  -6  -2   0   96.16    6.63
   6  -2   0   90.74   12.72
  -7  -2   0    6.19    6.34
  -7   2   0   -0.44    2.75
  -7   2   0    1.58    4.58
   7  -2   0   -1.47    2.16
  -7  -2   0    0.77    3.55
  -7  -2   0    0.18    1.39
   7  -2   0    0.62    3.19
   7   2   0    2.90    3.52
   7  -2   0    4.98    4.07
  -8   2   0  788.53   32.76
  -8   2   0  816.90   75.57
  -8  -2   0  848.05   50.35
  -8  -2   0  840.20   43.90
   8  -2   0  835.33   69.01
  -8   2   0  789.92   35.00
  -8  -2   0  762.59   40.86
  -8  -2   0  804.29   38.66
  -8  -2   0  764.34   69.70
   8  -2   0  888.65   38.77
   8   2   0  812.13   65.34
   8   2   0  750.31   33.61
   8  -2   0  832.65   47.75
   9   2   0    4.47    5.86
  -9   2   0   -6.05    7.95
  -9  -2   0   -0.59    2.13
  -9  -2   0   -0.44    2.49
   9  -2   0    0.73    2.16
  -9   2   0   -0.88    1.58
  -9  -2   0    4.25    4.43
  -9  -2   0   -1.25    6.16
  -9   2   0    0.66    1.76
   9  -2   0   -0.77    2.27
   9   2   0    1.25    1.06
   9  -2   0   -1.10    6.89
 -10   2   0  627.91   25.36
  10  -2   0  605.48   44.23
 -10   2   0  693.25   31.33
  10   2   0  601.63   27.85
 -10   2   0  608.85   63.55
  10   2   0  628.90   57.10
 -10  -2   0  628.90   47.46
  10  -2   0  708.49   32.76
 -10  -2   0  649.05   32.32
 -10  -2   0  608.01   41.30
  10  -2   0  677.45   32.58
 -10  -2   0  709.96   33.75
 -11   2   0   -3.77    8.58
 -11  -2   0   -1.17    7.22
  11  -2   0    1.87    4.14
 -11   2   0    1.80    2.09
  11  -2   0   -0.70    2.31
  11  -2   0    4.43    7.33
 -11  -2   0    2.31    3.88
  11   2   0    1.58    2.02
 -11  -2   0    0.73    1.65
  11   2   0    9.60    7.07
 -11   2   0    1.54    1.39
 -11  -2   0    4.87    8.43
 -12  -2   0  310.44   43.06
  12  -2   0  331.84   13.82
  12   2   0  295.45   26.61
 -12  -2   0  292.96   25.98
  12  -2   0  324.40   27.56
 -12   2   0  324.40   15.68
  12  -2   0  325.61   17.66
 -12   2   0  281.81   29.87
 -12  -2   0  343.49   15.61
 -12  -2   0  308.42   17.92
 -13   2   0   -1.43    3.33
 -13  -2   0   -2.93    8.50
 -13   2   0    4.03    5.53
 -13  -2   0    0.22    3.01
 -13  -2   0    1.10    4.43
 -13  -2   0   -4.03    8.61
  13  -2   0    5.20    7.33
  13   2   0    3.96    4.69
  13  -2   0    1.17    3.04
 -14   2   0  155.27   21.99
 -14  -2   0  156.23   21.37
 -14   2   0  151.61   14.04
  14  -2   0  169.42   11.18
  14  -2   0  148.16   17.96
 -14  -2   0  172.79   11.51
 -14  -2   0  182.39   22.02
  14   2   0  162.49   18.73
 -14  -2   0  155.57    8.72
  15  -2   0   -1.25    2.90
  15  -2   0    6.12    8.61
 -15   2   0    4.73    5.90
 -15  -2   0    1.87    6.30
  15   2   0   -3.33    5.53
 -15  -2   0    6.60    5.09
 -15   2   0   -0.55    2.75
 -15  -2   0   -1.76    9.02
  16  -2   0   94.92   14.59
 -16   2   0   93.63   24.99
 -16  -2   0   60.69   32.18
 -16  -2   0   61.71    8.98
  16  -2   0   76.89    5.94
 -16   2   0   78.24   10.66
 -16  -2   0   70.22   13.89
  16   2   0   73.59   22.50
 -16  -2   0   64.68    8.50
 -16  -2   0   82.09   16.78
 -17  -2   0   -3.15    9.42
 -17   2   0    4.87    7.00
 -17  -2   0   -0.99   11.40
  17   2   0    0.15    9.24
 -17  -2   0    1.72    9.45
  17  -2   0   11.73   10.04
 -17  -2   0    2.90    5.39
 -18  -2   0   81.14   12.50
  18   2   0   76.74   16.23
 -18  -2   0   71.35   25.58
 -18  -2   0   83.48   10.92
  18  -2   0   80.00   15.94
 -18  -2   0   89.42   17.74
 -18   2   0   96.86   20.12
 -18  -2   0   80.07   20.16
 -19  -2   0    0.62    4.40
 -19  -2   0   -7.95    8.25
 -19  -2   0   -5.79   13.93
  19   2   0    2.09    6.34
  19  -2   0    3.37    6.52
 -20   2   0   14.99   25.95
  20  -2   0   13.82   15.25
 -20  -2   0   22.02   21.15
  20   2   0   11.03   16.53
 -20  -2   0   14.18   14.37
  21   2   0   -2.27    8.21
 -21   2   0    7.55   13.67
 -21  -2   0    9.34   11.43
  21  -2   0    6.82    8.91
 -21  -2   0    0.48   12.09
 -22  -2   0  341.07   79.67
  22  -2   0  351.48   75.60
 -22  -2   0  318.79   55.81
 -22   2   0  281.16   77.91
 -22   2   0  416.16  102.24
  22   2   0  323.01   46.61
 -23   2   0  -14.77   18.62
  23  -2   0    7.00   11.14
 -23  -2   0    5.75   11.91
 -23  -2   0   -7.77   20.41
 -23   2   0    7.37   15.36
  23   2   0    7.73   16.38
   0   3   0    4.80    4.14
   0  -3   0    0.04    2.60
   0   3   0    2.09    1.94
  -1  -3   0   -0.11    3.37
  -1  -3   0   -0.29    0.92
   1   3   0   -0.70    1.76
  -1  -3   0    1.28    1.91
   1   3   0   -2.53    3.48
  -2  -3   0  377.24   12.75
   2   3   0  378.71   18.98
   2   3   0  387.80   19.72
   2   3   0  372.96   16.93
  -2  -3   0  362.18   16.67
   3   3   0    0.00    2.24
   3   3   0   -2.57    2.60
  -3  -3   0   -0.44    2.82
  -3  -3   0   -0.88    2.60
   3  -3   0    2.31    5.02
  -3  -3   0    1.21    2.20
  -4  -3   0   91.36    7.92
   4  -3   0   89.97    6.23
   4  -3   0   84.58   18.98
   4   3   0   96.23    9.09
  -4  -3   0   93.34    8.17
  -4  -3   0   78.46   10.15
   4   3   0  103.20    7.62
  -5  -3   0    1.87    2.64
  -5  -3   0   -2.64    2.86
   5  -3   0   -0.18    1.83
  -5  -3   0    0.88    3.30
   5  -3   0    3.48    4.25
  -6  -3   0 2022.65  115.25
   6   3   0 2342.25  156.59
   6  -3   0 2274.86  198.33
   6  -3   0 2125.63  133.69
   6  -3   0 2272.62  153.04
  -6  -3   0 2223.70  192.43
  -6  -3   0 2168.51  160.15
  -6  -3   0 2334.19  164.32
  -6   3   0 2192.15  214.57
  -7  -3   0    2.20    5.83
   7   3   0   -0.92    5.13
   7  -3   0    0.07    2.16
   7  -3   0    5.90    7.44
  -7   3   0    0.00    1.32
  -7  -3   0   -3.08    5.28
  -7  -3   0   -0.59    4.18
  -7   3   0    0.33    5.83
  -7  -3   0    2.53    1.43
  -8  -3   0 1920.63  108.58
   8  -3   0 1966.40  118.59
   8  -3   0 2120.17  168.72
   8  -3   0 2185.22  129.69
  -8  -3   0 1823.77  136.14
  -8   3   0 1924.37  116.68
  -8  -3   0 1897.61  183.27
  -8   3   0 1930.38  183.53
  -8  -3   0 1998.28  156.01
   8   3   0 1998.21  139.04
  -8  -3   0 1978.16  149.70
   9  -3   0    1.06    4.87
   9  -3   0   -1.69    2.49
   9  -3   0   -3.08    4.03
  -9  -3   0   -0.70    2.27
   9   3   0    0.22    3.77
  -9  -3   0   -0.26    1.65
  -9  -3   0    1.21    4.14
  -9  -3   0   -2.02    4.29
  -9   3   0   -3.11    5.53
 -10  -3   0  918.48   69.01
 -10  -3   0  979.90   56.29
 -10  -3   0  877.73   58.27
  10  -3   0  946.48   68.31
  10   3   0  941.06   62.37
 -10   3   0  835.48   38.08
 -10   3   0  862.78   68.57
 -10  -3   0  797.33   45.66
  10  -3   0 1002.84   44.89
  10  -3   0 1053.27   63.95
 -10  -3   0  918.15   43.68
  11  -3   0    3.30    7.59
  11   3   0   -3.33    4.07
  11  -3   0    2.68    2.57
 -11  -3   0   -1.32    2.75
  11   3   0   -0.48    1.17
 -11   3   0    8.61    5.28
 -11  -3   0    3.96    4.62
 -11   3   0    0.95    1.65
 -11  -3   0    1.47    6.12
  11  -3   0   -1.06    2.68
 -11  -3   0   -6.74    8.72
 -11  -3   0    0.51    2.35
 -12  -3   0   20.63    8.58
  12  -3   0   25.58    8.32
  12   3   0   18.32    3.37
 -12  -3   0   32.36    7.00
 -12   3   0   16.60    9.38
  12  -3   0   27.67    4.87
 -12  -3   0   15.50   16.20
 -12  -3   0   18.98    5.06
 -12  -3   0   28.84    4.36
 -12   3   0   24.55    1.91
  12   3   0   19.97    7.11
  13  -3   0    3.15    4.65
 -13   3   0    0.77    1.47
 -13  -3   0   -1.50    5.09
 -13  -3   0    1.36    7.48
  13   3   0    1.61    4.40
  13   3   0   -0.81    2.27
 -13  -3   0    1.72    4.14
  13  -3   0    2.64    7.73
 -13  -3   0   -0.66    6.52
  13  -3   0    0.84    2.64
 -13  -3   0   -0.70    1.80
 -14  -3   0  110.05   17.66
  14  -3   0  128.67    9.89
  14  -3   0  128.19   17.99
 -14  -3   0  132.04   22.10
 -14  -3   0  123.39    7.81
 -14  -3   0  118.33   16.38
  14  -3   0  128.52   10.22
  14   3   0  117.34   15.21
 -14  -3   0  121.34   10.41
 -14   3   0  112.32   19.64
 -15  -3   0   -1.06    6.23
 -15   3   0   -8.58   10.44
  15  -3   0    5.39    3.30
 -15  -3   0   -0.48    9.31
 -15  -3   0    1.14    3.44
  15   3   0   -1.65    5.31
  15  -3   0   -2.42    5.86
 -15  -3   0    1.50    4.76
 -15  -3   0   -0.81    7.92
  16  -3   0  541.71   48.08
 -16  -3   0  499.97   70.33
 -16  -3   0  550.25   87.99
 -16  -3   0  538.45   31.77
 -16  -3   0  526.10   48.70
  16   3   0  549.67   62.12
 -16   3   0  512.80   71.68
 -16  -3   0  500.30   28.00
  17  -3   0    2.20   10.55
  17   3   0    4.76    9.09
 -17  -3   0    1.39    2.75
 -17  -3   0   12.42   10.30
 -17   3   0   -5.72   13.23
 -17  -3   0   -1.03   13.19
 -17  -3   0   -3.52    9.38
  17  -3   0    1.39    2.13
  18   3   0  157.29   22.68
 -18  -3   0  164.76   24.85
 -18  -3   0  172.72   15.21
  18  -3   0  180.71   26.86
 -18  -3   0  184.37   27.23
 -18  -3   0  179.68   18.58
 -18   3   0  193.35   34.37
 -18  -3   0  170.81   33.97
 -19  -3   0    0.92    4.95
  19  -3   0   -2.79   12.53
  19   3   0   11.21    7.11
 -19  -3   0   -4.76    8.87
 -19  -3   0    4.76    9.97
  20   3   0  147.06   21.40
 -20  -3   0   89.16   40.60
 -20  -3   0  111.59   11.84
 -20  -3   0  124.53   26.57
  20  -3   0  150.73   24.15
 -21  -3   0    5.79   14.88
  21   3   0    1.21   12.35
 -21  -3   0   -2.64    9.60
  21  -3   0   -7.15   12.75
  22  -3   0   55.74   16.23
 -22  -3   0   48.01   17.44
  22   3   0   -0.48   15.90
 -22  -3   0   27.56   17.26
 -22   3   0   16.56   24.41
 -23   3   0   -7.48   23.12
 -23  -3   0    3.52   10.44
  23   3   0    2.27    9.38
 -23  -3   0   -2.71   15.43
  23  -3   0    1.17   14.77
   0   4   0   93.74    9.38
   0  -4   0  103.71   11.91
   1   4   0    0.40    2.71
  -1   4   0    2.27    5.97
  -1  -4   0   -1.14    4.69
  -1  -4   0   -1.10    2.38
   1  -4   0    4.43    5.06
   1   4   0   -0.77    1.54
  -2  -4   0  771.67   39.21
  -2  -4   0  819.68   35.62
   2   4   0  839.21   48.74
   2   4   0  800.92   41.12
  -2  -4   0  855.30   53.54
   2   4   0  771.45   40.35
   3   4   0   -3.63    4.84
  -3  -4   0    1.50    2.57
  -3  -4   0   -1.17    2.57
   3   4   0   -1.06    5.31
   3   4   0    2.79    2.64
   4   4   0  128.78   16.86
   4   4   0  118.81    9.49
   4  -4   0  137.79   29.61
  -4  -4   0  122.11   14.55
  -4  -4   0  133.10   10.22
  -5  -4   0    1.65    5.75
   5  -4   0    3.59    2.57
  -5  -4   0   -0.51    3.63
   5   4   0    0.55    3.19
  -5  -4   0    1.94    3.55
   5   4   0    0.81    5.86
   5  -4   0   -0.04    5.53
   6   4   0  190.12   13.56
  -6  -4   0  147.28   16.12
   6  -4   0  158.50    9.38
   6  -4   0  166.71   18.84
  -6  -4   0  192.73   21.15
  -6  -4   0  168.36   12.64
   7  -4   0   -3.22    5.50
   7   4   0   -2.16    6.08
  -7  -4   0    1.06    3.22
  -7  -4   0    1.10    5.79
  -8  -4   0  380.03   24.81
  -8  -4   0  379.70   26.94
   8  -4   0  360.83   32.76
   8  -4   0  382.26   28.00
   8  -4   0  339.46   19.39
   8   4   0  367.13   24.55
  -8  -4   0  324.11   33.86
  -8  -4   0  347.34   15.43
  -8   4   0  311.50   18.69
   9  -4   0   -0.88    1.61
  -9  -4   0   -0.29    3.99
   9  -4   0   -2.31    4.07
  -9  -4   0    1.54    6.08
  -9  -4   0    2.82    2.64
  -9  -4   0    0.22    1.65
   9  -4   0    4.03    5.39
  -9  -4   0    0.77    3.52
  10  -4   0  746.97   35.73
 -10  -4   0  753.39   69.52
 -10  -4   0  724.22   49.22
 -10  -4   0  721.21   40.68
  10  -4   0  786.41   41.89
 -10  -4   0  671.96   53.72
  10  -4   0  726.96   60.69
  10   4   0  777.68   63.91
 -11  -4   0    0.00    2.42
 -11  -4   0   -5.17    6.74
 -11   4   0   -0.99    2.02
 -11  -4   0   -0.59    3.04
 -11   4   0    2.71   10.85
  11   4   0   -3.63    4.40
  11  -4   0   -6.27    8.87
  11  -4   0   -2.93    3.08
 -11  -4   0    1.36    4.87
 -11  -4   0    0.11    4.69
 -12  -4   0  693.29   37.31
 -12  -4   0  625.56   45.63
 -12   4   0  680.53   86.82
 -12  -4   0  579.97   35.69
  12   4   0  698.53   49.44
  12  -4   0  718.13   59.62
  12  -4   0  722.86   39.58
  12  -4   0  728.14   41.41
 -12  -4   0  646.23   54.38
 -12  -4   0  631.94   58.93
  13  -4   0    1.03    5.35
  13   4   0   -4.21    4.84
  13  -4   0    1.25    5.50
  13  -4   0    0.48    3.08
 -13  -4   0   -3.74    5.42
 -13   4   0    1.39    7.66
 -13  -4   0   -3.37    5.24
  13   4   0    1.72    2.71
 -13  -4   0    3.04    4.80
 -14   4   0   37.09   16.71
  14  -4   0    4.10   12.53
 -14  -4   0    6.45    9.31
  14  -4   0   18.65    4.69
 -14  -4   0   15.90    3.15
 -14  -4   0   12.35    7.77
  14   4   0   12.24    6.93
 -14  -4   0   19.28   10.55
 -14  -4   0   13.38    4.25
 -15   4   0   13.45   12.02
 -15  -4   0   -1.91    3.81
 -15  -4   0    4.43    6.89
  15  -4   0   -0.40    3.33
  15  -4   0   -1.43    2.16
  15   4   0   -0.99    1.58
 -15  -4   0    6.23    5.72
  15   4   0   -0.70    5.24
  15  -4   0   -1.61    6.27
 -15  -4   0   -5.24    5.35
 -16  -4   0   -5.24   10.96
  16  -4   0    9.71    3.01
 -16  -4   0   10.63   12.28
  16   4   0   11.29   11.07
 -16  -4   0   18.29    7.29
  16  -4   0    9.13   13.08
 -16  -4   0   13.08   15.17
 -17  -4   0    6.89    7.00
 -17  -4   0   -8.54   11.36
 -17  -4   0    0.70   10.55
  17  -4   0   -1.69    2.24
 -17  -4   0   -1.61    2.42
  17  -4   0   -6.19    6.82
  17   4   0    8.54    9.27
  18  -4   0    0.29   14.29
 -18  -4   0    4.47    5.90
  18   4   0    7.04   11.51
 -18  -4   0    6.41    6.93
 -18  -4   0    3.92    9.24
 -18  -4   0   11.98    9.16
  19  -4   0    0.59    8.17
 -19  -4   0   -4.62    8.25
  19   4   0    7.29    6.96
 -19  -4   0   -1.21    7.59
 -20  -4   0    4.84   14.55
  20  -4   0    8.91   14.51
 -20  -4   0    4.98    3.81
  20   4   0    6.56    8.47
 -20  -4   0   -1.65    9.93
 -21  -4   0    2.90   15.98
  21  -4   0    0.07    9.24
 -21  -4   0    9.38   14.22
  21   4   0    1.83   13.01
  22  -4   0    7.55   15.76
  22   4   0    1.50   14.66
 -22  -4   0    1.06   14.95
 -23   4   0    4.98   27.85
  23   4   0    0.55   10.33
 -23  -4   0    5.83   10.66
 -23   4   0   -7.84   15.94
  23  -4   0   -8.54   10.81
   0   5   0    2.13    2.75
   0  -5   0    0.37    3.19
   0   5   0   -1.17    6.05
   1  -5   0    3.99    5.94
  -1   5   0   -2.38    6.01
   1   5   0    2.05    1.76
  -1  -5   0    1.47    2.79
   1   5   0   -2.42    5.06
   2   5   0    6.05    4.43
  -2  -5   0    3.99    5.90
   2  -5   0   17.70    7.73
   2   5   0    6.27    4.07
  -2   5   0    8.03    4.91
  -2  -5   0    8.39    2.82
   2   5   0    9.75    4.87
  -2  -5   0   12.28    4.18
  -3  -5   0   -0.55    4.51
   3   5   0   -1.54    4.84
   3   5   0   -1.94    3.15
  -3  -5   0    1.21    2.09
   3   5   0    4.32    2.53
  -4  -5   0 1535.87  101.66
  -4  -5   0 1800.83  131.67
  -4  -5   0 1637.49  101.77
   4   5   0 1653.18  132.15
   4   5   0 1643.98  123.46
   5   5   0   -3.92    6.05
   5   5   0    0.62    4.84
  -5  -5   0    1.61    2.86
   6  -5   0 1324.71  115.69
   6  -5   0 1153.06   84.62
  -6  -5   0 1579.37  107.01
  -6  -5   0 1342.93   81.65
   6   5   0 1458.80  108.36
   6   5   0 1395.59  101.00
  -6  -5   0 1427.69  111.92
   7  -5   0   -1.10    5.94
   7   5   0    4.47    3.74
   7  -5   0    2.20    2.57
  -7  -5   0    2.82    6.74
  -7  -5   0   -2.46    6.27
  -7  -5   0    1.61    2.71
   8  -5   0  365.44   34.30
   8   5   0  381.24   34.81
  -8  -5   0  386.48   28.00
  -8  -5   0  361.45   17.04
   8  -5   0  342.47   23.78
  -8  -5   0  340.12   30.67
  -8  -5   0  335.28   31.41
  -9  -5   0    1.80    1.83
   9   5   0    1.43    3.81
   9  -5   0   -3.08    5.53
  -9  -5   0   -3.01    3.11
   9  -5   0    5.79    4.84
  -9   5   0    0.55    2.71
   9  -5   0    1.50    3.04
  10  -5   0  136.18   21.00
 -10  -5   0  116.94   12.61
  10   5   0  141.86   13.82
  10  -5   0  132.55    7.92
 -10  -5   0  123.28    7.11
 -10  -5   0  118.74   12.02
  10  -5   0  136.84   10.44
 -10  -5   0  130.39   14.18
 -10  -5   0  114.08   18.73
  11  -5   0    0.66    2.71
 -11  -5   0   -0.84    6.38
 -11  -5   0    2.49    3.04
 -11   5   0    0.88    2.20
  11  -5   0   -3.30    5.50
 -11  -5   0    0.11    5.90
 -11  -5   0    4.40    4.10
 -12  -5   0   98.84    9.86
  12   5   0  115.22   20.08
  12  -5   0  110.09    7.11
  12  -5   0  125.00   25.36
 -12  -5   0   93.01   13.16
 -12  -5   0  118.15    8.94
  12  -5   0  116.02   10.41
 -12  -5   0  123.39   19.61
 -12  -5   0  112.25   20.74
 -13   5   0    1.91    2.24
 -13  -5   0   -2.97    4.47
  13  -5   0    0.15    1.83
  13   5   0   -2.42    2.68
 -13  -5   0    1.03    3.70
  13  -5   0   -3.70    4.87
 -13  -5   0    2.97    4.47
 -13  -5   0   -1.28    2.97
 -13  -5   0    1.54    7.84
 -13  -5   0    4.25    2.27
  13  -5   0    0.33    5.68
  13   5   0   -0.73    4.43
  14   5   0   32.40    5.39
 -14  -5   0   49.44    9.71
 -14  -5   0   44.45    9.42
  14  -5   0   49.03   10.59
 -14  -5   0   41.56    5.02
  14  -5   0   46.18    5.02
 -14  -5   0   38.66   15.72
  14  -5   0   36.46   11.25
 -14  -5   0   40.75    9.13
  14   5   0   58.05    9.86
  15   5   0    4.10    5.17
 -15  -5   0   -4.95    5.50
 -15  -5   0   -1.80    8.61
 -15  -5   0   -1.98    8.21
  15  -5   0   -3.33    3.41
  15   5   0   -1.25    2.82
  15  -5   0    3.63    9.86
  15  -5   0    1.80    2.16
  16  -5   0  817.96   51.27
  16   5   0  872.97   91.40
 -16  -5   0  868.86   68.05
  16  -5   0  867.07   82.42
  16  -5   0  891.40   68.16
 -16  -5   0  833.86   72.34
 -16  -5   0  718.65   95.43
 -16  -5   0  706.19   52.26
 -17  -5   0    3.55    9.24
  17   5   0    4.73    8.80
 -17  -5   0   -1.36    2.53
  17  -5   0    2.31    1.87
 -17  -5   0   -0.33   10.48
 -17  -5   0   -0.84    3.85
  17  -5   0    0.18    3.63
  17  -5   0   10.00   11.73
 -17  -5   0   -1.94    9.45
  18   5   0  350.75   51.97
 -18  -5   0  353.68   24.52
  18  -5   0  352.21   42.95
 -18  -5   0  307.17   56.77
 -18  -5   0  352.32   41.26
 -19  -5   0    0.33    5.09
 -19  -5   0    9.16    7.26
 -19  -5   0    2.38    6.63
 -20  -5   0   -3.92    7.73
  20   5   0    0.33    7.62
 -20  -5   0   10.85    8.25
  20  -5   0   -0.07    9.20
  21   5   0    0.62    8.91
  21  -5   0    2.24   14.70
 -21  -5   0    6.52   12.86
  22  -5   0  118.55   27.27
 -22  -5   0  119.98   36.98
 -22  -5   0   80.11   26.06
   0  -6   0  896.93   65.12
   0   6   0  815.10   53.61
   0   6   0  742.36   43.02
  -1  -6   0    0.00    3.22
  -1   6   0   -1.03    6.56
   1   6   0    1.61    3.11
  -1   6   0    2.71    3.30
   1   6   0    9.27    5.68
   2   6   0  221.46   16.75
   2  -6   0  298.82   29.72
   2   6   0  228.75   28.91
  -2   6   0  253.74   21.69
  -2  -6   0  221.93   17.26
  -2  -6   0  216.44   22.43
   3   6   0   -3.30    6.19
  -3  -6   0    1.43    3.22
   3   6   0   -0.26    4.65
  -3  -6   0    0.44    2.31
   3   6   0   -2.09    3.85
  -3  -6   0    6.38    5.39
  -4  -6   0  588.00   47.38
   4   6   0  591.26   40.42
  -4  -6   0  556.96   25.43
  -4  -6   0  608.45   37.31
   4   6   0  559.53   46.18
  -5  -6   0    5.20    3.96
   5  -6   0    9.71    7.88
  -5  -6   0   -2.42    6.19
   5   6   0    1.50    7.22
  -5  -6   0    0.95    1.83
   5   6   0    0.99    5.94
  -6  -6   0    6.60    5.24
   6   6   0    8.28    5.28
   6   6   0   10.77    4.54
  -6  -6   0    6.16    3.74
   6  -6   0    1.03    3.74
   6  -6   0   17.85   12.13
   7  -6   0   -0.44    2.60
   7   6   0   -1.91    4.36
  -7  -6   0    1.03    2.05
  -7  -6   0    2.35    3.41
   7   6   0   -1.32    3.66
   7  -6   0   -3.15    9.05
   8  -6   0    2.79    9.38
   8  -6   0    0.66    4.14
  -8  -6   0    4.07    7.40
  -8  -6   0    3.37    4.14
  -8  -6   0   -0.26    3.85
   8   6   0    0.26    3.99
   9  -6   0    4.36    9.34
   9  -6   0   -3.19    4.87
  -9  -6   0    4.36    4.69
   9  -6   0   -1.50    3.63
  -9  -6   0    4.95    3.33
   9   6   0    0.92    3.99
  10   6   0  154.21   14.51
 -10  -6   0  124.42    8.25
 -10  -6   0  127.75   22.54
 -10  -6   0  116.13   10.81
 -10  -6   0  133.80   21.95
  10  -6   0  137.43   18.07
  10  -6   0  126.91   20.63
 -11  -6   0    3.11    2.24
 -11  -6   0   -0.15    4.32
  11  -6   0    6.41    7.18
  11  -6   0    0.81    5.42
 -11  -6   0    0.07    3.33
 -11  -6   0   -0.44    5.42
  11  -6   0    1.14    2.24
 -11  -6   0   -0.33    4.84
 -12  -6   0  157.14   17.33
 -12  -6   0  125.26   12.20
  12  -6   0  116.87   10.66
 -12  -6   0  106.24   16.75
 -12  -6   0  132.63   14.99
  12  -6   0  108.88    7.73
  12   6   0  129.07   22.13
  12  -6   0  111.22   18.91
 -13  -6   0   -1.54    2.75
 -13  -6   0    1.72    6.71
  13  -6   0    0.00    2.02
  13   6   0   -1.43    2.38
 -13   6   0   -0.37    1.61
 -13  -6   0    0.66    6.30
  13  -6   0   -0.07    3.15
  13   6   0    7.44    7.15
 -13  -6   0   -0.33    3.48
 -13  -6   0    5.72    5.28
  14  -6   0    2.35    2.27
 -14  -6   0   -2.35    9.56
 -14  -6   0   12.90    7.37
 -14   6   0    0.73    2.42
 -14  -6   0    4.36    4.69
 -14  -6   0    1.65    3.33
  14   6   0   -0.66    8.47
 -14  -6   0    2.38    4.95
  14  -6   0   -0.55    5.68
  14  -6   0    6.85    6.63
  14   6   0    2.09    3.22
 -14  -6   0    0.29    2.79
 -15  -6   0    4.43    5.06
  15  -6   0   -5.68    5.75
 -15  -6   0   -2.16    2.60
  15  -6   0    1.76    2.24
  15   6   0    0.44    2.97
 -15  -6   0   -0.70    5.28
  15   6   0    7.26    5.50
 -15  -6   0   -1.47    9.53
 -15  -6   0    2.53    7.37
  15  -6   0    3.81    6.45
  16  -6   0   38.96    5.20
 -16  -6   0   23.34   13.96
  16  -6   0   49.69    7.48
 -16  -6   0   41.92    8.54
 -16  -6   0   53.50   18.03
 -16  -6   0   56.14   19.64
  16  -6   0   39.76   20.89
 -16  -6   0   49.03    7.66
  16   6   0   48.45   17.66
  17  -6   0   -6.56    7.29
  17  -6   0    1.50    6.38
  17   6   0    2.86    8.72
 -17  -6   0   -0.48    3.85
 -17  -6   0    6.60    6.16
 -17  -6   0   -7.11   10.33
 -17  -6   0   -7.99    9.13
 -18  -6   0   51.45   12.06
 -18  -6   0   30.16   11.76
 -18  -6   0   27.19    5.42
  18  -6   0   27.85   20.71
  18   6   0   42.18   17.59
  19   6   0   -1.61   11.54
  19  -6   0   11.51    8.94
 -19  -6   0   -1.36    7.92
 -19  -6   0    2.24    7.11
  20   6   0    0.51    8.43
  20  -6   0    0.07   16.31
 -20  -6   0    6.60    8.98
 -20  -6   0   10.44    8.32
  21   6   0    2.05    9.05
  21  -6   0    0.37   10.88
 -21  -6   0   -4.54    8.94
  22  -6   0   82.90   25.76
 -22  -6   0  107.63   34.89
  22   6   0  113.75   22.94
 -22  -6   0   27.67   31.33
   0   7   0    2.68    7.00
   0  -7   0    3.22    4.03
   0   7   0   -0.29    3.52
  -1   7   0    1.06    1.83
   1   7   0    0.15    1.83
   1  -7   0   -3.70    3.77
   2   7   0  141.53   24.59
  -2   7   0  154.25   10.30
   2  -7   0  188.59   25.62
  -2  -7   0  145.85   19.50
  -2   7   0  161.36   17.15
  -2  -7   0  152.89   13.56
   2   7   0  147.94   12.75
   2   7   0  139.48   13.27
  -3  -7   0    0.62    3.88
  -3  -7   0   -0.62    3.85
   3   7   0    0.37    4.51
  -3   7   0    0.04    8.83
   3   7   0    3.55    4.43
   3  -7   0    3.08    7.66
   3   7   0    4.76    4.03
  -4  -7   0  366.62   26.20
   4   7   0  359.62   27.92
  -4  -7   0  405.90   36.46
  -4  -7   0  387.72   20.52
   4   7   0  338.10   29.43
  -5  -7   0   -0.66    3.99
   5  -7   0   -0.37    8.47
   5   7   0   -0.51    3.99
  -5  -7   0    1.83    6.52
   5   7   0    6.01    4.76
  -5  -7   0    3.85    2.68
  -6  -7   0  447.72   39.14
  -6  -7   0  348.84   26.06
   6  -7   0  292.00   39.29
   6   7   0  403.41   43.06
  -6  -7   0  354.93   23.67
   6   7   0  379.52   27.52
  -7  -7   0    0.07    7.29
  -7  -7   0    2.16    4.65
   7   7   0   -5.83    7.07
   7   7   0    6.23    8.83
  -8  -7   0  252.06   20.05
  -8  -7   0  219.62   17.81
   8  -7   0  201.67   22.02
   8  -7   0  223.88   29.94
   8   7   0  288.81   22.46
   9  -7   0   -1.28    2.79
   9   7   0    0.29    6.34
  -9  -7   0    1.25    3.96
   9  -7   0    3.04    6.12
  -9  -7   0    1.80    3.44
  -9  -7   0   -0.26    2.49
 -10  -7   0   33.68    7.62
  10  -7   0   23.16    5.90
 -10  -7   0   25.36    6.85
  10  -7   0   16.27   10.63
  10  -7   0   17.77    4.14
  10   7   0   29.46    7.44
 -10  -7   0   18.80    4.21
  11  -7   0    4.87   11.98
  11  -7   0    5.20    2.71
  11  -7   0    2.16    5.72
 -11   7   0   -0.99    3.74
  11   7   0   -0.51    5.20
 -11  -7   0    4.51    5.24
 -11  -7   0    3.55    4.73
 -11  -7   0    6.27    7.95
 -11  -7   0    5.53    6.56
  12  -7   0    0.11    8.25
 -12  -7   0    7.88    6.71
  12   7   0    8.25    8.61
  12  -7   0    2.64    2.60
  12  -7   0   -1.80    5.42
 -12   7   0    4.62    3.55
 -12  -7   0    0.70    4.32
 -12  -7   0    3.77    8.10
 -12  -7   0    4.40    2.97
 -13  -7   0   -5.42    5.75
  13  -7   0    4.73    6.34
 -13  -7   0    1.03    2.35
  13  -7   0   -0.40    4.91
 -13  -7   0    4.29    3.74
 -13  -7   0   -3.55    5.06
 -14  -7   0    7.04    4.95
 -14  -7   0   -4.91    6.52
 -14  -7   0    1.03    4.36
  14  -7   0    5.20    4.21
 -14  -7   0    1.47    3.37
 -14  -7   0   -1.06    5.17
  14  -7   0    0.22    3.88
  14  -7   0    8.87   11.03
  14   7   0    3.63    8.98
 -14  -7   0    6.08    5.86
  14   7   0   -2.20    3.55
 -15  -7   0   -3.70    4.58
  15  -7   0   -1.91    3.74
 -15  -7   0    1.47    4.73
  15  -7   0    2.46    3.59
  15  -7   0    4.76   11.14
 -15  -7   0   -6.30    6.63
 -15  -7   0    6.96    9.20
  15   7   0   -0.22    3.26
 -15  -7   0   -3.26    3.70
 -16  -7   0  273.28   34.34
 -16  -7   0  189.28   27.96
 -16  -7   0  268.04   29.76
  16  -7   0  246.82   33.83
  16   7   0  302.52   30.60
 -16  -7   0  292.59   34.04
  16  -7   0  229.04   29.35
 -16  -7   0  227.58   17.55
  17   7   0   -1.06    5.94
  17  -7   0    3.11   11.25
 -17  -7   0    1.91    2.79
 -17  -7   0   -1.10    5.02
 -18  -7   0  381.05   48.41
  18  -7   0  383.36   51.01
  18  -7   0  341.37   29.68
  18   7   0  384.46   56.69
 -19  -7   0    0.88    7.51
  19   7   0   -0.37   10.04
 -19  -7   0    0.37    5.42
  19  -7   0    0.11    8.21
 -20  -7   0    2.38    8.25
  20   7   0    3.85   15.21
 -20  -7   0   24.37   10.15
  20  -7   0    0.37   11.76
 -21  -7   0    5.94   11.76
  21   7   0    0.66    9.75
  21  -7   0    0.00   12.20
 -21  -7   0   17.55    9.64
   0   8   0   59.37    9.34
   0   8   0   36.83    6.19
   1   8   0    5.64    3.22
  -1   8   0   -4.21    4.54
  -1   8   0    0.37    2.13
   2   8   0    9.34    5.94
   2   8   0    5.39    4.25
  -2   8   0    1.06   10.08
  -2   8   0    7.95    3.01
  -2  -8   0    7.73    4.47
  -3   8   0   -2.35    4.47
  -3   8   0    4.07    8.32
   3   8   0   -1.39    4.58
   3   8   0    9.49    6.89
  -3  -8   0   -1.21    3.66
  -3  -8   0    0.81    3.85
  -4  -8   0  191.99   17.52
  -4  -8   0  178.40   15.68
  -4   8   0  221.71   32.40
   4   8   0  186.31   28.11
   4  -8   0  232.71   28.33
   4   8   0  170.88   18.32
  -5  -8   0   -1.39    4.58
   5   8   0   -1.65    4.91
  -5  -8   0    1.91    2.46
  -5   8   0    2.31    5.79
   5   8   0    3.74    5.35
   5  -8   0   12.64   13.41
   5  -8   0    8.39    7.59
  -5  -8   0   -0.84    3.96
  -6  -8   0  155.09   15.61
   6   8   0  149.52   15.36
  -6  -8   0  141.46   10.44
   6  -8   0  121.96   24.81
  -6  -8   0  188.91   17.33
   6   8   0  186.46   20.96
   7  -8   0    1.03    7.11
  -7  -8   0    2.02    3.15
   7  -8   0   -2.64    3.52
   7   8   0    1.50    7.18
  -7  -8   0   -2.13    4.54
   7   8   0    1.54    8.21
  -8  -8   0   95.98   12.02
  -8  -8   0  116.02   12.64
   8   8   0   96.01   13.71
   8  -8   0   62.70   28.40
  -8  -8   0  129.36   21.48
   8   8   0   85.86   24.74
   9  -8   0    4.43    5.46
   9   8   0    6.89    7.81
  -9  -8   0   -2.68    4.91
  -9  -8   0    0.62    4.03
   9  -8   0   -8.39   10.66
  -9  -8   0    7.59    4.87
 -10  -8   0  159.08   25.73
 -10  -8   0  116.94   12.46
  10  -8   0  115.11   16.12
 -10  -8   0  153.04   17.15
  10   8   0  163.56   17.52
  10  -8   0  127.75   32.10
  11  -8   0    6.45    7.07
  11  -8   0    2.31    4.51
 -11   8   0   -0.15    3.77
  11   8   0    0.55    5.50
 -11  -8   0    0.04    4.76
 -11  -8   0    1.72    5.17
  11  -8   0    9.82    4.03
 -11  -8   0   -1.72    3.15
 -12  -8   0  195.77   19.53
 -12  -8   0  169.38   12.24
 -12  -8   0  123.28   17.04
  12   8   0  196.46   29.57
  12  -8   0  130.17   14.73
  12  -8   0  158.24   14.48
  12  -8   0  177.30   27.63
  13  -8   0   -3.33    4.10
 -13  -8   0    3.37    5.02
 -13  -8   0    0.18    8.76
  13  -8   0   -1.91   10.77
 -13  -8   0    0.04    4.36
  13   8   0    4.91    8.28
  13  -8   0    3.33    3.37
 -13   8   0   -0.29    2.09
 -14  -8   0    5.61    3.41
  14   8   0    3.04   10.19
  14  -8   0    7.59    7.04
 -14  -8   0    7.92    6.74
 -14  -8   0    6.85    4.29
  14   8   0    2.24    2.79
 -14  -8   0   14.33   11.07
  14  -8   0    5.90    4.87
  14  -8   0    6.89    8.91
  15  -8   0    2.82    7.44
  15   8   0   -1.72    2.20
  15   8   0   -4.91    5.90
 -15  -8   0    5.06    3.33
 -15  -8   0   -1.47    3.11
 -15  -8   0    1.14    3.85
 -15  -8   0    4.18    6.12
 -15  -8   0    3.33    5.97
 -16  -8   0    0.22    5.13
  16   8   0   17.88    7.92
 -16  -8   0   12.64    6.63
  16  -8   0    6.27    5.31
  16  -8   0    1.61   14.40
  17   8   0   -3.19    7.66
  17  -8   0   -5.79    9.24
  18   8   0   -0.62    6.85
  18  -8   0    2.49    8.87
  19  -8   0    0.04   13.82
  19  -8   0    0.26    3.88
  19   8   0   -0.66    9.89
  20  -8   0    0.04    8.61
  20   8   0   -0.29   12.35
  21   8   0    0.70   13.71
  21  -8   0    0.00   15.61
   0   9   0    2.79    3.48
   1   9   0   -2.68    3.01
  -1   9   0    0.18    7.26
   1  -9   0    4.18    4.40
  -1  -9   0    2.20    3.88
  -2  -9   0   13.67    5.06
  -2   9   0   13.52    5.13
   2   9   0    3.81    6.93
   2   9   0    6.82    5.17
  -2   9   0   -2.35   10.04
  -3  -9   0    4.76    4.29
  -3   9   0   13.41    9.02
   3   9   0    9.27    8.65
   3   9   0    1.54    4.87
   3  -9   0   -4.98    5.53
   3   9   0   -0.11    7.55
  -4   9   0  292.44   31.52
  -4  -9   0  359.65   29.24
   4   9   0  362.51   44.42
  -4   9   0  373.73   47.42
  -4  -9   0  284.42   25.25
   4  -9   0  393.95   44.20
   4   9   0  321.61   38.11
   5  -9   0    3.26    8.61
  -5   9   0    8.10    6.08
   5   9   0   -0.04    5.09
   5   9   0   -4.87    5.53
  -5  -9   0   -2.68    4.69
  -5  -9   0   -3.33    4.32
  -6  -9   0  436.54   38.55
   6   9   0  475.20   47.60
   6   9   0  474.80   44.60
  -6   9   0  594.08   54.16
   6  -9   0  606.36   46.50
  -6  -9   0  478.61   42.91
  -7  -9   0    7.77    7.73
  -7  -9   0    1.91    2.90
   7   9   0    4.73    8.87
   7   9   0    4.47    6.12
   7  -9   0   -7.84   11.40
   7  -9   0    5.28    4.58
   8   9   0    6.30    7.95
   8  -9   0    0.04   13.30
   9   9   0    5.42    8.17
  -9  -9   0   -1.80    4.98
  -9  -9   0   -0.04    7.29
   9  -9   0    5.39    7.22
   9  -9   0   -1.61    3.59
 -10  -9   0   43.17    6.82
  10   9   0   78.94   11.62
 -10  -9   0   65.93    8.10
  10  -9   0   41.45    7.59
  10  -9   0   49.47   15.28
 -10  -9   0   62.52   10.81
 -10  -9   0   54.49   16.86
 -11  -9   0   -3.26    5.46
 -11  -9   0    2.20    5.24
 -11  -9   0    0.84    4.14
  11  -9   0    6.93    7.18
 -11  -9   0    2.20    3.52
  11  -9   0    1.25    3.96
 -12  -9   0   11.07    7.66
  12  -9   0   15.21   17.19
 -12   9   0    8.06    6.08
  12  -9   0   12.94    7.95
  12  -9   0   12.24    3.99
 -12  -9   0   14.95    7.81
 -12  -9   0   11.98    7.40
  12   9   0   24.63   12.39
 -12  -9   0   10.37    6.93
  13  -9   0    4.51    8.76
 -13  -9   0    1.06    9.24
  13  -9   0   -1.91    6.49
 -13  -9   0   -0.84    9.31
  13   9   0   -6.89    9.71
  13  -9   0    1.14    3.26
 -13  -9   0    3.63    3.44
  14   9   0   20.78   10.44
 -14  -9   0   -5.06    6.82
  14  -9   0    1.80    3.19
  14  -9   0    4.51    4.25
  14  -9   0   -3.04    8.80
 -14  -9   0    3.48    3.63
  15  -9   0    1.43   13.12
  15  -9   0    3.08    2.86
  15   9   0    8.61    6.63
  15  -9   0    1.25    4.29
 -15  -9   0   -0.51    5.68
  16   9   0   45.88   10.55
 -16  -9   0   13.38    7.81
  16   9   0   10.52    5.94
  16  -9   0   22.32   13.63
  17  -9   0   21.40    9.75
  18  -9   0   -0.07   31.66
  18  -9   0   71.90   10.26
  19  -9   0    0.00   10.15
  19   9   0    2.02    8.65
  20   9   0   -1.39    8.87
  20  -9   0   -0.04    9.75
   0  10   0  128.01   13.38
  -1  10   0   -4.58    5.57
   1  10   0    1.43    3.81
  -1  10   0   -3.15    3.99
  -2  10   0   85.94   12.94
  -2  10   0   54.64   11.10
   2  10   0   51.71   10.08
   2  10   0   56.00   20.05
   3  10   0    0.37    5.79
   3 -10   0   -2.02    5.09
  -3  10   0    3.48    9.20
   3  10   0   -3.11    8.76
  -3 -10   0    9.86    4.62
  -3  10   0    1.98    3.44
  -4  10   0   41.12    6.82
  -4 -10   0   53.17    8.98
   4  10   0   36.87   15.39
  -4  10   0   53.72   18.51
  -5 -10   0   -2.71    4.51
   5 -10   0    1.94    8.32
   5  10   0    0.84    5.50
   5 -10   0   -0.07   12.42
  -5  10   0   -1.47    3.33
   5  10   0   -1.83    4.98
  -5 -10   0    2.13    4.43
  -6 -10   0   16.82   10.92
   6 -10   0   -0.04   16.23
  -6 -10   0   14.40    7.00
   6  10   0   16.97    7.73
   6 -10   0   26.39    8.21
  -6  10   0   19.90    9.34
   6  10   0    2.05    8.80
  -7 -10   0    5.06    5.35
   7 -10   0    0.00   12.35
  -7  10   0    8.43   11.51
  -7 -10   0    2.31    8.06
   7  10   0    4.25    6.52
   7 -10   0    2.31    4.73
   7 -10   0   -0.95    5.72
   7  10   0   -6.89   10.11
   8  10   0   13.82    7.81
  -8 -10   0   14.29    6.49
   8 -10   0   14.99   10.88
   8 -10   0    0.04    9.53
  -8  10   0   16.27    8.39
   8 -10   0    4.21    5.53
   8  10   0    3.99    8.43
  -8 -10   0    9.89    9.27
   9 -10   0    3.99    8.10
  -9 -10   0    4.62    8.87
   9  10   0   -0.77   10.85
   9 -10   0    9.27    6.63
  -9 -10   0   -3.96    8.25
 -10 -10   0  339.13   36.87
  10 -10   0  232.52   39.03
 -10 -10   0  326.45   33.09
  10  10   0  326.08   34.30
 -10 -10   0  340.49   28.40
  11 -10   0   -3.96    7.40
 -11 -10   0   -4.51    7.29
  11 -10   0   -5.39    5.50
  11  10   0    1.91    6.19
 -11 -10   0   -3.44    6.27
  11 -10   0    6.08   12.83
 -11 -10   0   -2.05    9.09
  12  10   0  261.77   43.98
  12 -10   0  220.87   52.84
 -12 -10   0  300.39   43.02
 -12 -10   0  239.45   30.56
  12 -10   0  204.71   32.10
 -12 -10   0  269.83   31.19
  13  10   0   -1.76    9.31
  13 -10   0    3.30    4.10
  13 -10   0   -4.69    5.13
 -13 -10   0   -1.32    6.67
 -13 -10   0   -1.28    3.81
  13 -10   0   -8.83    8.91
 -13 -10   0    4.36    6.01
  14 -10   0    7.84    7.95
  14 -10   0    1.94    3.70
 -14 -10   0   -2.24   10.74
  14 -10   0   -0.51    4.58
 -15 -10   0   -3.01   11.95
  15  10   0    9.20    6.89
  15 -10   0  -13.16   14.33
  15  10   0    0.40    3.04
  16 -10   0   31.00   16.38
  16  10   0   33.20   13.30
 -16 -10   0   36.06   20.23
  17 -10   0    0.11   14.95
  17  10   0    7.70    8.03
 -17 -10   0    2.02   11.51
  17 -10   0   -0.84    4.76
  18 -10   0   -0.29   15.17
 -18 -10   0    4.36    7.48
  18  10   0   -2.57    8.39
 -19 -10   0   25.58   17.81
  19 -10   0    0.00   14.66
  19  10   0   17.19   11.69
   0 -11   0    3.59    4.69
   1 -11   0    9.31    5.90
  -1  11   0   10.22    4.73
   1  11   0    3.01    4.84
   2  11   0    6.56    7.04
  -2  11   0   12.50    7.59
  -3  11   0    4.98    4.95
   3  11   0   -2.49    5.57
  -3  11   0    2.90    6.30
   4 -11   0  160.11   19.39
  -4  11   0  186.13   36.06
   4  11   0  160.77   21.59
  -4 -11   0  121.52   23.82
  -5  11   0   20.96   11.58
   5  11   0   -0.70    6.34
   5 -11   0    2.02    6.52
  -5 -11   0    1.87    4.91
   5 -11   0    0.00    8.98
  -5  11   0    2.02    4.10
  -6  11   0  140.54   25.80
   6  11   0  181.29   24.81
  -6  11   0  191.92   25.40
   6  11   0  162.02   22.02
  -6 -11   0  150.36   19.17
   6 -11   0  213.25   33.50
  -7 -11   0    0.77    7.81
   7  11   0   -3.37    9.60
   7  11   0   -0.29    6.27
  -7  11   0    2.09   10.44
  -7 -11   0   -0.84    5.46
  -7  11   0    3.37    7.15
   7 -11   0    7.18    5.72
   7 -11   0   -1.47    4.87
   7 -11   0   -0.04   12.42
   8  11   0  143.22   23.09
   8  11   0  161.54   25.73
  -8 -11   0  161.80   21.00
   8 -11   0  164.54   31.44
  -8 -11   0  123.13   26.86
  -8  11   0  167.44   25.84
   9 -11   0   -1.14    6.30
   9  11   0    2.42   10.44
  -9  11   0   -1.80   12.06
   9 -11   0    1.10    8.06
  10 -11   0   40.20    9.56
  10 -11   0    8.39   12.02
  10  11   0   22.02   10.66
 -10 -11   0   43.61   10.92
 -10  11   0   23.20   11.18
 -10 -11   0   21.00    9.20
  10 -11   0   10.85    9.56
 -10 -11   0   13.34    7.81
 -11 -11   0    3.01    6.45
  11  11   0    7.84    7.40
  11 -11   0   -2.60   13.19
  11 -11   0   -2.42    6.23
 -11 -11   0    1.47    8.25
 -11 -11   0    3.01   11.07
 -11  11   0    0.29    7.73
  12  11   0    2.16   11.62
 -12 -11   0    5.35    9.82
  12 -11   0   -2.27    8.47
  12 -11   0    4.14    4.76
  12 -11   0   -3.41    6.45
 -12  11   0   -0.04    3.59
 -12 -11   0    0.40   10.59
  13 -11   0   -0.04    4.36
  13 -11   0   13.45    9.53
  13  11   0   -3.33    9.97
 -13 -11   0   -6.19    7.07
  13 -11   0    1.72    5.83
 -13 -11   0    5.83    9.75
  14 -11   0   10.08   16.05
 -14 -11   0    7.18    8.28
  14 -11   0    5.06    6.52
  14 -11   0   -3.66    8.10
  14  11   0   16.93    8.39
 -15 -11   0   16.05   10.96
  15 -11   0    1.17   10.15
  15 -11   0   -0.26    7.29
  15  11   0   -2.38    7.15
  16 -11   0    0.15    9.31
 -16 -11   0   -2.97   10.26
  16  11   0    0.22    7.11
  16 -11   0    0.15    4.58
  17 -11   0   -0.59    4.43
  17  11   0    0.70    8.21
  17 -11   0    0.04   14.55
 -17 -11   0   11.62   11.43
  18 -11   0    0.00   15.21
  18  11   0   31.81   13.01
 -18 -11   0   25.21   18.65
   1  12   0    6.12   12.17
   2 -12   0   76.01   12.31
  -2 -12   0   52.41   11.87
   2  12   0   64.72   20.82
  -3  12   0    4.25    6.96
  -3 -12   0    4.10    5.31
   3  12   0    0.70    9.78
  -4  12   0    2.31    4.69
   4  12   0   -1.58    9.02
  -4 -12   0   10.55    7.22
  -5 -12   0   -2.27    7.62
  -5  12   0   -8.65   10.85
   5 -12   0   -2.24    5.17
  -5  12   0    2.31    5.57
   5 -12   0   -0.04    9.09
   5  12   0    0.44    9.64
   6 -12   0   58.12   16.56
  -6  12   0   70.25   15.90
   6  12   0    6.71   25.36
  -6  12   0   36.98   13.12
   7  12   0   10.33   10.08
   7  12   0   -0.73    7.59
  -7 -12   0    7.00    5.97
   7 -12   0    0.00   11.91
   7 -12   0   -2.60    5.20
  -7  12   0    3.37   11.76
   7 -12   0   -2.97    6.30
  -8 -12   0   -4.95    7.33
   8 -12   0    0.00    9.09
   8 -12   0   -4.69   11.29
   8  12   0   -4.84    7.73
   8  12   0    4.14    9.45
  -8 -12   0    1.54    9.49
   9 -12   0    2.90    6.49
  -9 -12   0    5.72    6.89
   9 -12   0   -4.47    6.82
   9  12   0   -9.53   10.99
  -9 -12   0   -3.70    8.94
  -9  12   0   -0.92    8.10
   9 -12   0   -0.77    7.99
  10 -12   0  102.76   30.09
 -10  12   0  209.33   31.92
 -10 -12   0  158.72   42.88
  10  12   0  188.48   29.32
 -10 -12   0  158.79   24.74
  10 -12   0  221.20   26.86
  11  12   0    1.21    7.59
 -11 -12   0    7.81    7.00
  11 -12   0    0.55    7.95
  12 -12   0   31.85   12.79
  12 -12   0   42.88   10.33
 -12 -12   0   89.60   24.48
  12  12   0   48.26   25.58
  12 -12   0   49.80   18.10
 -13 -12   0    2.46   11.25
  13 -12   0    1.06    5.09
  13  12   0    1.72    8.91
  13 -12   0    4.58    3.85
  13 -12   0   -8.50   10.33
  14 -12   0   19.17   17.37
  14  12   0    6.34   10.44
 -14 -12   0   11.54    8.43
  14 -12   0   -1.54    8.47
 -15 -12   0    2.24    7.00
  15 -12   0   -0.33    4.51
  15 -12   0    9.93    9.97
  16 -12   0    0.04   12.68
  16 -12   0    2.35    5.68
  16  12   0   20.41   11.32
  17 -12   0   -0.04    7.40
  17 -12   0    0.07   18.58
  17  12   0    6.63   10.22
   0 -13   0    5.20    5.31
   0  13   0   -5.86    6.67
   1  13   0    6.01    7.18
   2  13   0   16.27    8.36
  -3 -13   0   -3.37    5.46
   3  13   0    2.49    7.22
  -4  13   0   27.74   11.69
   4 -13   0   19.31   15.21
   4  13   0   -3.19   18.47
  -4 -13   0   32.98    9.31
   5 -13   0   -0.04   10.44
  -5  13   0   -3.92   11.73
   5 -13   0    3.41    6.52
  -5 -13   0   13.56   10.33
   5  13   0    0.40   13.49
  -6  13   0   20.60    9.34
   6 -13   0   16.60   12.35
   6  13   0    2.86   15.65
  -6 -13   0   -2.90   11.80
   6 -13   0    0.00   11.84
   7 -13   0   -0.04   12.17
   7 -13   0   -3.74    5.06
   7  13   0    1.94   12.42
   7 -13   0    6.67    6.49
  -7 -13   0    3.08    6.34
   8 -13   0   11.10    5.83
  -8  13   0    0.88   10.22
   8 -13   0   -0.04   16.71
   8 -13   0   12.31   15.90
   8  13   0    1.76   16.67
  -9  13   0   -3.08    4.87
   9 -13   0   -4.21    6.74
   9 -13   0   -0.51    8.69
   9  13   0   17.81   12.31
 -10  13   0   22.79   11.84
  10 -13   0    6.27    9.02
  10  13   0   25.91   11.62
  10 -13   0    6.56   12.79
 -11 -13   0   -3.66    6.96
  11 -13   0    3.08   15.06
  11  13   0   -5.13   13.56
 -11  13   0    8.94    6.30
  11 -13   0    5.06    8.39
 -12 -13   0   13.82    7.37
  12 -13   0   -2.31   10.41
  12 -13   0    3.55    7.29
 -12  13   0    0.15    4.21
  12  13   0    8.47   14.29
  13 -13   0   -4.58   10.55
  13  13   0    9.89    8.39
  13 -13   0   -0.11    3.81
  13 -13   0    0.62    4.98
  14 -13   0    0.33    8.76
  14  13   0   21.84   11.54
  14 -13   0    9.89   20.01
  15 -13   0   -0.29    4.18
  15  13   0    2.68    8.91
  16 -13   0    0.00   11.29
  16 -13   0   -0.29    4.95
  16  13   0   -9.45    9.86
   0  14   0  142.67   39.07
   1  14   0    9.02   12.35
  -1  14   0    0.26    9.42
   2  14   0   10.74   14.48
   3  14   0    3.66    8.28
   4 -14   0   -0.62    7.15
   4 -14   0   -0.04    9.53
   4  14   0   -1.21    7.51
  -5  14   0   -7.51    8.03
   5  14   0    3.15    8.61
   5 -14   0   -0.04   16.27
  -6  14   0    1.87   11.10
   6 -14   0    0.48    7.37
   6  14   0   -1.94    7.55
   6 -14   0    0.00    8.17
   7 -14   0    0.00    9.13
   7  14   0   -0.18    9.16
   7 -14   0    5.20    8.87
   8 -14   0    6.01    6.19
   8 -14   0    7.62   15.50
   9 -14   0    8.21    9.82
  10 -14   0    9.71   12.61
  10 -14   0   35.51   14.07
  11 -14   0   17.66   13.52
  11 -14   0   -6.41    7.66
  12 -14   0    0.33    7.29
  12 -14   0    4.47   16.09
  12 -14   0   -3.30    5.61
  12  14   0   12.35    9.34
  13  14   0    9.24   10.15
  13 -14   0    0.51    5.35
  13 -14   0    4.98    4.29
  13 -14   0   -0.81   12.61
  14 -14   0   10.52   17.00
  14  14   0    4.73   10.26
  14 -14   0    0.11    7.40
   0  15   0   11.36   16.12
  -1  15   0   -2.86   14.55
   1  15   0    8.28    8.87
  -2  15   0    3.01    8.65
   2  15   0   -3.33    7.59
   3  15   0    1.25    7.95
   4  15   0    1.10   13.23
   5  15   0   -2.35   15.54
   5 -15   0   -8.76   10.99
   6 -15   0   -5.83    6.71
   6 -15   0    2.31   15.06
   7 -15   0   -1.72    9.05
   7 -15   0   -7.92   10.11
   8 -15   0   -0.66    8.72
   8 -15   0   -5.86    9.45
   9 -15   0    5.13    5.39
   9 -15   0   -0.48   15.32
  10 -15   0   -3.33    5.68
  10 -15   0    3.92   10.26
  11 -15   0   25.80   11.25
  11 -15   0    0.22   12.75
  11 -15   0    6.16    9.78
 -12  15   0    4.47    5.35
  12 -15   0   13.16    8.50
  12 -15   0   -2.27    6.82
  12 -15   0   40.46   18.65
   4 -16   0   -6.52   16.56
   5 -16   0    5.24   11.25
   6 -16   0   10.00   10.41
   6 -16   0   -3.52    9.24
   7 -16   0   11.95   18.43
   7 -16   0   10.26    6.82
   8 -16   0   25.25   13.08
   8 -16   0    5.02    9.93
   9 -16   0   19.79   12.68
   9 -16   0    2.24   11.91
   4 -17   0    2.60   10.00
   5 -17   0   10.41    7.37
   5 -17   0   -8.61   17.85
   0   0  -1    4.14    0.70
   0   0   1    3.63    2.13
   0   0  -1    3.96    2.42
   0   0  -1    5.53    1.06
   0   0   1    4.21    2.13
   0   0   1    2.20    1.03
   0   0  -1    1.61    1.32
   0   0   1    3.88    0.59
   1   0   1  560.77   17.88
  -1   0  -1  547.69   20.85
   1   0  -1  568.61   17.66
  -1   0  -1  555.09   24.66
  -1   0  -1  496.53   15.03
   1   0   1  538.49   20.89
   1   0  -1  543.00   17.19
  -1   0   1  543.47   17.48
   1   0   1  505.95   21.66
  -1   0   1  551.72   19.39
   1   0  -1  532.19   15.46
  -1   0   1  542.15   16.16
   1   0   1  506.24   14.81
  -2   0  -1    4.10    1.61
   2   0  -1    2.60    0.73
   2   0   1    1.14    2.71
   2   0   1    0.88    1.69
   2   0   1    4.51    1.61
   2   0   1    1.21    3.74
  -2   0  -1    1.36    2.05
  -2   0  -1    1.36    0.81
   2   0  -1    1.03    1.14
  -2   0   1    0.88    0.95
   2   0  -1    1.43    1.43
  -2   0  -1    0.22    2.24
   2   0  -1    3.37    1.61
  -2   0  -1    1.98    2.31
  -2   0   1    0.70    1.83
  -3   0  -1  400.51   25.18
   3   0  -1  360.83   13.60
   3   0   1  383.95   13.93
  -3   0   1  350.93   13.82
  -3   0   1  356.65   13.52
  -3   0   1  355.07   13.89
   3   0   1  397.40   24.99
  -3   0  -1  410.56   28.62
  -3   0  -1  351.59   29.68
   4   0  -1    1.10    1.36
  -4   0  -1    0.29    0.55
  -4   0  -1    0.66    0.88
  -4   0  -1    1.50    2.75
   4   0   1    1.61    1.21
   4   0  -1    1.06    1.32
   4   0   1    0.00    4.21
  -4   0   1    0.59    2.16
  -4   0   1    0.92    2.31
  -4   0  -1    6.30    5.61
  -4   0  -1    2.27    1.87
  -4   0  -1   -1.36    4.76
  -4   0   1    0.26    2.13
  -5   0  -1  255.10    6.71
   5   0   1  260.56   15.68
  -5   0   1  260.71   14.04
  -5   0  -1  292.85   26.17
   5   0  -1  261.40   13.74
   5   0  -1  267.49    9.78
  -5   0   1  252.39   13.30
   5   0  -1  247.18    9.93
  -5   0   1  273.13   12.39
   5   0   1  270.38    9.16
  -5   0  -1  256.02    8.61
  -5   0  -1  306.18   42.36
  -6   0  -1    0.15    1.25
  -6   0   1    1.47    2.82
  -6   0  -1    0.73    1.03
   6   0   1   -1.54    2.86
   6   0   1    1.39    2.16
  -6   0   1   -0.26    3.01
  -6   0  -1   -0.55    1.39
   6   0  -1   -0.22    1.61
   6   0  -1    0.29    2.79
   6   0  -1    1.58    2.71
  -6   0   1    1.36    2.68
  -6   0  -1    4.80    5.86
   6   0   1   -0.26    2.20
   7   0  -1   39.65    5.64
  -7   0   1   38.22    6.23
  -7   0   1   31.99    3.48
   7   0  -1   34.89    3.70
   7   0   1   41.67    6.38
  -7   0   1   37.12    6.30
   7   0  -1   38.81    5.06
  -7   0  -1   41.63   11.76
   7   0   1   40.90    6.67
  -7   0  -1   34.23    2.49
  -7   0  -1   34.41    4.07
  -7   0  -1   37.38    4.47
  -8   0  -1    3.30    8.87
  -8   0  -1   -0.44    1.28
  -8   0   1    1.36    1.80
  -8   0   1    2.68    3.77
  -8   0  -1    1.50    1.58
  -8   0   1    2.53    2.27
   8   0  -1    0.00    3.19
   8   0   1   -0.92    3.48
   8   0  -1   -1.32    1.72
  -8   0  -1    0.07    1.32
  -9   0  -1   99.86    8.39
  -9   0  -1   95.17    3.88
   9   0   1   95.32    4.51
  -9   0   1  101.84   11.54
   9   0  -1  110.05    8.50
  -9   0   1  106.42    7.37
  -9   0  -1   99.83   13.45
   9   0  -1   89.60   10.30
   9   0   1   90.66   10.92
  -9   0   1   90.37    6.12
 -10   0  -1    1.69    2.31
  10   0  -1    2.46    1.91
  10   0   1    2.31    2.60
 -10   0  -1    3.01    4.84
 -10   0  -1    2.49    1.91
 -10   0   1   -2.86    8.76
 -10   0   1    1.98    3.99
  10   0  -1    0.51    3.99
  10   0   1   -3.59    6.56
 -10   0   1    3.41    3.77
 -11   0   1   22.54    7.18
 -11   0  -1   17.00    7.15
 -11   0   1   11.47    7.51
  11   0  -1   21.48    4.73
  11   0  -1   23.27    6.30
  11   0   1   17.99    6.23
  11   0   1   24.37    4.80
 -11   0   1   16.31    3.52
 -11   0  -1   18.76    3.55
  12   0   1   -0.88    2.57
 -12   0  -1   -0.59    3.81
 -12   0   1   -0.55    2.86
 -12   0  -1   -5.24    7.55
  12   0   1    3.77    6.67
 -12   0  -1    0.00    2.09
  12   0  -1    0.59    6.74
 -12   0   1    0.29    3.33
 -12   0   1   -2.46    7.81
  12   0  -1   -0.62    1.98
 -13   0   1  518.74   30.75
  13   0   1  497.81   41.34
  13   0  -1  484.58   39.87
 -13   0  -1  455.59   53.47
  13   0   1  518.77   27.30
 -13   0  -1  542.15   28.55
 -13   0  -1  499.35   59.48
 -13   0   1  500.38   42.58
 -13   0   1  511.00   34.23
  13   0  -1  560.92   33.06
 -14   0  -1    1.25    4.65
 -14   0   1    5.53    2.86
 -14   0  -1    1.03    1.98
 -14   0  -1    7.59    6.23
 -14   0  -1   -7.55    7.70
  14   0   1    0.66    5.35
  14   0  -1   -0.04    2.49
 -14   0   1    1.25    5.94
  14   0  -1    0.59    4.62
 -15   0   1  145.85   16.45
 -15   0   1  149.85   27.41
  15   0   1  119.40   23.97
 -15   0  -1  122.40   17.63
 -15   0  -1  120.50   10.55
  15   0  -1  138.82   16.01
 -15   0  -1  135.78   24.74
 -15   0  -1  131.89   46.47
 -16   0   1   -3.26    6.34
 -16   0  -1   -1.43    9.82
 -16   0  -1    1.80   11.76
  16   0  -1   -5.09    9.89
  16   0   1   -4.14    5.79
 -16   0  -1    9.38   13.34
 -16   0   1    0.44    3.48
 -17   0   1   23.93   13.85
 -17   0  -1   16.86   11.65
  17   0   1    0.92   12.94
 -17   0   1    3.96    7.04
 -17   0  -1    6.71   15.46
  17   0  -1   23.09    8.91
 -17   0  -1   11.73    9.13
 -18   0  -1   -0.84    7.18
  18   0   1   -3.52    5.94
 -18   0   1    0.70    3.41
 -18   0  -1    3.22    8.54
 -18   0   1   -0.44    7.37
  18   0  -1    7.48    6.85
 -18   0  -1    3.48   19.64
 -19   0  -1   25.07   12.79
 -19   0   1    0.77    7.15
  19   0  -1   12.50   13.71
 -19   0   1    0.29   10.41
 -19   0  -1   -3.01   17.15
  19   0   1    0.84    7.40
 -20   0  -1    7.66   12.46
 -20   0   1   -3.85   12.50
 -20   0  -1  -10.30   14.70
  20   0  -1   -0.77    8.91
  21   0   1   67.72   20.16
 -21   0   1   50.87   36.43
 -21   0  -1   49.22   44.86
  21   0  -1   63.84   19.75
 -21   0  -1   84.40   28.11
 -22   0  -1   13.74   20.38
  22   0   1    6.67    9.16
 -22   0  -1    6.19   19.90
 -22   0   1   -9.97   11.40
  22   0  -1   -6.05   13.96
 -23   0   1   -9.31   22.72
 -23   0  -1  -17.22   17.41
  23   0  -1    9.34   11.29
 -23   0   1   15.32   17.63
 -23   0  -1   17.33   16.56
  23   0   1   16.45   18.03
   0   1  -1 4630.15  304.76
   0  -1   1 4185.81  275.99
   0   1  -1 4604.06  325.57
   0   1  -1 4485.62  294.24
   0  -1   1 4531.87  313.92
   0  -1   1 4566.90  331.80
   0   1  -1 4384.73  304.76
   0   1   1 4332.73  323.37
   0  -1  -1 4351.45  328.72
   0  -1  -1 4394.66  312.23
   0  -1  -1 4440.40  323.48
   0   1   1 4368.31  294.16
   0   1   1 4424.79  324.76
   0   1   1 4384.95  324.62
   1   1  -1  187.16    9.49
  -1  -1  -1  194.63   10.88
   1   1  -1  204.12    6.27
  -1  -1  -1  200.35    9.42
   1  -1   1  185.51    4.07
  -1   1   1  189.72   12.39
  -1   1   1  182.61    6.49
  -1   1   1  169.31    9.78
   1  -1   1  201.48    8.17
  -1  -1   1  184.00    5.64
  -1   1  -1  189.83   10.30
   1   1   1  179.90    8.69
   1   1   1  178.91    9.38
  -1  -1   1  195.95    5.24
   1   1   1  186.09    5.53
  -1  -1   1  183.16    6.78
   1  -1  -1  203.72    9.78
   2   1  -1  282.66   10.30
  -2  -1  -1  277.78   13.41
   2   1  -1  266.83    7.44
   2  -1   1  280.72    9.13
  -2   1   1  271.59   10.04
   2  -1   1  302.78   26.86
  -2  -1  -1  269.02    9.16
  -2  -1  -1  310.47   18.80
  -2  -1  -1  281.08   11.62
   2  -1  -1  275.62   10.37
   2   1   1  290.72    8.47
   2   1   1  268.66   11.25
  -2  -1   1  286.91   10.44
   2  -1  -1  276.87    9.42
  -2   1  -1  295.15   14.48
  -2   1  -1  276.13    8.65
   2   1   1  303.22   14.29
  -3  -1  -1  286.29   15.68
  -3   1   1  252.64   10.08
  -3  -1  -1  282.80   23.34
   3  -1   1  252.20    7.51
  -3   1   1  265.25   15.61
  -3  -1  -1  259.09   22.61
   3   1  -1  267.85   15.94
   3   1  -1  249.60    7.99
   3  -1   1  238.35   23.20
   3   1   1  267.82   18.07
  -3  -1   1  260.38    8.39
  -3  -1   1  287.06   11.62
  -3   1  -1  281.48   20.41
   3   1   1  248.17    9.89
   3  -1  -1  302.30   13.71
   3  -1  -1  283.10   13.78
  -3  -1   1  291.53   18.25
   3   1   1  262.61   16.60
   3   1   1  248.87    8.28
   3  -1  -1  305.45   15.14
  -4   1   1   94.44    7.26
   4  -1   1  107.12    6.78
   4  -1   1  102.39    2.09
  -4  -1  -1   95.14    9.75
   4  -1   1   92.39    3.04
  -4  -1  -1  100.71   10.08
  -4   1   1   94.22    8.80
   4   1  -1   97.63    6.71
   4   1  -1   94.15    4.10
  -4  -1  -1  108.80    7.59
   4  -1   1   99.97   14.95
  -4  -1   1  105.73    7.11
  -4  -1   1   97.30    4.40
   4  -1  -1   85.64    7.29
   4   1   1   91.58    6.16
   4   1   1  101.29    6.12
  -4  -1   1   97.41    4.58
  -4   1  -1   98.65    4.29
   4  -1  -1   97.92    6.93
   4  -1  -1   96.64    6.27
  -4   1  -1  109.21   10.92
  -5  -1  -1   11.32    8.61
   5   1  -1    6.30    6.16
  -5   1   1   12.79    2.27
   5   1  -1    9.45    1.91
  -5   1   1    7.26    4.03
  -5  -1  -1    6.30    3.99
   5  -1   1    8.17    8.58
  -5  -1  -1   10.70    6.01
   5  -1   1   10.30    2.31
   5   1   1    5.06    3.33
  -5  -1   1   10.63    2.20
   5  -1  -1   13.19    4.29
  -5  -1   1    6.56    5.68
  -5   1  -1    9.67    1.36
  -5  -1   1   13.08    3.11
   5   1   1   11.47    1.98
  -5   1  -1   10.74    1.91
   5  -1  -1   15.90    3.63
   5  -1  -1    6.71    3.37
  -5   1  -1    6.01    5.31
   6  -1   1   67.98    5.90
  -6  -1  -1   56.80   10.00
  -6  -1  -1   56.55    3.22
   6  -1   1   55.67    4.80
  -6  -1  -1   63.14    3.55
   6   1  -1   57.39    7.37
  -6   1   1   69.74   12.06
   6  -1   1   63.07    2.24
   6  -1   1   79.01   13.71
  -6  -1  -1   65.82   11.76
   6   1  -1   55.89    3.59
  -6  -1  -1   86.19   21.18
  -6  -1   1   54.57    4.29
   6   1   1   61.75    5.68
  -6   1  -1   56.51    9.78
   6   1   1   67.69   10.85
  -6   1  -1   63.69    5.72
   6  -1  -1   49.99   10.66
   6  -1  -1   71.94    6.60
   6  -1  -1   54.68    7.92
  -6   1  -1   60.83    3.63
  -6  -1   1   56.51   10.04
   6   1   1   50.90    6.34
  -7  -1  -1   41.26   14.70
   7  -1   1   44.64    3.26
  -7   1   1   62.92   12.35
  -7  -1  -1   47.53    3.41
   7   1  -1   48.81   11.47
   7  -1   1   46.14   13.52
  -7  -1  -1   52.11   12.97
   7  -1   1   45.77    3.01
  -7   1   1   41.96    4.18
  -7  -1  -1   56.14   13.82
   7   1  -1   38.77    5.50
   7  -1   1   50.57    2.35
   7  -1  -1   47.79    3.66
  -7  -1   1   43.28    6.08
  -7   1  -1   51.64    5.50
   7  -1  -1   46.07    4.54
   7   1   1   42.80    6.34
   7   1   1   42.11    9.82
   7  -1  -1   45.77    6.34
   7   1   1   47.46    3.26
  -7   1  -1   45.08    3.01
  -7  -1   1   41.01    6.89
  -7  -1   1   47.53    7.22
  -7   1  -1   54.16    4.87
  -7   1  -1   54.20   13.49
  -8  -1  -1    4.18    1.98
  -8  -1  -1   17.41    9.97
  -8   1   1    6.49    2.49
   8   1  -1    5.50    2.02
   8   1  -1    3.88    6.49
   8  -1   1    6.93    1.83
   8  -1   1    4.65    4.91
  -8  -1  -1    0.73    3.59
  -8  -1  -1    4.58    8.39
  -8   1   1    4.51    4.73
  -8  -1  -1    7.81    5.61
   8  -1   1    5.57    1.54
  -8  -1   1    8.28    2.90
   8   1   1    7.92    6.78
   8  -1  -1    8.87    2.20
  -8  -1   1    5.83    2.27
  -8   1  -1    0.92    9.09
   8  -1  -1    3.81    4.32
  -8   1  -1   10.08    2.82
   8   1   1    6.05    1.83
   8   1   1    0.84    5.94
   8  -1  -1    6.96    4.40
  -8   1  -1    7.37    3.59
  -8  -1   1    3.04    4.47
  -8   1  -1    5.64    2.05
  -9  -1  -1   38.81    9.27
  -9  -1  -1   38.33   14.73
   9   1  -1   37.42    3.48
  -9   1   1   38.59    4.07
  -9  -1  -1   26.46   13.60
  -9  -1  -1   30.93    3.44
  -9   1   1   35.99    7.99
   9  -1   1   32.47   11.91
   9   1  -1   32.95    9.82
  -9  -1  -1   39.47    6.01
   9   1   1   39.87    4.40
  -9  -1   1   38.52    7.88
  -9   1  -1   33.42    9.20
   9  -1  -1   29.32   11.18
   9   1   1   34.59    6.74
  -9   1  -1   41.89    3.63
  -9  -1   1   29.24    5.94
  -9  -1   1   35.14   12.68
   9  -1  -1   38.30    4.62
 -10  -1  -1   22.21   13.30
 -10  -1  -1   15.68    3.52
 -10   1   1   19.39    5.28
  10   1  -1   19.90    4.43
 -10  -1  -1   24.41   11.29
  10  -1   1   18.21    5.57
 -10  -1  -1   19.57   10.41
  10  -1   1   18.18    6.56
  10   1  -1   14.92    8.39
 -10   1   1   16.38    6.93
 -10  -1  -1   21.80    3.08
  10  -1  -1   17.22    6.12
  10  -1  -1   18.80    3.66
 -10   1  -1   18.07    2.27
  10   1   1   18.07    2.42
  10  -1  -1   17.74    2.97
 -10   1  -1   23.56   10.96
 -10   1  -1   21.66    2.97
 -10  -1   1   15.54    3.01
 -10  -1   1   19.06    5.94
 -10  -1   1   14.00    3.52
  10   1   1   15.32    5.90
 -11  -1  -1    1.61    2.13
 -11  -1  -1   -1.50    9.67
  11   1  -1   -5.57    7.11
  11  -1   1   -1.06    4.84
 -11  -1  -1    5.24    3.66
  11   1  -1    0.88    1.98
 -11   1   1    3.88    4.29
 -11  -1  -1   -1.50    8.58
 -11  -1  -1    1.80    4.87
 -11   1   1    2.46    7.04
 -11  -1   1   -0.59    4.54
 -11  -1   1    4.73    2.49
 -11   1  -1    0.95    1.36
 -11   1  -1    0.73    8.06
 -11   1  -1    1.06    1.47
 -11  -1   1    3.22    3.08
  11   1   1    1.94    6.96
  11  -1  -1    0.40    2.68
  11  -1  -1   -4.43    4.54
  11  -1  -1    2.24    2.13
 -12  -1  -1  100.74   13.96
 -12  -1  -1  111.99   25.80
 -12  -1  -1  135.89   27.16
  12   1  -1  118.22    6.63
  12  -1   1  113.68   14.48
 -12  -1  -1  107.82    6.85
 -12   1   1  116.57   13.89
 -12  -1  -1  110.01    7.29
 -12   1   1  112.58    8.14
  12   1  -1  109.83   21.77
 -12   1  -1  105.62    6.96
  12  -1  -1  107.85   21.73
  12   1   1  111.00   18.58
 -12  -1   1  108.36   12.79
 -12   1  -1  102.87   24.99
  12  -1  -1  136.18   10.55
  12   1   1  112.95    8.39
 -12  -1   1  113.28    7.29
 -12  -1   1  109.24   13.60
 -13  -1  -1  130.83   30.42
 -13   1   1  135.30   17.59
 -13  -1  -1  117.31   26.06
 -13  -1  -1  140.87   14.81
  13  -1   1  142.01   17.08
 -13   1   1  160.33   10.63
  13   1  -1  137.13   17.26
 -13  -1  -1  122.51   22.35
 -13  -1   1  117.27   12.61
 -13   1  -1  124.34   19.28
 -13  -1   1  137.61   19.24
 -13  -1   1  160.73   11.62
  13   1   1  142.78   15.21
  13   1   1  130.13    9.64
 -13   1  -1  148.38   10.77
  13  -1  -1  162.75   24.11
 -14  -1  -1   57.17   11.14
  14  -1   1   53.17   10.15
 -14  -1  -1   48.63    5.61
  14   1  -1   46.39    9.86
 -14  -1  -1   51.64   18.98
 -14  -1  -1   53.72   13.49
 -14   1   1   41.96   16.38
 -14   1   1   39.14    9.02
 -14  -1  -1   39.84    3.92
  14  -1  -1   51.20    9.38
  14  -1  -1   52.66    7.62
 -14  -1   1   42.55    5.57
 -14  -1   1   42.40   11.91
 -14   1  -1   44.27   12.79
  14   1   1   52.15    9.31
 -14  -1   1   40.64    9.53
 -14   1  -1   39.69    3.85
  15  -1   1   16.23   10.59
 -15  -1  -1    6.27    3.74
 -15   1   1   12.53    3.85
 -15  -1  -1    3.22    6.16
 -15  -1  -1    2.53    6.63
 -15  -1  -1   18.36    8.69
 -15   1   1   -1.14    7.15
 -15  -1  -1    7.77   12.24
  15   1  -1    5.97    6.56
 -15   1  -1    2.90    3.88
  15   1   1   -2.02    9.42
 -15  -1   1    7.62    4.18
 -15  -1   1    4.58    6.67
 -15   1  -1    5.09    7.40
 -15  -1   1    3.26    3.41
  15  -1  -1   10.08    9.56
  15   1   1    6.78    2.35
 -16  -1  -1  160.88   12.94
 -16  -1  -1  132.19   37.20
 -16   1   1  130.57   11.43
  16  -1   1  121.52   19.64
 -16   1   1  123.13   20.23
 -16  -1  -1  121.52   10.70
 -16  -1  -1  144.13   29.76
  16   1  -1  150.55   29.72
 -16  -1  -1  172.20   50.94
 -16   1  -1  135.67   27.71
 -16  -1   1  123.68   19.53
  16  -1  -1  145.12    9.56
  16  -1  -1  134.05   17.77
 -16  -1   1  144.13   13.67
  16   1   1  128.96   17.11
 -16  -1   1  145.09   10.88
 -16   1  -1  142.41   30.60
 -17  -1  -1   12.24   12.17
 -17  -1  -1   -0.99    6.05
  17   1  -1    0.26    8.83
 -17   1   1    6.23   10.04
 -17  -1  -1   -5.09    5.64
 -17   1   1    8.10    4.98
 -17   1  -1    2.75   11.18
 -17  -1   1   -0.70    2.86
  17   1   1   -1.21    5.68
 -17   1  -1   16.31   16.31
 -17   1  -1   -3.22    9.27
  17  -1  -1    6.85    5.68
 -17  -1   1   -4.40    7.37
 -17  -1   1   -8.61   10.30
 -18  -1  -1   58.01   14.95
  18   1  -1   61.57   14.44
 -18   1   1   56.00    9.16
 -18  -1  -1   67.03   22.57
 -18  -1  -1   51.42   20.67
  18  -1   1   55.08   13.89
 -18   1   1   68.90   24.88
 -18   1  -1   61.49   31.52
 -18   1  -1   37.82   24.41
  18  -1  -1   44.38   20.52
  18   1   1   50.24   22.02
 -18  -1   1   43.65   17.41
 -18   1  -1   60.98   16.31
 -18  -1   1   56.33   15.06
 -18  -1   1   59.33    7.70
  19   1  -1   22.35   11.25
 -19  -1  -1   23.71   15.43
  19  -1   1   30.09   15.87
 -19  -1  -1   10.66   17.41
 -19   1  -1   15.39   15.14
  19  -1  -1   24.15   11.54
 -19   1  -1   18.58   18.18
 -19  -1   1   19.46   10.22
  19   1   1   17.11   11.10
 -19  -1   1   17.19   20.05
 -20  -1  -1   28.33   27.30
  20   1  -1   22.13   18.76
 -20   1   1   25.07   26.39
  20  -1   1   24.63   11.95
 -20  -1  -1   19.53   28.80
 -20   1   1   19.83    7.07
  20   1   1   22.43   12.72
  20  -1  -1   30.86   13.30
 -20  -1   1   19.79   15.76
 -20  -1   1   26.31    7.07
 -20   1  -1   22.02   16.97
 -20   1  -1   14.77   28.03
 -21   1   1   25.29   15.72
 -21  -1  -1    3.48   15.39
  21  -1   1   13.93   11.07
  21   1  -1   12.86   11.03
 -21  -1  -1   23.42   15.90
 -21   1  -1    0.55   24.44
 -21   1  -1   12.57   16.86
  21  -1  -1    0.04   19.20
  21   1   1   17.63   17.30
 -21  -1   1   18.69   22.24
 -21  -1   1    3.01   25.84
 -22  -1  -1  204.16   47.24
  22   1  -1  206.29   33.64
 -22   1   1  184.96   69.56
  22  -1   1  213.76   57.24
 -22  -1  -1  220.28   46.72
 -22   1  -1  229.45   47.35
 -22  -1   1  196.94   43.32
 -22   1  -1  205.81   53.58
  22   1   1  185.14   33.94
  22  -1  -1  199.73   35.51
 -22  -1   1  158.31   49.25
 -23  -1  -1   16.12   21.99
  23   1  -1    8.10   15.68
  23  -1   1    2.42   11.18
 -23   1   1    2.20   13.60
 -23  -1  -1  -12.57   21.73
 -23  -1   1   -4.36   22.79
  23  -1  -1   -4.10   10.48
 -23  -1   1    8.28   12.02
 -23   1  -1   13.23   14.99
  23   1   1    1.43   16.27
 -23   1  -1   -1.50   23.42
   0  -2   1   -1.69    3.74
   0  -2   1   -0.22    1.36
   0   2  -1    0.70    1.28
   0  -2  -1   -0.88    2.53
   0  -2  -1    0.11    1.80
   0   2   1    0.04    2.90
   0  -2  -1    1.03    1.14
   0   2   1    0.77    4.07
  -1  -2  -1  238.17    7.29
   1   2  -1  208.45   11.91
  -1   2   1  221.38   22.57
  -1   2   1  238.72   17.52
  -1  -2  -1  220.54   13.56
  -1  -2   1  246.67    7.18
  -1   2  -1  245.09   10.41
   1   2   1  236.78    7.00
   1   2   1  224.79   16.20
  -1  -2   1  232.08   15.90
   2   2  -1  244.40   11.25
  -2  -2  -1  258.32   16.78
  -2  -2  -1  242.02   14.81
  -2  -2  -1  244.98    8.65
  -2  -2   1  256.27   15.83
  -2  -2   1  265.65    8.58
  -2  -2   1  257.66    8.14
   2  -2  -1  250.30   11.69
   2   2   1  247.48   14.81
   2  -2  -1  245.83   10.70
   2   2   1  273.61   20.49
   2   2   1  274.08   12.09
   3  -2   1   80.59   13.27
  -3  -2  -1   89.57    7.44
  -3  -2  -1   78.83    7.55
  -3  -2  -1   81.87    8.91
   3   2  -1   69.74    6.08
  -3   2   1   81.54   10.48
  -3   2   1   76.89    9.49
  -3  -2   1   89.35    3.99
  -3  -2   1   75.05    6.23
   3   2   1   95.17    8.61
   3  -2  -1   77.51    9.20
   3   2   1   71.02    8.83
   3  -2  -1   86.01    8.94
   3   2   1   80.81    9.24
  -3  -2   1   87.59    6.34
  -4   2   1  338.18   18.40
   4  -2   1  342.39   26.02
   4  -2   1  360.97   15.87
   4  -2   1  334.55   11.18
  -4   2   1  366.98   23.49
  -4  -2  -1  381.97   33.13
  -4  -2  -1  368.12   17.30
   4   2  -1  351.11   17.48
  -4  -2  -1  324.95   19.39
   4   2   1  356.98   28.55
  -4  -2   1  371.45   19.24
   4  -2  -1  350.01   23.27
   4   2   1  347.82   20.67
   4  -2  -1  343.42   14.92
  -4  -2   1  322.38   11.91
   4   2   1  344.15   22.57
  -5   2   1  337.52   15.79
   5   2  -1  317.14   25.84
  -5  -2  -1  337.52   25.32
   5  -2   1  322.31   10.22
  -5  -2  -1  321.54   32.87
   5  -2   1  327.00   36.43
  -5  -2  -1  348.04   35.69
  -5   2   1  341.37   27.52
   5  -2  -1  353.72   17.77
   5   2   1  336.16   16.42
  -5   2  -1  343.45   13.71
  -5  -2   1  318.86   25.03
   5   2   1  326.85   36.24
  -5  -2   1  336.16   17.00
  -5   2  -1  326.30   46.54
   5  -2  -1  347.74   15.10
   5  -2  -1  336.31   26.90
   5   2   1  332.20   16.75
   6  -2   1  101.73   12.39
  -6  -2  -1  100.60   11.80
  -6  -2  -1   88.47   11.29
  -6   2   1   85.83    9.38
   6  -2   1   95.54    7.22
  -6  -2  -1   90.19    7.18
  -6  -2  -1   92.50   13.01
   6  -2   1  101.44    3.59
  -6   2   1   96.56   10.55
   6   2  -1  105.65    8.83
   6  -2  -1  100.85   10.74
   6  -2  -1  103.67   14.44
  -6  -2   1  108.95   14.26
   6  -2  -1  102.90    6.01
  -6  -2   1   93.41    5.50
   6   2   1   98.54   11.62
   6   2   1   88.65    4.69
  -6   2  -1  109.76   16.38
  -6  -2   1   89.16    5.13
  -7  -2  -1    9.56    9.31
  -7   2   1    6.05    4.43
  -7   2   1    8.47    4.51
   7  -2   1    8.21    6.38
  -7  -2  -1    7.33    9.78
   7  -2   1    8.65    1.43
   7   2  -1    2.82    6.78
   7  -2   1   11.29    3.22
  -7  -2  -1    4.73    4.47
  -7  -2  -1    4.73    2.24
   7  -2  -1    8.32    4.32
  -7  -2   1    6.60    2.27
  -7   2  -1    5.86    2.02
   7   2   1   11.73    5.94
   7  -2  -1   10.85    3.04
  -7  -2   1    1.32    6.74
   7   2   1    4.43    1.87
  -7   2  -1    4.80    6.63
  -7  -2   1    8.03    2.60
  -8  -2  -1   57.17    2.75
  -8   2   1   62.08    5.61
   8  -2   1   63.84   16.31
  -8  -2  -1   62.74   11.80
  -8  -2  -1   73.18   13.71
  -8  -2  -1   69.48    4.32
   8   2  -1   65.08    8.39
  -8   2   1   68.64    9.31
  -8  -2  -1   68.24   11.03
   8  -2   1   64.90    2.35
   8  -2   1   63.14    6.49
  -8  -2   1   64.21    4.62
  -8   2  -1   65.23    3.99
  -8   2  -1   67.39   12.42
   8   2   1   53.94    5.75
   8  -2  -1   56.73    6.27
   8  -2  -1   58.16   13.38
   8  -2  -1   61.49    4.76
  -8  -2   1   58.75    8.06
   8   2   1   61.57   11.47
  -8  -2   1   67.03   13.74
  -8  -2   1   54.93    5.50
  -9   2   1  260.23   14.07
   9  -2   1  248.39   24.11
  -9  -2  -1  242.46   12.46
   9  -2   1  287.06   12.17
   9   2  -1  231.13   19.97
  -9  -2  -1  250.99   28.77
  -9   2   1  256.93   22.24
  -9  -2  -1  235.93   24.77
  -9  -2  -1  283.61   23.12
  -9  -2  -1  295.23   17.92
   9  -2  -1  291.56   21.00
  -9  -2   1  262.43   12.53
  -9  -2   1  286.54   14.84
   9  -2  -1  282.25   12.39
   9  -2  -1  246.63   14.62
  -9  -2   1  277.82   21.66
   9   2   1  258.21   14.55
  -9   2  -1  264.74   28.14
  -9   2  -1  273.46   11.18
   9   2   1  261.55   25.69
 -10  -2  -1  188.84   20.85
 -10   2   1  196.68   19.61
  10  -2   1  177.77   19.72
 -10  -2  -1  202.00   10.22
 -10   2   1  197.45   11.29
 -10  -2  -1  190.97   26.13
 -10  -2  -1  205.77   14.22
  10   2  -1  180.96   16.45
  10  -2   1  198.22    9.42
 -10  -2  -1  203.46   35.73
  10   2   1  179.75   21.95
  10  -2  -1  208.01   13.19
 -10  -2   1  190.23   15.76
  10   2   1  211.64    9.38
 -10  -2   1  196.28   13.38
  10  -2  -1  200.75   17.92
  10  -2  -1  211.53   26.31
 -10   2  -1  186.17   21.44
 -10  -2   1  180.71   15.90
 -11   2   1    6.30    5.31
 -11  -2  -1    9.67    6.12
 -11  -2  -1    4.21    2.60
 -11  -2  -1    9.34    7.77
  11   2  -1    2.42    4.73
 -11   2   1    4.14    4.73
 -11  -2  -1   -4.91   11.80
 -11  -2  -1    5.28    2.57
  11  -2   1   -2.90    9.09
  11   2   1    1.17    4.62
  11   2   1    4.91    2.02
  11  -2  -1    9.34    3.26
 -11  -2   1    9.60    8.14
 -11   2  -1    2.64    6.82
 -11  -2   1    4.03    2.42
  11  -2  -1    4.29    3.92
  11  -2  -1    6.19    4.98
 -11   2  -1    6.93    1.80
 -11  -2   1    3.77    3.08
  12  -2   1    4.58    2.97
 -12   2   1    2.46    4.58
 -12  -2  -1   -5.79   13.08
  12  -2   1    7.73    2.02
 -12  -2  -1    2.09    2.64
  12  -2   1    7.88    5.79
 -12   2   1    1.61    5.86
 -12  -2  -1   10.96    6.56
  12   2  -1    2.02    5.06
 -12  -2  -1    5.06    4.65
 -12  -2  -1    3.74    7.04
  12   2   1    1.50    4.91
  12  -2  -1    4.10    2.68
  12  -2  -1    3.96    5.31
 -12  -2   1    4.76    4.87
  12  -2  -1    1.83    5.57
 -12   2  -1    6.45    1.83
 -12   2  -1    7.51    7.22
  12   2   1    9.31    3.11
 -12  -2   1    7.62    3.96
 -12  -2   1   14.95    5.28
 -13   2   1  291.97   37.64
 -13  -2  -1  298.16   22.94
 -13  -2  -1  322.71   41.56
 -13  -2  -1  287.42   37.27
  13  -2   1  283.79   28.07
 -13  -2  -1  257.96   31.33
 -13  -2  -1  256.60   13.08
  13   2  -1  267.12   25.65
 -13  -2   1  287.31   17.59
 -13  -2   1  263.45   14.88
  13  -2  -1  329.86   27.78
  13  -2  -1  336.68   19.83
 -13  -2   1  259.06   39.21
  13   2   1  297.39   24.04
 -13  -2   1  271.77   27.19
 -13   2  -1  276.79   31.59
 -13   2  -1  303.40   12.35
 -14  -2  -1  143.95   23.45
 -14  -2  -1  171.07   11.29
 -14   2   1  181.15   12.64
 -14  -2  -1  172.90   28.18
 -14   2   1  174.00   31.85
 -14  -2  -1  169.53   21.84
  14  -2   1  168.36   21.29
  14   2  -1  158.97   17.77
 -14  -2  -1  179.79    9.42
  14   2   1  150.07   24.22
 -14  -2   1  158.64   14.77
 -14  -2   1  153.59   16.82
 -14  -2   1  156.52   21.15
 -14   2  -1  179.50   23.97
  14  -2  -1  194.49   15.72
  14  -2  -1  167.59   19.39
 -14  -2   1  176.64   19.28
  15   2  -1   50.17   11.21
 -15  -2  -1   42.44   16.93
  15  -2   1   49.00   12.53
  15  -2   1   53.14    7.73
 -15  -2  -1   52.52    9.42
 -15   2   1   60.50    7.04
 -15   2   1   51.60   13.12
 -15  -2  -1   46.72   15.25
 -15  -2  -1   55.56    5.09
 -15  -2  -1   49.25   17.66
 -15  -2   1   52.95   12.20
 -15  -2   1   59.73    6.45
  15   2   1   54.64   17.77
 -15   2  -1   46.47   13.89
 -15  -2   1   48.12   13.27
 -15  -2   1   52.88    6.74
 -16  -2  -1   91.40    9.27
 -16  -2  -1  108.44   22.43
 -16  -2  -1   90.77   15.28
 -16   2   1   91.58   16.86
 -16  -2  -1   80.37   19.79
  16   2  -1   77.87   14.48
 -16   2   1   90.37   14.33
 -16  -2  -1   92.61    9.93
  16  -2   1   76.67   15.14
  16  -2  -1   92.64   14.62
  16  -2  -1   97.19    7.62
 -16  -2   1   95.36   12.28
 -16   2  -1   92.06   18.21
  16   2   1   80.99   15.50
 -16  -2   1   82.35   16.16
 -16  -2   1   82.16   13.05
 -16  -2   1   70.88   24.70
  17  -2   1    4.91    8.36
 -17  -2  -1    2.38    3.88
 -17   2   1    5.57    8.50
  17   2  -1    0.26   11.43
 -17  -2  -1   10.15   17.55
 -17  -2  -1   12.68   15.32
 -17  -2  -1    5.31    7.73
 -17  -2  -1    9.71    6.82
 -17   2   1    9.82    4.03
 -17  -2   1   10.26    5.39
  17   2   1    6.16    7.48
  17  -2  -1   14.92    7.37
 -17  -2   1    6.38    3.70
 -17  -2   1    1.98    9.31
 -17  -2   1    4.80    7.84
  17  -2  -1    2.64    5.02
 -17   2  -1    1.28   14.04
 -18  -2  -1    5.86    4.80
 -18   2   1    0.29    4.54
  18   2  -1    5.53    7.00
 -18  -2  -1    0.26   15.14
 -18   2   1   -6.89   14.04
  18  -2   1    3.08    7.81
 -18  -2  -1    9.82   14.95
 -18  -2  -1    3.44   12.09
 -18  -2   1    5.09    3.63
  18   2   1   -9.86   11.47
 -18   2  -1   -0.44   11.03
 -18  -2   1    4.76    5.17
  18  -2  -1    7.07   11.03
 -18  -2   1    3.52    9.31
  18  -2  -1    1.98    3.59
 -18  -2   1    3.74    7.29
 -18   2  -1    6.41   19.86
 -18   2  -1   10.08   16.31
 -19  -2  -1   15.76   10.66
 -19  -2  -1   26.31   14.33
  19  -2   1   17.11   16.64
 -19  -2  -1   16.82   14.07
  19   2  -1   21.40   10.30
  19   2   1   25.18   10.55
 -19   2  -1   19.02   16.64
  19  -2  -1   20.63   10.77
 -19  -2   1   14.29   20.16
 -19  -2   1   15.87    7.84
 -19   2  -1   23.27   18.80
  20  -2   1   36.87   13.08
 -20  -2  -1   25.87   17.77
  20   2  -1   35.36   11.91
 -20  -2  -1   30.56   17.96
  20   2   1   41.92   12.57
 -20  -2   1   32.69    7.95
 -20   2  -1   14.07   22.76
 -20  -2   1   25.18   19.90
  20  -2  -1   22.17   20.56
 -20   2  -1   17.85   32.03
 -20  -2   1   35.84   16.45
 -21  -2  -1   18.25   25.62
 -21  -2  -1   33.75   25.40
  21  -2   1    6.05   19.06
  21   2  -1    3.85   19.28
 -21  -2   1   20.67   15.32
 -21  -2   1   30.12   18.29
  21  -2  -1   22.98   13.41
  21   2   1   16.49   18.58
 -21   2  -1   20.16   18.32
 -21   2  -1   19.06   28.29
 -22  -2  -1    5.24   14.44
 -22  -2  -1    8.10   21.07
  22   2  -1    6.08   10.19
 -22   2   1    5.28   15.46
  22  -2   1   -3.63   10.74
 -22   2  -1   -2.90   16.01
 -22  -2   1   30.71   19.90
 -22  -2   1   12.79   17.92
  22  -2  -1   -3.11   17.77
  22   2   1    1.76   15.98
 -22   2  -1   14.95   15.61
  23   2  -1    1.28    9.31
 -23  -2  -1   -0.11   11.95
  23  -2   1   16.75   16.45
 -23   2   1    8.03   20.45
 -23   2  -1   -9.71   20.78
 -23   2  -1   -1.61   14.22
 -23  -2   1   -3.63   10.70
  23  -2  -1    5.13    9.60
  23   2   1   -4.07    8.94
   0  -3  -1   10.99    4.40
   0  -3  -1    8.69    3.04
   0   3   1   10.41    4.40
   0   3  -1    6.67    2.31
   0   3  -1    9.97    3.15
   0   3   1    9.31    2.97
   0  -3   1   12.83    4.36
   0  -3  -1    6.52    2.82
  -1  -3  -1   71.17    3.88
  -1   3   1   72.08    9.53
  -1   3   1   56.55    6.56
   1   3  -1   57.39    6.60
  -1  -3  -1   66.00    8.61
  -1  -3  -1   67.65   12.72
  -1  -3   1   63.22    6.60
   1   3   1   60.65    6.82
   1  -3  -1   73.07    4.54
   2   3  -1  221.93    9.93
  -2  -3  -1  209.00   11.32
  -2  -3  -1  237.80   23.78
  -2  -3  -1  225.09    9.53
   2   3  -1  199.18   12.09
   2   3   1  223.25   16.38
   2   3   1  240.29   21.11
  -2  -3   1  216.18    4.91
   2  -3  -1  211.16   22.65
  -2  -3   1  226.37    9.56
   2   3   1  232.27    9.31
  -2  -3   1  237.55   18.25
  -3  -3  -1   27.08    4.14
  -3  -3  -1   27.01    3.37
   3   3  -1   27.30    4.40
  -3  -3   1   24.70    4.73
   3   3   1   22.65    6.05
   3  -3  -1   30.71    7.15
   3   3   1   23.38    6.34
   3   3   1   28.07    3.48
  -3  -3   1   21.48    2.49
   3  -3  -1   26.24    5.24
  -3  -3   1   22.10    6.82
  -4  -3  -1   22.02    6.08
  -4  -3  -1   16.64    9.13
  -4  -3  -1    9.82    5.42
   4  -3   1   17.66   12.31
  -4  -3  -1   16.09    8.03
   4   3  -1   14.48    6.27
   4   3   1   13.67    5.28
   4  -3  -1   15.39    4.62
   4  -3  -1   15.83    3.66
  -4  -3   1   12.94    2.31
   4   3   1   20.27    8.91
  -4  -3   1   11.65    2.93
   4   3   1   15.25    6.12
  -4  -3   1   14.99    6.23
  -5  -3  -1    4.58    8.06
  -5  -3  -1   10.19    6.41
  -5   3   1    2.86    5.35
  -5  -3  -1    8.98    5.17
   5  -3   1    3.52    2.38
  -5  -3  -1    5.06    7.26
   5   3  -1    3.77    5.90
   5  -3   1    2.42    6.52
   5  -3  -1    8.91    3.11
  -5   3  -1   10.85    2.57
  -5  -3   1    5.20    4.18
  -5  -3   1    6.78    2.02
   5   3   1    7.40    5.20
   5   3   1    6.67    5.02
  -5  -3   1    6.16    4.91
   5  -3  -1   10.63    7.07
   6   3  -1   31.52    5.61
   6  -3   1   34.63    3.63
  -6  -3  -1   28.29   11.80
  -6  -3  -1   24.66    8.76
  -6  -3  -1   22.13   10.44
   6  -3   1   27.23    3.33
  -6   3   1   17.92   11.03
   6  -3   1   29.35    9.02
   6  -3  -1   33.17    4.95
  -6  -3   1   31.92    4.95
   6  -3  -1   22.76   11.40
   6   3   1   34.74    7.92
  -6  -3   1   20.52    7.81
   6   3   1   25.40    5.09
  -6  -3   1   27.78    5.68
  -7  -3  -1  309.96   26.57
  -7  -3  -1  285.77   23.23
   7  -3   1  348.33   19.53
   7   3  -1  286.91   21.73
  -7   3   1  312.09   24.41
   7  -3   1  325.83   41.37
  -7   3   1  294.53   22.83
  -7  -3  -1  311.98   28.80
  -7   3  -1  306.22   13.78
  -7  -3   1  295.85   19.24
  -7  -3   1  317.91   14.15
   7  -3  -1  309.67   17.44
   7  -3  -1  335.54   24.04
   7   3   1  274.41   27.60
  -7  -3   1  299.19   20.60
   7   3   1  283.94   12.72
   7  -3  -1  335.94   21.26
   8  -3   1  119.07    5.39
  -8  -3  -1   95.36    7.99
  -8  -3  -1   94.55    6.27
   8  -3   1  115.40    9.53
  -8  -3  -1   95.14   18.51
   8   3  -1  100.63   15.43
  -8  -3  -1  117.49   10.81
  -8  -3  -1  109.06   20.38
  -8   3   1   95.39    4.58
  -8   3   1   94.29    8.06
   8  -3   1  105.32   14.73
  -8   3   1   89.24   20.45
  -8  -3   1  117.05    7.15
   8  -3  -1  117.09   12.39
  -8  -3   1  108.88    6.60
   8   3   1  113.42   10.48
   8  -3  -1  116.72   10.19
   8   3   1   96.20    5.35
  -8  -3   1   98.25   10.33
  -8  -3   1  131.05   11.43
   8  -3  -1   99.75   11.43
  -9  -3  -1   67.39    5.57
  -9  -3  -1   65.67   11.84
  -9  -3  -1   71.68   10.96
   9  -3   1   84.43    8.47
   9   3  -1   68.68   14.04
   9  -3   1   75.82   14.62
  -9  -3  -1   74.83   16.64
  -9   3   1   70.88   18.10
  -9   3   1   75.64    7.04
   9  -3  -1   64.90   10.37
   9   3   1   72.01    9.60
  -9   3  -1   81.17    4.80
   9  -3  -1   75.38   15.46
  -9  -3   1   59.48    8.98
  -9  -3   1   74.47    5.64
   9  -3  -1   83.81    8.14
  -9  -3   1   75.38    8.50
  -9   3  -1   57.87   15.28
  -9  -3   1   60.39    8.91
   9   3   1   64.87    6.63
 -10  -3  -1   63.73    9.56
 -10  -3  -1   70.47    5.75
  10  -3   1   62.04   12.53
 -10   3   1   66.55    6.71
 -10  -3  -1   68.31   11.69
 -10  -3  -1   57.46   11.65
 -10   3   1   51.86   15.87
  10  -3   1   67.80    5.17
  10   3  -1   66.99    9.34
 -10  -3  -1   75.27    5.42
  10  -3   1   70.40    4.25
  10   3   1   64.10    9.64
  10  -3  -1   67.17    5.39
  10  -3  -1   65.05    7.11
 -10  -3   1   61.46    9.13
 -10  -3   1   60.76    8.69
 -10   3  -1   71.20    4.58
  10   3   1   55.59    5.79
 -10   3  -1   57.98   14.84
 -10  -3   1   58.49    4.95
 -10  -3   1   69.67    9.45
  10  -3  -1   76.48   10.08
 -11  -3  -1   -1.03    9.56
 -11   3   1    3.08    8.39
  11  -3   1    6.49    1.91
  11  -3   1    5.06    9.67
 -11  -3  -1    5.31    2.90
  11  -3   1    3.88    2.57
 -11  -3  -1   14.51    5.39
  11   3  -1    5.86    4.76
  11   3  -1    3.48    0.99
 -11  -3  -1    6.23    6.01
 -11   3   1    1.06    3.01
 -11  -3  -1    3.30    2.49
 -11   3  -1    4.91    2.02
  11   3   1    3.04    3.33
 -11  -3   1    3.55    2.31
  11  -3  -1    4.87    3.55
 -11   3  -1    7.07    8.06
  11  -3  -1    2.13    5.31
  11  -3  -1    7.59    2.42
 -11  -3   1    6.12    3.04
  11   3   1    0.81    5.02
 -11  -3   1    8.72    7.66
 -11  -3   1    4.95    4.76
 -11  -3   1    4.76    2.57
  12   3  -1  295.78   23.56
 -12  -3  -1  295.70   25.98
 -12  -3  -1  283.17   29.06
 -12  -3  -1  278.63   42.99
 -12  -3  -1  293.40   16.49
 -12   3   1  270.01   37.27
  12  -3   1  310.80   30.38
  12  -3   1  302.26   19.72
 -12  -3  -1  314.03   21.37
 -12   3   1  274.49   16.64
 -12   3  -1  286.18   16.75
  12   3   1  277.09   13.85
 -12  -3   1  274.67   18.10
 -12   3  -1  318.75   36.50
  12  -3  -1  344.66   39.36
  12   3   1  296.80   24.88
 -12  -3   1  265.40   21.95
 -12  -3   1  301.71   22.98
  12  -3  -1  320.59   15.36
 -12  -3   1  260.34   24.37
  12  -3  -1  320.92   26.46
  13  -3   1   52.95    4.29
 -13  -3  -1   50.57    5.35
 -13   3   1   43.68    6.52
 -13  -3  -1   40.27   11.80
 -13  -3  -1   53.87   12.02
 -13   3   1   53.47   17.44
 -13  -3  -1   38.99   18.73
  13   3  -1   43.61    9.31
  13  -3   1   38.81   10.99
 -13  -3   1   59.04   10.37
  13  -3  -1   46.29    7.11
  13   3   1   36.28   15.46
 -13  -3   1   37.78    4.91
 -13  -3   1   46.14    6.34
 -13  -3   1   38.88   10.81
 -13   3  -1   54.71   15.17
  13  -3  -1   38.04   10.33
  13  -3  -1   54.90    8.54
 -13   3  -1   39.40    5.24
  14  -3   1   28.99    8.10
 -14  -3  -1   31.08   18.25
  14   3  -1   38.52    8.91
 -14  -3  -1   46.25   11.62
 -14   3   1   40.24   11.40
  14  -3   1   44.89    3.92
 -14  -3  -1   35.55    5.46
 -14   3   1   41.81    9.02
 -14  -3  -1   30.86    4.69
 -14  -3  -1   33.94   11.65
  14  -3   1   31.04   16.67
  14  -3  -1   49.91    7.62
  14   3   1   35.07    3.96
 -14  -3   1   34.96   13.67
 -14  -3   1   41.04    7.95
  14  -3  -1   41.96    9.86
 -14  -3   1   37.16    7.11
  14  -3  -1   50.54    9.34
 -14   3  -1   29.72    5.35
  14   3   1   40.17   15.06
 -14  -3   1   31.77   10.48
 -14   3  -1   38.77   13.45
  15  -3   1  235.02   26.42
 -15  -3  -1  182.14   27.16
 -15  -3  -1  190.31   15.43
 -15  -3  -1  253.38   36.10
 -15  -3  -1  203.79   19.06
 -15  -3  -1  154.47   27.89
  15   3  -1  187.93   22.24
 -15   3   1  207.90   26.06
 -15  -3   1  194.49   13.38
 -15  -3   1  205.81   36.90
 -15   3  -1  204.56   30.34
  15  -3  -1  241.58   16.93
  15  -3  -1  222.30   23.09
 -15  -3   1  193.75   21.95
  15   3   1  200.35   31.11
 -15  -3   1  198.15   13.45
 -16  -3  -1  110.27   19.86
 -16   3   1   95.21   18.32
  16   3  -1   88.03   14.51
 -16  -3  -1  102.17   18.95
 -16  -3  -1   83.01    6.74
  16  -3   1   84.91   25.69
 -16  -3  -1  112.80   17.33
 -16  -3  -1   87.00    8.32
 -16  -3   1   89.57   12.79
 -16   3  -1   99.68   21.73
 -16  -3   1   81.06   26.28
  16  -3  -1  105.51    7.81
  16   3   1   81.94   15.32
 -16  -3   1   87.95   26.50
  16  -3  -1  100.96   16.34
 -16  -3   1  103.86   12.83
 -17  -3  -1   37.89   13.78
 -17  -3  -1   47.75   11.69
 -17   3   1   61.42   14.04
 -17  -3  -1   31.30    4.84
 -17  -3  -1   40.79   14.15
  17   3  -1   39.73   17.08
  17  -3   1   45.77   12.17
 -17  -3  -1   48.78   20.19
 -17  -3   1   41.78    6.82
 -17  -3   1   35.99   12.64
 -17   3  -1   27.05   24.66
  17  -3  -1   37.56    7.77
 -17  -3   1   31.41   13.41
  17  -3  -1   42.55   17.44
  17   3   1   35.69   11.40
 -17  -3   1   34.89    5.79
 -18   3   1   45.11   25.47
 -18  -3  -1   40.60   13.12
 -18  -3  -1   42.18   22.35
 -18  -3  -1   25.47   14.88
  18  -3   1   30.60   20.30
  18   3  -1   25.98   16.67
 -18  -3   1   34.08   18.54
  18  -3  -1   28.14    5.79
  18  -3  -1   29.61   11.91
 -18  -3   1   38.00   13.82
 -18   3  -1   34.96   26.17
 -18  -3   1   25.98   25.84
  18   3   1   42.80   11.69
 -18  -3   1   37.78   11.47
  19  -3   1   95.80   20.89
 -19  -3  -1   92.64   34.96
 -19  -3  -1   68.13   35.40
  19   3  -1   98.98   17.81
 -19   3  -1   60.72   43.39
 -19  -3   1   88.39   13.45
  19   3   1   93.27   27.16
  19  -3  -1   63.69   28.29
 -19  -3   1   86.41   25.21
 -19   3  -1   67.69   47.68
 -19  -3   1   73.00   31.66
  20   3  -1   -6.41    7.22
 -20  -3  -1   -4.14    9.75
 -20  -3  -1    5.31    9.53
  20  -3   1   -0.26   12.13
 -20  -3   1   -9.24   15.98
 -20   3  -1   11.76   13.23
  20   3   1    7.55    7.33
 -20   3  -1   -5.46   11.98
  20  -3  -1    1.06    7.29
 -20  -3   1   -7.70    8.03
 -21  -3  -1   21.40   15.72
  21   3  -1   -3.26   11.29
  21  -3   1   28.99   12.31
 -21  -3  -1   13.01   15.87
 -21   3  -1   25.29   28.40
 -21   3  -1   11.62   21.11
  21  -3  -1   19.53   17.88
 -21  -3   1   30.20   13.01
  21   3   1   23.97   11.29
 -21  -3   1   14.88   14.66
 -22  -3  -1    5.31   13.30
  22   3  -1    1.76   17.66
  22  -3   1   -1.43   19.31
 -22  -3  -1   16.67   23.38
 -22  -3   1   22.87   12.94
 -22   3  -1    1.61   26.61
  22   3   1    3.55   16.78
  22  -3  -1    8.91   12.24
 -22   3  -1   -8.72   17.37
 -22  -3   1   40.09   18.84
 -23  -3  -1   -9.13   14.99
 -23  -3  -1    1.03   11.58
 -23   3   1   -4.25   13.34
  23  -3   1   -1.94    9.64
  23   3  -1    3.11    9.24
  23   3   1    0.33    9.02
 -23   3  -1    1.36   14.37
 -23   3  -1  -10.19   13.34
 -23  -3   1   -6.96    9.16
  23  -3  -1   10.99    9.78
   0  -4  -1    2.35    6.38
   0   4   1    4.47    4.10
   0  -4  -1    0.59    1.91
   0  -4   1    0.73    6.41
   0   4   1    2.02    3.85
   0   4  -1    0.55    2.13
  -1  -4  -1  233.00   11.58
  -1   4   1  233.99   30.01
   1  -4   1  272.07   26.90
  -1  -4  -1  253.78   13.27
  -1   4   1  249.46   15.28
   1   4  -1  200.20   21.99
  -1  -4  -1  218.78   18.32
  -1  -4   1  219.48   15.50
   1   4   1  229.19   15.28
   1   4   1  219.95   16.42
   1  -4  -1  243.74   17.00
   2   4  -1   99.09    7.95
   2   4  -1   99.17   10.04
  -2   4   1  109.10   13.27
  -2  -4  -1   99.53    6.78
  -2  -4  -1   96.27    6.41
  -2  -4  -1  106.83   10.52
   2   4   1   94.00    9.02
  -2  -4   1  106.53    8.14
   2   4   1   95.10    8.50
  -2  -4   1   91.14    8.47
   2   4   1  102.54   11.98
  -3  -4  -1   83.55    6.74
   3   4  -1   72.27   12.86
  -3  -4  -1   87.04    6.74
   3   4  -1   83.96    8.28
   3  -4  -1   94.33   19.35
   3   4   1   72.71   10.41
   3   4   1   87.18   14.11
   3   4   1   85.72    9.60
  -3  -4   1   77.43    7.59
  -3  -4   1   94.11    7.70
   4   4  -1   54.27    6.96
  -4  -4  -1   59.99    8.80
  -4  -4  -1   54.16    5.20
   4   4   1   72.23   14.70
   4   4   1   52.81    8.72
   4   4   1   63.66    5.86
  -4  -4   1   60.91   10.70
   4  -4  -1   52.15   10.30
   4  -4  -1   46.21    8.61
  -4  -4   1   45.59    4.69
   5  -4   1   -2.42    5.72
   5   4  -1    3.55    2.93
  -5  -4  -1    2.97    4.43
   5   4   1    1.50    4.84
   5  -4  -1   -0.40    2.68
  -5  -4   1   -1.69    3.19
   5  -4  -1    5.17    5.68
  -5  -4   1    2.09    2.75
  -5  -4   1   -0.22    2.35
   5   4   1   -0.81    4.32
   5   4   1   -0.73    2.68
  -5  -4   1   -0.11    3.08
  -6  -4  -1   37.93    6.05
   6   4  -1   46.47    6.63
  -6  -4  -1   50.02    8.72
  -6  -4  -1   32.10    5.97
   6  -4   1   50.46   11.25
   6  -4   1   32.14    4.54
  -6  -4   1   38.55    7.88
   6  -4  -1   32.07    5.09
   6  -4  -1   41.45    8.03
   6   4   1   36.79    5.90
  -6  -4   1   39.51    7.37
   6   4   1   43.68    8.91
  -7  -4  -1   -0.66    6.19
  -7  -4  -1    6.45    3.74
   7   4  -1    6.60    6.30
   7  -4   1   -3.37    6.49
   7  -4   1    4.32    2.64
  -7  -4  -1    6.34    8.28
   7  -4   1    1.87    1.72
  -7  -4   1    3.96    3.52
  -7  -4   1    0.99    2.16
   7  -4  -1    8.72    5.39
  -7  -4   1    1.58    3.99
   7   4   1    1.36    5.61
   7  -4  -1    8.21    2.71
   8  -4   1  416.68   16.60
  -8  -4  -1  489.97   29.98
   8  -4   1  445.55   21.15
  -8  -4  -1  392.45   36.24
  -8  -4  -1  472.86   34.23
   8  -4   1  417.44   38.52
   8   4  -1  462.01   29.72
  -8   4  -1  382.89   23.75
   8  -4  -1  451.12   44.97
  -8  -4   1  478.83   30.49
   8  -4  -1  427.41   21.84
   8   4   1  474.47   28.33
   8  -4  -1  469.70   35.95
  -8  -4   1  455.70   28.47
  -8  -4   1  424.81   19.79
   9  -4   1    7.07    2.75
  -9   4   1    2.97    7.15
  -9  -4  -1   11.65    8.32
  -9  -4  -1   16.78    9.34
   9  -4   1    4.07    7.55
  -9  -4  -1    8.32    7.37
   9   4  -1   11.80    5.02
  -9  -4  -1    3.30    3.08
   9  -4   1    7.62    2.27
   9  -4  -1    8.94    3.88
  -9  -4   1    4.21    4.54
  -9  -4   1    7.70    5.02
   9  -4  -1   12.17    2.97
  -9  -4   1   12.31    4.14
   9  -4  -1   17.74    9.53
   9   4   1   10.92    4.51
   9   4   1    4.73    3.66
 -10  -4  -1  329.71   18.07
  10  -4   1  345.36   17.63
  10  -4   1  345.51   15.36
 -10  -4  -1  301.02   19.28
 -10   4   1  319.52   30.75
  10   4  -1  348.77   34.67
 -10  -4  -1  330.56   23.89
 -10  -4  -1  310.07   27.23
 -10  -4  -1  341.73   42.47
  10  -4   1  323.48   34.81
 -10   4  -1  317.88   19.57
 -10  -4   1  322.75   21.44
 -10  -4   1  295.04   15.32
  10   4   1  328.65   31.66
  10  -4  -1  326.96   19.24
  10  -4  -1  359.62   28.22
  10  -4  -1  324.84   16.01
 -10  -4   1  314.17   23.27
 -10  -4   1  340.52   34.15
 -11  -4  -1   21.88    7.84
  11  -4   1   18.07    3.96
 -11  -4  -1   27.89    3.66
 -11   4   1   31.26    9.20
  11  -4   1   26.24    9.45
  11  -4   1   25.95    3.04
 -11  -4  -1   16.16    4.36
  11   4  -1   15.43    7.37
 -11  -4  -1   28.07    7.18
 -11  -4  -1   23.82    8.69
  11   4   1   21.59   10.11
 -11  -4   1   19.09    4.10
 -11  -4   1   26.17    5.72
  11   4   1   23.71    3.15
 -11  -4   1   25.80    7.18
 -11   4  -1   23.67    5.17
  11  -4  -1   26.53    3.92
 -11  -4   1   22.68   10.52
  11  -4  -1   20.60    7.59
  11  -4  -1   18.62    5.28
 -12  -4  -1    3.92    2.97
  12  -4   1    4.95    1.47
  12  -4   1    2.68    4.73
  12   4  -1    4.07    5.02
 -12   4   1    2.31    6.85
 -12  -4  -1    6.56    6.45
 -12  -4  -1    4.40    8.28
  12  -4   1   -4.03   10.88
  12   4  -1    1.25    2.02
 -12  -4  -1    6.56    8.91
 -12  -4  -1    0.99    4.03
  12   4   1    3.37    7.70
 -12  -4   1    4.73    5.13
 -12  -4   1    5.09    3.96
 -12   4  -1    2.24    3.37
  12   4   1    1.80    2.09
  12  -4  -1    3.30    8.76
 -12  -4   1    5.94    8.10
  12  -4  -1    3.88    5.94
  12  -4  -1    2.57    2.68
 -12  -4   1    6.82    7.77
  13  -4   1    0.66    2.90
  13  -4   1    0.73    1.32
 -13  -4  -1    0.48    5.35
 -13  -4  -1   -1.21    8.65
 -13   4   1   -2.93    6.85
 -13  -4  -1    2.46    5.90
  13   4  -1    0.26    1.14
 -13  -4  -1    6.23    2.82
 -13  -4  -1    2.09    2.49
  13   4  -1    5.35    4.69
  13  -4   1    3.96    6.41
  13  -4  -1    3.37    3.74
 -13  -4   1   -2.02    5.02
 -13  -4   1    2.46    3.08
 -13  -4   1   -0.77    2.31
  13   4   1    1.43    3.08
 -13  -4   1    4.47    7.40
 -13   4  -1    0.37    2.79
  13   4   1    0.07    6.89
  13  -4  -1    2.60    5.35
  13  -4  -1    6.63    3.99
 -14  -4  -1   57.39    6.30
  14  -4   1   51.56    4.80
  14  -4   1   57.32    6.60
 -14   4   1   60.87   15.25
 -14  -4  -1   49.77   13.19
  14   4  -1   52.92   10.96
 -14  -4  -1   49.14   16.67
 -14  -4  -1   55.12   18.65
  14  -4   1   61.42   19.39
 -14  -4   1   52.88    8.80
  14   4   1   44.82    6.49
  14   4   1   50.17   15.06
  14  -4  -1   61.60    7.77
  14  -4  -1   49.58   17.70
 -14  -4   1   57.94    6.45
  14  -4  -1   59.95    8.61
 -14  -4   1   46.32   16.64
 -14  -4   1   56.44   10.55
 -15  -4  -1   10.74    8.25
 -15  -4  -1    9.05    2.90
  15  -4   1    5.13    3.99
 -15   4   1    8.17    9.56
 -15  -4  -1   10.92    6.16
 -15  -4  -1   16.75    8.28
  15  -4   1   15.28    8.25
  15   4  -1    9.64    7.07
 -15  -4  -1    8.32   12.39
  15   4   1   10.15    4.54
  15  -4  -1   11.43    7.11
 -15  -4   1    9.34   13.96
  15  -4  -1   17.04    7.92
 -15  -4   1   17.88    6.93
 -15  -4   1    8.43    3.37
  15   4   1    9.78    6.63
 -15   4  -1    7.48    2.49
 -15  -4   1    8.69    4.36
 -15  -4   1    6.41   11.18
 -16  -4  -1  159.63   32.21
  16   4  -1  135.12   18.43
 -16  -4  -1  129.77   22.98
 -16   4   1  161.03   25.32
 -16  -4  -1  130.54   10.77
  16  -4   1  152.08   22.57
 -16  -4  -1  117.56   21.29
 -16  -4  -1  123.54    9.27
 -16  -4   1  135.23   11.18
 -16  -4   1  136.80   19.97
 -16  -4   1  137.35   10.44
 -16  -4   1  122.69   18.51
 -16  -4   1  119.51   25.14
  16  -4  -1  144.54   10.22
  16  -4  -1  136.22   13.49
  16  -4  -1  149.52   28.29
  16   4   1  145.12   17.77
 -17  -4  -1   -1.50    2.20
 -17  -4  -1   -2.35    7.15
  17  -4   1    2.13   11.36
  17   4  -1    0.04    6.05
 -17   4   1    2.38   12.68
 -17  -4  -1    2.02    3.11
 -17  -4  -1    4.51    7.11
 -17  -4  -1    5.17    6.56
 -17  -4   1    3.74    4.43
  17  -4  -1    5.46    4.62
 -17  -4   1   -1.80    3.41
 -17  -4   1    2.46    9.42
  17  -4  -1   -1.54    6.56
 -17  -4   1   13.85    6.41
 -17  -4   1   -1.69    8.10
 -18  -4  -1   34.08   20.08
 -18  -4  -1   21.69    9.53
 -18  -4  -1   13.05   12.90
  18  -4   1   27.78   11.65
 -18   4   1   41.41   22.50
 -18  -4  -1   21.69    6.60
  18   4  -1   22.02   16.45
  18  -4  -1   28.14   18.32
 -18  -4   1   28.73    5.31
  18  -4  -1   29.02    8.21
 -18  -4   1   30.27   17.96
  18   4   1   15.98   10.33
 -18  -4   1   26.17   19.02
 -19  -4  -1   24.52   18.80
  19   4  -1   14.70   15.43
  19  -4   1   22.83   17.88
 -19  -4  -1   11.98   12.61
 -19  -4   1   13.27    8.10
 -19  -4   1    9.05   16.16
 -19  -4   1   11.32   10.85
  19   4   1   23.23   16.01
  19  -4  -1   10.44   10.88
  19  -4  -1   21.80    4.98
 -20  -4  -1    0.59    9.42
  20  -4   1    0.70    9.31
 -20  -4  -1   -2.97   15.10
  20   4  -1    9.82    7.66
  20   4   1    3.88   12.53
  20  -4  -1   14.51   12.86
 -20  -4   1   -1.10    8.28
 -20  -4   1   -5.42   13.49
 -21  -4  -1    0.07    9.20
  21   4  -1   -2.35    7.99
 -21  -4  -1   -1.32   13.01
 -21  -4   1   -6.30   12.06
  21   4   1   -1.72    8.10
 -21   4  -1    4.87   14.62
  21  -4  -1    2.16    7.95
  22   4  -1    4.25   11.51
  22  -4   1   27.56   12.79
 -22  -4  -1    1.54   13.85
 -22  -4  -1   11.51   11.40
 -22  -4   1    5.94   16.67
 -22   4  -1   64.94   32.43
  22  -4  -1   19.50   17.70
  22   4   1   -1.25   11.84
 -22  -4   1   11.87   13.41
 -22   4  -1   -9.75   28.80
  23   4  -1    2.20   14.48
  23  -4   1    9.16   15.39
 -23  -4  -1    0.81   16.89
 -23   4  -1    0.95   14.33
 -23   4  -1    0.66   14.29
 -23  -4   1    2.79    7.95
  23  -4  -1    1.36   10.41
 -23  -4   1   34.34   16.89
  23   4   1    1.69   15.25
   0  -5  -1  924.13   60.65
   0   5  -1  892.06   34.92
   0   5  -1  975.39   50.76
   0   5   1  877.55   75.60
   0  -5  -1  906.17   55.12
   0  -5   1  925.30   56.55
   0   5   1  855.71   57.17
  -1  -5  -1   47.20    8.32
  -1  -5  -1   53.80   14.04
  -1   5   1   49.14    9.24
   1   5  -1   48.45    7.70
  -1  -5  -1   51.64    7.37
  -1   5   1   43.24    5.83
   1  -5   1   54.02    9.16
  -1  -5   1   57.24   12.24
   1   5   1   40.13    6.12
   1  -5  -1   58.45    9.49
  -1   5  -1   64.97   10.04
   1   5   1   40.17    5.46
  -2  -5  -1  538.60   34.52
  -2  -5  -1  604.67   38.66
   2   5  -1  570.19   28.36
   2   5  -1  528.74   35.29
  -2  -5  -1  601.16   34.74
  -2   5   1  686.91   63.40
   2   5   1  550.58   41.81
   2   5   1  537.21   29.13
  -2  -5   1  554.50   33.31
   2   5   1  531.56   29.98
   3   5  -1  110.20   16.12
  -3  -5  -1  116.65   11.69
  -3  -5  -1  125.59   13.56
   3   5  -1  131.42   12.42
  -3   5   1  156.74   17.37
  -3  -5  -1  121.30    8.76
   3   5   1  117.09    8.58
  -3  -5   1  141.05   17.37
   3   5   1  121.30   10.96
   3   5   1  125.59   22.28
  -3  -5   1  126.87   11.21
   4   5  -1  563.45   29.90
  -4  -5  -1  598.74   43.28
  -4  -5  -1  584.04   29.57
   4   5  -1  568.98   34.70
  -4  -5  -1  627.87   55.04
   4   5   1  626.63   33.35
   4  -5  -1  462.78   42.95
   4  -5  -1  537.79   43.17
   4   5   1  570.19   38.52
   4   5   1  624.35   44.16
  -4  -5   1  565.61   34.12
  -4  -5   1  553.59   21.62
  -4  -5   1  613.47   34.81
  -5  -5  -1    5.64    3.08
   5  -5   1   -3.66    8.32
  -5  -5  -1    5.68    3.15
   5   5  -1   11.84    6.12
   5  -5  -1    2.05    3.59
   5  -5  -1   -3.77    8.32
  -5  -5   1    0.95    2.13
  -5  -5   1    2.46    3.92
   5   5   1   -0.04    8.06
   5   5   1   -0.48    5.06
   5   5   1   -3.63    5.35
   6   5  -1  159.63   20.19
  -6  -5  -1  144.06   15.83
   6  -5   1  156.85   34.67
  -6  -5  -1  168.98   12.42
   6  -5  -1  148.71   11.87
   6  -5  -1  147.14   24.30
  -6  -5   1  152.67   12.64
   6   5   1  186.42   12.94
  -6  -5   1  167.22   21.40
  -6  -5   1  189.68   12.64
   6   5   1  179.39   28.69
  -6  -5   1  152.74   11.54
  -7  -5  -1  118.92   14.70
   7  -5   1  103.86   26.83
  -7  -5  -1   98.14   19.64
  -7  -5  -1   90.55    8.61
   7   5  -1   95.47   10.99
  -7  -5  -1  121.74   10.99
   7  -5   1   91.32    8.83
   7   5   1  101.37   23.71
   7   5   1  101.88   10.04
  -7  -5   1   82.97   10.33
   7  -5  -1  103.64    8.94
  -7  -5   1   97.52   16.97
  -7  -5   1  114.56   10.33
  -7  -5   1   93.45    6.85
   7  -5  -1  105.36   19.83
   8  -5   1    5.57    1.94
   8  -5   1    1.98    2.97
   8  -5   1    0.29   11.14
  -8  -5  -1    6.52    4.07
  -8  -5  -1    0.04    7.84
   8   5  -1    0.77    7.11
  -8  -5  -1    1.76    3.88
  -8  -5  -1    4.47    8.61
   8   5   1   11.80    6.23
  -8  -5   1    1.98    2.13
  -8  -5   1    5.35    3.08
  -8  -5   1    2.97    6.30
  -8  -5   1    9.75    5.86
  -8   5  -1    2.49    4.14
   8  -5  -1    3.70    9.13
   8  -5  -1    2.75    2.97
   9  -5   1   14.29    3.66
   9  -5   1   15.46   14.51
   9  -5   1   20.01    3.52
  -9  -5  -1   12.68    9.24
   9   5  -1   19.79    6.41
  -9  -5  -1   15.28    8.25
  -9  -5  -1   20.93    7.59
   9   5   1   17.48    8.94
   9  -5  -1   19.57    3.85
   9  -5  -1   10.96   12.94
  -9  -5   1   18.32    7.04
  -9  -5   1   23.20    5.46
  -9  -5   1   23.60    9.09
   9  -5  -1   21.84    8.72
  -9  -5   1   16.31    5.42
 -10  -5  -1  366.14   21.37
  10   5  -1  464.68   44.09
 -10  -5  -1  466.66   38.22
 -10  -5  -1  438.08   40.71
  10  -5   1  415.43   21.51
  10  -5   1  421.00   41.52
 -10  -5  -1  397.22   29.50
  10  -5   1  411.98   21.59
  10   5   1  471.98   31.52
  10  -5  -1  415.28   23.12
 -10   5  -1  371.93   26.28
  10  -5  -1  440.72   36.57
 -10  -5   1  384.68   39.95
 -10  -5   1  450.32   31.26
 -10  -5   1  493.05   43.83
  10  -5  -1  418.76   26.17
 -10  -5   1  392.42   20.71
 -11  -5  -1    8.43    4.29
 -11  -5  -1   12.39    4.54
 -11  -5  -1   13.27    5.94
 -11  -5  -1   13.60   12.35
 -11  -5  -1   17.74    6.38
  11  -5   1   12.02    6.52
  11  -5   1   19.06   10.66
  11   5  -1   10.66   10.96
  11  -5   1   17.41    2.05
 -11  -5   1   21.69   10.22
  11   5   1   24.08    6.19
  11  -5  -1   15.43    3.52
 -11  -5   1   24.85    6.12
  11  -5  -1   17.52    4.95
  11  -5  -1    9.42    7.62
 -11  -5   1   20.23    3.55
 -11  -5   1   25.76    6.41
 -11  -5   1   20.12    3.96
  12   5  -1  590.67   43.35
  12  -5   1  583.79   39.84
  12  -5   1  530.65   50.79
 -12  -5  -1  588.26   57.54
 -12  -5  -1  565.10   48.37
 -12  -5  -1  478.10   30.45
 -12  -5  -1  493.27   40.20
  12  -5   1  480.81   27.05
 -12  -5   1  553.77   30.45
  12  -5  -1  561.91   36.06
 -12  -5   1  526.76   35.73
 -12  -5   1  567.95   45.04
  12   5   1  592.80   43.43
  12  -5  -1  581.15   32.62
 -12  -5   1  497.41   58.56
  12  -5  -1  576.05   60.50
 -12  -5   1  601.67   44.20
 -12   5  -1  460.62   32.07
 -13  -5  -1    3.08    4.29
 -13  -5  -1    7.07    7.92
 -13  -5  -1   12.24    5.35
 -13  -5  -1    4.58    3.11
  13  -5   1    7.55    5.02
  13   5  -1    1.06    2.20
  13  -5   1    1.72   10.92
 -13  -5  -1    5.53    5.68
  13  -5   1    0.18    2.24
  13   5  -1   -0.99    5.17
 -13  -5   1    1.94    5.02
 -13  -5   1   -3.99    7.15
  13  -5  -1    0.07    4.10
 -13  -5   1   -2.42    7.77
 -13   5  -1    2.49    3.77
  13   5   1   -0.11    3.08
 -13  -5   1   -3.30    4.40
  13   5   1    3.19    4.69
  13  -5  -1   -4.76    5.39
 -13  -5   1    5.42    2.64
  13  -5  -1   -2.05    6.41
 -14  -5  -1    2.02    1.83
 -14  -5  -1   -0.37    2.64
 -14  -5  -1   -3.81    5.02
  14  -5   1    5.09    6.27
  14   5  -1   -1.03    1.87
  14  -5   1    0.44    1.87
 -14  -5  -1   -3.85    7.40
  14   5  -1    2.53    4.76
 -14  -5  -1    1.10    5.06
 -14  -5   1   -1.61    2.71
  14  -5  -1   -2.75    3.85
  14   5   1   -0.55    3.19
 -14  -5   1   -1.25    2.20
  14  -5  -1    6.71    5.17
 -14  -5   1   -0.26    4.40
  14  -5  -1   -1.65    3.85
 -14  -5   1    3.88    4.80
 -14  -5   1    2.93    7.00
  14   5   1   -2.79    4.36
 -14   5  -1   -0.04    3.11
 -15  -5  -1  124.34   18.21
 -15  -5  -1   80.29   25.87
  15   5  -1  117.12   18.03
 -15  -5  -1  115.22   10.15
 -15  -5  -1  118.37   19.31
  15  -5   1  147.47   15.83
  15  -5   1  118.04   29.72
 -15  -5   1  125.99   16.67
  15  -5  -1  138.31   14.00
 -15  -5   1  137.65   18.10
  15  -5  -1  145.27   13.30
 -15  -5   1  123.21   26.17
  15  -5  -1  120.35   28.29
 -15  -5   1   95.47   17.33
 -15  -5   1  106.53   12.13
  15   5   1  121.85   16.49
 -16  -5  -1    7.95   12.68
 -16  -5  -1   13.93    6.63
 -16  -5  -1   10.77    3.33
 -16  -5  -1   13.93    9.89
 -16  -5  -1    6.74    9.02
  16   5  -1   15.50    8.14
  16  -5   1   31.00   10.15
  16  -5  -1   14.59    8.36
  16  -5  -1   15.10    3.85
  16  -5  -1   13.67    9.34
 -16  -5   1   11.07    4.29
  16   5   1   17.22    7.92
 -16  -5   1    6.93    7.84
 -16  -5   1   15.61    4.91
 -16  -5   1   14.84    8.14
 -16  -5   1    9.82    8.10
 -17  -5  -1   16.71   10.52
 -17  -5  -1    8.65    3.52
 -17  -5  -1   21.62    9.86
 -17  -5  -1    8.87    4.95
  17   5  -1   23.60    8.50
 -17  -5  -1   18.25    8.91
  17  -5   1   14.37   10.74
  17   5   1   13.01    8.58
 -17  -5   1   16.56    7.99
  17  -5  -1   20.67    4.65
  17  -5  -1   19.39    6.16
 -17  -5   1   15.98    8.72
 -17  -5   1   12.83    9.13
 -17  -5   1   12.72    7.00
 -17  -5   1   15.76   16.56
  17  -5  -1   14.95   14.22
  18  -5   1   33.02   16.97
 -18  -5  -1   20.01   10.22
  18   5  -1    9.34    9.02
 -18  -5  -1    8.94    5.20
 -18  -5  -1   18.98    9.02
  18  -5  -1   12.75    6.45
  18  -5  -1   14.37   10.22
 -18  -5   1   12.42    4.47
 -18  -5   1   21.91   14.44
 -18  -5   1    1.21   16.01
  18   5   1   19.46    9.09
 -19  -5  -1   77.87   17.66
  19  -5   1   80.92   19.90
  19   5  -1   69.63   25.47
 -19  -5  -1   73.59   29.57
 -19  -5   1   59.15   19.46
  19  -5  -1   84.98   12.57
  19   5   1   77.76   26.72
  19  -5  -1   77.11   29.35
 -19  -5   1   68.57   23.16
 -20  -5  -1    0.40   15.54
  20   5  -1   -0.44   12.79
  20  -5   1    0.62   15.06
 -20  -5  -1   -1.87    8.17
 -20  -5   1   -6.27    8.98
  20   5   1    0.37   12.79
 -20  -5   1   -3.08    7.44
 -20   5  -1  -12.75   23.34
  21   5  -1   -5.97    8.43
 -21  -5  -1   14.11   12.09
  21  -5   1    0.11    9.38
 -21  -5  -1    1.54    9.64
 -21   5  -1   20.49   20.96
 -21  -5   1    8.36   12.86
  21  -5  -1   -8.91   12.83
 -21   5  -1   -1.80   15.14
  21   5   1    0.40    7.92
 -21  -5   1   -0.07    7.07
 -22  -5  -1   22.10   20.12
  22  -5   1   53.87   25.84
  22   5  -1    5.53   15.36
 -22  -5  -1    0.77   19.02
 -22   5  -1   66.88   24.48
 -22  -5   1   40.20   16.31
  22  -5  -1   64.54   15.50
 -22   5  -1   -5.94   27.08
 -22  -5   1   64.32   25.62
  22   5   1    1.43   15.65
   0   6   1   -0.26    4.65
   0   6  -1    5.42    4.36
   0   6   1    2.02    2.97
   0  -6  -1    0.92    4.14
   0   6  -1    0.37    1.58
   0  -6   1   -2.09    4.43
   1  -6   1  104.15   13.05
  -1   6   1  114.52   19.42
  -1  -6  -1   87.22   17.15
  -1  -6  -1   66.77   10.44
  -1   6   1   68.27   11.32
   1   6   1   76.70    7.84
  -1   6  -1   95.54   13.08
  -1  -6   1   91.54   16.45
   1  -6  -1   70.62    6.85
  -2  -6  -1  182.61   17.70
  -2  -6  -1  180.78   11.95
   2   6  -1  160.84   23.38
  -2   6   1  221.68   21.00
   2  -6   1  236.15   19.64
  -2  -6  -1  174.04   11.03
  -2   6   1  182.36   12.83
   2   6  -1  182.72   17.74
   2  -6  -1  219.73   19.20
  -2  -6   1  185.58   16.27
   2   6   1  192.51   30.64
   2   6   1  165.72   12.53
  -3  -6  -1   14.66    6.67
   3   6  -1   18.25    4.62
  -3  -6  -1   16.12    6.19
  -3  -6  -1   18.29    5.39
  -3   6   1   24.85    8.50
   3  -6   1   26.09   11.58
   3   6  -1   14.29    9.38
   3   6   1    7.26    7.48
   3  -6  -1   18.43    5.09
   3   6   1   15.90    7.18
  -3  -6   1   11.95    6.08
   3   6   1   11.21    4.73
  -3  -6   1   13.60    5.83
   4   6  -1    7.26    7.22
  -4  -6  -1    9.34    4.14
  -4  -6  -1   10.55    3.15
   4   6  -1   12.31    3.96
  -4  -6  -1   17.99    5.61
  -4   6   1   13.96    8.10
  -4  -6   1    9.38    5.06
   4   6   1   11.98   10.11
   4   6   1    8.47    8.17
   4   6   1    6.45    5.97
   4  -6  -1   -3.55    8.10
  -4  -6   1    7.88    7.95
  -5  -6  -1   70.55    8.28
   5   6  -1   75.42   11.87
   5  -6   1   54.38   27.52
  -5  -6  -1   67.10    8.98
   5   6  -1   52.59   13.38
  -5  -6  -1   70.73   10.52
   5  -6  -1   61.05   18.25
   5   6   1   48.85   15.79
   5   6   1   55.48    7.62
  -5  -6   1   61.93    9.42
   5  -6  -1   55.04    8.87
   5   6   1   56.80   11.54
  -5  -6   1   57.79    8.47
   6  -6   1  151.06   23.45
  -6  -6  -1  181.00   13.41
   6   6  -1  184.08   15.06
  -6  -6  -1  194.60   17.55
  -6  -6   1  175.80   14.00
   6   6   1  186.46   19.31
   6  -6  -1  150.25   13.63
  -6  -6   1  158.17    9.20
   6  -6  -1  150.36   19.09
  -6  -6   1  154.83    9.24
   7  -6   1   78.64   17.08
  -7  -6  -1   90.52   11.10
   7  -6   1   69.92    9.97
  -7  -6  -1   94.15    9.60
   7   6  -1   87.07   10.96
  -7  -6   1   74.39    6.96
   7   6   1  100.19   13.19
   7  -6  -1   74.39    9.02
   7  -6  -1   79.93   12.90
   7   6   1   95.54    9.67
  -7  -6   1   81.14    9.20
  -7  -6   1   88.98   10.96
  -8  -6  -1  185.98   15.43
   8  -6   1  167.44   23.89
  -8  -6  -1  152.34   25.32
  -8  -6  -1  194.30   18.91
   8   6  -1  188.40   25.14
   8  -6  -1  165.72   19.75
  -8  -6   1  182.36   15.43
   8   6   1  205.59   22.32
   8  -6  -1  168.03   13.34
  -8  -6   1  228.05   23.12
   8   6   1  213.43   16.16
  -8  -6   1  154.54   12.24
  -8  -6   1  164.98   10.11
   9  -6   1   19.35    4.65
   9  -6   1   15.46    4.32
  -9  -6  -1   16.53    9.93
   9   6  -1   22.54    6.82
  -9  -6  -1   21.84    5.68
  -9  -6  -1   13.45    5.35
  -9  -6  -1   24.99   14.29
   9  -6   1   20.19    9.34
  -9  -6   1   16.93    3.81
  -9   6  -1   16.23    6.49
  -9  -6   1   22.54    3.85
   9  -6  -1   15.43    8.94
   9  -6  -1   16.56    4.51
  -9  -6   1   23.31    6.60
   9   6   1   24.70    6.16
  -9  -6   1   23.01    6.23
   9  -6  -1   11.51   13.56
  10   6  -1   49.95    9.02
 -10  -6  -1   41.67    4.32
  10  -6   1   40.02   20.78
 -10  -6  -1   61.53   11.84
 -10  -6  -1   50.06   11.25
  10  -6   1   42.33    3.70
 -10  -6  -1   52.41   13.34
  10  -6   1   43.17    5.57
  10  -6  -1   53.50   12.50
  10  -6  -1   45.11    5.79
 -10  -6   1   58.93   14.29
 -10  -6   1   54.68    8.32
  10   6   1   58.75   13.34
 -10  -6   1   72.08   12.75
  10  -6  -1   38.37   19.28
 -11  -6  -1    1.17    9.93
 -11  -6  -1    0.77    2.27
 -11   6   1    1.83    1.54
 -11  -6  -1    3.08    4.25
  11  -6   1    0.33    2.79
  11  -6   1   -6.12   11.07
 -11  -6  -1    0.73    7.11
  11   6  -1   11.69    7.51
  11  -6   1    3.22    2.71
 -11  -6   1    3.48    4.32
  11  -6  -1   -0.73    3.66
  11   6   1    1.91    4.29
  11  -6  -1   -4.65    5.68
 -11  -6   1   -1.10    4.76
 -11   6  -1   -1.65    3.66
  11  -6  -1    0.59    2.97
 -11  -6   1    4.21    7.51
  11   6   1    1.58    2.27
 -12  -6  -1   18.62    5.50
 -12  -6  -1   33.64   13.82
  12  -6   1   14.00    7.62
  12   6  -1   26.31    8.10
 -12  -6  -1   29.61    7.73
  12  -6   1   22.39   11.47
 -12  -6  -1   36.13    6.85
 -12  -6  -1   21.69    7.40
 -12  -6   1   24.08    4.32
  12  -6  -1   27.19    8.72
 -12  -6   1   30.97   10.85
  12  -6  -1   17.96    4.43
 -12  -6   1   19.17    4.25
 -12  -6   1   13.19    6.19
 -12  -6   1   21.18    6.71
  12   6   1   25.73    7.04
  12  -6  -1   26.79    5.79
  13   6  -1   36.39   10.52
  13  -6   1   60.69   13.56
  13  -6   1   34.08   10.00
 -13  -6  -1   48.85   11.47
 -13  -6  -1   43.17   14.88
 -13  -6  -1   35.44    6.96
  13  -6  -1   46.32    7.70
 -13  -6   1   39.91    7.92
 -13  -6   1   46.91    9.49
 -13  -6   1   36.90   13.38
 -13  -6   1   27.67    8.50
  13   6   1   44.05    9.13
 -13  -6   1   51.38    5.94
 -13   6  -1   28.07    7.62
  13  -6  -1   32.54   15.50
  13  -6  -1   46.36    5.64
  14  -6   1   38.15    5.86
 -14  -6  -1   33.53    6.30
  14   6  -1   35.55    9.45
 -14  -6  -1   36.06    9.78
  14  -6   1   23.53   19.75
 -14  -6  -1   21.69    7.84
 -14  -6  -1   37.86   10.77
  14  -6  -1   32.87   10.30
 -14  -6   1   33.02    4.87
 -14  -6   1   16.71    7.99
  14  -6  -1   43.46    7.40
  14   6   1   20.89    5.75
 -14  -6   1   38.96    8.43
 -14  -6   1   29.02   14.04
 -14   6  -1   18.95    6.78
  14  -6  -1   38.15   11.47
 -14  -6   1   33.90   12.97
  14   6   1   37.53    8.65
 -15  -6  -1   22.68    8.87
 -15  -6  -1    1.54   11.10
  15  -6   1   22.24    4.84
 -15  -6  -1    9.82    4.91
 -15  -6  -1   22.17    8.94
 -15  -6  -1   16.56    4.43
  15   6  -1   17.66    8.17
  15  -6   1   19.02   10.63
 -15  -6   1   17.33    4.95
  15  -6  -1    8.91    6.05
  15   6   1   26.72    7.70
 -15  -6   1   12.46    3.81
  15  -6  -1   15.28    6.08
  15   6   1    4.84    5.57
 -15  -6   1    9.75    7.62
 -15   6  -1    7.62    4.84
 -15  -6   1   22.21    7.48
 -15  -6   1   11.84   10.81
  15  -6  -1   19.42    9.05
 -16  -6  -1   23.05    5.53
  16  -6   1   34.96    8.80
 -16  -6  -1   34.37    4.51
 -16  -6  -1   -1.28   14.07
  16  -6   1   23.71   12.09
 -16  -6  -1   27.38   11.43
 -16  -6  -1   33.09   11.25
  16   6  -1   24.96   10.11
 -16  -6   1   26.75    9.97
 -16  -6   1   18.69    8.03
 -16  -6   1   28.03   10.41
  16  -6  -1   34.63    9.13
  16   6   1   22.76    9.56
 -16  -6   1   16.93   14.95
  16  -6  -1   24.52    7.40
 -16  -6   1   27.08   13.82
  16  -6  -1   26.39   16.75
 -17  -6  -1    9.27    6.27
 -17  -6  -1    3.22    2.97
 -17  -6  -1   -1.91   10.74
 -17  -6  -1    0.99    8.50
  17   6  -1    4.62    7.66
  17  -6   1   -1.36   13.56
  17  -6  -1   11.76    3.96
 -17  -6   1    9.34   11.03
 -17  -6   1   16.60   10.22
  17   6   1    5.53    7.33
 -17  -6   1    3.74    4.07
  17  -6  -1   -0.22    8.47
 -18  -6  -1   81.54   17.22
  18  -6   1  117.67   23.31
 -18  -6  -1  124.34   21.88
  18   6  -1  120.71   18.65
  18   6   1  103.97   19.46
  18  -6  -1   98.47   10.66
 -18  -6   1  120.09   31.08
  18  -6  -1  120.53   14.26
 -18  -6   1   93.56   19.61
  18  -6  -1  141.46   31.22
  19  -6   1    3.41   15.72
 -19  -6  -1    0.44    7.66
  19   6  -1   16.82    8.87
 -19  -6  -1   10.55   14.95
  19   6   1   23.38    8.83
 -19  -6   1   12.39    9.53
  19  -6  -1    9.97    9.75
 -19  -6   1    4.76    8.17
  19  -6  -1    3.41    3.37
 -20  -6  -1    2.90    8.28
  20   6  -1    6.45    9.34
  20  -6   1    0.59   10.59
 -20  -6  -1    1.25   15.98
 -20  -6   1    7.29   12.79
  20  -6  -1   -0.07   16.42
  20   6   1    1.54   13.96
 -20  -6   1   19.61    9.89
  21   6  -1    3.11   13.74
  21  -6   1    0.00   16.16
 -21  -6  -1    4.91   11.73
 -21  -6  -1    0.62   16.12
  21   6   1    0.11   13.67
 -21   6  -1    0.84   16.23
 -21  -6   1    8.87    8.69
  21  -6  -1   -6.05    9.16
 -22  -6  -1   -0.44   14.81
  22  -6   1   -0.18   11.87
  22   6  -1    3.04   15.54
 -22  -6  -1    0.22   11.43
 -22   6  -1   43.72   24.59
  22  -6  -1    3.01   15.94
 -22  -6   1    1.61   15.87
 -22   6  -1   27.23   17.74
  22   6   1   -1.28   10.30
   0  -7   1  462.89   32.58
   0   7   1  419.61   34.92
   0  -7  -1  385.45   24.26
   0   7   1  372.52   30.71
   0   7  -1  414.18   36.13
  -1   7   1    5.97    5.68
  -1  -7  -1    2.09    5.20
  -1   7   1    2.93    3.01
  -1  -7  -1   -2.20    5.06
   1  -7   1    6.38    8.43
  -1   7  -1    4.14    6.45
   1   7   1    6.89    5.35
  -1  -7   1    0.18    5.09
   1  -7  -1    9.09    5.28
  -2   7   1   40.38    8.87
  -2  -7  -1   37.01    8.72
   2  -7   1   43.50   15.36
  -2  -7  -1   31.92    5.64
  -2   7   1   48.52   10.11
   2   7  -1   35.95    7.66
   2   7  -1   29.39   10.37
   2   7   1   38.66    5.90
  -2  -7   1   39.73    7.95
   2   7   1   29.83    5.72
  -2   7  -1   34.48    7.51
   2   7   1   44.64   16.67
   2  -7  -1   38.92    6.78
   3   7  -1  216.36   22.61
  -3  -7  -1  259.90   20.08
  -3   7   1  267.45   25.62
   3  -7   1  291.34   32.14
  -3   7   1  280.79   28.22
  -3  -7  -1  234.06   22.61
  -3  -7  -1  204.34   15.83
   3   7  -1  207.82   20.56
  -3  -7   1  195.84   18.76
   3  -7  -1  251.87   18.84
   3   7   1  246.16   17.77
   3   7   1  218.71   24.63
   4   7  -1  351.81   42.69
  -4  -7  -1  413.08   28.91
  -4  -7  -1  410.56   31.88
  -4  -7  -1  391.61   32.65
   4   7  -1  389.78   34.26
  -4   7   1  446.47   37.86
   4  -7   1  494.11   45.74
   4   7   1  383.07   40.38
   4   7   1  386.66   33.79
   4  -7  -1  308.90   41.01
   4   7   1  347.52   34.45
  -4  -7   1  354.01   35.91
  -4  -7   1  405.02   24.19
  -5  -7  -1   28.58   10.48
  -5  -7  -1   34.01    8.21
   5   7  -1   37.49    6.34
  -5  -7  -1   29.90    4.51
   5   7  -1   30.45   10.55
  -5   7   1   39.98   10.41
  -5  -7   1   26.72    7.51
   5   7   1   21.40    8.69
   5   7   1   17.85    9.09
   5   7   1   35.40   13.63
   5  -7  -1   25.03   10.08
  -5  -7   1   14.22    9.56
   5  -7  -1   19.72   10.88
  -6  -7  -1  239.52   24.77
   6  -7   1  195.55   55.67
  -6  -7  -1  328.14   37.05
   6   7  -1  264.41   21.91
  -6  -7  -1  297.24   18.69
   6   7   1  264.92   38.74
   6   7   1  284.60   20.71
  -6  -7   1  261.81   28.58
   6  -7  -1  202.07   27.71
  -6  -7   1  281.38   23.09
   6  -7  -1  233.73   28.07
   7  -7   1   20.63    7.70
   7  -7   1   28.55   21.37
  -7  -7  -1   36.57    5.42
  -7  -7  -1   33.17   10.44
   7  -7  -1   33.50   10.52
   7   7   1   53.80   15.90
  -7  -7   1   31.11   11.69
   7  -7  -1   26.31   10.48
  -7  -7   1   41.23    6.08
  -7  -7   1   37.49    4.47
   7   7   1   38.19    7.55
  -7  -7   1   41.04    5.06
   8   7  -1   -0.26    7.11
   8  -7   1    1.76   11.54
  -8  -7  -1    7.92    5.83
   8   7   1    2.27    6.34
  -8  -7   1   -2.46    4.29
   8   7   1    3.99    9.16
   8  -7  -1   -3.44    5.61
  -8  -7   1   -0.18    2.49
   8  -7  -1   -1.39    5.72
  -8  -7   1    0.44    7.15
  -9  -7  -1  180.71   21.84
  -9  -7  -1  197.56   23.75
   9   7  -1  229.01   21.11
  -9  -7  -1  219.92   19.42
   9  -7   1  185.84   28.29
  -9  -7   1  208.89   18.80
  -9  -7   1  189.83   18.58
   9  -7  -1  188.07   22.35
   9   7   1  220.94   19.75
   9  -7  -1  191.30   25.03
 -10  -7  -1  111.26   11.76
  10  -7   1  123.76   21.00
  10  -7   1  133.72   12.06
  10   7  -1  145.01   15.36
 -10  -7  -1  137.17   14.07
 -10  -7   1  123.28    9.82
  10  -7  -1  110.93   15.90
 -10  -7   1  122.84   14.77
  10  -7  -1  103.31   20.19
  10  -7  -1  118.59   13.52
  10   7   1  147.10   20.96
  11  -7   1    0.62    3.41
 -11  -7  -1   -2.71    4.95
  11   7  -1   -2.16    7.88
 -11  -7  -1    5.24    5.46
 -11  -7  -1    2.53    3.77
  11  -7   1    2.49    3.04
  11  -7   1   -1.50    7.04
  11  -7  -1    9.82    8.61
 -11  -7   1    0.51    4.51
 -11   7  -1    0.18    3.77
  11  -7  -1    5.57    5.97
 -11  -7   1    6.05    4.51
  11   7   1    0.73    7.18
  11  -7  -1   -1.80    5.09
  12  -7   1   44.93   25.03
 -12  -7  -1   48.45    5.64
 -12  -7  -1   44.12   12.35
 -12  -7  -1   41.74   14.81
  12   7  -1   51.89   10.70
  12  -7   1   52.88    6.38
  12  -7  -1   54.24   12.64
  12  -7  -1   42.18    6.78
  12  -7  -1   41.19   18.32
 -12  -7   1   49.69    6.08
  12   7   1   46.76    9.71
 -12  -7   1   58.34   10.19
 -12  -7   1   41.63   14.66
  13  -7   1    1.14   15.03
 -13  -7  -1    7.99    2.86
 -13  -7  -1    3.77   11.43
  13  -7   1    3.52    2.02
 -13  -7  -1    0.29    3.88
  13   7  -1   14.15    6.19
 -13  -7  -1    0.51    4.43
  13  -7   1   10.44    3.74
 -13  -7  -1    0.77    5.72
  13  -7  -1    9.45    4.58
  13  -7  -1    2.71    3.44
 -13  -7   1    7.04    3.55
  13   7   1    2.71    5.68
  13  -7  -1   -3.85    7.11
 -13  -7   1   -0.07    3.85
 -13  -7   1   -2.64    6.56
  13   7   1    3.88    2.75
 -13  -7   1    4.73    3.41
 -13  -7   1   -0.73    8.61
 -13  -7   1    5.42    5.75
 -14  -7  -1    2.79    2.53
  14  -7   1   10.11    7.51
 -14  -7  -1    0.48    4.10
 -14  -7  -1   -0.22    2.97
  14   7  -1    5.64    5.53
 -14  -7  -1   18.76    8.72
 -14  -7  -1   -1.32    6.23
  14  -7   1    4.51    4.87
 -14  -7   1   -0.15    4.69
  14   7   1    0.88    4.91
  14   7   1    0.07    3.59
  14  -7  -1    4.62    4.14
 -14   7  -1    0.77    4.10
 -14  -7   1   -1.58    3.59
  14  -7  -1   -1.14    2.86
 -14  -7   1   -1.80    3.26
 -14  -7   1    2.53    5.31
  14  -7  -1   -7.11    9.09
 -15  -7  -1   32.43    9.49
  15   7  -1   45.77   10.55
 -15  -7  -1   42.62   11.40
  15  -7   1   42.11   20.74
 -15  -7  -1   26.68    7.33
 -15  -7  -1   43.21   12.75
  15  -7   1   36.94    9.78
 -15  -7   1   43.94   12.68
  15  -7  -1   32.29   11.73
  15  -7  -1   29.06   11.76
 -15  -7   1   33.61   10.37
 -15  -7   1   25.40    5.83
 -15  -7   1   38.55   10.33
  15   7   1   34.59   10.15
  15  -7  -1   34.78    5.35
  16  -7   1   13.74   17.33
 -16  -7  -1    0.70    6.63
  16  -7   1   15.61    5.09
 -16  -7  -1    5.86    9.27
 -16  -7  -1   26.68   10.19
  16   7  -1   25.07    8.65
 -16  -7  -1   14.07    4.91
 -16  -7  -1   13.78    5.50
  16   7   1   14.29    8.39
  16  -7  -1   17.52    6.30
  16  -7  -1   13.74    7.51
  16  -7  -1   18.80    9.93
 -16  -7   1   17.77    4.32
  16   7   1    5.50    5.68
 -16  -7   1   13.34   15.72
 -16  -7   1    5.02    5.83
  17  -7   1    6.93    4.10
  17  -7   1    7.44    9.82
 -17  -7  -1    3.77    9.71
 -17  -7  -1    0.40    7.44
  17   7  -1   14.95    7.37
 -17  -7  -1    6.60    5.53
  17  -7  -1   14.37   14.48
 -17  -7   1   12.61   14.66
  17  -7  -1   10.96    5.97
  17  -7  -1    5.17    6.56
  17   7   1    4.47    4.95
  17   7   1    5.90    7.73
 -18  -7  -1    7.92    3.70
 -18  -7  -1   14.59   10.66
 -18  -7  -1    1.28    7.37
  18   7  -1    9.20    8.61
  18  -7   1    2.20   16.34
  18  -7  -1    9.67    5.83
  18  -7  -1    5.24    9.45
 -18  -7   1    8.03    9.49
  18   7   1    9.67    8.69
 -19  -7  -1    0.51    5.90
  19   7  -1   -1.47    6.89
  19  -7   1    0.07    8.47
  19  -7  -1   -0.37    4.80
  19  -7  -1    0.07   12.39
  19   7   1    1.80    6.96
 -20  -7  -1    0.18   13.49
  20  -7   1    0.26    9.38
 -20  -7  -1   -1.25    6.38
  20   7  -1   -0.84    7.62
 -20  -7   1    3.41    7.70
  20   7   1    0.84    7.66
  20  -7  -1    0.15    9.09
 -21  -7  -1    2.53    6.23
  21  -7   1   -0.04   10.59
  21   7  -1    3.26    8.91
  21  -7  -1    1.28   15.90
 -21  -7   1    0.15    9.38
 -21   7  -1    8.94   16.42
  21   7   1    1.61   13.89
   0  -8   1    1.47    4.36
   0  -8  -1    3.08    5.17
   0   8  -1   -2.13    3.63
   0   8   1    1.76    4.65
   0   8  -1   -0.84    1.25
  -1   8   1  110.16   15.14
   1  -8   1  115.55   14.07
  -1  -8  -1  106.09   15.50
  -1   8   1  106.39   22.76
  -1   8  -1  117.38   18.07
   1   8   1  104.30    9.49
  -1  -8   1  124.89   13.30
   1  -8  -1  104.26   10.66
  -2   8   1  177.00   19.90
  -2  -8  -1  171.47   14.22
  -2   8   1  199.21   30.93
   2  -8   1  210.90   20.74
   2   8  -1  191.41   22.57
  -2  -8  -1  187.82   19.94
   2  -8  -1  181.00   14.18
   2   8   1  168.72   20.71
  -2   8  -1  208.52   18.87
  -2  -8   1  174.55   16.45
   2   8   1  163.45   21.37
   3   8  -1   42.00    9.20
   3  -8   1   59.77   10.33
   3   8  -1   39.14   10.74
  -3   8   1   36.87    7.55
  -3  -8  -1   42.11    7.15
  -3   8   1   38.22   18.62
  -3  -8  -1   39.54   10.48
   3   8   1   45.63    6.89
   3  -8  -1   50.21    8.39
   3   8   1   39.43   10.33
  -3   8  -1   47.09   10.00
   3   8   1   43.87    7.00
  -3  -8   1   51.53   13.34
   4   8  -1   33.61    9.53
   4  -8   1   66.00   15.61
  -4  -8  -1   42.44    6.63
   4   8  -1   44.53    7.66
  -4   8   1   68.86   18.73
  -4  -8  -1   46.80   10.37
  -4  -8  -1   40.68    5.24
  -4   8   1   51.67    7.92
   4   8   1   29.21   11.03
   4   8   1   33.53    9.93
   4   8   1   43.57    8.10
   4  -8  -1   11.58   21.18
  -4  -8   1   58.31   12.68
   5   8  -1    2.82    8.61
   5  -8   1    4.07    8.80
   5   8  -1    3.11    6.93
  -5  -8  -1    2.05    8.76
  -5  -8  -1    2.20    4.69
  -5  -8  -1   -2.20    6.05
   5   8   1    0.62    8.14
   5   8   1    2.31    4.36
  -5  -8   1    4.07    3.37
   5   8   1    6.82    5.94
   5  -8  -1    3.70   10.37
  -5  -8   1    3.30    6.60
   5  -8  -1    8.43    4.40
  -6  -8  -1   33.61    7.44
  -6  -8  -1   31.44   14.11
   6   8  -1   25.32    9.09
   6  -8   1   13.78   14.73
   6   8  -1   34.67    7.55
  -6  -8  -1   34.52    7.07
   6   8   1   35.00   14.95
   6  -8  -1   22.39    7.95
   6  -8  -1   25.14   10.48
   6   8   1   25.54    6.56
  -6  -8   1   32.51    5.61
  -6  -8   1   25.91   10.85
  -7  -8  -1   71.53   10.30
   7  -8   1   50.72   17.74
   7   8  -1   72.30   10.85
  -7  -8  -1   56.47    9.09
   7   8   1   84.54   21.11
   7   8   1   55.45   14.92
   7  -8  -1   53.87    9.78
  -7  -8   1   63.14    7.77
  -7  -8   1   72.12    7.81
   7  -8  -1   40.42   13.52
  -7  -8   1   66.95   10.26
  -8  -8  -1    3.74    3.41
   8  -8   1   -0.44    7.73
  -8  -8  -1    2.38    9.86
   8   8  -1    1.69    8.25
   8  -8   1    2.49    4.62
  -8  -8   1    5.13    5.13
   8  -8  -1    3.59    4.43
   8  -8  -1    0.84    9.97
  -8  -8   1    2.68    2.13
  -8  -8   1    7.77    5.50
   8   8   1    1.25   10.11
   8   8   1    4.18    4.76
   9   8  -1  168.69   18.32
  -9  -8  -1  165.31   17.11
  -9  -8  -1  145.27   12.79
  -9  -8  -1  193.97   22.17
   9  -8   1  117.86   24.96
  -9  -8  -1  119.36   28.36
   9   8   1  144.02   34.23
  -9  -8   1  156.85   21.15
  -9  -8   1  149.34   13.12
   9  -8  -1  123.10   14.04
  -9  -8   1  170.48   17.00
   9   8   1  158.83   17.37
   9  -8  -1  154.80   31.44
  10  -8   1   17.55   10.37
  10  -8   1   15.03    4.14
 -10  -8  -1   15.87    7.29
 -10  -8  -1   15.61   10.15
  10  -8   1    3.08    8.03
 -10  -8  -1   16.20    7.29
  10   8  -1   20.41    7.73
  10   8   1   27.78    6.74
 -10  -8   1   10.11    4.73
  10  -8  -1   17.74   13.41
 -10   8  -1   12.28    4.47
 -10  -8   1   25.47    6.34
 -10  -8   1   22.98    7.44
  10  -8  -1   11.36    4.80
 -10  -8   1   16.01    8.87
  11  -8   1   -1.21    3.30
 -11  -8  -1    2.57    2.57
  11   8  -1   -7.70    7.77
 -11  -8  -1   -3.99    6.49
  11  -8   1    3.04    4.36
  11  -8   1   -2.49   11.10
  11  -8  -1    4.21    6.34
 -11  -8   1    0.77    2.75
  11  -8  -1   -0.95    3.19
 -11  -8   1   -0.55    2.97
  11   8   1   -1.28    6.89
  11  -8  -1    7.29    4.10
  12   8  -1   59.84   12.68
 -12  -8  -1   53.72   12.79
 -12  -8  -1   63.25   11.73
  12  -8   1   56.00   16.93
 -12  -8  -1   60.80    7.18
  12  -8   1   49.73   11.40
  12   8   1   56.80   16.38
  12  -8  -1   48.45   15.17
  12  -8  -1   66.33    9.56
 -12  -8   1   72.19   11.32
 -12  -8   1   53.32    7.77
  12  -8  -1   59.84   11.51
  13  -8   1   36.06    5.90
  13   8  -1   48.19   10.37
  13  -8   1   36.24   15.36
 -13  -8  -1   30.31   14.81
 -13  -8  -1   26.46    8.14
  13  -8  -1   34.56    8.28
 -13  -8   1   28.88    9.75
  13   8   1   29.54    9.24
 -13  -8   1   32.87    8.87
  13  -8  -1   31.22    7.40
 -13  -8   1   34.85    6.34
  13  -8  -1   26.61   19.53
  13   8   1   22.35    7.40
 -14  -8  -1   27.89    9.20
  14   8  -1   34.41    9.82
 -14  -8  -1   24.11    7.37
  14  -8   1   29.87   20.60
 -14  -8  -1   14.15    6.45
  14  -8   1   21.11    5.97
  14  -8  -1   27.08   12.53
 -14  -8   1   28.51    5.79
  14  -8  -1   28.25    7.84
 -14  -8   1   21.69    9.20
 -14  -8   1   19.53   15.03
  14   8   1   35.00    8.69
 -15  -8  -1    1.54    6.74
  15  -8   1    4.25   14.40
 -15  -8  -1   -1.72    3.70
 -15  -8  -1   -0.66    5.06
  15   8  -1   10.96    6.45
 -15  -8  -1    2.75    3.01
 -15  -8   1   -0.70   10.22
 -15   8  -1    1.80    2.82
  15  -8  -1    2.60    4.84
  15   8   1    5.02    2.93
  15  -8  -1    3.96    5.02
  15   8   1   -0.62    5.83
 -15  -8   1    3.15    3.52
  16   8  -1   21.69    8.28
 -16  -8  -1    0.00    6.52
 -16  -8  -1    6.19    3.77
  16  -8   1    7.73   11.51
  16  -8   1    7.81    6.63
  16   8   1    7.04    3.77
  16  -8  -1   23.34   14.84
  16   8   1    5.50    7.73
  16  -8  -1   11.14    5.97
  16  -8  -1   14.99    4.51
  17  -8   1   23.12   17.22
 -17  -8  -1   -0.11    6.27
 -17  -8  -1    7.37    4.54
  17  -8   1   10.92    7.18
  17   8  -1   22.68    9.02
  17  -8  -1    9.02   10.66
  17  -8  -1   12.31    4.29
  17   8   1    5.06    5.97
  17   8   1   13.60    8.32
  18   8  -1  129.58   21.44
  18  -8   1  104.04   11.29
 -18  -8  -1   85.94   16.05
  18  -8   1  144.06   26.39
  18  -8  -1   87.40   10.44
  18   8   1  139.99   20.41
  18  -8  -1  121.23   15.10
  18  -8  -1   73.77   34.78
  19  -8   1    0.07    9.89
  19   8  -1    2.68    7.70
 -19  -8  -1   -0.18    5.31
  19  -8  -1   -0.04    8.17
  19  -8  -1    0.15    4.91
  19   8   1    1.14    7.26
  20   8  -1   -0.37   10.66
  20  -8   1    0.62   19.72
 -20  -8  -1   12.79    7.37
  20   8   1   -0.04    9.97
  20  -8  -1    0.07   12.53
  21   8  -1   -1.47    8.83
 -21  -8  -1    0.00    8.83
  21  -8   1    0.00   10.19
  21  -8  -1    0.00   15.83
  21   8   1    2.13    7.88
   0   9  -1    2.24    1.72
   0  -9  -1    0.37    3.26
   0   9   1   -1.32    3.48
  -1   9   1   34.78    8.87
  -1   9   1   29.21    8.17
  -1  -9  -1   16.86    5.53
  -1   9  -1   43.79   10.81
   1  -9  -1   21.07    5.79
   1   9   1   17.08    7.62
  -2   9   1   33.75    9.75
  -2   9   1   33.57    6.01
   2  -9   1   46.61    8.21
   2   9  -1   30.71    7.40
  -2  -9  -1   21.18    5.97
   2   9   1   36.90    6.23
   2  -9  -1   27.63    6.89
  -2   9  -1   40.57    8.03
  -2   9  -1   25.87    4.84
   2   9   1   42.47   10.63
   3  -9   1   48.96   10.22
   3   9  -1   28.62   10.59
  -3   9   1   33.06   10.37
  -3  -9  -1   24.48    9.09
  -3   9   1   29.46    6.45
  -3   9  -1   24.96    6.67
  -3   9  -1   41.30    8.76
   3   9   1   20.60   10.44
   3  -9  -1   20.63    6.89
   3   9   1   31.77    9.45
  -4   9   1   27.45    7.40
  -4  -9  -1   28.44    6.63
  -4  -9  -1   30.82    9.89
   4  -9   1   53.94   10.77
  -4   9   1   37.09   17.99
   4   9  -1   35.11    7.73
   4   9  -1   29.98    9.38
  -4  -9   1   34.08   12.86
   4   9   1   33.94   10.37
   4   9   1   27.12    7.44
   4   9   1   51.78    9.86
  -4   9  -1   25.87    9.53
   4  -9  -1   42.88    8.76
  -5  -9  -1   12.42   13.30
   5  -9   1   16.67   14.07
  -5   9   1   28.95   10.70
  -5   9   1   20.19    6.71
   5   9  -1   14.33   10.44
   5   9  -1   16.23    8.21
  -5  -9  -1   23.82    6.12
  -5  -9  -1   17.00    5.83
   5   9   1   17.00   12.86
   5  -9  -1    6.08   15.43
   5   9   1   12.57    8.69
   5   9   1   14.44    6.38
  -5   9  -1   20.01    8.17
  -5  -9   1   16.20    9.97
   5  -9  -1   31.41    7.40
   6   9  -1   58.01   15.83
  -6   9   1   68.79   14.70
   6   9  -1   60.39   14.84
   6  -9   1   69.04   11.62
  -6  -9  -1   37.78    8.43
  -6  -9  -1   48.41   18.18
   6  -9  -1   18.40   19.94
   6   9   1   29.35    8.98
   6   9   1   53.28   11.80
  -6  -9   1   35.11    8.58
  -6  -9   1   39.29   10.52
   6  -9  -1   61.90   10.19
  -7  -9  -1   10.33    5.17
   7  -9   1    0.04    9.82
  -7   9   1    4.25   14.95
   7   9  -1    5.31    7.15
  -7  -9  -1   14.92    5.31
  -7  -9  -1    9.78    7.29
   7  -9  -1    2.35    5.79
   7   9   1    5.72    7.62
   7   9   1   11.03    7.84
  -7  -9   1    7.44    5.86
   7  -9  -1   15.90   14.00
  -7  -9   1    4.40    6.74
  -8  -9  -1    7.07   10.88
  -8  -9  -1   -0.55    6.27
   8   9  -1    4.18   10.63
   8  -9   1    0.04    8.72
   8  -9   1    0.37    5.83
  -8  -9  -1    8.14    4.87
  -8  -9   1    9.34    4.14
  -8  -9   1    8.98    5.42
   8  -9  -1   -5.83   12.35
   8  -9  -1    3.44    4.69
   8   9   1   -1.76    7.55
  -8  -9   1    4.62    7.48
   8   9   1    4.98    5.02
   9   9  -1   41.41    8.54
  -9  -9  -1   41.04   12.46
   9  -9   1   10.92    7.73
  -9  -9  -1   20.19    8.87
   9  -9   1   17.26   19.64
  -9  -9  -1   28.14    9.86
   9  -9  -1   16.27   10.08
   9   9   1   27.05   12.46
   9   9   1   40.31   12.02
  -9  -9   1   26.68    6.23
  -9  -9   1   33.68    7.40
   9  -9  -1   26.31   11.58
  -9  -9   1   28.33    7.66
  10  -9   1   15.46    7.37
 -10  -9  -1   22.21   14.92
  10   9  -1   38.92    8.76
  10  -9   1   21.84   19.31
 -10  -9  -1   31.15   11.73
 -10  -9  -1   19.86    8.91
 -10  -9  -1   17.37    6.49
  10  -9  -1   18.03   11.21
  10  -9  -1    7.26   10.88
 -10  -9   1   35.77   11.69
 -10  -9   1   31.19    8.91
 -10  -9   1   20.08    7.18
  10   9   1   21.80    7.88
 -11  -9  -1    1.21    6.60
 -11  -9  -1    0.44    5.94
 -11  -9  -1   -2.75    4.51
  11   9  -1    8.03    8.54
  11  -9   1    0.55    3.30
  11  -9   1   -1.47    2.57
  11  -9   1   -2.13    7.66
  11  -9  -1    6.85    5.86
 -11  -9   1    1.94    7.33
  11  -9  -1   -2.49    7.51
 -11  -9   1    6.19    6.89
  11  -9  -1    1.98    4.54
 -11  -9   1   -2.05    3.70
  11   9   1    2.71    7.59
 -12  -9  -1   36.87   10.99
  12  -9   1   31.48   14.95
 -12  -9  -1   46.10   13.67
 -12  -9  -1   28.62   15.61
 -12  -9  -1   24.08    7.77
  12  -9   1   32.25    6.27
  12   9   1   55.08   15.10
  12  -9  -1   40.68    6.74
 -12  -9   1   36.39   10.44
  12  -9  -1   44.71   12.68
  12  -9  -1   26.06   20.78
 -12  -9   1   52.73   11.80
 -12  -9   1   46.91   15.39
  13  -9   1    3.66   14.95
  13  -9   1    2.64    3.44
  13   9  -1    0.00    6.23
 -13  -9  -1    5.46    9.16
 -13  -9  -1    5.31   11.47
 -13  -9  -1    3.99    5.68
 -13  -9  -1    0.51    4.47
  13  -9  -1    5.46    3.59
 -13  -9   1   -2.13    4.03
  13   9   1   -0.62    3.01
 -13  -9   1   -3.63    7.26
 -13  -9   1   10.70    5.83
  13   9   1    8.83    5.68
 -13   9  -1   -2.53    5.13
 -13  -9   1    0.70    5.42
  14  -9   1    3.70    6.01
 -14  -9  -1    6.23    3.63
 -14  -9  -1    2.02    7.26
  14  -9   1    0.00   16.56
 -14  -9  -1    3.88    6.49
 -14  -9  -1    0.07    7.44
  14   9   1    1.76    6.38
 -14  -9   1   -1.36    9.97
  14  -9  -1    5.50    3.41
  14  -9  -1   -8.06    8.91
 -14  -9   1    6.41    4.32
  14  -9  -1    0.15    4.84
  14   9   1   -0.95    3.11
 -15  -9  -1   -2.86    3.26
  15   9  -1   -2.86    9.53
 -15  -9  -1    0.99    6.89
  15  -9   1    9.27    8.69
  15  -9   1   -0.66    5.24
 -15  -9  -1    0.81    7.48
  15  -9  -1   -4.07    4.80
 -15  -9   1    9.67    8.98
  15  -9  -1    1.06    3.92
  15  -9  -1   -6.93   10.85
  15   9   1    0.55    5.94
  15   9   1    8.76    4.98
  16  -9   1   -0.62    3.59
  16  -9   1   -5.39   14.66
 -16  -9  -1   -1.06    7.81
  16   9  -1  -10.41   11.25
  16  -9  -1   10.19    7.95
  16  -9  -1   -1.58    5.17
  16   9   1   -0.77    4.80
  17  -9   1    0.44   15.10
  17  -9   1   -1.83    3.59
  17  -9  -1    4.80    5.24
  17  -9  -1    3.22    8.58
  17  -9  -1   -1.54    4.98
  18   9  -1   -0.04   11.73
  18  -9   1    0.04    9.20
  18  -9  -1   -0.77   13.74
  18   9   1   -1.10    6.85
  18  -9  -1    0.04    5.02
  19  -9   1   -0.84   17.99
  19   9   1    1.61    9.02
  20   9  -1   21.29   14.99
  20  -9   1    0.04   12.02
  20  -9  -1    0.84    6.16
  20  -9  -1   15.32   17.59
  20   9   1   -0.48    8.83
   0  10   1    6.01    5.20
   0 -10   1   -1.39    6.71
  -1  10   1   66.70   13.67
   1  10  -1   87.26   13.16
  -1 -10   1  104.00   14.40
  -1  10  -1   93.93   17.37
   1  10   1   77.22    9.02
  -2  10   1   62.67   19.72
   2  10  -1   56.80    9.45
  -2  10   1   48.41    8.06
  -2  10  -1   56.00    9.60
   2  10   1   47.79   12.97
  -2 -10   1   47.13   11.58
   2  10   1   60.94   20.63
  -3  10   1  185.58   22.68
  -3 -10  -1  145.27   16.78
   3  10  -1  161.72   25.47
  -3  10  -1  155.75   19.02
   3  10   1  185.18   32.87
   3  10   1  165.39   18.58
  -3 -10   1  157.44   20.41
  -4  10   1  156.89   16.64
  -4  10   1  200.53   26.35
   4 -10   1  214.38   25.18
  -4 -10  -1  192.87   22.43
  -4 -10  -1  165.57   18.62
   4  10  -1  182.32   22.17
  -4 -10   1  169.90   32.47
  -4  10  -1  184.88   22.21
   4  10   1  151.97   30.53
   4 -10  -1  220.94   25.58
   4  10   1  186.83   32.07
   5  10  -1   32.76    9.38
   5  10  -1   22.02   14.44
   5 -10   1   40.60   16.34
  -5 -10  -1   25.80    8.03
  -5 -10  -1   24.41   15.57
  -5  10   1   46.94   18.80
  -5  10   1   29.76    7.33
   5 -10  -1   18.54   21.91
  -5  10  -1   42.29   10.00
  -5 -10   1   10.81   12.94
   5 -10  -1   26.53    9.13
   5  10   1   28.07   10.44
   5  10   1   19.17    8.03
   5  10   1   15.03   15.79
   6 -10   1   97.48   15.54
  -6 -10  -1   82.49   13.52
   6  10  -1   55.37   24.30
  -6  10   1  103.64   18.14
  -6 -10  -1   83.55   22.90
  -6  10   1   95.10   18.65
   6  10  -1   66.26   22.46
   6 -10  -1   19.90   28.62
  -6  10  -1  120.93   24.59
   6  10   1   76.45   23.86
   6  10   1   75.68   11.80
   6 -10  -1  109.24   14.44
  -6 -10   1   70.40   12.09
   7 -10   1    2.05    5.94
  -7  10   1    6.41   11.62
  -7 -10  -1    4.29    6.67
  -7 -10  -1    1.91    3.04
  -7 -10  -1    2.05    4.84
   7  10  -1    7.29    5.79
   7 -10   1    0.04    8.10
   7 -10  -1   -1.25    8.36
   7 -10  -1    0.00   11.21
   7  10   1   -5.35    7.55
  -7 -10   1    1.10    4.58
  -7 -10   1    8.80    6.23
   7  10   1    4.47    7.48
   8 -10   1    0.00   11.69
  -8 -10  -1   12.61   10.22
   8  10  -1   16.01   14.18
   8 -10   1   18.47    9.49
  -8 -10  -1   17.44    4.87
  -8  10   1   15.54   11.36
  -8 -10  -1   19.86   15.98
   8 -10  -1    8.69    9.93
  -8 -10   1   21.04    6.49
  -8 -10   1   15.39    7.40
   8 -10  -1    8.54   10.41
  -8 -10   1   13.78    6.49
   8  10   1   28.91   11.54
   8  10   1   25.80    7.88
   8 -10  -1   25.25    8.21
  -9 -10  -1   48.41   11.84
  -9 -10  -1   26.64   11.95
  -9 -10  -1   23.16    8.80
  -9  10   1   39.62   19.94
   9 -10   1    9.60   20.56
   9 -10   1   23.67    6.45
   9  10  -1   36.35   11.14
   9  10   1   32.40   13.41
  -9 -10   1   38.70   11.91
   9 -10  -1   32.03   11.73
  -9 -10   1   24.88   11.95
   9 -10  -1   17.55   11.58
   9  10   1   12.72   12.31
  -9 -10   1   26.39   12.13
  10 -10   1   -0.37    5.06
 -10 -10  -1    5.46   10.41
 -10 -10  -1    2.75    4.98
 -10 -10  -1   -4.65    6.30
 -10  10   1   -7.37    7.51
  10 -10   1   -3.63   12.50
  10  10  -1    2.60    9.93
 -10 -10  -1    5.68    4.91
 -10 -10   1   -2.57    4.18
 -10 -10   1    1.87    7.04
  10 -10  -1    4.10    4.36
 -10 -10   1    7.29    8.06
 -11 -10  -1   -0.70    5.31
  11 -10   1    1.32    8.87
  11 -10   1    1.32    4.29
 -11 -10  -1    3.26   11.32
 -11 -10  -1    1.94    3.96
 -11  10   1   -0.15    9.02
 -11 -10  -1    5.02    5.46
 -11 -10  -1   -7.18   10.30
  11  10  -1   -2.16    9.82
  11 -10   1    2.42    5.02
  11 -10  -1   23.31   13.82
  11 -10  -1    1.50    8.17
 -11 -10   1   -0.92    5.06
  11  10   1    6.74    5.83
 -11 -10   1    8.91    5.35
 -11  10  -1    0.07    3.59
 -11 -10   1    0.88    4.98
  11 -10  -1    5.06    4.47
 -12 -10  -1   13.78   11.65
 -12 -10  -1   25.14   10.26
 -12 -10  -1    8.17    7.88
  12  10  -1   16.23    8.25
  12 -10   1   19.31   11.91
  12 -10   1   10.33    7.22
  12 -10   1    7.26    5.53
  12  10   1   10.59   11.73
 -12 -10   1   23.86    9.97
 -12 -10   1   11.18    8.06
  12 -10  -1   25.40   18.84
 -12 -10   1    8.91   11.14
  12 -10  -1   11.40    5.39
  12 -10  -1    8.91   11.73
  13  10  -1   37.27    9.82
 -13 -10  -1   18.87    6.45
 -13 -10  -1   24.74   11.25
 -13 -10  -1   23.38    9.64
  13 -10   1   10.59    8.47
  13 -10   1   -1.76   21.84
  13 -10  -1   33.24   11.69
  13  10   1   28.51    9.13
 -13 -10   1    6.71   12.31
  13  10   1   11.54    5.35
  13 -10  -1   22.68    7.37
  13 -10  -1   10.99    5.90
  14  10  -1   -0.26   10.48
  14 -10   1   -3.22   10.22
  14 -10   1    0.37    4.84
 -14 -10  -1   -4.65   10.63
 -14 -10   1    2.82    7.70
  14 -10  -1    4.76   11.69
  14  10   1    0.99    5.02
  14 -10  -1   -0.15    4.54
  14 -10  -1    2.27    4.54
 -15 -10  -1    2.68   11.73
  15 -10   1    0.73    3.88
  15 -10   1    2.68   10.04
  15  10  -1    2.35   11.58
  15 -10  -1    4.80   14.18
  15 -10  -1   -1.17    5.97
  15  10   1    8.14    6.71
 -16 -10  -1   13.56   11.87
  16 -10   1   -0.92    3.70
  16 -10   1   22.68   16.34
  16  10   1   10.33    6.56
  16 -10  -1    0.81    5.42
  16 -10  -1    3.44    8.50
  16 -10  -1   -0.66    5.72
  17 -10   1   -0.99   10.15
  17 -10  -1    0.55    5.28
  17 -10  -1    1.47   13.30
  17 -10  -1   -0.37    5.09
  17  10   1   -0.26    6.96
  18  10  -1   30.01   17.19
 -18 -10  -1   -0.29   10.41
  18 -10   1   -0.04   14.22
  18 -10  -1   20.56   14.66
  18  10   1   26.83   10.55
  19  10  -1   35.80   14.51
 -19 -10  -1   -7.62    8.17
  19 -10   1   -0.04   17.96
  19 -10   1    1.58    5.02
  19  10   1   10.55    8.58
  19 -10  -1    0.29    6.12
  19 -10  -1    3.26   10.52
   0  11   1   47.53   11.80
  -1  11   1    0.00    4.29
   1  11  -1    5.46    9.64
   1 -11  -1    7.07    4.65
   1  11   1   -0.95    7.33
   1  11   1    2.71    4.18
   2 -11   1    6.16    5.46
   2  11  -1    8.69    7.70
  -2  11   1    1.98   10.22
  -2  11   1   -0.88    3.81
   2  11   1    3.92    5.68
   2 -11  -1    0.44    4.47
   2  11   1    0.66    9.16
  -3  11   1    4.07    4.10
   3  11  -1    3.66    5.83
  -3  11   1    0.18   10.22
   3  11   1   -5.46   10.96
  -3  11  -1   -2.49    5.06
   3  11   1   -0.48    7.04
  -3 -11   1    7.00    5.90
   4  11  -1   20.19    7.15
  -4  11   1    7.99    4.80
  -4  11   1    7.07    8.25
  -4 -11  -1   11.95    9.64
   4  11   1    9.38    6.19
  -4  11  -1    1.61    6.85
   4  11   1   22.50   14.55
   4 -11  -1   31.33   16.12
  -4 -11   1    9.97    7.11
  -4  11  -1    6.78    4.91
   5  11  -1   -0.88   10.00
   5 -11   1    0.77    7.18
  -5 -11  -1    4.65    5.50
  -5  11   1    7.70    7.51
   5 -11  -1   16.34   12.06
   5  11   1    5.28   12.13
   5 -11  -1    4.62    5.20
  -5  11  -1    0.70    5.17
  -5 -11   1    1.72    8.43
   6  11  -1    4.14   14.62
   6  11  -1   30.97    8.87
  -6 -11  -1   22.21    7.99
  -6  11   1   19.57   16.16
   6 -11   1   21.26   15.32
   6 -11   1    0.37   14.11
  -6 -11  -1   24.96   15.03
  -6  11   1   30.16   10.30
   6 -11  -1    6.71   17.37
   6 -11  -1    3.70    8.87
   6  11   1   32.84   15.98
   6  11   1   20.74    7.84
  -6  11  -1    9.82   13.63
  -6 -11   1   19.06   11.65
   6 -11  -1    2.38    7.95
  -7  11   1    0.18    7.62
  -7 -11  -1    7.62    6.89
   7 -11   1    0.04    8.36
  -7 -11  -1   -1.91    5.17
   7  11  -1    9.53    6.38
  -7  11   1   -0.22    7.29
   7 -11  -1    5.39   11.51
   7 -11  -1    1.76    8.80
   7  11   1   -4.14   11.51
  -7 -11   1    3.04    5.46
  -7  11  -1   -3.08    6.38
   7 -11  -1    3.11    7.62
   7  11   1    1.17    9.05
   8 -11   1    4.58   12.68
  -8  11   1   13.78    6.08
   8  11  -1   12.17    8.17
  -8 -11  -1   12.53   10.00
  -8  11   1   12.17   14.55
   8 -11   1    3.55    4.69
   8 -11   1    0.04    9.93
  -8 -11  -1   -4.91   13.01
   8 -11  -1    4.91    9.31
  -8 -11   1    2.05    7.37
  -8  11  -1   13.89   12.31
   8 -11  -1   12.35    9.05
   8  11   1    1.94    9.42
  -8 -11   1   10.85    5.94
   8  11   1   -2.86    7.29
   8 -11  -1    3.92    7.11
  -9  11   1    1.80    7.55
  -9 -11  -1    1.83    5.53
  -9 -11  -1   -3.96    7.04
  -9  11   1   -5.17    8.47
   9  11  -1   -4.47    6.96
  -9 -11   1    2.20    8.06
   9  11   1   -0.15    8.14
  -9  11  -1    4.95    6.89
   9 -11  -1   -2.09    9.02
   9 -11  -1    3.01    5.09
   9  11   1    4.91    9.56
   9 -11  -1   -7.22    7.37
  -9 -11   1    3.01    6.85
  -9 -11   1   -2.68    8.76
 -10 -11  -1   58.05   19.64
 -10  11   1  134.86   24.11
 -10 -11  -1  119.69   21.22
 -10 -11  -1  115.99   18.21
  10 -11   1   51.38   22.98
  10  11  -1   72.30   30.34
  10 -11  -1   72.56   32.07
 -10 -11   1   71.83   24.55
  10  11   1  114.05   20.63
 -10 -11   1  115.66   15.17
  11 -11   1   -2.42    6.63
 -11 -11  -1   -4.14   10.15
  11 -11   1    0.59    5.79
 -11 -11  -1    3.63   10.59
  11 -11   1   -7.51    8.98
 -11 -11  -1    5.57    4.25
  11 -11   1   -4.91   11.21
 -11  11   1   11.40   16.20
  11  11  -1   -2.79    7.48
 -11 -11  -1    0.92   10.92
  11  11   1    5.86    7.04
  11 -11  -1   -1.32    4.62
  11 -11  -1   14.84   12.53
 -11 -11   1    3.48    5.02
 -11  11  -1    0.07    3.66
  11 -11  -1    1.54    9.93
  12 -11   1   22.02   25.43
  12  11  -1   58.20   15.32
 -12 -11  -1   38.15   19.20
 -12 -11  -1   43.94   12.90
  12 -11  -1   55.15   16.67
  12  11   1   25.95   17.00
  12 -11  -1   33.68   10.63
  12 -11  -1   21.62   10.96
 -13 -11  -1   -4.07    7.48
  13 -11   1    0.07   15.79
  13  11  -1    1.91    8.50
  13 -11   1   -3.30    3.85
  13 -11  -1    3.33    6.12
 -13  11  -1    0.59    5.53
  13 -11  -1   -1.50    8.80
  14 -11   1   12.06   12.09
  14  11  -1    6.38   13.89
  14 -11   1    0.92    3.88
 -14 -11  -1   -7.70   12.72
  14 -11  -1    0.07    7.81
  14  11   1   14.33    7.18
  14 -11  -1    8.80   14.59
 -14 -11   1    2.90    6.52
  14 -11  -1    9.75    8.69
 -15 -11  -1   -4.03   11.14
  15 -11   1    1.83    3.70
  15 -11   1   16.16    9.45
  15  11  -1   11.51   10.11
  15  11   1    2.38    6.45
  15 -11  -1   -0.88    3.70
  15 -11  -1   -0.18    5.09
 -16 -11  -1    7.18   11.58
  16 -11   1   -0.04    5.72
  16 -11   1    1.76   17.11
  16 -11  -1    1.61    5.46
  16 -11  -1    7.26    8.98
  16 -11  -1    1.14    3.88
  16  11   1   -2.53    6.96
 -17 -11  -1    6.30   10.88
  17 -11   1   -0.04   10.63
  17  11  -1    9.05    7.70
  17 -11  -1   12.02   15.06
  17 -11  -1   -2.05    3.19
  17  11   1    6.38    7.77
  18 -11   1    0.00   16.71
  18 -11   1   -0.33    4.95
 -18 -11  -1    3.08   15.72
  18  11  -1    8.21    8.80
  18 -11  -1    0.66    6.16
  18 -11  -1   -7.51   11.32
  18  11   1   16.42    8.43
   0 -12   1    8.32    6.60
   0  12   1   -5.97    6.01
   0  12  -1   10.70    6.78
  -1  12   1   43.94    7.95
   1  12  -1   69.23   12.13
  -1 -12  -1   62.96   10.81
   1  12   1   33.17   12.39
   1  12   1   79.52   16.20
  -2  12   1    2.71    5.64
   2  12  -1   20.08    7.33
  -2 -12  -1   14.62    6.67
   2  12   1   12.83    9.45
  -3  12   1   69.48   11.73
  -3 -12  -1   90.81   13.12
  -3  12   1   83.55   18.03
  -3  12  -1   91.40   17.04
   3  12   1   91.10   17.96
   3 -12  -1   85.17   13.85
  -4  12   1    3.26   12.57
  -4  12   1   11.18    5.57
  -4 -12  -1   -7.00    9.42
   4  12  -1    0.22   10.66
   4 -12  -1    2.71    9.60
   4 -12  -1    8.47    9.97
  -4  12  -1    7.77    6.38
   4  12   1   -0.66    8.39
  -4 -12   1    8.80    7.11
   5 -12   1   -0.11   15.43
  -5  12   1   -3.08    4.65
   5  12  -1    2.82    9.97
  -5  12   1    6.12    7.37
  -5 -12  -1    3.44    8.61
   5 -12   1   -2.90    6.34
   5 -12  -1   22.24   11.98
   5 -12  -1    2.53    8.39
  -5 -12   1    7.62    5.94
   5  12   1    1.21   12.13
  -5  12  -1   -3.37    9.02
  -6 -12  -1    9.05    9.82
   6  12  -1    2.02   17.11
   6 -12   1    0.04   24.59
  -6  12   1   35.66   13.19
  -6  12   1   58.09   19.20
   6 -12   1   51.12   18.98
  -6  12  -1   44.09   14.84
   6 -12  -1   31.26   18.73
  -6 -12   1   55.30   14.92
   6  12   1    4.76   19.20
   6 -12  -1    8.65    8.91
  -7  12   1    9.09    9.64
   7 -12   1   10.19    9.09
  -7 -12  -1   -0.73    6.78
  -7 -12  -1    6.63    8.65
  -7  12   1    1.10   10.00
   7 -12   1    0.00   10.99
   7  12   1    1.91   15.21
   7  12   1    5.57   11.80
  -7 -12   1   11.36    7.15
   7 -12  -1   11.32    6.41
  -7  12  -1   16.86    8.03
   7 -12  -1   12.50   15.14
   7 -12  -1    2.13   12.17
   8 -12   1   -0.04   14.00
   8 -12   1   27.71   18.14
   8  12  -1   39.36   11.43
  -8  12   1   17.63    7.84
  -8  12   1   37.97   19.97
  -8 -12  -1    5.94   14.11
  -8 -12  -1   44.31   16.71
   8 -12  -1   33.31   12.20
  -8 -12   1   31.59    9.38
   8 -12  -1    1.87   12.90
   8  12   1    1.28   19.61
  -8  12  -1   19.42   16.75
  -8 -12   1   28.22   10.59
   8  12   1   21.59   10.11
   8 -12  -1    8.43   10.22
  -9  12   1   40.27   14.22
   9  12  -1   38.77   13.30
   9 -12   1   15.83   22.32
  -9 -12  -1   49.58   13.38
  -9  12   1   58.01   15.17
  -9 -12  -1   37.89   10.81
   9  12   1    6.05   15.32
   9  12   1   14.88   18.36
  -9 -12   1   32.76   10.70
  -9  12  -1   52.92   12.79
   9 -12  -1   13.30    8.98
   9 -12  -1    6.38   17.33
   9 -12  -1   14.88   14.18
  10 -12   1    3.63    5.57
 -10 -12  -1   22.46    9.78
 -10 -12  -1    4.47    9.09
 -10  12   1   24.11    7.40
  10 -12   1    7.95   12.13
  10  12  -1    9.89   15.90
  10 -12  -1   12.68   15.61
  10 -12  -1    6.30    6.60
  10  12   1   21.18    8.98
 -10  12  -1   10.33   15.87
  10 -12  -1   -0.95    8.76
  11 -12   1   -2.09    3.85
  11  12  -1    9.34    8.39
 -11 -12  -1    0.81   11.14
  11 -12   1   -1.65    9.45
 -11  12   1    8.50    5.94
  11 -12   1    1.58    5.97
  11  12   1    0.00    7.07
  11 -12  -1    6.38    4.51
 -11  12  -1    0.07    3.74
  11 -12  -1   -1.83   10.52
 -12 -12  -1    4.80    7.37
  12 -12   1    2.27   14.77
  12  12  -1   -5.50    8.43
  12 -12   1    1.32    6.27
  12  12   1    5.20   11.65
  12 -12  -1    2.53    6.27
  12 -12  -1    4.25    5.90
  13 -12   1    9.16    4.80
 -13 -12  -1   27.34    9.53
  13 -12   1    9.09   18.76
  13  12  -1    5.31   17.26
  13 -12  -1    2.75    8.03
  13 -12  -1   10.04    7.00
 -13  12  -1   -0.33    7.07
  13 -12  -1    8.65   11.29
  13  12   1    8.03    9.82
  14  12  -1   21.69   16.42
 -14 -12  -1    2.97   13.23
  14 -12   1    3.81    4.10
  14 -12   1    1.87   12.86
  14 -12  -1    5.75    4.98
  14 -12  -1   -1.54   10.19
  14 -12  -1   15.06   16.01
 -14  12  -1    0.88    5.86
  14  12   1    6.71    9.31
  15 -12   1   -0.33    6.27
  15 -12   1    8.61   16.49
 -15 -12  -1    8.69   11.98
  15  12  -1    0.18    9.86
  15 -12  -1   -6.89    9.27
  15 -12  -1   -3.22    3.99
  15  12   1   -7.15    8.69
  15 -12  -1    0.33    5.68
  16 -12   1    1.98    9.53
  16 -12   1   21.99   13.30
 -16 -12  -1   18.98   17.41
  16 -12  -1    7.26   11.43
  16 -12  -1    0.00    7.18
  16 -12  -1   10.41    4.65
  16  12   1    9.27    9.75
  17 -12   1   -0.11    4.95
  17 -12   1    0.33   11.21
  17  12  -1   -6.89   10.55
 -17 -12  -1    7.66   14.77
  17 -12  -1   15.94   15.54
  17 -12  -1    0.51    9.71
  17  12   1   13.27   13.52
   0  13   1   18.95   11.10
   0  13  -1    6.12   12.39
   1  13  -1   -2.46   11.40
   1 -13  -1   18.62    7.00
  -1  13  -1    3.74   13.67
   1  13   1    9.93    9.78
   2  13  -1    0.95    9.27
   2  13   1    0.88   10.88
  -3 -13  -1    9.42    7.26
   3  13  -1    1.91   12.46
   3  13   1   32.91   14.81
  -4  13   1    4.40    5.61
  -4  13   1   24.19   10.99
  -4 -13  -1    2.75    7.33
   4 -13   1   15.10    8.80
   4 -13  -1    5.39    7.26
  -4  13  -1   27.49    8.54
   4  13   1   -1.87   10.00
   4 -13  -1    4.51   11.40
   5 -13   1    0.00   14.07
  -5 -13  -1    6.08   13.49
  -5  13   1   21.07    7.04
  -5  13  -1   17.30    9.60
   5 -13  -1    4.69   11.98
  -5 -13   1   23.34    8.72
   5 -13  -1   11.18   10.85
   5  13   1    4.43   10.88
   5 -13  -1   -1.47   12.20
   6 -13   1   13.05    8.21
  -6  13   1   14.48    9.49
   6 -13   1    0.00   16.42
  -6 -13  -1   -2.60    7.55
  -6  13   1    2.64    8.72
   6 -13  -1    3.01    6.67
   6 -13  -1   -4.80    6.96
   6 -13  -1    9.09    9.24
  -6  13  -1   22.06   12.90
   6  13   1    8.94    9.38
  -6 -13   1    7.73    7.73
  -7  13   1    2.42    7.62
   7 -13   1    1.94    6.52
   7 -13   1    0.00    9.53
  -7  13   1    5.28    7.62
   7 -13  -1   -3.99    9.16
   7 -13  -1   -3.92   12.35
  -7  13  -1   -0.15    6.19
   7 -13  -1    6.19    5.42
   7  13   1   -1.17   12.28
   8 -13   1   -0.04   10.59
  -8  13   1    6.71    6.12
  -8 -13  -1    0.04   10.85
   8 -13   1   18.76    9.89
   8 -13  -1   -5.31    9.64
  -8  13  -1    3.15   11.84
   8 -13  -1    1.32    6.38
   8 -13  -1   11.69    8.61
   8  13   1    0.40   15.06
   9 -13   1   -9.97   15.06
   9 -13   1    3.33    8.25
  -9  13   1   10.66    9.56
  -9 -13  -1   -1.17    7.40
   9  13   1    2.53   16.27
   9 -13  -1   -1.39    6.08
   9  13   1    1.98   11.03
  -9  13  -1   12.09    8.03
   9 -13  -1    4.40   11.98
  10 -13   1   15.36    8.65
  10 -13   1   29.32   20.08
 -10 -13  -1   19.39    9.86
  10  13  -1   28.91   11.65
 -10  13   1   13.74    9.13
  10  13   1    3.11    9.64
  10 -13  -1    1.03    7.26
  10 -13  -1    5.17   16.64
  11  13  -1   -6.85    9.16
  11 -13   1   -1.50    6.49
  11 -13   1    4.14    9.97
  11  13   1    4.84   11.47
  11 -13  -1   -2.24   13.30
  11 -13  -1   -2.38    4.69
 -11  13  -1    0.07    4.07
  12 -13   1   -1.36    7.22
  12 -13   1    7.07   16.49
 -12 -13  -1   -3.92   10.04
  12  13  -1   26.61   14.95
  12 -13  -1    7.18    6.89
  12 -13  -1    1.94   10.48
  12 -13  -1    0.77    7.37
  12  13   1    6.27   12.90
  13 -13   1   17.04   15.79
 -13 -13  -1   -1.21    8.87
  13 -13   1    0.59    3.77
  13 -13  -1   -0.51    7.70
  13 -13  -1    6.08    8.39
 -13  13  -1    0.44    5.90
  13 -13  -1    1.14    5.75
  14 -13   1    1.17    3.96
 -14 -13  -1    0.88   10.48
  14 -13   1   22.79   13.34
  14  13  -1    7.70   11.25
  14 -13  -1   17.48   17.15
  14 -13  -1    6.08    5.35
 -14  13  -1    6.34    6.34
  14 -13  -1    0.22   11.07
  14  13   1    9.05    8.72
 -15 -13  -1   -3.26   15.46
  15 -13   1    0.00    6.08
  15 -13   1   -4.65   17.30
  15 -13  -1    0.48    4.29
  15 -13  -1   15.43   10.44
  15  13   1   11.32    8.28
  15 -13  -1   -0.07    6.08
   0  14   1   17.99   17.92
  -1  14   1   13.01   11.51
   1  14   1    7.44   15.87
  -1  14  -1    8.80   13.38
   2  14   1   -3.99    8.58
   3  14   1    4.80    9.09
  -4 -14  -1    1.72    6.38
   4  14   1    3.77   13.16
  -5 -14  -1   -0.92    6.56
   5 -14   1    0.04   10.33
   5 -14  -1    9.78    5.86
   5  14   1    0.66   11.73
   5 -14  -1    0.51    5.94
   6 -14   1    0.00    9.93
   6 -14  -1   -3.30    7.77
   6 -14  -1   14.77    9.67
   6 -14  -1    1.69    9.89
  -6  14  -1   -5.42   11.84
   6  14   1    1.58    8.61
   7 -14   1    7.37    4.98
   7 -14   1    0.00   17.59
  -7  14  -1    5.06    8.91
   7 -14  -1   19.57   13.23
   7 -14  -1   -2.68    6.63
   8 -14   1    3.04    8.98
   8 -14   1    0.00   11.62
   8 -14  -1    6.08   10.63
   8 -14  -1   21.77   14.11
   9 -14   1   -2.20    7.00
   9 -14   1    0.18    9.64
   9 -14  -1   -2.71    9.27
   9 -14  -1   10.88    8.14
  10 -14   1   13.01   15.94
  10 -14   1   -6.82    6.89
  10 -14  -1   -3.66    5.64
 -10  14  -1    0.00    7.15
  10 -14  -1    4.58    8.50
  11 -14   1    0.84    7.73
  11 -14  -1  -12.86   16.49
  12  14  -1   29.39   19.83
  12 -14   1    7.11   12.57
  12 -14   1    7.84    8.17
  12 -14  -1   -1.50    8.69
  12  14   1   27.71   14.29
  12 -14  -1   -2.53   12.02
  12 -14  -1   13.23    8.50
  13 -14   1   16.38   17.59
  13 -14   1   -0.37    4.07
  13  14  -1   -8.32   10.81
  13 -14  -1   -0.15    6.41
  13  14   1   17.26    7.95
  13 -14  -1   -2.20    8.98
  13 -14  -1   12.50    9.78
 -13  14  -1    3.70    7.04
 -14 -14  -1   17.33   11.07
  14 -14   1    0.59    4.25
  14  14  -1   19.31   12.50
  14 -14   1   18.87   14.22
  14  14   1    6.74    8.98
 -14  14  -1   -2.20    7.26
  14 -14  -1    1.25   11.54
  14 -14  -1   13.16   15.90
  14 -14  -1   14.07    5.79
   4 -15  -1    2.02   10.33
   4 -15  -1    3.08    8.21
   5 -15  -1   14.33   14.04
   5 -15  -1    4.76    7.62
   6 -15   1    7.84   12.35
   6 -15  -1   -0.07   11.65
   6 -15  -1   23.01   16.23
   7 -15   1   -4.25    6.67
   7 -15   1   -3.19   11.62
   7 -15  -1   -6.08    9.82
   7 -15  -1   -6.93    7.11
   8 -15   1   -0.59    5.46
   8 -15   1    2.68   17.30
   8 -15  -1    4.69    6.41
   8 -15  -1   14.04   14.11
   9 -15   1    7.81   13.19
   9 -15  -1   19.20   18.10
   9 -15  -1   11.03   11.07
  10 -15   1   18.03    7.99
  10 -15   1    9.82   19.50
  10 -15  -1    0.26    7.11
 -10  15  -1   16.56    8.65
  10 -15  -1    5.17   10.26
  11 -15   1   -9.34   17.00
  11 -15   1    1.43    4.69
  11 -15  -1    2.64    4.95
  11 -15  -1   -0.26   11.51
  11 -15  -1   19.68   14.59
 -11  15  -1    5.20    7.18
  12 -15   1   18.10   13.23
  12 -15   1   -1.03    7.77
  12 -15  -1   38.26   18.58
  12 -15  -1   15.68    5.46
  12 -15  -1    1.58    9.45
   4 -16  -1    9.42    8.94
   5 -16   1   18.25   11.47
   5 -16  -1   -9.34    9.42
   5 -16  -1    7.73   12.06
   6 -16   1    5.24    5.94
   6 -16   1   32.18   20.16
   6 -16  -1  -13.01   15.61
   6 -16  -1   13.56    7.95
   7 -16   1    1.50    9.78
   7 -16   1   -1.36   11.29
   7 -16  -1   -0.04    9.82
   7 -16  -1   17.33   12.61
   8 -16   1   19.79   15.06
   8 -16   1   -5.24    8.47
   8 -16  -1    0.11    6.05
   8 -16  -1   -3.85    7.44
   9 -16   1   -3.74    5.83
   9 -16   1    2.02   18.69
   9 -16  -1   12.50    6.12
   9 -16  -1    2.05   13.08
   3 -17  -1    7.62    9.02
   4 -17  -1    9.27    8.17
   4 -17  -1   -2.35    8.14
   5 -17   1   13.16    7.48
   5 -17  -1   -5.97    6.52
   0   0   2  445.15   28.36
   0   0  -2  411.80   24.88
   0   0  -2  389.37   14.70
   0   0  -2  397.36   26.83
   0   0  -2  397.00   17.00
   1   0  -2    3.04    1.54
  -1   0   2    5.09    1.76
   1   0  -2    1.94    2.05
  -1   0   2    2.79    1.43
   1   0   2    3.92    5.28
  -1   0  -2    1.36    0.92
   1   0   2    0.95    2.90
  -1   0  -2    3.08    3.08
   1   0   2    2.71    2.24
   1   0  -2    2.90    1.39
  -1   0   2    3.48    2.79
   1   0  -2    6.08    3.08
  -1   0  -2    3.01    1.61
  -1   0  -2    1.80    0.77
   1   0  -2    4.65    2.16
   1   0  -2    6.19    2.57
   1   0   2    0.88    4.25
  -2   0  -2   34.41    2.20
   2   0  -2   30.38    3.66
   2   0   2   38.26   10.85
  -2   0  -2   33.20    5.50
   2   0   2   33.90    6.12
   2   0  -2   32.84    2.02
  -2   0   2   37.64    4.87
  -2   0   2   32.58    3.04
  -2   0   2   40.35    6.45
  -2   0  -2   36.98    2.93
  -2   0   2   31.55    2.27
  -2   0  -2   33.61    4.91
  -2   0   2   42.88    4.51
   2   0   2   31.74    8.25
   2   0  -2   31.19    4.32
   3   0  -2    1.10    2.49
   3   0  -2    1.76    2.27
  -3   0  -2    3.85    1.80
  -3   0   2    3.70    1.80
   3   0  -2    2.05    1.54
  -3   0   2    0.51    2.53
  -3   0  -2    1.14    3.33
   3   0   2    0.18    5.79
  -3   0   2    2.38    1.76
   3   0  -2    3.92    1.47
  -3   0  -2    0.62    0.81
   3   0   2    0.99    6.27
   3   0   2    1.47    2.53
  -3   0  -2    0.37    0.84
  -3   0  -2    2.35    6.08
  -3   0   2   -0.59    2.64
  -3   0   2    5.09    3.08
   4   0  -2  167.18    6.96
  -4   0   2  163.81    7.92
  -4   0  -2  175.54   10.77
   4   0  -2  170.52    4.36
  -4   0  -2  167.70    4.58
  -4   0   2  170.77    7.84
   4   0  -2  171.76   10.33
  -4   0   2  198.99    8.80
  -4   0  -2  178.21   21.59
   4   0   2  181.66   12.02
  -4   0  -2  190.38   14.73
  -4   0  -2  166.74   14.33
   4   0   2  196.02   19.17
   4   0  -2  198.99   11.91
  -5   0  -2    2.97    0.88
  -5   0   2    1.58    2.75
  -5   0  -2    6.08    5.09
   5   0  -2    4.84    2.02
  -5   0   2    8.32    3.85
   5   0  -2    6.49    2.02
  -5   0  -2   -0.29    7.26
  -5   0  -2    5.72    4.76
  -5   0  -2    5.50    2.09
   5   0   2    2.64    3.33
   5   0  -2    1.54    4.14
   5   0  -2    4.07    0.95
  -5   0   2    4.10    2.31
   6   0  -2   37.34    4.91
  -6   0  -2   36.54    5.35
   6   0  -2   37.12    5.72
  -6   0  -2   38.00    7.66
   6   0   2   40.06    5.97
  -6   0  -2   49.40    8.54
  -6   0  -2   38.30   14.70
  -6   0   2   35.88    6.41
  -6   0   2   31.55    4.91
   6   0  -2   34.23    5.53
  -6   0   2   33.61    4.10
  -7   0  -2    8.43    7.00
   7   0   2    1.69    6.78
  -7   0  -2   10.59    5.57
   7   0  -2    9.49    2.57
  -7   0   2    7.07    2.82
   7   0  -2   -2.57    6.23
  -7   0   2    1.32    5.57
  -7   0  -2   11.62    9.89
  -7   0   2    7.51    3.04
   7   0   2    9.31    3.99
  -7   0  -2    6.38    1.36
  -8   0   2  276.10   14.00
   8   0  -2  263.09   12.86
  -8   0  -2  291.93   36.13
   8   0   2  276.68   24.55
  -8   0  -2  280.46   16.38
  -8   0  -2  286.03   25.32
   8   0  -2  291.12   18.84
   8   0   2  306.40   17.30
   8   0  -2  264.48   12.94
  -8   0   2  299.41   15.50
  -8   0   2  312.05   19.35
   8   0   2  269.76   18.98
  -8   0  -2  295.67   29.87
  -8   0  -2  284.23   12.39
  -9   0  -2    3.04   10.81
  -9   0  -2    9.82    0.99
   9   0  -2    7.81    4.80
  -9   0  -2    2.49   15.61
   9   0   2   10.19    8.06
  -9   0  -2   18.18    7.22
  -9   0   2    6.71    8.14
  10   0  -2  116.28    7.66
  10   0   2  111.99   12.64
 -10   0  -2  113.83   22.65
 -10   0  -2  151.90   36.50
 -10   0   2  106.64   11.43
 -10   0  -2  117.01   17.19
 -10   0   2  105.65    7.73
  10   0   2  126.83   10.08
  10   0  -2  121.12   12.06
 -10   0  -2  119.18    8.36
 -10   0   2  109.24    8.32
 -11   0   2    6.82    4.32
 -11   0  -2    0.29    1.06
 -11   0   2    1.32    7.33
 -11   0  -2    3.88    6.38
 -11   0  -2   -1.10    8.47
 -11   0  -2   -8.76    8.83
  11   0  -2    5.86    3.81
  11   0   2    6.71    6.93
 -11   0  -2    3.37    3.37
 -11   0   2    0.73    4.69
 -12   0  -2  595.33   67.25
  12   0   2  482.27   36.17
 -12   0  -2  466.66   42.69
  12   0   2  501.77   47.79
 -12   0  -2  502.54   50.02
  12   0  -2  529.47   26.50
 -12   0   2  503.27   39.84
 -12   0   2  492.39   27.67
  12   0  -2  502.87   37.89
 -12   0  -2  539.99   26.24
 -13   0  -2   -6.96    7.48
 -13   0  -2   13.63    8.72
 -13   0   2    2.64    9.42
  13   0  -2    7.70    6.27
 -13   0  -2    4.29    1.65
  13   0   2    7.40    9.20
  13   0   2   10.63    5.09
 -13   0  -2    5.39   12.06
 -13   0  -2   15.83    4.73
  13   0  -2   16.05    5.86
 -14   0  -2  340.60   35.03
 -14   0   2  301.38   26.24
  14   0   2  329.13   29.32
  14   0   2  330.99   22.13
 -14   0  -2  302.23   57.21
  14   0  -2  321.69   39.95
 -14   0  -2  362.88   74.80
  14   0  -2  356.50   19.42
 -14   0   2  337.41   30.27
 -15   0  -2    6.52    7.62
 -15   0   2    5.79    4.07
 -15   0  -2    6.56   19.13
 -15   0  -2   -1.94   15.10
  15   0  -2    6.38    5.61
  15   0   2    9.45    6.74
 -15   0   2   -3.85   10.11
  15   0  -2    1.72    9.09
 -16   0  -2  194.89   55.15
 -16   0  -2  201.96   33.50
 -16   0   2  212.00   16.60
 -16   0   2  209.51   24.44
  16   0   2  202.51   32.76
  16   0  -2  187.82   13.08
 -16   0  -2  200.50   40.27
  16   0  -2  163.41   21.59
 -17   0  -2   -0.92    9.64
 -17   0  -2    1.03    9.24
 -17   0  -2   -5.17    8.17
 -17   0   2    5.06    6.52
  17   0   2   -1.17    6.08
  17   0  -2    2.97    5.90
 -18   0  -2   21.37   16.71
  18   0   2   30.97   17.70
 -18   0  -2   30.09   14.00
 -18   0   2   29.13    7.26
 -18   0  -2    9.60   16.09
 -18   0   2   26.28   18.25
  18   0  -2   26.17   10.52
 -19   0  -2   14.26   11.10
  19   0  -2   -2.97   12.06
 -19   0  -2  -10.08   18.32
  19   0   2    0.77    7.92
 -19   0   2    4.47    7.40
 -20   0   2   70.25   23.27
 -20   0  -2   70.66   41.56
  20   0   2   87.84   18.47
  20   0  -2   64.54   18.47
 -20   0  -2   78.17   40.13
 -21   0  -2   11.54   21.77
 -21   0   2   21.18   12.53
  21   0  -2   -4.32    9.86
  21   0   2   -3.37   17.55
 -21   0  -2   14.33   13.85
 -22   0  -2   35.91   26.68
 -22   0  -2   44.12   25.21
  22   0   2   56.33   20.49
  22   0  -2   35.66   27.01
 -22   0   2   54.16   20.01
 -23   0  -2    6.82   24.99
 -23   0  -2    0.81   17.37
 -23   0   2    9.78   11.95
  23   0  -2    5.28   10.96
  23   0   2    0.33   20.63
   0  -1   2    1.14    0.95
   0   1  -2    1.47    2.68
   0   1   2    0.84    0.40
   0   1   2    0.55    2.90
   0   1   2    2.82    1.47
   0  -1   2    1.50    1.80
   0  -1   2    0.99    2.16
   0   1  -2    1.80    1.61
   0   1   2    2.71    4.69
   0   1  -2   -2.02    3.74
   0  -1   2    2.16    3.11
   0  -1  -2   -0.70    2.86
   0  -1  -2    0.73    1.50
   0  -1  -2    0.81    1.32
   0   1   2    0.59    0.51
   0  -1   2    0.18    1.69
   0  -1  -2    0.26    3.15
   0  -1   2    1.36    0.81
  -1  -1  -2    4.80    6.67
   1  -1   2   13.71    3.11
  -1   1   2   13.12    2.75
  -1  -1  -2    9.27    3.08
   1  -1   2    8.94    1.14
   1  -1   2   16.53    3.88
   1   1  -2    6.49    2.46
  -1  -1  -2   12.68    4.14
  -1   1   2    5.42    5.64
   1  -1   2    7.92    4.21
  -1   1   2   10.85    5.72
   1   1  -2    8.94    4.87
  -1  -1  -2   12.24    1.91
  -1   1  -2    5.42    2.49
  -1   1  -2    9.82    1.98
   1  -1  -2    8.69    3.88
   1  -1  -2   10.15    2.13
   1  -1  -2    8.06    4.25
   1   1   2    7.07    6.56
  -1   1  -2    9.42    3.66
  -1  -1   2    9.97    2.97
  -1  -1   2    7.26    2.20
  -1  -1   2    7.29    1.25
   1   1   2    4.73    6.08
   1   1   2    7.92    1.47
  -1  -1   2    5.50    2.02
  -2  -1  -2    3.41    3.85
   2  -1   2    1.94    1.25
   2  -1   2    3.81    4.25
  -2  -1  -2    5.83    3.59
  -2   1   2    2.68    3.37
  -2  -1  -2    4.14    2.38
   2   1  -2    3.26    3.15
  -2   1   2    4.14    5.53
  -2   1   2    1.32    1.83
  -2  -1  -2    2.82    1.69
  -2   1   2    1.54    2.16
   2  -1   2    0.15    3.37
   2   1  -2    1.03    2.35
  -2   1   2    0.48    1.80
  -2   1  -2    1.65    3.11
   2   1   2   -0.81    5.61
   2   1   2    4.21    5.72
   2   1   2    0.84    1.72
   2   1   2    0.22    1.87
  -2  -1   2    3.59    1.87
  -2   1  -2   -1.14    4.03
   2  -1  -2    2.27    2.90
  -2   1  -2    1.91    1.72
  -2  -1   2    2.09    3.19
  -2   1  -2    1.58    0.92
   2  -1  -2    1.87    1.32
  -2  -1   2    3.88    2.38
  -2  -1   2    2.27    1.80
   2  -1  -2    1.69    1.69
  -2  -1   2    0.00    2.75
   3   1  -2   31.63    4.32
  -3  -1  -2   26.86    2.38
   3   1  -2   36.02    5.46
   3  -1   2   24.33    6.12
  -3  -1  -2   33.64    9.09
  -3   1   2   30.38    1.72
  -3   1   2   28.55    3.37
  -3  -1  -2   30.71    7.00
   3  -1   2   34.92    2.09
  -3   1   2   30.49    6.01
  -3  -1  -2   30.93    6.34
  -3   1   2   26.97    3.81
  -3  -1  -2   35.40    3.04
  -3   1   2   35.44    6.23
   3  -1   2   27.63    7.59
  -3   1   2   36.43    6.30
   3  -1  -2   30.53    3.01
  -3  -1   2   35.33    3.81
  -3  -1   2   30.27    3.63
  -3  -1   2   27.27    3.96
   3   1   2   30.67    7.11
  -3   1  -2   24.41    5.50
  -3  -1   2   37.97    4.43
  -3   1  -2   31.81    3.33
   3   1   2   22.65    4.43
   3   1   2   27.16    6.38
   3  -1  -2   35.33    5.42
  -3   1  -2   28.66    9.71
   3  -1  -2   27.01    3.66
   4  -1   2   78.35   12.57
  -4   1   2   60.10    5.50
  -4   1   2   62.19    6.67
  -4  -1  -2   68.90    8.54
  -4  -1  -2   63.36    4.25
  -4   1   2   64.68    2.86
   4   1  -2   71.68    8.25
  -4  -1  -2   71.97    6.82
  -4  -1  -2   86.63   14.00
   4   1  -2   62.52    4.07
   4  -1  -2   66.92    4.43
  -4  -1   2   58.82    5.83
  -4   1  -2   61.97    4.76
   4   1   2   79.16   15.39
   4   1   2   74.28   11.21
   4   1   2   65.89    4.73
  -4   1  -2   66.00    8.25
   4   1   2   65.41    7.33
  -4  -1   2   60.39    6.38
  -4  -1   2   76.67    5.39
   4  -1  -2   65.63    6.89
  -4   1  -2   61.97    9.71
   4  -1  -2   63.80    4.40
   5   1  -2   50.46    8.94
   5  -1   2   58.75    8.43
  -5  -1  -2   63.25    9.75
   5   1  -2   63.25    4.36
  -5  -1  -2   58.93   10.63
  -5   1   2   52.52    5.61
  -5  -1  -2   57.46   14.33
  -5   1   2   56.84    5.24
  -5  -1  -2   65.19    4.18
  -5   1  -2   56.29   16.45
   5  -1  -2   62.52    4.87
   5  -1  -2   62.63    4.87
  -5   1  -2   59.37   14.29
  -5  -1   2   59.26    6.74
   5   1   2   59.81    5.42
  -5  -1   2   65.93    8.87
   5  -1  -2   55.34    4.69
   5   1   2   63.88   13.16
   5   1   2   71.39    7.22
  -5  -1   2   60.43    5.94
   6   1  -2  105.10    3.48
  -6   1   2  119.29   12.09
  -6   1   2  106.39   11.80
  -6  -1  -2  109.24   19.13
   6   1  -2  108.77    6.08
   6  -1   2  122.18   12.79
  -6  -1  -2  106.72   13.56
  -6  -1  -2  106.28   10.08
   6   1  -2  119.62   12.68
  -6   1  -2  107.27   16.01
  -6  -1   2  103.89    6.19
   6   1   2  117.78    6.27
  -6   1  -2  107.89   13.89
  -6   1  -2  143.36   17.00
  -6  -1   2  103.97    5.83
   6  -1  -2  116.50   10.37
   6   1   2  105.91    8.28
  -6  -1   2  122.22   13.30
   6  -1  -2  106.39    9.82
   6  -1  -2  112.84   10.77
  -6   1  -2  126.18   10.22
   7   1  -2  416.35   22.98
  -7  -1  -2  378.23   33.68
  -7  -1  -2  394.10   26.90
  -7  -1  -2  397.47   14.33
   7  -1   2  343.02   38.19
  -7  -1  -2  372.88   11.80
  -7  -1  -2  381.60   33.24
  -7   1   2  389.63   24.22
   7   1  -2  346.86   23.42
  -7   1   2  461.68   28.95
  -7   1  -2  421.55   36.06
   7   1   2  454.39   24.59
   7  -1  -2  398.13   19.02
   7   1   2  374.64   29.02
   7  -1  -2  416.71   18.21
  -7  -1   2  392.56   17.52
  -7   1  -2  436.21   17.99
   7  -1  -2  396.01   27.67
  -7   1  -2  372.37   47.49
  -7  -1   2  375.85   34.15
  -7   1  -2  454.93   44.12
  -7  -1   2  384.06   17.33
  -8  -1  -2  151.13    6.27
  -8  -1  -2  112.58   28.07
  -8   1   2  146.59   13.27
   8   1  -2  147.03    7.73
  -8  -1  -2  151.24   14.77
   8  -1   2  138.64   22.50
  -8  -1  -2  137.65   26.42
  -8   1   2  174.11   15.79
  -8  -1  -2  159.01    5.24
   8   1  -2  134.13   17.63
  -8   1  -2  146.81   19.64
   8  -1  -2  139.37   15.61
   8  -1  -2  143.03   12.97
   8  -1  -2  154.87   12.24
  -8  -1   2  144.57    8.28
  -8  -1   2  158.90   18.98
   8   1   2  133.43   10.96
  -8   1  -2  155.90   19.06
  -8   1  -2  176.27   11.87
  -8   1  -2  167.81   25.69
   8   1   2  152.19    7.66
  -8  -1   2  142.30    8.47
  -9  -1  -2  647.00   33.42
  -9  -1  -2  584.77   52.95
  -9   1   2  614.17   55.15
  -9   1   2  655.54   41.01
   9   1  -2  564.84   48.81
   9   1  -2  607.72   28.22
   9  -1   2  615.19   28.84
   9  -1   2  546.63   42.84
  -9  -1  -2  557.47   51.38
  -9  -1  -2  554.03   20.74
  -9  -1  -2  608.78   42.91
   9  -1  -2  588.40   29.61
   9   1   2  619.00   27.27
  -9   1  -2  623.22   56.69
   9  -1  -2  623.44   29.28
  -9   1  -2  575.43   25.80
  -9   1  -2  578.76   52.73
  -9  -1   2  565.90   40.24
  -9  -1   2  592.69   35.40
   9   1   2  554.61   35.33
   9   1   2  673.46   54.97
   9  -1  -2  619.33   45.59
  -9   1  -2  691.78   69.56
  -9  -1   2  595.18   35.33
 -10  -1  -2  173.34    8.25
 -10  -1  -2  154.80   23.38
 -10  -1  -2  142.34   20.41
 -10   1   2  163.78   10.96
 -10   1   2  178.14   15.68
 -10  -1  -2  166.12   23.78
  10  -1   2  174.07    9.42
  10  -1   2  149.52   23.42
  10   1  -2  168.43   13.93
 -10  -1  -2  165.02    6.19
  10  -1   2  162.64   12.46
  10   1  -2  170.33   13.63
 -10   1  -2  160.70    8.36
 -10   1  -2  156.96   20.12
  10   1   2  158.83   14.55
 -10   1  -2  176.20   22.46
  10   1   2  170.88   20.74
  10  -1  -2  173.52   18.95
 -10  -1   2  163.63   21.26
  10  -1  -2  168.65    9.75
  10  -1  -2  159.49   14.55
 -10  -1   2  163.67    9.75
 -10   1  -2  225.67   47.02
 -10  -1   2  151.53    9.67
  11   1  -2   22.24    4.07
 -11  -1  -2   16.16   10.99
  11  -1   2   30.05    6.12
 -11   1   2   17.70    6.52
  11   1  -2   26.13    6.56
 -11  -1  -2   13.60   12.28
 -11  -1  -2   19.39    9.86
  11  -1   2   20.93    8.06
 -11  -1  -2   16.93    3.11
  11  -1   2   13.30    7.48
 -11   1   2   24.30    4.76
  11  -1  -2   22.90    4.58
 -11  -1   2   26.79    4.10
 -11   1  -2   25.40    9.60
 -11   1  -2   29.43    5.50
 -11  -1   2   25.40    6.52
 -11   1  -2   17.52   10.92
  11  -1  -2   28.07    6.63
  11  -1  -2   15.57    5.90
  11   1   2   23.31    6.60
 -11   1  -2   22.54   22.94
 -11  -1   2   24.59    4.32
 -12  -1  -2   -4.95    8.76
 -12   1   2    5.13    3.44
 -12  -1  -2    0.22    1.69
 -12  -1  -2    0.04    5.75
 -12  -1  -2   -3.44    7.51
  12   1  -2    3.88    2.93
 -12   1   2    1.65    7.44
  12  -1   2    8.65    5.61
  12   1  -2    7.55    4.91
 -12  -1  -2    4.73    3.37
 -12  -1   2    7.95    4.91
 -12   1  -2    7.00    8.03
  12   1   2   -0.92    3.92
  12  -1  -2    3.08    4.54
 -12  -1   2    4.84    5.06
 -12   1  -2    6.30    6.78
  12   1   2    3.30    4.98
  12  -1  -2    7.22    3.08
 -12   1  -2  -16.12   17.55
 -12  -1   2    5.31    5.06
 -13  -1  -2  369.33   47.53
 -13   1   2  392.42   31.26
  13   1  -2  386.33   28.80
 -13  -1  -2  382.85   35.47
 -13  -1  -2  342.36   39.62
  13  -1   2  348.66   32.98
 -13   1   2  352.95   30.86
 -13  -1  -2  360.39   19.24
  13   1  -2  339.13   30.45
  13  -1  -2  449.25   30.49
  13   1   2  380.94   25.58
 -13  -1   2  316.78   42.44
 -13  -1   2  365.96   22.02
 -13   1  -2  324.47   38.88
  13  -1  -2  382.34   30.82
 -13  -1   2  392.09   24.55
 -13   1  -2  374.93   57.10
 -13   1  -2  385.09   63.22
 -14  -1  -2   71.86   17.41
 -14   1   2   64.28   11.58
 -14  -1  -2   45.63   12.75
 -14  -1  -2   79.01   15.98
  14  -1   2   78.94   13.89
 -14  -1  -2   47.90    7.70
  14  -1   2   58.38   11.25
  14   1  -2   43.06   15.14
 -14   1   2   65.41   11.43
  14   1  -2   54.16    6.16
 -14   1  -2   56.73   25.80
  14  -1  -2   53.25   15.21
  14  -1  -2   53.36    6.23
 -14   1  -2   61.53   14.37
 -14  -1   2   52.26    6.60
  14   1   2   56.14   10.11
 -14  -1   2   52.00    7.59
 -14  -1   2   62.12   12.90
 -14   1  -2   79.49   22.13
 -15  -1  -2  154.54   29.17
 -15   1   2  167.92   27.56
  15  -1   2  138.34   19.28
  15  -1   2  185.47   25.87
 -15   1   2  154.50   12.97
  15   1  -2  144.21   26.35
 -15  -1  -2  140.98   40.17
 -15  -1  -2  153.18   11.58
 -15  -1  -2  164.58   30.60
  15  -1  -2  172.68   16.27
 -15  -1   2  155.49   17.41
  15   1   2  128.92   17.81
 -15   1  -2  127.68   23.67
 -15   1  -2  136.47   27.89
  15   1   2  151.21   13.93
 -15  -1   2  172.35   31.48
  15  -1  -2  148.31   29.24
 -15  -1   2  159.30   19.64
 -15   1  -2  166.41   34.59
 -16  -1  -2   15.39   12.35
  16  -1   2   18.80    8.61
 -16  -1  -2    9.16   15.03
 -16   1   2    8.21    5.42
 -16   1   2   10.63    8.36
  16   1  -2   15.06   11.47
 -16  -1  -2    8.87    6.34
 -16  -1  -2   22.57   18.32
 -16   1  -2    4.25   12.64
 -16  -1   2   11.58    8.54
 -16   1  -2    2.82   14.51
  16   1   2   17.08    3.77
 -16   1  -2    6.89   15.83
  16   1   2   11.69   11.65
 -16  -1   2    8.58    4.36
  16  -1  -2   13.56    8.58
  16  -1  -2   18.47    4.80
 -17  -1  -2   -1.58   13.74
 -17  -1  -2   14.62   10.59
 -17   1   2   15.65    9.20
 -17  -1  -2   15.10   18.43
  17   1  -2   14.62    7.95
  17  -1   2    8.10    9.75
 -17   1   2   15.50    9.49
 -17  -1   2    9.86    9.05
 -17   1  -2    8.10   21.07
  17   1   2   13.41    7.92
  17  -1  -2   20.12    9.20
 -17   1  -2   10.81   12.94
 -17  -1   2   15.21    8.98
  17  -1  -2   14.81    7.40
 -17   1  -2    3.19   14.77
 -18  -1  -2   19.79   23.38
 -18   1   2   15.94    6.41
 -18   1   2   13.93   15.68
 -18  -1  -2    9.86   11.43
  18   1  -2   15.43    9.38
 -18  -1  -2   15.54   12.72
  18  -1   2   23.71   15.72
 -18  -1   2    8.91    6.08
 -18   1  -2   19.09   25.40
  18  -1  -2   20.71    5.17
 -18   1  -2   16.01   22.46
 -18   1  -2   16.38   15.17
 -18  -1   2   14.84   12.31
 -18  -1   2   16.67   10.26
  18   1   2   15.79    9.24
  18  -1  -2   19.06   14.62
 -19  -1  -2    7.66   18.43
  19  -1   2    5.28    7.99
  19   1  -2   -3.66    7.37
 -19  -1  -2    6.38   10.26
 -19   1   2   -3.01    7.51
 -19  -1   2    4.73    7.11
 -19   1  -2   12.79   11.18
 -19  -1   2   -4.65    9.09
 -19   1  -2    4.98   11.73
  19  -1  -2    4.18    7.51
  19   1   2   -0.66   13.05
 -20  -1  -2   -6.71   12.46
  20  -1   2   13.01   12.97
  20   1  -2   -2.16   12.13
 -20  -1  -2    3.37   17.08
 -20   1  -2   14.33   11.51
 -20   1  -2   -5.31   12.09
  20   1   2    0.22    8.80
  20  -1  -2    6.34    8.25
 -21  -1  -2   30.75   17.81
 -21   1   2   14.62   23.78
  21  -1   2   12.90   12.09
 -21  -1  -2   24.81   24.77
  21   1  -2    1.87   11.32
 -21   1  -2   16.64   16.38
 -21  -1   2   16.67   12.79
 -21   1  -2   28.11   25.73
  21   1   2   19.28   20.71
  21  -1  -2    1.72   17.15
 -22   1   2    4.62   11.87
 -22  -1  -2  -11.54   22.43
  22  -1   2    8.65   15.68
 -22  -1  -2    4.25   13.49
  22   1  -2    1.25    9.27
 -22   1  -2    9.09   13.85
 -22  -1   2   -9.53   14.84
  22   1   2   -1.69    9.93
  22  -1  -2    2.90    8.91
 -22   1  -2   11.98   20.85
 -23  -1  -2   12.75   18.98
 -23  -1  -2   18.25   13.96
  23  -1   2   -3.33   11.43
  23   1  -2    4.43   14.77
 -23   1   2   -2.53   17.08
 -23  -1   2    4.21    9.67
 -23   1  -2   15.03   13.93
 -23   1  -2   -4.62   14.40
  23   1   2   -0.48   10.30
 -23  -1   2    7.29   19.53
   0  -2  -2   51.34    5.39
   0  -2   2   56.58    3.99
   0   2   2   57.06    3.55
   0   2   2   46.83    6.63
   0   2  -2   52.48    7.51
   0  -2   2   55.15    3.77
   0  -2   2   62.52   10.19
   0  -2  -2   60.06    7.00
   0  -2  -2   57.79    5.86
   0  -2  -2   53.98    8.21
   1   2  -2  905.44   48.48
   1  -2   2  842.40   49.25
   1   2  -2  893.42   33.97
  -1  -2  -2  755.33   52.70
   1  -2   2  968.76   53.06
  -1   2   2  731.29   51.75
  -1  -2  -2  892.10   50.68
  -1   2   2  730.67   45.66
   1  -2   2  886.09   34.92
  -1  -2  -2  909.06   32.95
  -1  -2  -2  857.21   44.12
  -1   2   2  876.56   35.14
   1   2  -2  751.66   44.82
  -1  -2  -2  861.79   44.27
   1  -2  -2  914.34   44.31
   1  -2  -2  916.28   52.99
  -1  -2   2  925.11   38.30
   1   2   2  787.07   47.31
  -1  -2   2  887.48   45.00
  -1  -2   2  863.91   36.68
   1   2   2  847.09   35.84
  -1   2  -2  829.91   42.95
   1   2   2  880.30   29.13
  -1   2  -2  880.99   52.81
   1   2   2  753.61   52.41
   2  -2   2   86.56    3.33
  -2  -2  -2   89.71    6.01
  -2  -2  -2   92.28    8.98
  -2   2   2  105.29   10.22
  -2   2   2  102.43   14.29
  -2   2   2   86.05    3.44
   2  -2   2   75.82   14.77
   2   2  -2   96.38    6.41
   2   2  -2   87.11    5.06
   2   2  -2   84.32    7.59
   2  -2  -2   89.09    3.15
  -2   2  -2   78.42    5.68
   2   2   2  103.27   15.79
   2  -2  -2   95.65   10.22
  -2   2  -2   87.51    6.19
   2  -2  -2   91.62    5.86
   2   2   2   93.16    9.31
   2   2   2   91.32   15.21
  -2  -2   2  101.44    5.02
   2   2   2   99.28    5.17
  -2  -2   2   83.26    6.34
  -2  -2   2   85.72    4.03
  -2   2  -2   89.42    8.25
   2   2   2   86.89    7.48
  -2  -2   2   85.02    3.26
  -3   2   2  482.93   19.02
  -3   2   2  469.04   31.92
   3  -2   2  465.31   40.42
  -3   2   2  496.09   46.47
   3   2  -2  423.16   24.11
  -3  -2  -2  501.29   31.85
  -3   2   2  494.84   24.22
   3   2  -2  471.06   23.78
  -3   2   2  503.75   26.31
   3   2  -2  472.16   18.25
   3  -2   2  513.64   16.34
  -3  -2  -2  520.64   29.02
   3  -2  -2  491.40   23.12
  -3  -2   2  495.28   21.07
   3   2   2  452.77   44.78
   3  -2  -2  495.61   25.54
   3   2   2  467.03   43.90
  -3   2  -2  497.63   44.31
   3   2   2  486.23   20.34
   3  -2  -2  518.52   20.71
   3   2   2  453.65   31.19
   3   2   2  500.74   18.40
  -3   2  -2  485.90   28.36
  -3  -2   2  477.14   24.04
  -3  -2   2  465.86   21.59
  -3  -2   2  489.53   19.09
   4  -2   2  233.11    6.93
  -4   2   2  245.79   13.89
  -4  -2  -2  258.80   25.14
  -4  -2  -2  252.20   13.78
   4   2  -2  253.23    9.97
  -4   2   2  233.92    8.54
  -4  -2  -2  296.99   29.50
   4   2  -2  246.41   18.95
   4  -2   2  237.44   30.09
  -4   2   2  240.04   14.73
  -4   2  -2  246.96   20.01
   4   2   2  258.29   21.26
   4   2   2  240.44   10.48
  -4  -2   2  230.95   13.30
   4   2   2  267.74   20.34
  -4  -2   2  235.49   13.01
   4  -2  -2  247.51   12.42
   4   2   2  244.76   18.18
   4  -2  -2  257.33   13.34
  -4  -2   2  233.92    8.91
   4  -2  -2  256.97   13.01
   4   2   2  260.74   14.51
   5   2  -2   22.24    2.79
   5  -2   2   23.71    7.18
  -5  -2  -2   24.92   10.08
  -5  -2  -2   19.06    4.73
  -5  -2  -2   18.91   10.66
   5   2  -2   18.62    4.36
  -5   2   2   13.56    5.86
  -5   2   2   16.89    4.40
   5  -2   2   21.11    1.87
   5  -2  -2   21.40    3.63
   5  -2  -2   20.96    3.70
   5   2   2   20.89   13.38
  -5  -2   2   23.86    4.25
   5  -2  -2   19.42    5.13
  -5   2  -2   23.56    3.26
  -5   2  -2   17.30   13.85
  -5  -2   2   17.77    6.52
  -5  -2   2   17.41    2.82
   5   2   2   19.31    4.95
   5   2   2   26.39    9.78
   5   2   2   16.78   11.43
   5   2   2   18.73    3.26
   6   2  -2   43.35    3.70
  -6  -2  -2   38.96    8.61
  -6  -2  -2   51.89   12.28
   6   2  -2   36.02    5.90
   6  -2   2   40.71    2.86
  -6   2   2   36.65    2.38
   6  -2   2   44.82    8.69
  -6   2   2   39.58    8.87
  -6   2   2   37.82    7.77
  -6  -2  -2   41.19    6.60
   6   2   2   44.31    6.93
  -6   2  -2   43.46    6.23
  -6  -2   2   38.41    3.77
  -6  -2   2   35.25    3.81
   6   2   2   33.75   12.61
   6   2   2   37.64    4.03
   6  -2  -2   36.13    4.25
   6  -2  -2   43.90    7.33
  -6  -2   2   47.68    5.75
   6  -2  -2   35.00    4.51
  -6   2  -2   52.59   12.83
  -7   2   2   10.70    5.83
   7  -2   2    2.75    6.27
  -7  -2  -2    7.66    6.27
   7   2  -2    2.93    6.45
   7   2  -2   12.53    2.46
  -7   2   2    6.45    3.77
   7  -2   2    7.48    1.36
  -7  -2  -2    8.91    5.35
  -7  -2  -2    8.10    7.81
  -7  -2   2    9.97    4.47
  -7  -2   2    5.86    4.21
  -7  -2   2    9.16    4.40
   7   2   2    8.43    5.28
   7  -2  -2   11.65    5.75
   7   2   2    9.60    4.40
   7  -2  -2    7.84    4.58
  -7   2  -2    5.35   16.31
   7  -2  -2    6.85    4.58
  -8   2   2  109.21    9.05
   8  -2   2  117.82   16.20
  -8  -2  -2  127.31   15.25
   8   2  -2  121.92   10.33
   8   2  -2  113.46    9.89
  -8  -2  -2  108.95    5.02
  -8  -2  -2  122.80   18.54
  -8  -2  -2  125.63   20.12
  -8   2   2  106.42   10.15
   8  -2  -2  111.63    8.36
  -8  -2   2  118.00    7.88
  -8  -2   2  128.78    7.66
  -8   2  -2  174.51   29.57
   8   2   2   99.75    9.02
   8  -2  -2  113.24    7.70
  -8  -2   2  119.10   11.10
   8  -2  -2  121.81   10.00
  -8   2  -2  125.63    7.51
   8   2   2  124.49    7.29
   9   2  -2   26.61    5.72
  -9   2   2   35.55    4.76
  -9   2   2   17.48    9.31
   9  -2   2   19.90    8.28
  -9  -2  -2   27.52    7.37
  -9  -2  -2   23.45    1.69
   9   2  -2   25.32    6.01
  -9  -2  -2   30.01   14.15
  -9  -2  -2   30.60    9.49
  -9  -2   2   27.27    3.74
  -9  -2   2   34.92    3.99
   9   2   2   28.47    5.46
  -9  -2   2   29.90   10.70
   9   2   2   26.94    5.90
   9  -2  -2   28.36    6.01
  -9   2  -2   20.34   18.76
   9  -2  -2   29.50    4.76
  -9   2  -2   22.32   11.36
 -10   2   2   41.30    6.08
 -10  -2  -2   48.52   11.84
  10   2  -2   47.90    4.73
 -10   2   2   47.86   12.53
  10  -2   2   50.79   16.60
 -10  -2  -2   38.37    8.94
 -10  -2  -2   48.63   11.40
  10   2  -2   45.55   12.13
 -10  -2  -2   46.50    6.38
 -10   2  -2   78.97   21.95
  10   2   2   54.02    7.18
  10  -2  -2   48.08    7.99
 -10   2  -2   54.57    4.69
  10  -2  -2   48.04    9.49
 -10  -2   2   50.10   12.28
 -10   2  -2   56.69   14.33
  10  -2  -2   44.49   11.98
 -10  -2   2   46.87    7.44
  10   2   2   46.43    4.65
 -10  -2   2   49.55    7.55
 -11   2   2    2.16    5.24
 -11  -2  -2    0.40    2.35
  11  -2   2    3.26    5.94
 -11  -2  -2    2.82    7.04
 -11  -2  -2    1.80    1.10
  11   2  -2    2.97    2.68
 -11  -2  -2    4.54    7.88
  11   2  -2    4.73    6.74
 -11   2   2   -0.70    6.89
 -11  -2  -2    2.35    6.41
 -11   2  -2    4.80    2.38
 -11   2  -2    2.93   11.84
 -11  -2   2    2.97    4.40
 -11   2  -2    5.53    7.88
  11  -2  -2    6.71    3.30
  11  -2  -2   12.31    6.56
  11   2   2    1.43    4.07
  11   2   2    3.08    3.22
  11  -2  -2    2.86    2.86
 -11  -2   2    3.81    2.68
 -11  -2   2    3.04    2.71
 -12  -2  -2   99.68    6.85
 -12   2   2   93.27   13.01
 -12  -2  -2  100.96   28.77
  12   2  -2   99.46   12.06
  12  -2   2  105.21   14.40
 -12  -2  -2   84.91    5.68
  12  -2   2   89.60   14.07
 -12  -2  -2  145.12   20.56
 -12  -2  -2  110.12   16.89
 -12   2   2  101.59   12.02
 -12   2  -2  103.53   31.99
  12  -2  -2  100.16    7.81
 -12  -2   2   84.87   10.77
 -12   2  -2  106.90   20.19
 -12   2  -2  110.53    9.82
  12   2   2   85.39    9.38
  12   2   2   71.75   16.60
 -12  -2   2   90.88   12.57
  12  -2  -2   93.23   12.20
 -12  -2   2   89.38   11.76
  12  -2  -2   99.61   14.04
 -13   2   2   79.19   13.67
 -13  -2  -2   69.63   27.67
 -13  -2  -2   81.50   13.19
  13  -2   2   73.33   13.08
  13  -2   2   80.22   13.34
  13   2  -2   52.44   10.96
 -13   2   2   64.35   12.17
 -13  -2  -2   65.19    9.05
 -13  -2  -2   75.42   16.05
  13  -2  -2   85.72    8.65
 -13  -2   2   71.35    7.62
  13  -2  -2  101.77   12.02
 -13   2  -2   59.07   29.35
 -13   2  -2   85.50    9.49
 -13  -2   2   86.63   18.36
  13  -2  -2   78.86   12.02
  13   2   2   78.17   10.74
 -13   2  -2  102.39   27.56
 -13  -2   2   77.58    8.17
 -13   2  -2   75.82   19.64
 -14   2   2   86.93    9.09
 -14  -2  -2   85.50   17.11
  14  -2   2   76.92   14.95
 -14  -2  -2   94.18   29.28
 -14  -2  -2  102.39   20.67
 -14   2   2   90.00   12.86
  14   2  -2   71.94   11.65
 -14  -2  -2   82.90    6.45
 -14  -2   2   85.72    7.95
 -14   2  -2   78.97    5.94
  14   2   2   72.08    9.20
  14  -2  -2   86.30    7.70
 -14  -2   2   95.28   13.34
  14   2   2   76.67   11.32
 -14   2  -2   94.55   19.31
  14  -2  -2   84.73   17.70
 -14   2  -2  103.71   42.95
 -14   2  -2   91.21   21.11
 -14  -2   2   74.03    7.95
 -15  -2  -2   39.62   25.10
 -15   2   2   45.92   17.37
  15  -2   2   53.36   19.17
 -15  -2  -2   50.24   18.58
 -15  -2  -2   54.79    8.58
  15   2  -2   44.86   15.03
 -15  -2  -2   56.00   14.18
 -15   2   2   52.73    7.04
  15  -2  -2   41.85    8.83
 -15  -2   2   34.92    9.49
 -15   2  -2   20.74   30.89
  15   2   2   47.53    9.75
 -15  -2   2   51.38   16.89
 -15  -2   2   51.89   18.73
  15   2   2   37.12    4.95
 -15   2  -2   49.55   17.33
 -15   2  -2   19.50   16.67
  15  -2  -2   48.19   10.15
 -15  -2   2   53.91   11.98
 -16   2   2   75.64   15.32
 -16  -2  -2   85.53   21.84
 -16  -2  -2   86.19   16.12
  16  -2   2   62.19   12.46
  16  -2   2   79.67   15.79
 -16  -2  -2   77.29    7.18
  16   2  -2   78.17   20.19
 -16   2   2   96.86   15.46
 -16  -2  -2   78.79   19.42
 -16  -2   2   69.89    7.88
  16   2   2   68.09   22.76
 -16  -2   2   80.55   16.34
 -16  -2   2   82.38   16.12
 -16   2  -2   88.83   26.50
 -16   2  -2   89.57   22.76
  16  -2  -2   87.37    8.50
  16  -2  -2   69.85   13.82
 -16   2  -2  100.78   36.90
 -16  -2   2   75.75    9.45
 -17   2   2   29.02   10.55
 -17  -2  -2   17.04   14.88
  17   2  -2   20.78   14.18
 -17  -2  -2   22.21   11.25
  17  -2   2   25.87   15.28
 -17   2   2   42.44   11.54
 -17  -2  -2   17.92   20.38
 -17  -2  -2   19.06    5.42
 -17  -2   2   28.36    9.64
 -17   2  -2   22.57   23.42
  17   2   2   18.54    6.82
 -17  -2   2    7.88   17.52
 -17   2  -2   22.50   24.33
  17  -2  -2   16.86   16.12
  17   2   2   17.99   10.33
 -17   2  -2   11.18   16.86
 -17  -2   2   26.72    6.71
 -17  -2   2   32.62   17.48
 -18  -2  -2   23.67   16.82
 -18  -2  -2   16.53   23.16
 -18   2   2   30.53    8.14
 -18  -2  -2   23.20   20.82
  18  -2   2   20.27   11.98
 -18   2   2   36.13   18.69
  18   2  -2   34.23   10.81
 -18  -2  -2   30.23    8.87
 -18   2  -2   31.04   17.92
 -18  -2   2   17.00   12.35
  18  -2  -2   43.43    9.34
 -18   2  -2   26.53   18.76
  18  -2  -2   26.39   12.28
  18   2   2   35.62   11.98
 -18  -2   2   23.09   12.53
 -18  -2   2   24.74    6.85
 -19  -2  -2   44.67   17.41
 -19  -2  -2   22.90   19.46
  19   2  -2   37.67   12.57
 -19   2   2   31.70   13.05
  19  -2   2   29.54   21.88
  19  -2  -2   28.22   13.89
 -19   2  -2   41.52   19.94
  19  -2  -2   38.52    6.05
  19   2   2   36.98   21.91
 -19   2  -2   32.32   33.09
 -19  -2   2   33.61   13.38
 -20  -2  -2   22.10   30.56
 -20  -2  -2   39.21   17.66
  20  -2   2   37.27   13.63
  20   2  -2   23.20   13.19
 -20   2  -2   16.09   30.97
  20   2   2   33.79   13.63
 -20   2  -2   37.16   28.99
 -20  -2   2   36.13   21.22
  20  -2  -2   27.23   19.97
 -21  -2  -2  102.39   27.85
 -21  -2  -2   76.56   39.07
  21  -2   2   92.13   20.01
  21   2  -2    9.53   30.71
 -21   2  -2   56.95   28.84
 -21   2  -2   73.95   31.26
 -21  -2   2   68.49   21.88
  21  -2  -2   97.30   20.60
  21   2   2  100.63   21.22
 -22  -2  -2    0.92   12.42
 -22  -2  -2   16.82   20.08
  22  -2   2   -4.76    9.86
  22   2  -2   -2.97   14.62
 -22   2  -2   10.33   13.45
 -22   2  -2   15.50   14.48
 -22  -2   2   16.75   13.89
  22  -2  -2  -10.37   14.81
  22   2   2   -8.94   15.32
 -22  -2   2   -0.55   17.55
 -23   2   2   -1.50   13.63
 -23  -2  -2   -0.33   15.28
 -23  -2  -2   -0.18   13.93
  23   2  -2   -0.48   10.70
  23  -2   2    4.07   10.55
  23   2   2   -1.36   11.03
  23  -2  -2   -0.70   10.04
 -23  -2   2   11.51   12.53
 -23   2  -2    7.26   23.53
 -23   2  -2   15.21   25.07
 -23  -2   2   28.36   13.27
   0  -3   2   -1.80    2.82
   0   3   2   -1.03    5.39
   0   3  -2    4.03    1.69
   0  -3  -2    5.94    7.51
   0  -3  -2    1.39    1.32
   0   3  -2    1.25    0.95
   0  -3  -2    6.19    5.46
   0  -3   2    5.17    6.08
   0  -3   2    1.69    1.10
   1  -3   2  385.01   14.84
  -1  -3  -2  345.43   26.68
  -1  -3  -2  376.36   13.60
  -1   3   2  331.95   25.98
  -1   3   2  325.86   22.06
  -1  -3  -2  369.69   22.43
   1   3  -2  300.14   28.44
   1   3  -2  358.37   17.41
  -1   3  -2  374.24   25.80
  -1  -3   2  361.05   28.80
   1  -3  -2  380.76   28.66
  -1  -3   2  387.69   16.82
  -1  -3   2  370.10   15.68
  -1   3  -2  334.29   21.88
   1   3   2  345.73   33.75
   1   3   2  338.40   14.07
   1  -3  -2  380.58   16.09
  -2   3   2  257.99   32.43
  -2  -3  -2  255.76   19.42
   2   3  -2  235.60   23.31
   2  -3   2  255.39    7.59
  -2  -3  -2  252.75   11.51
  -2  -3  -2  277.31   17.66
  -2   3   2  257.08   26.35
   2  -3  -2  236.30   21.00
  -2  -3   2  244.22   10.30
  -2   3  -2  259.02   15.32
   2   3   2  238.31   17.44
   2  -3  -2  261.11   12.02
  -2  -3   2  233.84    9.27
  -2  -3   2  244.47   19.75
  -2   3  -2  246.16   13.49
   2   3   2  254.26   18.73
   2   3   2  258.43   10.37
   3  -3   2    7.11    1.54
  -3   3   2   10.26    6.12
   3   3  -2   14.51    3.55
  -3   3   2   16.09    5.20
  -3  -3  -2    7.95    3.44
  -3  -3  -2   11.84    4.36
  -3   3  -2    9.89    7.22
   3   3   2   11.76    8.80
   3  -3  -2    5.13    5.86
   3   3   2    9.38    2.46
   3   3   2   10.15    5.09
   3  -3  -2    6.45    3.30
  -3  -3   2    4.69    2.31
  -3  -3   2    6.19    3.41
   3   3   2   10.22    3.44
  -3  -3   2    8.50    3.44
  -4   3   2    6.12    5.35
   4  -3   2    1.25    6.60
   4  -3   2    1.61    0.92
  -4  -3  -2    3.77    3.30
  -4  -3  -2    3.63    6.34
  -4  -3  -2    5.13    5.68
   4   3  -2    1.91    5.02
  -4   3  -2    4.65    7.70
   4   3   2   -1.98    7.84
   4  -3  -2   -1.28    4.47
  -4  -3   2   -0.40    1.94
   4  -3  -2    3.19    3.33
  -4  -3   2    2.53    2.57
   4   3   2    2.35    3.44
  -4  -3   2    3.01    2.97
   4   3   2    1.76    3.11
   4   3   2    2.60    4.76
  -4  -3   2    0.48    1.83
  -5   3   2   12.06    4.25
  -5  -3  -2   11.95    6.85
   5   3  -2    7.40    6.16
   5  -3   2    0.66   10.52
  -5  -3  -2    7.00    3.11
  -5  -3  -2    6.16    4.36
  -5  -3  -2   11.98    6.63
   5  -3   2   10.92    2.46
   5  -3  -2    7.95    5.61
  -5   3  -2    4.36    7.77
   5   3   2   10.04    2.93
  -5  -3   2    8.10    2.49
   5   3   2    4.95    2.64
  -5   3  -2    9.89    2.97
   5  -3  -2    5.31    2.93
   5   3   2   16.38   10.04
   5   3   2    6.38    7.11
  -5  -3   2    8.47    3.81
  -5  -3   2    5.68    3.55
  -6   3   2  121.59   14.95
   6  -3   2  105.65   15.61
  -6   3   2  113.79    9.82
  -6  -3  -2  112.14   11.62
  -6  -3  -2  117.49   13.85
  -6  -3  -2  120.90   16.71
  -6  -3  -2  130.39   14.48
   6   3  -2  123.24   15.36
   6  -3   2  128.81    4.80
   6  -3  -2  118.99    8.50
  -6  -3   2  107.93    9.64
  -6   3  -2  167.62   27.52
   6   3   2  112.76   10.26
   6  -3  -2  131.67   13.27
  -6  -3   2  108.69   10.22
  -6  -3   2  131.09   11.36
  -6  -3   2  115.18   14.99
   6   3   2  123.57    9.13
   6   3   2  139.04   24.44
   6   3   2  112.36   19.57
   6  -3  -2  128.45    9.78
  -7   3   2   61.86    7.44
  -7  -3  -2   63.22    9.42
  -7  -3  -2   59.33    7.88
   7  -3   2   59.88   12.09
  -7  -3  -2   49.88   17.04
  -7   3   2   63.77   12.53
   7   3  -2   57.06    8.03
   7  -3   2   61.46    5.31
  -7  -3   2   59.73    5.24
   7  -3  -2   67.50    6.05
  -7  -3   2   75.90    5.28
  -7  -3   2   60.14    6.05
   7   3   2   64.28    5.28
  -7   3  -2   71.42    8.28
   7  -3  -2   59.59    6.41
  -7  -3   2   61.53   12.61
   7   3   2   60.72    7.00
  -7   3  -2   86.89   23.60
   7  -3  -2   73.70    7.44
   8  -3   2   81.32    5.94
  -8   3   2   72.96    7.73
  -8  -3  -2   86.96   16.49
  -8   3   2   70.91   13.74
  -8  -3  -2   73.88    9.45
  -8  -3  -2   78.86   11.91
   8  -3   2   60.54   12.68
   8   3  -2   75.82   13.71
  -8  -3   2   79.49    7.99
   8   3   2   76.01    8.76
  -8   3  -2   77.80    8.83
  -8  -3   2   81.03    9.09
  -8  -3   2   69.37    7.48
  -8  -3   2   89.16   14.95
   8   3   2   77.40    8.10
  -8   3  -2  103.78   26.86
   8  -3  -2   78.83   13.30
   8  -3  -2   68.24    6.82
   8  -3  -2   74.47    6.34
   9   3  -2  152.93   15.68
   9  -3   2  183.49    7.77
  -9   3   2  183.34   15.28
  -9  -3  -2  220.80   27.05
  -9  -3  -2  158.17   28.22
  -9  -3  -2  145.27   17.88
   9  -3   2  144.06   32.51
  -9   3   2  169.35   12.42
  -9  -3   2  153.59    9.20
  -9  -3   2  153.00   13.30
   9  -3  -2  182.65   15.32
   9   3   2  178.84    9.82
  -9   3  -2  166.96   10.22
   9  -3  -2  193.68   14.55
  -9  -3   2  152.01   20.96
   9   3   2  171.91   20.27
  -9   3  -2  184.41   62.12
   9  -3  -2  179.13   17.92
  -9  -3   2  171.18    9.97
 -10  -3  -2  398.10   18.40
 -10   3   2  345.43   26.72
  10  -3   2  359.21   15.32
  10  -3   2  383.47   51.42
 -10  -3  -2  371.49   27.71
 -10  -3  -2  377.21   48.78
  10   3  -2  355.99   35.99
 -10  -3  -2  329.09   30.31
 -10   3   2  344.26   21.51
  10  -3  -2  336.79   21.59
  10  -3  -2  382.04   26.72
 -10  -3   2  311.21   22.68
  10  -3  -2  383.69   26.09
 -10  -3   2  312.56   24.74
 -10  -3   2  372.04   33.17
 -10   3  -2  368.67   19.35
  10   3   2  370.79   33.97
 -10   3  -2  458.20   91.07
 -11  -3  -2  121.74    7.66
 -11  -3  -2   95.21   18.03
 -11  -3  -2  115.62   22.76
 -11   3   2  120.17   12.68
 -11  -3  -2  114.41   24.19
  11  -3   2  111.92   17.26
  11   3  -2  111.88   19.86
 -11   3   2  114.81   10.99
 -11  -3   2  118.74   12.46
 -11  -3   2  106.83    8.94
  11  -3  -2  125.08   10.30
  11  -3  -2  122.58    9.09
 -11   3  -2  123.72   12.28
  11   3   2  106.46   10.52
 -11  -3   2  108.88   13.74
 -11  -3   2  123.50    9.05
  11  -3  -2  131.75   20.19
  11   3   2  114.89   12.20
 -11   3  -2  117.05   50.57
 -12  -3  -2   14.62    2.27
 -12  -3  -2   26.61    5.53
 -12  -3  -2   17.99    9.42
 -12  -3  -2   18.10   15.10
  12  -3   2   16.12    8.43
 -12   3   2   17.00    6.45
 -12   3   2   20.41    5.17
  12   3  -2   14.18   10.74
 -12  -3  -2   17.66    7.29
 -12  -3   2   18.07    6.41
 -12  -3   2   20.74    7.00
  12   3   2   15.94    3.48
  12  -3  -2   21.44    7.22
 -12  -3   2   17.48   10.41
 -12  -3   2   23.05    6.27
  12   3   2    8.69    6.16
 -12   3  -2   25.65    5.97
 -12   3  -2   20.78   16.27
  12  -3  -2   19.50    7.99
  12  -3  -2   15.61    6.45
 -13   3   2  155.09   12.24
 -13   3   2  104.44   23.01
 -13  -3  -2  135.19   33.46
 -13  -3  -2  134.27   17.77
 -13  -3  -2  123.98   13.01
  13  -3   2  146.66   28.51
  13   3  -2  115.00   14.92
 -13  -3  -2  122.69   21.29
  13  -3  -2  146.15   12.64
 -13   3  -2  140.65    9.02
 -13  -3   2  118.70   10.22
  13  -3  -2  151.39   15.10
  13   3   2  125.41   12.06
 -13  -3   2  123.90   22.65
  13  -3  -2  157.22   25.25
  13   3   2  148.46   15.43
 -13  -3   2  110.82   23.05
 -13   3  -2  131.60   34.19
 -13  -3   2  133.72   10.81
 -14  -3  -2  243.12   14.11
 -14  -3  -2  238.61   29.24
 -14  -3  -2  216.77   13.85
 -14   3   2  227.36   35.33
 -14   3   2  225.93   17.04
  14  -3   2  209.22   17.33
 -14  -3  -2  248.06   33.97
  14   3  -2  226.73   20.96
  14  -3   2  209.22   25.47
 -14  -3  -2  235.97   45.77
  14   3   2  190.27   15.98
 -14  -3   2  192.76   12.72
 -14   3  -2  228.46   12.61
  14  -3  -2  221.42   14.51
 -14  -3   2  245.09   23.53
  14  -3  -2  259.28   21.88
  14   3   2  228.97   21.80
 -14   3  -2  206.73   44.23
  14  -3  -2  227.83   23.01
 -14  -3   2  198.88   30.93
 -14  -3   2  201.56   13.60
  15  -3   2   72.63   22.87
 -15  -3  -2   86.05   14.15
 -15   3   2   74.25   10.22
 -15  -3  -2   70.18   28.25
 -15  -3  -2   62.37   17.30
 -15   3   2   68.35   13.93
  15   3  -2   74.43   12.31
 -15  -3  -2   67.50   10.55
 -15   3  -2   76.74    9.64
  15  -3  -2   70.99    9.86
  15  -3  -2   78.94   12.97
 -15  -3   2   66.04   21.37
  15  -3  -2   92.46   14.26
  15   3   2   72.74   19.68
 -15  -3   2   67.87    7.81
 -15   3  -2   56.80   26.42
 -15  -3   2   65.38   13.27
 -15  -3   2   85.39   12.75
 -16   3   2    5.94    8.10
 -16   3   2    1.39    7.26
 -16  -3  -2    4.69   14.59
 -16  -3  -2   12.90    8.94
  16  -3   2   13.34    7.59
  16   3  -2    1.50   10.08
 -16  -3  -2    1.10    3.15
 -16  -3  -2    8.87    7.33
  16  -3  -2    6.27    3.92
  16  -3  -2    5.39   11.07
 -16  -3   2    0.11    7.22
  16   3   2    1.10    4.95
  16   3   2    3.74    9.38
 -16   3  -2   14.22   10.88
 -16   3  -2   24.85   21.44
 -16  -3   2    3.48    3.52
 -16  -3   2   -6.89   10.00
 -16  -3   2    7.00    4.18
 -17  -3  -2   65.71    7.40
 -17  -3  -2   55.81   17.48
 -17   3   2   60.87   17.22
 -17  -3  -2   61.02   24.15
  17  -3   2   41.19   16.64
  17  -3   2   53.32   22.61
  17   3  -2   65.82   20.52
 -17  -3  -2   16.31   25.91
 -17   3  -2   35.88   33.24
 -17  -3   2   51.64    7.81
 -17  -3   2   63.00   16.20
 -17  -3   2   46.80   20.38
  17  -3  -2   79.63   14.51
  17  -3  -2   68.60    7.81
 -17  -3   2   59.40   15.46
 -17   3  -2   50.10   21.55
  17   3   2   53.36   13.23
 -18   3   2   64.32   25.18
 -18  -3  -2   38.55   26.83
  18  -3   2   43.65   14.92
 -18  -3  -2   33.42   25.98
  18   3  -2   48.04   20.45
 -18  -3  -2   44.23   10.00
 -18  -3   2   50.65    8.03
  18  -3  -2   48.96   11.36
 -18   3  -2   37.31   21.44
  18  -3  -2   49.84   13.30
 -18  -3   2   54.13   13.63
  18   3   2   51.82   12.86
 -18   3  -2   49.80   33.75
 -19  -3  -2   11.25   20.71
 -19  -3  -2   31.48   14.26
  19  -3   2   19.83   12.13
  19   3  -2   18.32   11.25
 -19  -3  -2   19.61    6.34
 -19   3  -2   31.96   18.18
 -19   3  -2    8.03   26.42
  19  -3  -2   28.22    5.28
 -19  -3   2   10.77   10.85
  19  -3  -2   11.58   19.39
  19   3   2   23.42   16.56
 -20  -3  -2   -0.11   15.87
  20   3  -2   -5.24    7.66
  20  -3   2    2.79    8.61
 -20  -3  -2   -0.04    9.16
  20  -3  -2   -2.90    8.47
  20   3   2    7.22   11.36
 -20   3  -2   -5.17   11.91
  20  -3  -2    2.27    3.92
 -20   3  -2   13.23   18.10
 -20  -3   2    4.29   13.34
 -21  -3  -2    4.10   10.66
 -21  -3  -2   -0.51   12.06
  21  -3   2   -1.32    9.82
  21   3  -2    0.15    8.47
 -21   3  -2   11.98   19.94
 -21   3  -2   30.09   21.15
  21  -3  -2    4.07   14.37
  21   3   2   -4.51    8.47
 -21  -3   2   -8.65    9.64
  22  -3   2   -3.59    9.13
 -22  -3  -2    3.26   17.26
 -22  -3  -2   -2.27   12.02
  22   3  -2   -0.73   13.93
 -22   3  -2   -3.33   13.05
 -22  -3   2   -1.50   15.43
  22  -3  -2   -2.35    9.31
  22   3   2    1.39    8.76
 -22  -3   2    8.94   21.29
   0  -4   2 2041.09  119.32
   0  -4   2 2179.17  153.37
   0  -4  -2 2384.65  161.21
   0   4   2 1951.15  160.22
   0   4  -2 2131.57  137.32
   0  -4  -2 2194.34  126.80
   0   4  -2 2404.48  132.85
   0  -4  -2 2215.27  171.10
   0  -4  -2 2234.14  197.53
  -1  -4  -2   14.88    7.22
  -1  -4  -2   22.76    7.55
  -1   4   2   28.58    7.51
  -1   4   2   22.32    5.64
  -1  -4  -2   25.87    5.53
   1  -4   2   31.81    6.93
   1   4   2   18.51    2.49
  -1  -4   2   23.97    9.16
  -1  -4   2   26.57    2.60
   1   4   2   28.91    6.23
  -1   4  -2   15.46    4.62
  -2   4   2   13.16    6.93
  -2  -4  -2   14.55   10.00
  -2  -4  -2   11.07   10.44
  -2  -4  -2   10.77    3.33
  -2  -4  -2   14.44    7.11
  -2   4   2   21.91    5.24
   2   4  -2   14.66    5.09
   2  -4   2   19.61    9.53
   2   4   2   12.53    5.35
  -2  -4   2   15.68    3.81
  -2  -4   2   16.60    4.58
  -2   4  -2   13.49    6.63
   2   4   2    9.53    9.89
   2   4   2    7.33    3.22
   2  -4  -2    7.88    4.65
   2  -4  -2   13.74    3.22
   2  -4  -2   15.36    8.28
  -3  -4  -2   71.06   10.70
  -3  -4  -2   60.94    4.84
  -3  -4  -2   68.57    8.25
  -3   4   2   74.87   15.25
   3   4  -2   57.79    9.42
  -3   4   2   77.54   20.01
  -3   4  -2   63.07    8.76
   3   4   2   67.69    6.19
   3   4   2   65.38   15.14
   3  -4  -2   73.51    8.14
   3   4   2   67.03   10.66
  -3   4  -2   63.66   10.55
  -3  -4   2   71.42   11.91
   3  -4  -2   62.34   12.57
  -4   4   2   88.65   19.35
  -4  -4  -2   59.99    4.91
  -4  -4  -2   60.21    7.55
   4   4  -2   63.80   12.20
   4  -4  -2   47.16    7.40
   4  -4  -2   52.84   10.11
   4   4   2   60.58   11.36
  -4  -4   2   63.11    3.48
   4   4   2   57.50   10.66
  -4  -4   2   58.64    3.66
  -4  -4   2   66.44    7.18
   4   4   2   61.79    7.22
  -4   4  -2   77.65   11.18
  -4   4  -2   60.28    6.63
  -4  -4   2   53.28    6.60
   5  -4   2   12.97   13.93
  -5  -4  -2   15.57    5.20
  -5  -4  -2   10.41    3.33
   5   4  -2   23.20    7.95
   5   4   2   17.15    7.51
  -5  -4   2    8.03    3.52
  -5  -4   2   15.65    2.90
   5   4   2   12.06    3.19
   5  -4  -2   15.32    4.32
  -5  -4   2    8.69    7.44
   5  -4  -2   18.03    6.34
   5   4   2   20.12    5.42
  -5   4  -2    9.71   10.88
   5   4   2   22.50   11.32
  -6  -4  -2    5.72    3.41
   6   4  -2    3.19    4.40
  -6  -4  -2    5.75    4.25
   6  -4   2   13.63    7.15
   6  -4   2    7.55    3.30
  -6  -4  -2   14.88   10.74
   6  -4  -2    9.38    6.34
   6   4   2    6.19    4.40
  -6   4  -2   10.81    4.98
  -6  -4   2    5.42    3.59
  -6  -4   2    9.38    7.51
  -6  -4   2   10.30    4.40
   6  -4  -2    7.92    3.48
   6   4   2   10.30    5.09
  -6   4  -2   -7.77   19.28
   6   4   2   14.18   13.96
   6   4   2   -4.10   10.77
  -7  -4  -2   32.18    6.96
  -7  -4  -2   35.18    6.52
  -7  -4  -2   27.82    8.50
  -7  -4  -2   37.60   10.08
   7   4  -2   32.40    6.52
   7  -4   2   29.50   10.52
   7  -4   2   37.75    2.97
  -7  -4   2   30.05    3.77
   7  -4  -2   32.98    4.98
  -7   4  -2   31.88    4.51
   7  -4  -2   22.90   10.22
  -7  -4   2   30.27    6.60
  -7  -4   2   33.64   10.04
   7   4   2   28.73    9.42
   7   4   2   34.92    5.24
   7   4   2   37.75    4.21
   7  -4  -2   31.99    5.90
   8  -4   2   10.22    1.06
  -8   4   2   16.56   10.08
   8  -4   2   12.09    7.73
  -8  -4  -2    6.12    4.87
  -8  -4  -2   10.00    7.07
   8   4  -2   11.91    7.88
  -8  -4  -2   14.18    8.21
  -8  -4  -2    7.62    6.93
   8  -4   2   13.19    3.33
  -8  -4   2   14.95    5.50
   8  -4  -2   15.54    2.97
  -8  -4   2   10.37    4.58
   8   4   2    9.75    4.43
   8  -4  -2   10.26    5.02
  -8  -4   2   17.00    7.33
   8   4   2    7.29    6.38
   8  -4  -2   11.07    3.96
   8  -4  -2   11.43    3.70
  -8  -4   2   10.15    4.43
   9  -4   2   15.68    3.96
  -9   4   2   10.88    7.33
  -9  -4  -2   10.15    6.12
  -9  -4  -2   14.55    8.54
   9  -4   2   13.78    7.59
  -9  -4  -2   13.45    7.84
   9   4  -2   13.82    5.64
   9  -4   2   11.84    1.06
   9  -4  -2   14.73    5.61
  -9  -4   2   15.46    3.11
   9   4   2   11.07    2.90
  -9  -4   2   15.06    8.21
   9  -4  -2   15.72    8.58
  -9  -4   2   13.82    6.49
  -9  -4   2   15.32    3.15
   9   4   2   14.99    7.26
  -9   4  -2    8.83    3.22
   9  -4  -2    9.34    6.49
  10  -4   2   75.49    7.18
 -10  -4  -2   66.00    9.45
  10   4  -2   80.62   10.48
 -10  -4  -2   76.67   11.21
 -10  -4  -2   60.06    3.66
  10  -4   2   53.65   23.31
 -10  -4  -2   74.06   19.13
 -10   4   2   59.99   11.43
 -10  -4   2   66.48    8.80
  10   4   2   79.74    8.43
 -10   4  -2   64.61    9.13
  10  -4  -2   68.20    6.63
  10  -4  -2   84.03   10.37
 -10  -4   2   66.92    7.99
  10   4   2   64.06    8.06
 -10  -4   2   66.33   14.92
 -10  -4   2   61.75    8.94
  10  -4  -2   64.65    7.70
  11  -4   2    0.55    2.02
 -11   4   2   -1.72    5.28
 -11  -4  -2   -2.68    7.99
 -11  -4  -2    6.56    6.78
 -11  -4  -2    4.47    5.75
  11  -4   2   -2.57    6.82
  11   4  -2    0.51    7.18
 -11  -4  -2    0.37    2.16
  11  -4  -2    2.71    3.66
 -11  -4   2    3.44    2.75
  11   4   2    2.82    2.09
 -11  -4   2    1.39    4.10
  11  -4  -2   -6.30    6.89
 -11  -4   2   -1.61    2.57
  11   4   2    2.49    3.81
  11  -4  -2   -1.43    2.93
 -11   4  -2    2.42    4.25
 -12  -4  -2  308.35   21.33
 -12  -4  -2  309.37   28.40
 -12  -4  -2  278.41   28.80
  12  -4   2  301.42   15.25
  12  -4   2  296.18   30.82
  12   4  -2  293.54   34.34
 -12  -4  -2  264.81   39.14
 -12   4   2  277.09   29.35
 -12  -4   2  263.01   21.77
 -12  -4   2  273.02   23.38
 -12   4  -2  294.46   18.03
  12  -4  -2  294.35   26.97
 -12  -4   2  257.96   23.05
  12  -4  -2  336.13   27.27
  12   4   2  308.16   22.79
  12   4   2  250.23   16.12
  12  -4  -2  287.17   17.15
 -12  -4   2  318.06   25.62
 -13  -4  -2   18.73   11.87
 -13  -4  -2    9.09    3.52
 -13  -4  -2    9.38    2.35
 -13  -4  -2    5.79    8.14
  13   4  -2    7.95    6.45
  13  -4   2   13.05   13.56
 -13  -4  -2   13.12    7.59
 -13   4   2   19.13    8.39
 -13  -4   2   15.10    4.10
  13  -4  -2   14.26    5.06
 -13  -4   2   14.66   10.22
 -13   4  -2   13.16    3.55
 -13  -4   2   12.24    5.68
  13  -4  -2    9.16   11.21
 -13  -4   2   15.39    3.74
  13   4   2   13.30    5.20
  13   4   2    8.06    5.61
 -13   4  -2    7.07   21.66
  13  -4  -2   14.07    6.16
 -14  -4  -2   37.42   10.52
 -14   4   2   29.35   12.42
 -14  -4  -2   36.17    9.93
 -14  -4  -2   29.54    3.26
 -14  -4  -2   44.49   11.47
  14  -4   2   28.22   12.13
  14   4  -2   36.13    9.05
 -14  -4  -2   39.51    5.24
 -14  -4   2   41.26    9.05
  14  -4  -2   45.48    7.37
  14   4   2   36.57   12.46
  14  -4  -2   36.32    5.53
 -14  -4   2   34.45    8.98
 -14  -4   2   41.96   12.61
 -14   4  -2   34.52    4.43
  14  -4  -2   38.59   10.30
 -14   4  -2   35.07   18.84
  14   4   2   32.47    4.54
 -14  -4   2   37.20    8.21
 -15  -4  -2  183.86   18.47
  15  -4   2  181.59   25.14
  15  -4   2  163.70   24.85
 -15   4   2  214.64   29.32
 -15  -4  -2  197.78   23.01
 -15  -4  -2  159.19   25.10
  15   4  -2  183.31   21.55
 -15  -4  -2  157.51   24.37
  15  -4  -2  200.68   24.08
 -15  -4   2  170.19   12.83
  15  -4  -2  214.93   15.32
 -15  -4   2  173.63   23.05
 -15   4  -2  163.04   16.86
 -15  -4   2  152.05   28.47
  15  -4  -2  226.48   35.69
  15   4   2  201.56   28.44
 -15   4  -2  171.87   39.32
 -15  -4   2  169.82   13.93
 -16  -4  -2    3.19    4.98
 -16  -4  -2    6.05   10.33
 -16  -4  -2    1.47    7.51
  16  -4   2    0.99   11.58
  16   4  -2   -0.62    5.86
 -16  -4  -2    6.82    6.93
  16  -4  -2    6.27    4.29
 -16  -4   2    0.04    4.69
  16  -4  -2    6.30    5.72
 -16  -4   2    4.69   10.33
 -16  -4   2   10.19   10.30
 -16   4  -2   -0.73    4.32
  16  -4  -2    1.50    6.41
  16   4   2   -0.37    8.25
 -16  -4   2   -1.36    5.53
 -17   4   2  153.88   26.57
 -17  -4  -2  138.60   20.12
 -17  -4  -2   85.97   21.29
  17   4  -2  109.79   18.69
 -17  -4  -2  115.77   23.97
  17  -4   2  118.11   22.43
 -17  -4  -2  102.54    9.97
 -17  -4   2  103.09   10.77
 -17  -4   2  122.11   20.49
  17  -4  -2  134.24   11.80
  17   4   2  105.10   17.48
  17  -4  -2  132.52   20.74
 -17   4  -2   45.26   45.99
 -17   4  -2   86.12   53.32
 -17  -4   2  120.68   12.31
 -17  -4   2  102.76   21.15
 -18   4   2   25.91   26.53
 -18  -4  -2   33.39    9.82
 -18  -4  -2   49.22   15.76
  18  -4   2   26.61   19.94
  18   4  -2   31.85   18.21
 -18  -4  -2   23.93   21.88
  18  -4  -2   37.16    6.05
  18  -4  -2   21.26   18.07
 -18   4  -2   47.93   20.34
  18   4   2   32.58   10.99
 -18   4  -2   16.71   29.79
 -18  -4   2   33.46   13.78
 -18  -4   2   36.98   27.41
 -19  -4  -2   16.31   21.55
 -19  -4  -2   29.24   14.66
  19  -4   2   25.98   13.05
  19   4  -2   38.00   17.85
  19  -4  -2   29.39    8.58
  19  -4  -2   20.30   11.73
 -19   4  -2   27.89   20.27
  19   4   2   30.64   10.66
 -19  -4   2    9.24   16.49
 -19   4  -2   10.19   17.70
 -19  -4   2   14.70   18.47
 -20  -4  -2    0.22   14.55
 -20  -4  -2    2.02   16.97
  20   4  -2    2.20   12.94
  20  -4   2   -1.36   14.88
 -20   4  -2   15.17   20.82
  20  -4  -2    3.30    4.18
 -20  -4   2    1.91   13.08
  20  -4  -2   -5.09   12.28
 -20  -4   2   17.48   17.88
  20   4   2    1.28   12.09
 -21  -4  -2    9.78   19.72
  21  -4   2   69.34   18.95
 -21  -4  -2    3.19   35.11
  21   4  -2   12.09   17.77
 -21  -4   2   62.96   19.68
 -21  -4   2   44.86   16.97
 -21   4  -2   88.36   26.64
  21  -4  -2   56.03   18.40
 -21   4  -2   79.93   40.24
  22  -4   2   42.44   15.61
 -22  -4  -2    1.36   19.42
 -22  -4  -2    3.30   16.67
  22   4  -2    1.25   14.88
 -22   4  -2   48.89   20.38
 -22   4  -2   72.23   32.58
 -22  -4   2   26.46   26.72
 -22  -4   2   42.80   22.54
  22  -4  -2   71.79   24.44
  22   4   2    1.28   13.93
   0  -5  -2    1.39    2.90
   0   5  -2    3.37    2.42
   0   5   2   -1.94    3.85
   0   5  -2    2.35    1.58
   0  -5   2    3.74    4.21
   0  -5  -2    1.03    5.39
   1  -5   2   46.61    9.20
  -1   5   2   40.06    9.82
  -1  -5  -2   41.59    5.46
  -1  -5  -2   42.03   14.99
  -1   5   2   39.43   11.32
  -1  -5  -2   44.38   10.11
   1   5   2   29.61    7.81
   1  -5  -2   36.28    5.35
  -1  -5   2   37.01   12.28
  -2   5   2  561.98   43.21
  -2  -5  -2  489.53   37.89
  -2  -5  -2  501.51   37.16
  -2   5   2  540.10   34.15
   2   5  -2  458.71   32.95
  -2  -5  -2  556.41   31.96
  -2  -5   2  506.17   32.95
   2   5   2  461.35   27.82
  -2   5  -2  532.85   41.48
  -2  -5   2  450.87   20.96
   2  -5  -2  495.32   43.43
   2   5   2  458.97   31.44
   2  -5  -2  564.58   25.91
   2   5   2  464.83   39.21
   2  -5  -2  404.14   43.57
  -3   5   2   68.57    9.27
  -3  -5  -2   56.73    9.75
  -3  -5  -2   66.51   12.39
  -3   5   2   55.04   12.53
  -3  -5  -2   51.45    7.22
  -3  -5  -2   49.84    7.04
   3   5  -2   51.09   13.30
  -3  -5   2   55.37    4.51
   3   5   2   68.05    9.16
   3  -5  -2   50.17   13.38
   3  -5  -2   36.39   10.44
  -3  -5   2   45.92    8.36
   3   5   2   61.86   17.22
   3   5   2   42.36    6.19
  -3   5  -2   39.47   14.55
  -4  -5  -2   46.58    9.75
  -4   5   2   63.22    9.27
  -4   5   2   58.53   12.94
  -4  -5  -2   41.56    7.15
  -4  -5  -2   37.01   11.58
   4   5  -2   47.75   13.16
   4   5   2   57.87   16.09
   4  -5  -2   37.34   11.95
   4  -5  -2   55.34    9.60
   4   5   2   50.83   10.48
  -4   5  -2   33.97   19.83
   4   5   2   52.15    6.74
  -4  -5   2   47.20    3.88
  -4  -5   2   51.05   12.61
   5  -5   2   -2.20    8.03
   5   5  -2    4.51    5.90
  -5  -5  -2    5.53    3.33
  -5  -5  -2   -0.51    3.96
  -5   5   2   -3.15    6.49
   5  -5  -2   -0.51    3.55
  -5  -5   2    2.35    2.16
   5   5   2    3.08    5.31
  -5  -5   2    0.81    3.88
   5  -5  -2   -0.37    3.41
  -5  -5   2    1.91    1.03
  -5   5  -2    0.77   13.38
   5   5   2    3.37    3.74
   5   5   2   -0.26    5.53
   6  -5   2   18.80   10.48
  -6  -5  -2   25.51    5.90
  -6  -5  -2   17.92    6.78
   6   5  -2   23.49    5.64
   6  -5  -2   22.24    5.28
   6  -5  -2   15.03    6.60
   6   5   2   22.54    7.84
   6   5   2   27.74    6.78
   6   5   2   15.83    9.34
  -6  -5   2   21.37    5.28
  -6  -5   2   19.42    5.53
   7  -5   2    5.02    1.43
   7   5  -2    0.70    4.58
  -7  -5  -2    5.97    3.88
  -7  -5  -2    7.55    6.67
   7  -5   2    8.21    3.48
   7  -5   2   -1.83    7.84
   7  -5  -2    2.93    4.65
   7  -5  -2    7.51    3.74
  -7  -5   2    5.46    4.25
   7   5   2    7.07    2.75
  -7  -5   2   10.04    4.73
   7   5   2    3.70    3.59
   7   5   2   11.36    5.97
   7   5   2   13.89   12.86
  -7  -5   2    6.19    2.64
  -8  -5  -2   49.40    6.93
   8   5  -2   40.38   13.05
  -8  -5  -2   39.51   17.92
   8  -5   2   40.60    3.77
  -8  -5  -2   47.79    7.44
   8  -5   2   32.18   12.35
   8  -5  -2   46.43    6.12
   8   5   2   42.69    7.33
   8  -5  -2   46.98    8.17
  -8  -5   2   48.78    7.29
   8   5   2   42.51   10.37
  -8  -5   2   42.95    6.96
  -8   5  -2   35.11    5.35
   8   5   2   43.79    9.67
  -8  -5   2   50.10    7.62
   8  -5  -2   43.72    7.29
  -9  -5  -2    6.49    3.85
  -9  -5  -2    2.68    4.29
   9  -5   2    1.17    1.43
  -9  -5  -2    5.94    6.27
   9   5  -2    5.35    4.54
   9  -5   2    0.29    6.74
   9  -5   2    2.13    2.02
  -9  -5  -2    0.81    6.56
  -9  -5   2    5.50    2.60
   9  -5  -2    7.29    7.26
   9   5   2    6.45    2.46
  -9  -5   2   -0.73    2.82
   9  -5  -2    3.15    5.17
  -9  -5   2   -0.11    4.18
   9   5   2    3.85    3.74
  -9  -5   2    0.59    2.53
   9  -5  -2    4.47    3.70
  10  -5   2  134.64    8.21
 -10  -5  -2  116.28   13.85
  10  -5   2  116.17   20.96
 -10  -5  -2  140.25   13.52
  10   5  -2  131.78   15.03
 -10  -5  -2  152.16   31.52
 -10  -5   2  134.64   13.19
 -10  -5   2  146.37   14.66
  10   5   2  127.82   11.73
 -10  -5   2  118.33   12.64
  10  -5  -2  108.66   12.94
  10  -5  -2  153.04   15.10
  10  -5  -2  148.24   16.27
 -10  -5   2  143.80   15.98
  10   5   2  149.15   12.42
  10  -5  -2  149.30   18.47
 -11  -5  -2   43.02   12.97
  11  -5   2   38.04    4.32
 -11  -5  -2   40.60   13.41
  11  -5   2   50.06   20.23
 -11  -5  -2   33.97    5.06
 -11  -5  -2   45.74   16.82
  11   5  -2   21.33   12.94
 -11  -5   2   45.30    6.52
 -11  -5   2   34.59    5.09
 -11   5  -2   42.47    5.24
  11   5   2   38.11    4.29
  11  -5  -2   41.78    5.68
  11  -5  -2   32.51   13.93
 -11  -5   2   34.30   12.83
 -11  -5   2   38.88    5.35
  11   5   2   34.74   10.66
  12  -5   2   71.57    7.92
 -12  -5  -2   74.83   17.04
 -12  -5  -2   77.22   11.03
  12  -5   2   71.31   26.02
 -12  -5  -2   72.56   13.82
  12   5  -2   60.76   10.63
  12  -5  -2   72.12    8.94
 -12   5  -2   56.44    6.60
 -12  -5   2   52.55    6.27
  12  -5  -2   66.44    7.07
  12   5   2   62.04    6.19
  12  -5  -2   43.50   12.35
 -12  -5   2   65.05   10.30
 -12  -5   2   67.28   10.33
 -12  -5   2   57.06    8.80
  12   5   2   74.61   13.78
  13  -5   2    2.90    3.63
 -13  -5  -2   -1.50    4.32
 -13  -5  -2   -0.15    3.11
 -13  -5  -2    5.57    5.50
 -13  -5  -2   -3.08    9.86
  13  -5   2    0.07    7.26
  13   5  -2    5.72    5.39
 -13  -5  -2    0.22    7.11
  13  -5  -2   10.63    6.78
 -13  -5   2    0.04    3.19
 -13  -5   2    2.42    4.21
  13  -5  -2    2.86    4.73
 -13  -5   2    2.35    2.93
 -13  -5   2    9.53    5.42
  13  -5  -2    2.16    5.39
 -13   5  -2    1.98    3.04
  13   5   2   13.34    6.82
  13   5   2   -2.46    4.43
 -14  -5  -2  111.70    8.98
  14   5  -2  104.08   15.10
 -14  -5  -2  112.32   16.42
  14  -5   2   90.59   29.32
 -14  -5  -2  126.32   19.13
 -14  -5  -2  113.57   15.50
  14  -5  -2  118.74   15.98
  14   5   2  101.62   19.13
 -14   5  -2   16.60   42.58
 -14  -5   2   86.23   14.22
 -14  -5   2   91.58    9.78
  14  -5  -2  109.28   11.76
  14  -5  -2  109.24   14.59
  14   5   2   94.62   11.51
 -14   5  -2   85.86    8.39
 -14  -5   2  105.51    9.16
 -14  -5   2   97.70   22.21
 -15  -5  -2   -0.73    2.97
 -15  -5  -2    3.74    8.94
 -15  -5  -2    1.47    1.83
  15   5  -2   -1.28    5.61
 -15  -5  -2   -2.09    7.00
  15  -5   2   -1.76    6.71
 -15  -5  -2   -4.03    5.53
 -15  -5   2   -3.70    5.46
 -15  -5   2    1.28    3.08
  15   5   2    0.07    2.35
 -15   5  -2   -0.99    4.43
 -15  -5   2    5.13    5.39
  15   5   2   -3.66    7.18
  15  -5  -2    2.31    3.30
 -15  -5   2   10.66   10.11
 -15  -5   2    1.65    3.41
  15  -5  -2    1.94    4.25
 -16  -5  -2    1.32    5.20
 -16  -5  -2   -5.57    6.19
  16  -5   2    7.00    6.49
 -16  -5  -2    3.70    6.49
  16  -5   2   -0.22    6.96
 -16  -5  -2    0.26    7.70
  16   5  -2    3.26    5.86
 -16  -5   2   -5.13    7.70
 -16   5  -2   18.80   11.62
 -16  -5   2    3.66    3.11
  16  -5  -2   -3.92    6.41
 -16   5  -2    3.30    4.40
  16   5   2   -0.33    4.10
  16   5   2   -3.77    8.28
 -16  -5   2   10.00    6.38
 -16  -5   2    4.40    5.94
 -16  -5   2    0.73    3.59
  16  -5  -2   -1.80    3.44
 -17  -5  -2   40.31    6.38
 -17  -5  -2   21.62   12.17
  17   5  -2   32.62   11.95
  17  -5   2   23.05   21.37
 -17  -5  -2   50.39   14.59
 -17  -5  -2   26.46   19.13
  17  -5  -2   43.13    8.14
 -17  -5   2   29.79    6.01
  17  -5  -2   17.04   10.59
 -17  -5   2   41.52   11.87
  17   5   2   43.06   10.52
 -17  -5   2   17.92   23.05
  17  -5  -2   46.47   17.52
 -17   5  -2   14.29   22.06
  18  -5   2   11.73    8.21
 -18  -5  -2    0.15    9.24
  18   5  -2   -6.01    7.22
 -18  -5  -2    2.05    3.59
 -18  -5   2    9.27   11.10
  18  -5  -2    1.14    3.41
 -18  -5   2   -1.43   12.39
  18  -5  -2    2.13    6.74
 -18   5  -2   -4.14   21.59
 -19  -5  -2    7.48   12.61
  19   5  -2   23.67   11.73
  19  -5   2   15.94   19.94
 -19  -5  -2   18.03   15.25
  19  -5  -2   23.12    5.31
 -19  -5   2   19.13   15.50
 -19   5  -2   17.66   18.40
  19   5   2   25.21   10.77
  19  -5  -2   26.39   17.04
 -19  -5   2   33.17   11.69
 -19   5  -2   23.01   19.02
 -20  -5  -2    1.54   18.95
 -20  -5  -2    2.82   14.62
  20  -5   2   33.42   12.46
  20   5  -2    3.22   17.30
  20  -5  -2   19.09    8.83
 -20   5  -2    1.91   18.54
 -20  -5   2   22.54   10.04
  20  -5  -2   18.10   11.18
  20   5   2    1.43   15.98
 -20   5  -2   11.73   17.92
 -20  -5   2   13.12   18.25
 -21  -5  -2   -2.24   11.58
  21  -5   2    2.49   10.04
  21   5  -2   -2.16   13.67
 -21  -5  -2   -1.47   16.78
 -21  -5   2    9.38    7.26
  21  -5  -2   -3.33   13.34
 -21   5  -2  -10.04   20.41
  21  -5  -2    0.33    5.72
 -21   5  -2   -6.16   13.71
  21   5   2   -1.98   12.75
  22  -5   2    1.32   10.41
  22   5  -2   -4.58   13.96
 -22  -5  -2    0.73   19.24
 -22   5  -2   48.85   19.35
  22  -5  -2   -0.48    3.41
 -22  -5   2   21.91   11.10
 -22   5  -2   14.44   13.34
  22   5   2    0.26    8.17
   0   6  -2  601.01   35.00
   0  -6  -2  549.96   28.36
   0   6   2  581.22   36.68
   0  -6   2  716.04   64.21
  -1   6   2   31.19   15.57
   1   6  -2   26.97    5.17
  -1  -6  -2   29.35    3.81
  -1   6   2   36.43   11.07
  -1  -6  -2   35.44    9.20
   1  -6   2   35.11    9.75
   1   6   2   34.56   11.54
  -1   6  -2   34.74    6.78
   1  -6  -2   30.01    3.96
  -2  -6  -2  132.66   16.01
   2   6  -2  122.03    7.77
  -2  -6  -2  132.04   12.46
  -2   6   2  166.89   28.18
  -2   6   2  156.01   19.57
  -2  -6  -2  157.44   16.16
   2   6  -2  120.90   20.12
  -2   6  -2  129.69   16.67
   2   6   2  126.25   13.01
  -2  -6   2  149.34   14.51
   2  -6  -2  134.27    7.92
   2   6   2  126.14   12.20
   2   6   2  130.17   17.63
   3  -6   2   -0.66    5.20
   3   6  -2    3.15    7.62
  -3   6   2   12.02   10.08
  -3  -6  -2    4.32    2.97
  -3  -6  -2    6.23    5.46
  -3  -6  -2    1.47    3.52
  -3   6   2    1.28    7.73
   3   6   2    8.47    4.51
   3  -6  -2    2.82    4.47
   3  -6  -2    4.65    2.86
   3   6   2    6.96    6.41
  -3  -6   2    3.99    5.06
  -3   6  -2    9.60    5.13
   3   6   2    0.59    2.79
   3  -6  -2    3.74    4.80
  -4  -6  -2  170.70   18.36
  -4  -6  -2  176.24   32.21
  -4   6   2  207.97   31.66
  -4   6   2  210.50   26.83
  -4  -6  -2  170.63   15.65
  -4  -6  -2  172.86   12.57
   4   6  -2  144.50   24.33
   4   6   2  161.87   14.51
   4   6   2  196.98   27.71
   4  -6  -2  146.11   20.12
  -4  -6   2  167.55   14.00
   4  -6  -2  134.46   15.03
   4   6   2  144.65   25.84
  -4   6  -2  166.67   24.63
  -5  -6  -2   59.88   16.38
  -5   6   2   65.16   14.66
   5  -6   2   37.60   25.25
  -5  -6  -2   52.44    9.31
  -5  -6  -2   49.36    7.29
  -5   6   2   53.72   12.79
  -5  -6  -2   35.73   11.62
   5   6  -2   44.05   14.55
   5   6   2   48.04   10.66
   5  -6  -2   45.66    7.84
   5   6   2   47.13   16.49
   5   6   2   51.12    8.28
  -5  -6   2   44.34    5.24
  -5  -6   2   45.48    4.54
  -5  -6   2   52.62   12.13
   5  -6  -2   41.37   12.17
  -6  -6  -2  221.49   32.36
   6  -6   2  160.77   39.62
  -6  -6  -2  194.23   21.26
  -6  -6  -2  236.45   21.66
   6   6  -2  207.24   17.11
   6  -6  -2  198.33   23.78
  -6  -6   2  184.96   12.46
   6   6   2  205.19   33.61
  -6  -6   2  199.25   23.67
   6  -6  -2  199.14   17.85
   6   6   2  199.98   18.47
   6   6   2  221.97   25.18
   7  -6   2   39.69   21.73
  -7  -6  -2   40.90   11.36
  -7  -6  -2   46.58   11.25
   7   6  -2   56.00    8.83
   7  -6  -2   54.42    9.49
  -7  -6   2   46.58    6.49
  -7  -6   2   56.03    7.70
   7  -6  -2   50.87    8.03
  -7   6  -2   53.32   10.66
  -7  -6   2   52.95   12.61
   7   6   2   45.74   10.63
   7   6   2   57.10   17.77
   7   6   2   37.34   14.29
   8   6  -2   18.62   10.37
   8  -6   2   14.70    3.77
   8  -6   2   20.16   15.65
  -8  -6  -2   21.44    6.34
  -8  -6  -2   21.04    6.16
   8  -6   2   20.85    5.31
   8  -6  -2   20.67    5.42
   8   6   2   25.87   14.22
   8   6   2   22.83    5.75
  -8  -6   2   21.59    3.88
   8   6   2   19.86    4.14
  -8  -6   2   32.73   10.52
  -8  -6   2   20.08    4.65
   8  -6  -2   20.34    6.63
   9  -6   2  214.13   42.62
  -9  -6  -2  207.20   24.70
   9   6  -2  224.17   21.33
   9  -6   2  196.68   12.57
  -9  -6  -2  238.79   27.78
  -9  -6   2  211.45   17.92
   9  -6  -2  226.66   16.67
  -9  -6   2  209.88   26.57
   9   6   2  235.75   41.52
   9  -6  -2  213.03   29.87
  -9   6  -2  189.43   14.33
   9   6   2  266.83   27.12
   9  -6  -2  230.91   19.79
  -9  -6   2  246.60   22.61
  10  -6   2  147.10   23.23
 -10  -6  -2  136.69   13.93
 -10  -6  -2  155.31   14.73
 -10  -6  -2  177.04   23.27
  10   6  -2  161.28   16.71
  10  -6   2  147.43    9.02
 -10  -6   2  149.85   10.33
  10  -6  -2  173.89   25.65
  10  -6  -2  146.11   17.63
 -10  -6   2  134.42   10.19
 -10  -6   2  184.63   19.61
  10   6   2  173.01   14.33
 -10  -6   2  154.03   15.61
  10  -6  -2  152.85   13.67
 -11  -6  -2   18.58    3.08
  11  -6   2   20.12    3.74
 -11  -6  -2   20.60    7.77
 -11  -6  -2   14.70    9.05
 -11  -6  -2   14.29    9.71
  11   6  -2   18.18   11.18
 -11  -6  -2   28.51   15.83
  11  -6   2   25.87   10.99
 -11  -6   2   23.56    6.01
 -11  -6   2   22.24    6.67
  11  -6  -2   22.79    8.03
  11  -6  -2   24.08    8.65
  11   6   2    9.20    6.05
  11  -6  -2   28.36    7.62
 -11  -6   2   17.81    7.11
  11   6   2   18.95    5.97
 -12  -6  -2  119.07   17.96
 -12  -6  -2   83.12   17.08
  12   6  -2   92.13   13.05
  12  -6   2   81.58    6.96
 -12  -6  -2  100.93   19.09
  12  -6   2   86.56   19.35
  12  -6  -2   89.49   10.00
  12  -6  -2   84.91    8.54
 -12  -6   2   86.52    8.17
  12  -6  -2   85.86   21.44
 -12  -6   2   80.84   11.65
 -12   6  -2   79.05    7.84
  12   6   2   73.04    7.55
  12   6   2  103.01   11.10
 -12  -6   2   99.79   11.51
 -13  -6  -2   96.38   13.60
  13  -6   2   81.17   10.19
 -13  -6  -2   99.64   13.56
  13  -6   2  115.03   32.21
  13   6  -2   95.39   14.15
 -13  -6  -2   97.15   19.20
  13  -6  -2   88.21   11.18
 -13  -6   2   81.69   12.83
 -13   6  -2   79.27    8.17
 -13  -6   2   76.56   12.17
  13   6   2   77.43    8.25
  13  -6  -2   96.86   15.17
 -13  -6   2   86.89   18.40
 -13  -6   2   94.00   17.48
  13  -6  -2   82.31    9.02
  13   6   2   86.67   11.65
 -14  -6  -2    5.09    2.71
 -14  -6  -2   -0.51    5.39
  14  -6   2   -1.94    9.60
  14  -6   2    6.49    6.01
 -14  -6  -2    6.08    6.56
 -14  -6  -2   -0.59   10.26
  14   6  -2   13.34    6.78
 -14  -6  -2   11.29    9.27
  14  -6  -2   16.89    8.10
 -14  -6   2    9.27    4.14
 -14   6  -2    1.65    3.66
  14  -6  -2   12.64   10.88
  14   6   2    5.57    5.09
  14  -6  -2   10.81    6.34
 -14  -6   2   11.65    3.74
 -14  -6   2   17.55    6.23
  14   6   2    1.03    8.80
 -14  -6   2    7.48    8.80
 -14  -6   2    8.54    5.50
 -15  -6  -2   42.88    5.94
 -15  -6  -2   44.86   14.51
 -15  -6  -2   44.12   10.19
 -15  -6  -2   36.46   12.31
 -15  -6  -2   29.21    4.32
  15  -6   2   39.73   13.78
  15  -6   2   45.96    6.34
  15   6  -2   36.39   11.03
 -15  -6   2   35.88   10.59
  15  -6  -2   42.00    8.61
 -15  -6   2   31.96    9.82
 -15  -6   2   20.12    9.05
  15  -6  -2   42.47   10.15
 -15   6  -2   21.73    6.52
 -15  -6   2   43.94   10.11
  15  -6  -2   35.55   11.03
 -15  -6   2   25.32   14.18
  15   6   2   33.68   13.93
 -15   6  -2   24.77   31.74
 -16  -6  -2   30.89    6.08
  16  -6   2   25.03   21.29
  16   6  -2   28.58   10.63
 -16  -6  -2   27.82   18.69
 -16  -6  -2   31.11   10.08
 -16  -6  -2   37.97   14.11
 -16  -6   2   28.95    7.04
  16   6   2   22.57    5.46
 -16   6  -2   24.63    8.03
 -16  -6   2   27.85    6.08
 -16  -6   2   43.98   15.43
  16  -6  -2   40.86   18.03
 -16  -6   2   21.80   14.00
  16   6   2   38.77    9.34
 -16   6  -2   10.81   20.74
 -17  -6  -2    5.79    6.45
 -17  -6  -2   -0.66    6.52
  17  -6   2    8.87    8.80
  17   6  -2    7.04    6.96
 -17  -6  -2    6.85    9.56
  17  -6  -2   -1.61    8.28
  17  -6  -2    3.37    3.70
  17   6   2    7.04    4.95
  17  -6  -2    6.16    7.62
 -17   6  -2   -7.84   14.33
 -17  -6   2    8.54   10.19
  17   6   2   -6.16    6.38
 -18  -6  -2    0.07    6.85
  18   6  -2    4.51    7.62
  18  -6   2    2.97   14.66
 -18  -6  -2   -6.05   10.26
  18  -6  -2    0.59    5.94
  18  -6  -2    7.95    5.68
 -18   6  -2    5.02   23.78
  18  -6  -2   -6.96   11.51
  18   6   2    4.98    6.71
 -18  -6   2    8.47   10.41
 -19  -6  -2    0.51    7.18
  19   6  -2    3.59    8.10
 -19  -6  -2    4.25   10.92
  19  -6  -2    9.89    8.28
  19   6   2    0.04    7.48
 -19   6  -2  -17.81   20.49
 -20  -6  -2    9.38    7.66
  20   6  -2    2.20    8.94
 -20  -6  -2    0.04   12.02
  20  -6  -2  -10.77   13.19
 -20   6  -2    1.14   13.85
  20   6   2   -0.11    8.06
  20  -6  -2    4.54    4.03
 -20   6  -2   -8.91   14.26
 -21  -6  -2    6.67   14.95
  21  -6   2   30.78   21.62
  21   6  -2    0.55   11.76
 -21  -6  -2    1.69   16.64
  21  -6  -2   15.57    5.17
 -21   6  -2   20.12   18.80
  21  -6  -2   22.35   12.42
  21   6   2   -0.07   16.97
 -21   6  -2   14.44   18.84
   0   7  -2    0.66    3.44
   0   7   2   -0.88    5.31
   0  -7  -2   -0.15    2.35
   0  -7   2    4.80    4.40
  -1   7   2  135.89   16.56
  -1   7   2  133.80   13.52
  -1  -7  -2  107.67   12.94
  -1  -7  -2  142.70   17.44
   1   7  -2  108.18   12.24
   1  -7   2  131.01   14.55
   1   7   2  133.65   18.51
  -1   7  -2  126.32   13.56
   1  -7  -2  123.32   12.61
  -1  -7   2  133.76   14.55
  -2  -7  -2  626.44   37.82
  -2  -7  -2  664.67   55.12
  -2   7   2  675.40   46.69
   2   7  -2  580.60   40.75
  -2  -7  -2  747.27   54.90
   2  -7   2  798.32   57.35
  -2   7   2  694.46   54.13
   2  -7  -2  660.27   37.45
  -2  -7   2  649.38   46.32
  -2   7  -2  534.83   51.49
  -2   7  -2  699.59   53.69
   2   7   2  582.94   49.55
   2   7   2  649.82   44.20
  -3   7   2   61.79   11.07
   3   7  -2   34.30    5.72
  -3  -7  -2   53.76   10.66
  -3  -7  -2   38.70    8.72
  -3   7   2   41.37    7.44
  -3  -7  -2   29.57   10.11
   3  -7   2   54.53   10.11
   3   7  -2   32.51    8.98
   3  -7  -2   55.19    9.27
   3   7   2   41.63    8.39
  -3  -7   2   45.00    8.58
   3   7   2   34.23   10.44
  -3   7  -2   37.01   15.36
   3   7   2   29.06    8.06
   3  -7  -2   43.54   16.45
   4  -7   2   59.11   10.04
  -4  -7  -2   39.65   10.52
  -4   7   2   54.13    8.61
  -4   7   2   69.48   12.57
  -4  -7  -2   46.25    9.09
  -4  -7  -2   40.53   10.15
   4   7  -2   41.70    9.20
   4   7   2   42.25   15.76
   4  -7  -2   32.25   13.45
   4  -7  -2   42.58    9.93
   4   7   2   49.18   10.41
  -4   7  -2   55.85   15.28
  -4  -7   2   45.00    8.98
   4   7   2   45.48    6.27
   4  -7  -2   57.50    9.67
  -5   7   2    4.25    5.20
   5   7  -2    5.39    8.50
  -5  -7  -2    5.02    9.20
  -5  -7  -2    3.85    5.50
  -5  -7  -2    2.13    5.53
  -5   7   2   14.84   11.54
  -5  -7  -2   -1.17   11.29
   5  -7  -2    1.03    4.91
   5  -7  -2   -1.28    5.61
   5   7   2   -2.53    5.39
   5   7   2   10.08    6.60
   5  -7  -2    5.46    5.17
  -5  -7   2    2.46    4.65
   5   7   2    4.80    3.19
  -6  -7  -2   86.63   15.68
   6  -7   2   46.10   21.00
  -6  -7  -2   94.73   13.82
  -6   7   2   96.64   19.28
  -6  -7  -2   70.51   12.64
  -6   7   2  101.84   16.86
   6   7  -2   62.63   18.69
  -6  -7  -2   89.05   13.71
   6  -7  -2   58.82   10.44
   6  -7  -2   64.65   11.07
  -6  -7   2   63.18    6.49
  -6  -7   2   69.37    8.54
   6   7   2   88.61   14.70
  -6  -7   2   82.79   10.70
   6   7   2   79.30    8.06
   6   7   2   73.11   13.60
   7  -7   2   -0.55   11.91
  -7  -7  -2   24.48    9.78
   7   7  -2   17.04    6.96
  -7   7   2   37.75   11.40
  -7  -7  -2    8.10    9.02
  -7  -7  -2   21.99    6.23
   7  -7  -2   23.49    7.33
  -7  -7   2   35.84    7.15
  -7  -7   2   22.32    4.07
   7   7   2   27.63   10.15
  -7   7  -2   18.10    5.61
   7  -7  -2   27.49   10.55
   7   7   2   29.06   10.74
   7   7   2   24.88    5.57
  -7  -7   2   25.76    3.55
   8  -7   2   16.64    4.58
   8  -7   2   10.00   11.32
  -8  -7  -2   31.88   14.84
  -8   7   2   39.98   11.43
  -8  -7  -2   18.65    9.16
  -8  -7  -2   16.86    6.12
   8   7  -2   23.20   11.54
  -8  -7   2   20.56    6.30
  -8  -7   2   18.40    5.72
   8  -7  -2   23.53    8.25
   8  -7  -2   16.78   10.26
  -8  -7   2   28.69    7.44
   8   7   2   28.36   10.22
   8   7   2   23.45    8.80
   9  -7   2   51.20   15.39
  -9  -7  -2   64.43   10.19
  -9  -7  -2   48.34   13.93
   9   7  -2   56.62   10.30
   9  -7   2   49.03    6.08
   9  -7  -2   48.78    8.47
  -9  -7   2   47.60    9.31
   9  -7  -2   61.82   11.14
  -9  -7   2   56.51    6.49
   9   7   2   77.73   15.28
  -9  -7   2   56.66   10.00
   9   7   2   53.87    6.82
   9   7   2   69.12    8.91
  10  -7   2    2.16    2.24
  10  -7   2    4.32    2.68
  10  -7   2   -6.78    8.21
 -10  -7  -2    1.43    8.36
 -10  -7  -2    6.89    5.13
  10   7  -2    9.42    5.68
  10  -7  -2    6.01    4.03
  10   7   2    3.41    3.26
 -10  -7   2    3.77    2.93
  10  -7  -2    9.64    8.80
 -10  -7   2    7.37    4.73
 -10  -7   2    7.26    4.80
 -10   7  -2    5.42    3.33
  10   7   2    3.92    7.70
  10  -7  -2   11.91    5.06
  11   7  -2   -1.69    8.91
 -11  -7  -2    4.25    8.28
 -11  -7  -2    6.96    5.20
  11  -7   2   -1.50   12.94
  11  -7   2    3.22    2.60
 -11  -7  -2    1.98    4.54
  11  -7  -2   -0.15    3.74
 -11  -7   2    2.13    3.11
 -11  -7   2    8.32    8.14
  11  -7  -2    7.84    6.12
  11   7   2    4.51    3.08
 -11  -7   2    4.87    3.30
  11   7   2    5.17    7.95
  11  -7  -2    2.60    4.54
 -11  -7   2    1.98    3.33
  12  -7   2    2.97    2.90
  12  -7   2    1.06    9.02
 -12  -7  -2    8.98    6.27
 -12  -7  -2    6.78    4.03
 -12  -7  -2    1.21    7.84
  12   7  -2   10.15    6.23
 -12  -7  -2    6.19    6.96
  12   7   2    2.64    5.35
  12  -7  -2    0.88    5.61
  12  -7  -2   12.39    6.08
 -12  -7   2   -1.94    5.35
  12   7   2    7.18    5.50
  13  -7   2    0.55    3.30
 -13  -7  -2    1.32    3.52
  13  -7   2   -7.04    8.58
 -13  -7  -2    1.58    4.73
 -13  -7  -2    5.09    9.16
  13   7  -2    9.45    5.79
  13  -7  -2    5.72    5.24
  13   7   2   -0.95    2.93
 -13  -7   2    0.40    3.33
  13  -7  -2    8.58    6.74
  13  -7  -2   -5.02    9.24
 -13  -7   2   -4.87    4.98
 -13  -7   2    5.61    3.26
  13   7   2    0.88    5.31
 -13   7  -2   -1.43    4.47
 -13  -7   2    6.89    7.15
 -14  -7  -2   -2.27    3.08
 -14  -7  -2   -1.17    4.95
 -14  -7  -2    2.49    6.71
  14  -7   2   11.03    8.39
  14  -7   2    0.18    4.98
  14   7  -2    4.43    6.38
  14  -7  -2    1.65    4.76
 -14   7  -2   -0.33    2.90
 -14  -7   2    2.38    5.72
  14  -7  -2    2.38    3.88
 -14  -7   2    6.19    5.50
 -14  -7   2    7.11    9.05
  14   7   2    4.51    2.93
  14  -7  -2    6.67    6.27
 -14  -7   2    0.15    4.84
  14   7   2    4.40    5.64
 -15  -7  -2   -1.32    5.42
 -15  -7  -2   -2.35   11.07
 -15  -7  -2   -2.09    5.20
  15  -7   2    3.92   13.38
  15  -7   2   -0.29    5.42
 -15  -7  -2   -0.81    3.77
  15   7  -2    8.21    6.19
 -15  -7   2   -0.81    3.88
  15  -7  -2    4.84    3.66
 -15  -7   2    2.49    3.55
 -15   7  -2   -5.46   20.12
 -15   7  -2    0.40    3.74
 -15  -7   2    5.57    9.64
  15   7   2    3.55    5.94
  15   7   2    4.95    4.73
  15  -7  -2    3.15   10.19
 -15  -7   2    1.80    5.28
 -16  -7  -2   10.44    3.81
 -16  -7  -2    3.26    9.42
  16  -7   2   -1.47    3.74
 -16  -7  -2   -1.21    5.39
 -16  -7  -2    2.93    4.10
  16   7  -2   10.92   11.03
  16  -7   2    5.72    9.05
  16  -7  -2    7.70    5.31
 -16   7  -2    3.26    3.74
  16  -7  -2    4.07    5.68
  16   7   2    3.15    6.38
 -16   7  -2    0.48   14.77
  16  -7  -2    4.21    7.15
  16   7   2   -0.26    3.70
 -17  -7  -2    1.47    6.49
  17  -7   2    5.86   15.79
  17   7  -2   15.39   13.23
  17  -7  -2   15.68    6.82
  17  -7  -2   11.76    8.91
  17   7   2    6.05    4.03
  17  -7  -2    4.03    6.63
  17   7   2    9.05    7.55
 -17   7  -2    2.53   16.38
  18  -7   2    0.29    9.64
  18   7  -2   -4.40   12.31
 -18  -7  -2   -0.44    6.01
  18  -7  -2    5.75    3.81
 -18   7  -2    1.36   25.07
  18   7   2    2.20    6.85
  18  -7  -2    0.92    8.32
 -19  -7  -2    6.71    6.93
  19  -7   2    0.22   11.69
  19   7  -2    0.88    8.94
  19  -7  -2    0.95    6.78
  19  -7  -2    6.96    9.45
  19   7   2   -1.83    7.77
  19  -7  -2   12.75    4.95
 -19   7  -2   21.84   24.30
 -20  -7  -2   82.57   15.83
  20  -7   2    0.07   40.82
  20   7  -2  117.97   22.32
  20  -7  -2   88.54   15.61
 -20   7  -2   89.82   49.11
  20  -7  -2   98.25   24.22
  20   7   2  104.00   20.63
 -20   7  -2   39.91   35.77
 -21  -7  -2    3.19    6.38
  21  -7   2    0.00   11.14
  21   7  -2    3.88    9.82
  21  -7  -2    2.16    6.45
 -21   7  -2   -1.54   14.33
  21  -7  -2    1.91    9.71
  21   7   2   -0.84   12.97
 -21   7  -2   10.19   15.21
   0   8   2    9.34    5.57
   0  -8  -2   22.06    6.23
   0  -8   2   15.72    7.04
  -1   8   2   25.80    8.03
  -1   8   2   13.05    8.03
  -1  -8  -2   22.06    6.60
   1   8  -2   13.12    6.41
  -1   8  -2   11.76    4.07
   1   8   2   12.83    5.20
   1  -8  -2   15.68    3.88
  -1  -8   2   25.62    7.04
   2   8  -2   -1.80    2.68
  -2  -8  -2    3.96    3.01
  -2   8   2   -3.92    6.52
  -2   8   2    4.69    9.64
  -2  -8  -2    0.04    5.90
  -2   8  -2    0.44    4.10
   2   8   2    0.37    4.14
  -2   8  -2    7.18    3.26
   2  -8  -2    2.68    4.62
   2   8   2    7.77    6.23
   3   8  -2   24.55    5.90
  -3   8   2   20.23   14.11
  -3  -8  -2   20.74    8.98
  -3   8   2   10.99    9.20
  -3  -8  -2   17.30    4.87
  -3  -8  -2   17.74    9.02
   3  -8  -2   21.84    9.31
   3   8   2   37.16    9.31
   3   8   2   10.59   10.59
  -3  -8   2   11.58    7.37
  -3   8  -2   22.72    8.87
   3   8   2   13.16    7.18
  -3   8  -2   19.64    8.87
   3  -8  -2   20.63    4.58
  -4   8   2   36.10    9.45
   4   8  -2   11.32    7.44
  -4   8   2   18.76   10.41
  -4  -8  -2   22.35    9.45
  -4  -8  -2   20.45    5.46
  -4  -8  -2   20.16    8.98
   4  -8   2   24.74    8.54
   4   8   2    5.28   12.35
   4   8   2   18.58    4.84
   4   8   2   18.84    9.02
  -4  -8   2   17.37    7.22
   4  -8  -2   26.20   12.75
  -4   8  -2   30.42   13.38
   4  -8  -2   25.43    5.64
  -5   8   2  109.21   13.38
  -5  -8  -2   89.16    9.93
  -5  -8  -2   90.70   24.15
  -5   8   2  117.67   18.62
  -5  -8  -2  107.56   15.94
   5   8  -2   92.75   13.85
   5  -8   2  129.14   15.90
   5   8   2  109.76   16.89
   5   8   2   88.54   14.92
  -5  -8   2   86.67   12.94
   5  -8  -2   50.83   20.71
   5   8   2   84.18    9.97
   5  -8  -2  103.23   10.96
   5  -8  -2   52.70   21.26
   6  -8   2   95.98   26.53
  -6  -8  -2  119.73   32.73
  -6   8   2  149.12   16.60
   6   8  -2  119.25   25.18
  -6  -8  -2  119.43   11.76
  -6  -8  -2  142.34   18.54
  -6   8   2  158.42   33.57
  -6  -8  -2  123.06   12.20
   6  -8  -2   85.90   24.15
  -6  -8   2  100.63   10.30
   6  -8  -2   95.25   21.95
   6   8   2  134.68   19.09
  -6  -8   2  126.47   15.06
   6   8   2  120.71   19.39
   6  -8  -2  144.76   13.16
   7  -8   2    7.99    9.38
  -7  -8  -2    7.77    6.89
  -7   8   2   21.91   10.52
  -7  -8  -2    7.84    4.76
  -7  -8  -2   10.11    4.32
  -7   8   2   -4.43    8.91
   7   8  -2    6.82    6.60
  -7  -8  -2   18.80    7.88
   7  -8  -2    7.73    5.53
  -7  -8   2    0.04    5.94
   7  -8  -2   -5.46    9.24
   7   8   2   -2.20    7.95
  -7  -8   2    2.20    2.86
  -7  -8   2    4.40    5.94
   7   8   2   10.59    8.94
   7   8   2    5.64    6.49
  -8  -8  -2   62.96   19.46
  -8   8   2   66.26   23.97
  -8  -8  -2   53.43    8.47
  -8  -8  -2   52.92   12.94
   8   8  -2   45.22   14.44
   8  -8  -2   36.32   16.78
  -8  -8   2   44.31   10.96
   8   8   2   43.13   13.74
   8   8   2   41.04    8.06
   9  -8   2   97.26   31.66
  -9  -8  -2  114.89   18.69
  -9  -8  -2   94.77   19.09
  -9  -8  -2  126.10   13.23
   9   8  -2  120.97   14.37
  -9  -8   2   84.18   13.45
  -9  -8   2  111.33   18.84
   9  -8  -2   98.84   18.07
   9   8   2  107.56   20.38
   9  -8  -2   95.83   11.95
  -9  -8   2   77.65   12.24
   9   8   2  109.94   18.51
  10  -8   2    2.31    3.11
 -10  -8  -2    2.09    8.25
  10  -8   2   -8.76   15.14
 -10  -8  -2   16.89    6.16
 -10  -8  -2   14.04    7.73
  10   8  -2   16.12   10.55
  10  -8   2    6.30    5.35
  10  -8  -2    7.40    7.18
  10   8   2    8.83    3.81
 -10  -8   2    8.54    3.81
  10  -8  -2    3.37    7.15
 -10  -8   2    5.72    8.87
 -10  -8   2    3.55    3.81
  10   8   2   14.66    5.61
  10  -8  -2    6.89    5.86
  11  -8   2   50.21    9.42
  11   8  -2   64.97   12.24
 -11  -8  -2   76.67   11.95
 -11  -8  -2   71.17   10.08
  11  -8   2   80.70   17.41
  11  -8  -2   53.94    8.87
  11   8   2   45.48   10.63
 -11  -8   2   56.51    8.25
 -11  -8   2   60.80   11.47
 -11   8  -2   55.67    7.95
  11  -8  -2   54.42   19.50
 -11  -8   2   68.82   11.21
  11   8   2   72.82   16.67
  12  -8   2   19.53   11.10
  12   8  -2   22.21    7.70
 -12  -8  -2    9.27    5.83
 -12  -8  -2   26.06   11.07
 -12  -8  -2   -0.59    8.91
  12  -8   2   12.24    6.63
 -12  -8  -2    9.49    3.52
  12  -8  -2   15.50   12.79
 -12  -8   2    9.27    4.47
  12  -8  -2    9.93    5.06
 -12  -8   2    6.49    7.04
  12   8   2   11.07   10.41
  12  -8  -2   13.78    6.12
  13  -8   2   56.91    8.50
  13   8  -2   69.96   14.55
 -13  -8  -2   82.60   14.40
 -13  -8  -2   58.67    6.38
  13  -8   2   54.97   31.15
 -13  -8   2   55.19   13.56
  13   8   2   45.85   11.76
  13  -8  -2   70.69    9.20
 -13  -8   2   54.27   18.36
  13  -8  -2   50.28   14.40
  13   8   2   78.90   12.39
  13  -8  -2   54.60   10.59
  14  -8   2   10.63    4.65
  14  -8   2    7.95   18.91
 -14  -8  -2   11.10    3.81
 -14  -8  -2    0.48    6.67
 -14  -8  -2   12.24   14.11
  14   8  -2   29.61   12.46
 -14  -8   2   12.39    5.06
 -14  -8   2   14.44    5.09
 -14   8  -2   -2.79    7.44
  14   8   2   10.48    6.34
  14  -8  -2    7.00   13.82
 -14  -8   2   11.40   11.32
  14  -8  -2    4.80    7.95
  14   8   2    9.31    7.18
 -15  -8  -2   -0.11    3.66
  15  -8   2    1.76    3.59
 -15  -8  -2    0.26    7.66
  15  -8   2    9.89    8.87
 -15  -8  -2   -0.73    5.46
  15   8  -2    3.85    9.89
 -15  -8  -2   -2.82    2.97
  15  -8  -2    2.16    5.13
 -15   8  -2    0.99    5.57
  15  -8  -2    0.40    5.86
  15   8   2    4.95    3.30
  15  -8  -2    8.25    7.62
 -15   8  -2   -4.95   23.09
  15   8   2    5.50    5.42
  16  -8   2    9.67    7.29
  16   8  -2    8.80   13.89
 -16  -8  -2    0.44    6.67
 -16  -8  -2   10.74    5.94
  16  -8   2   18.80   17.92
  16  -8  -2   23.09    6.60
 -16   8  -2    0.77    7.70
  16   8   2    9.27    6.71
  16  -8  -2   10.19    9.31
 -16   8  -2   -2.42   19.42
  16  -8  -2   12.13    4.58
  16   8   2   19.79    7.44
  17  -8   2   10.99   11.43
 -17  -8  -2    3.04    5.75
 -17  -8  -2    0.92    7.62
  17   8  -2    7.81   14.95
  17  -8  -2   17.08    4.80
  17  -8  -2   19.64   15.21
 -17   8  -2   28.07   20.71
  17   8   2   13.30    7.88
 -18  -8  -2   -1.91    6.82
  18  -8   2    0.00    9.05
  18   8  -2    1.39   11.80
  18  -8  -2   -2.71    5.64
  18  -8  -2    2.86    6.45
  18  -8  -2    1.50    7.99
  18   8   2   -1.65    6.41
  19  -8   2    0.04   18.91
 -19  -8  -2    2.64    8.69
  19   8  -2    9.38   15.03
  19  -8  -2   12.64    7.84
  19  -8  -2   10.44   16.20
  19   8   2   -0.04    7.95
 -19   8  -2    9.71   27.71
 -20  -8  -2   11.18    9.05
  20  -8   2   -0.11   12.13
  20   8  -2    8.10   16.01
  20  -8  -2   -0.92    7.29
  20  -8  -2    5.31    4.87
  20  -8  -2   20.12   10.96
  20   8   2   -0.51    8.06
 -20   8  -2    4.18   17.22
   0   9   2    4.10    5.02
  -1   9   2   30.20    7.59
   1  -9   2   53.94    9.93
   1   9  -2   27.27    6.34
  -1   9  -2   36.54    6.74
   1   9   2   36.68   11.36
   1  -9  -2   36.94    8.58
   2   9  -2  193.35   18.29
  -2   9   2  251.73   27.71
  -2   9   2  238.79   22.10
  -2  -9  -2  185.91   16.49
   2  -9   2  272.32   24.11
   2  -9  -2  234.17   17.52
   2   9   2  234.54   30.75
  -2   9  -2  203.65   24.22
   3   9  -2   83.70    9.93
  -3   9   2   79.41   10.81
  -3  -9  -2   77.25    9.53
  -3   9   2  110.82   17.00
  -3  -9  -2   79.63   24.55
  -3   9  -2   77.14   15.83
   3  -9  -2   86.52    9.60
   3   9   2   95.36   12.31
   3   9   2   92.24   16.78
  -3   9  -2   87.62   10.77
   3  -9  -2   62.30   16.42
   4   9  -2  162.86   18.29
  -4   9   2  258.43   40.35
  -4  -9  -2  240.15   26.31
  -4  -9  -2  181.22   17.08
  -4   9   2  178.40   26.83
   4   9   2  204.60   22.57
   4   9   2  201.74   24.92
  -4   9  -2  200.79   27.30
  -4  -9   2  218.20   21.59
  -4   9  -2  175.58   49.84
   4  -9  -2  193.17   15.17
   4   9   2  169.93   21.95
  -5   9   2   10.08    8.65
   5  -9   2    9.27    7.51
  -5  -9  -2    7.73    7.77
  -5  -9  -2    2.35    4.32
  -5   9   2    6.30    8.80
   5   9  -2   10.11    6.71
   5  -9  -2   10.19    7.11
  -5   9  -2    1.72   19.57
   5   9   2    4.32    6.93
   5   9   2    8.10    8.25
  -5  -9   2    7.22    6.52
   5  -9  -2   12.57    4.84
   5  -9  -2   -3.26   11.29
   6  -9   2   14.44    7.00
   6  -9   2    0.00   11.32
  -6   9   2    7.04    6.45
  -6  -9  -2    7.95   12.97
  -6   9   2   14.99    9.82
  -6  -9  -2    5.02    4.76
  -6  -9  -2   14.40    4.65
   6   9  -2   13.45    6.96
   6   9   2    5.31    8.69
   6   9   2    7.88    7.84
   6  -9  -2   11.32    7.15
   6  -9  -2    1.10    7.77
  -6  -9   2    1.83    6.78
   6  -9  -2   10.92    4.80
   6   9   2    2.60   11.95
  -6  -9   2    9.93    7.88
  -7  -9  -2    4.91    7.59
  -7   9   2    3.88   10.11
   7  -9   2   -0.04   10.00
  -7   9   2   13.27   13.49
  -7  -9  -2    8.87    8.06
  -7  -9  -2   15.57    8.17
  -7  -9  -2    4.58    6.96
   7   9  -2    9.56    6.78
   7  -9   2    9.27    7.00
   7  -9  -2   -1.94    6.19
  -7  -9   2    7.07    4.40
   7  -9  -2    5.46    6.96
   7   9   2   20.85    8.76
  -7  -9   2   14.00    6.01
   7   9   2   -2.16   13.49
   7   9   2   14.00    7.99
   7  -9  -2   -1.58    4.91
   8  -9   2    2.71    3.44
  -8  -9  -2   -9.02   13.41
  -8  -9  -2   17.81   12.39
  -8  -9  -2   11.65    8.39
   8  -9   2    0.04   14.84
  -8   9   2   15.54    8.87
  -8  -9  -2   11.51    7.11
  -8   9   2   12.79    6.67
  -8  -9   2    2.02    4.62
   8  -9  -2    5.13    7.40
  -8  -9   2    5.50    4.29
  -8   9  -2    3.66    4.47
  -8  -9   2   13.45   10.15
   8   9   2    9.16    4.62
   8  -9  -2    3.19    8.87
   8   9   2   13.38    8.28
  -9  -9  -2    6.82    7.99
   9  -9   2    0.00   14.66
  -9  -9  -2    8.17    5.64
  -9  -9  -2    9.20    4.65
  -9   9   2   -0.33    9.56
   9   9  -2    7.92    7.99
  -9  -9   2    7.99    4.40
   9  -9  -2    5.24    9.42
  -9   9  -2    8.72    6.96
  -9  -9   2   12.31   10.92
   9   9   2    3.77   14.62
   9  -9  -2   10.08    8.25
   9   9   2    3.59    8.28
  10   9  -2    3.70    8.65
 -10  -9  -2    4.84    6.82
  10  -9   2    1.21    8.17
 -10   9   2   -5.50   12.09
 -10  -9  -2    0.00    5.97
  10  -9   2    0.48    3.01
 -10  -9  -2    4.18    5.09
  10  -9  -2    1.72    4.32
 -10  -9   2   -3.52    5.13
  10  -9  -2    4.91    9.31
 -10  -9   2    0.59    3.74
  10   9   2   12.06   11.62
  10   9   2   -0.59    4.58
  11   9  -2    7.15    5.61
 -11  -9  -2    7.48   10.44
  11  -9   2   -2.97    8.14
 -11  -9  -2   -1.10    8.06
 -11  -9  -2    0.00    4.07
 -11   9   2    3.44    7.62
  11  -9   2    4.10    2.64
  11  -9  -2    4.21    9.75
 -11   9  -2    1.28    3.44
 -11  -9   2    3.30    5.24
  11  -9  -2    0.33    5.17
  11   9   2   -1.65    4.69
 -11  -9   2   -1.06    3.70
 -12  -9  -2   10.96    8.39
  12  -9   2   10.37   15.10
 -12  -9  -2   10.77    3.74
 -12  -9  -2   -0.15    6.89
 -12  -9  -2    9.53    9.05
 -12  -9  -2    0.04    5.28
 -12   9   2    8.69    9.67
  12   9  -2    9.78    6.82
  12  -9   2    5.68    3.92
 -12   9  -2    0.11    6.41
  12  -9  -2    4.73    7.26
  12  -9  -2    5.68    7.95
 -12  -9   2    3.99   10.85
 -12  -9   2    4.73    4.62
  12   9   2   14.00    9.56
  12  -9  -2    3.15    5.68
  12   9   2    2.64    6.27
  13  -9   2   -1.83    5.53
 -13  -9  -2    1.28    4.69
  13  -9   2   16.09   13.45
 -13  -9  -2   10.41   10.30
 -13  -9  -2    0.00    8.72
  13   9  -2   13.01   10.08
  13  -9  -2    0.70    7.07
 -13  -9   2    3.92    4.43
  13   9   2    1.87    3.63
  13  -9  -2   -1.03   10.59
 -13  -9   2   -7.44    9.31
  13   9   2    3.85    5.31
  14  -9   2    3.74    4.98
 -14  -9  -2   -4.29    7.11
  14  -9   2   -5.61    8.87
 -14  -9  -2    8.03    6.27
 -14  -9  -2   -1.72    8.03
  14   9  -2   -0.51    9.27
  14  -9  -2   -0.33    3.52
  14   9   2    0.00    3.22
 -14   9  -2    0.70    3.33
  14  -9  -2    5.09   10.22
  14   9   2    3.66    4.91
  14  -9  -2   -1.65    4.47
  15  -9   2   -0.55    5.94
 -15  -9  -2    1.69    5.09
 -15  -9  -2    9.20   12.64
 -15  -9  -2   -0.92    5.39
  15   9  -2    7.88   10.52
  15  -9  -2    3.37    5.46
  15  -9  -2    3.37    3.88
  15  -9  -2   -0.37    7.51
 -15   9  -2  -12.83   24.11
  15   9   2    7.55    5.94
 -15   9  -2   -1.54    3.77
  16  -9   2    5.53    3.77
  16  -9   2    0.15   17.04
  16   9  -2   18.43    8.03
 -16  -9  -2   -0.48    6.16
 -16  -9  -2   13.16   14.37
 -16   9  -2   -0.18    3.52
  16  -9  -2   10.26    6.23
  16  -9  -2    0.55   13.89
  16   9   2    0.37    6.82
 -16   9  -2   -6.96   18.47
  17  -9   2    0.55    9.09
 -17  -9  -2   -1.54    5.31
 -17  -9  -2   20.08   12.61
  17  -9  -2    0.44    5.50
  17   9   2    0.48    5.94
  17  -9  -2    3.33    7.44
  17  -9  -2   -1.98    5.09
 -18  -9  -2    1.58   16.67
  18   9  -2   22.17    9.42
  18  -9   2   -0.07   17.99
 -18  -9  -2    1.10    6.78
  18  -9  -2   -3.26   16.01
  18  -9  -2   10.41    7.81
 -18   9  -2    9.53   30.53
  18   9   2   -0.51    7.88
  19   9  -2   30.05   12.24
 -19  -9  -2    4.32   19.90
  19  -9   2    0.04   14.40
 -19  -9  -2   10.66    8.87
  19  -9  -2   14.07    6.19
  19  -9  -2   27.16   13.08
  19   9   2    0.22    9.27
 -19   9  -2   24.74   21.62
   0 -10  -2  357.97   28.91
   0  10   2  360.61   31.22
   0 -10   2  490.63   40.13
   0  10  -2  347.45   45.37
   1  10  -2   10.00    7.62
  -1  10   2    9.09    6.19
  -1 -10  -2    8.98    4.43
   1  10   2   15.25    5.61
   1 -10  -2   11.62    4.58
  -1 -10   2    8.17    7.51
   1  10   2   19.64    9.42
   2  10  -2   28.18   10.11
  -2  10   2   44.09   19.17
  -2  10   2   30.05    7.62
  -2  10  -2   18.62   11.18
   2  10   2   37.38    7.73
   3  10  -2    7.04    5.50
  -3  10   2    7.59    6.23
  -3 -10  -2    6.93    4.73
  -3  10   2   18.98   14.51
  -3  10  -2   17.30    5.86
   3  10   2    9.60    5.83
   3 -10  -2    6.89    9.02
  -4 -10  -2  144.98   17.15
  -4 -10  -2  215.19   25.29
  -4  10   2  210.46   26.13
   4  10  -2  149.41   25.73
   4 -10   2  211.56   23.49
  -4  10   2  160.77   18.84
   4 -10  -2  172.02   15.72
   4  10   2  162.68   28.91
  -4  10  -2  160.00   20.89
   4  10   2  180.34   37.16
  -5  10   2   23.12   16.71
  -5 -10  -2   11.54    8.36
  -5 -10  -2   21.40    9.89
  -5  10   2   22.43   11.87
   5 -10   2   34.59   13.60
   5  10   2    5.97   11.69
   5 -10  -2    3.70    8.58
  -5  10  -2   27.92    7.95
  -5 -10   2    8.50    7.84
  -5  10  -2   24.26   18.21
   5  10   2   15.17    8.54
   5 -10  -2    6.16   13.74
   6 -10   2    0.48   10.88
  -6  10   2    0.15    9.38
  -6  10   2    6.27    7.55
  -6 -10  -2    0.59    7.04
  -6 -10  -2   -3.11   12.02
  -6 -10  -2    2.68    6.56
   6 -10   2    8.91    6.56
   6  10  -2   -1.47    6.49
   6  10   2   10.48    7.48
   6 -10  -2   -0.59    6.56
   6 -10  -2    3.30    6.82
  -6 -10   2   -0.73    5.86
  -6  10  -2   10.55    5.46
  -6  10  -2   -1.98   18.65
   6  10   2    4.91   11.36
   6 -10  -2    4.40    4.80
   6  10   2    2.82    6.85
  -7 -10  -2   -6.67    7.62
  -7  10   2    2.24    5.53
   7 -10   2    0.00    8.61
  -7 -10  -2   -1.39    6.89
  -7  10   2   13.27    7.51
  -7 -10  -2    3.44    6.52
  -7 -10  -2   -3.77    6.05
   7 -10   2    5.42    9.53
   7  10  -2   -7.92    9.38
   7 -10  -2   -2.16    5.53
  -7 -10   2   -4.14    4.47
   7 -10  -2   -0.92    6.16
   7  10   2   -3.77    7.11
  -7 -10   2   -1.03    5.46
   7 -10  -2   -0.51    6.63
   7  10   2   -1.47    4.47
  -8 -10  -2   27.56   13.23
   8 -10   2    0.00   22.43
  -8  10   2   36.76   14.37
  -8 -10  -2   39.36   19.06
  -8  10   2   48.52   13.60
  -8 -10  -2   33.68    8.69
  -8 -10  -2   36.83    7.99
   8  10  -2   46.43   11.18
   8 -10  -2   10.99   14.59
   8 -10  -2   24.48   17.08
  -8  10  -2    8.69   10.30
  -8 -10   2   20.71   12.39
  -8 -10   2   42.03   16.64
   8  10   2   49.62   12.57
   8 -10  -2    3.48   12.17
   9 -10   2    4.73    3.70
  -9 -10  -2    9.20    6.23
  -9  10   2   19.06    7.73
  -9 -10  -2   13.93    9.05
  -9  10   2   26.90   16.53
  -9 -10  -2    0.07    9.38
   9 -10   2    0.15   17.55
   9  10  -2    7.04   13.78
  -9 -10   2   17.63    5.90
  -9  10  -2   16.93    4.91
   9  10   2   25.03   16.27
   9 -10  -2   16.64   14.62
   9 -10  -2    7.92    7.04
  -9 -10   2   18.25   12.97
   9  10   2    0.59   10.22
   9 -10  -2    2.53    6.05
  10 -10   2   13.16   10.92
 -10 -10  -2   19.79    9.82
 -10 -10  -2   -2.90   11.18
 -10 -10  -2    0.07    6.34
 -10  10   2   13.56    8.03
 -10  10   2   31.55   11.10
  10 -10   2   -1.32    6.34
  10  10  -2   29.46    9.38
  10 -10  -2    6.19    5.94
  10  10   2    4.54    6.19
  10 -10  -2   19.28   15.03
  10  10   2   17.77   16.78
 -10 -10   2   15.03    9.71
 -10 -10   2   14.48    7.44
  10 -10  -2    3.11    9.56
 -11 -10  -2   13.30   16.20
  11 -10   2    7.22   12.50
 -11  10   2   33.72   12.46
 -11 -10  -2   27.27    8.21
 -11 -10  -2    0.04   10.99
 -11  10   2    8.03   14.44
  11  10  -2   23.64    9.67
  11 -10   2    8.14    7.44
  11 -10  -2   10.66    9.38
 -11 -10   2   10.08    6.82
  11 -10  -2   27.74   11.69
 -11 -10   2   22.28    7.99
  11 -10  -2   15.21    7.70
  11  10   2   -0.40    7.29
 -12 -10  -2   -1.94    8.17
 -12 -10  -2    5.06    3.88
  12 -10   2   -0.29   14.00
 -12 -10  -2   14.29    6.49
 -12 -10  -2    0.00    5.35
  12  10  -2    2.16    9.09
  12 -10   2    6.23    6.23
  12 -10  -2    1.72   14.22
  12 -10  -2    5.20    7.84
  12  10   2   -1.94    6.38
 -12  10  -2    1.72    3.96
  12  10   2    3.52    9.53
  12 -10  -2   -3.66    8.50
 -13 -10  -2    3.77    6.56
 -13 -10  -2    6.19    8.76
 -13 -10  -2    2.90    6.96
  13 -10   2    9.97   10.48
 -13 -10  -2   20.01   11.25
 -13 -10  -2   -0.04    5.68
  13  10  -2    0.33   11.65
  13 -10   2   -0.84    6.38
  13 -10  -2    7.18    5.13
  13 -10  -2    6.16   15.98
  13  10   2    6.19    4.84
 -13  10  -2   -2.42   31.48
  13  10   2    1.06    9.13
  13 -10  -2    6.08    5.90
  14 -10   2    1.21    4.14
  14  10  -2    3.66    6.82
 -14 -10  -2    3.55    8.32
  14 -10   2   -3.15   10.74
 -14 -10  -2   -0.04    8.39
  14  10   2   -1.10    5.75
 -14  10  -2  -11.95   24.19
 -14  10  -2   -2.75    5.94
  14 -10  -2    8.98    8.87
  14 -10  -2    6.27    4.25
  14 -10  -2    2.09    5.46
  15 -10   2    3.30    3.59
 -15 -10  -2    6.78   12.86
 -15 -10  -2    0.00    8.39
  15 -10   2    7.40   14.81
  15  10  -2    8.25    7.55
  15 -10  -2    0.48    6.56
 -15  10  -2   -9.20   16.64
  15 -10  -2    5.97   14.37
 -15  10  -2    0.62    5.83
  15  10   2   -2.24    6.01
  16 -10   2    0.07    3.22
  16 -10   2    2.46    9.02
 -16 -10  -2   -0.15    4.84
  16 -10  -2   -1.47    5.61
  16 -10  -2    1.54    5.83
 -16  10  -2   -0.51    4.58
  16 -10  -2    5.53    9.13
 -16  10  -2    5.06   14.37
  16  10   2   -3.77    5.53
 -17 -10  -2   -6.96   13.89
  17 -10   2   -0.92   11.18
  17  10  -2    2.90    8.76
  17 -10  -2    0.33    6.85
  17 -10  -2    2.46    4.54
  17 -10  -2    7.26   10.19
 -17  10  -2   35.22   26.39
  17  10   2    2.68    6.56
 -18 -10  -2   27.60   22.54
  18 -10   2    0.07   29.28
  18  10  -2   30.82   14.22
  18 -10  -2   26.75    7.59
  18 -10  -2   11.58   22.43
  18  10   2   31.99   10.77
 -18  10  -2   44.56   37.27
   0  11   2    5.53    6.89
   0 -11  -2    3.11    4.03
   0  11  -2    0.84    7.37
   1  11  -2   27.56    7.55
  -1  11   2   37.12   13.19
  -1 -11  -2   42.18    7.00
   1  11   2   28.47   12.83
  -2  11   2    0.37    7.81
  -2 -11  -2    1.50    4.36
  -2  11  -2    1.91    7.48
   2  11   2   13.23    8.25
  -2 -11   2   12.24    6.63
   2  11   2    4.62    8.14
  -3  11   2  227.83   29.57
  -3  11   2  209.58   28.58
  -3 -11  -2  158.42   18.73
   3  11   2  257.48   36.68
  -3  11  -2  145.05   28.33
   3  11   2  230.62   37.89
   3 -11  -2  107.34   32.51
  -4  11   2   24.85   17.30
  -4  11   2   25.43    7.48
  -4 -11  -2   12.09    6.56
  -4  11  -2   24.88    7.04
   4 -11  -2    7.51   11.58
   4 -11  -2    3.52    8.72
   4  11   2    5.35   16.49
   4 -11  -2   11.14   10.96
  -5 -11  -2   73.22   17.15
  -5  11   2   85.02   16.93
  -5  11   2   59.04   11.43
   5 -11   2   71.94   22.68
  -5  11  -2   41.59   18.84
   5  11   2   64.72   24.74
   5 -11  -2   63.88   11.47
  -5 -11   2   59.33   20.01
   5  11   2   66.66   15.36
   5 -11  -2    8.10   22.94
  -6  11   2   35.73   22.21
   6 -11   2    0.48   18.25
  -6 -11  -2   45.37   20.74
  -6  11   2   43.61   14.59
   6 -11   2   37.89   12.28
   6 -11  -2   18.03   10.81
   6 -11  -2   31.59   13.01
  -6  11  -2   10.85   16.20
  -6 -11   2   47.24   10.52
   6  11   2   35.22   13.85
   6  11   2   39.03   12.94
   7  11  -2   11.76    7.11
   7 -11   2    0.07    9.27
  -7 -11  -2   -5.06    8.21
  -7 -11  -2    4.32    4.84
  -7 -11  -2    5.28    8.03
   7 -11   2   14.26   11.25
  -7  11   2    8.83    5.79
   7 -11  -2   -8.47    9.75
   7 -11  -2    0.73    9.75
   7  11   2    0.59    8.25
   7 -11  -2   -4.21   12.24
  -7 -11   2    5.79    6.19
  -7  11  -2   -0.81    6.85
   7  11   2    1.61    4.76
  -7 -11   2    2.13    6.56
   8 -11   2    2.64    7.18
   8 -11   2   -0.73    4.21
  -8 -11  -2   -3.48    8.91
  -8  11   2    4.87   14.59
  -8 -11  -2    0.00    8.25
   8 -11   2    0.04   15.28
  -8 -11  -2   -0.18    5.46
  -8 -11  -2    0.88   13.19
  -8  11   2   13.34   10.37
   8  11  -2    8.76    7.44
   8 -11  -2    6.27   10.11
  -8 -11   2   12.42    9.42
  -8  11  -2    8.17    7.04
   8 -11  -2   13.56   13.19
   8  11   2    4.65    8.76
  -8 -11   2   18.87   11.58
   8 -11  -2   -2.71    9.60
   8  11   2   -0.04    8.43
   9 -11   2    3.08    3.19
   9 -11   2   -3.08   11.91
  -9 -11  -2   19.09    8.69
  -9 -11  -2    5.57    8.58
  -9  11   2    7.70    8.91
   9 -11   2    0.51   15.10
  -9 -11  -2    0.04    8.17
   9 -11  -2    1.39    5.90
  -9  11  -2   -3.37   17.70
  -9 -11   2    4.21    5.94
   9 -11  -2   18.47   13.82
   9  11   2    7.77   14.07
  -9 -11   2    1.54   12.13
  -9  11  -2    3.15    4.40
   9 -11  -2    0.88    6.01
   9  11   2   -0.22    5.83
  10 -11   2    4.80    7.04
  10 -11   2   -1.17    8.76
 -10  11   2   13.38   10.63
 -10 -11  -2    2.31    7.81
 -10 -11  -2    5.02    8.03
 -10  11   2    7.11    8.69
 -10 -11  -2    0.00    7.48
  10 -11  -2   -0.18    4.91
  10  11   2   -9.67   13.41
  10  11   2    2.97    9.02
  10 -11  -2   -2.75    9.75
 -10  11  -2   -9.56   17.63
  10 -11  -2    2.53    9.16
 -11 -11  -2   10.99   11.51
  11 -11   2   -1.03    8.54
 -11 -11  -2   -5.42    6.12
 -11 -11  -2   -0.07    4.76
  11 -11   2    1.25    6.60
  11 -11  -2   -2.38    7.81
  11  11   2   -0.99    6.01
 -11  11  -2   -0.22   19.17
  11 -11  -2    5.39    5.83
  11 -11  -2   -3.66    5.86
  12 -11   2    1.87   14.33
 -12 -11  -2    4.54    7.95
 -12 -11  -2    0.40    9.97
 -12 -11  -2    0.00    6.34
  12  11  -2    6.56   12.35
  12 -11   2    1.06    3.88
  12 -11  -2    1.17    4.84
 -12  11  -2    2.31    3.66
  12 -11  -2    1.32    6.19
 -12  11  -2   -3.22   21.84
  12 -11  -2  -12.79   14.04
  12 -11  -2   -3.33    9.20
  12  11   2   -1.28    9.20
  13  11  -2    2.60    8.10
  13 -11   2   10.00    9.78
  13 -11   2   -2.97    3.52
  13 -11  -2    3.41    9.16
  13 -11  -2   -4.14   10.37
  13 -11  -2    0.88    4.84
 -13  11  -2    0.55   14.11
  13  11   2    1.87    8.25
  13 -11  -2   -4.58    5.68
  14 -11   2    3.37    4.14
  14 -11   2   11.91   11.80
  14  11  -2    4.29    9.45
 -14 -11  -2    3.15    9.71
  14 -11  -2    9.64    9.71
  14 -11  -2    5.50    7.15
  14  11   2    6.49    6.23
 -14  11  -2   -1.72   16.71
  14 -11  -2   -0.62    6.49
  15 -11   2   -0.77    6.01
  15  11  -2   -6.78    9.60
  15 -11   2  -14.29   19.31
 -15 -11  -2    8.39   14.66
  15 -11  -2   -4.80   15.87
 -15  11  -2   -3.44    3.77
 -15  11  -2   -7.33   16.42
  15  11   2   -1.50    6.23
  15 -11  -2   -0.07   10.04
  16 -11   2   -4.32    5.13
 -16 -11  -2   -3.70   12.31
  16 -11   2    9.13    9.86
  16  11  -2    0.33    9.60
  16 -11  -2   -1.43    6.23
  16  11   2   -1.61    5.42
  16 -11  -2    3.01    3.85
 -16  11  -2   -0.84    2.93
  16 -11  -2    5.02    9.38
 -16  11  -2   44.49   22.72
 -17 -11  -2   -7.59   16.42
  17 -11   2    0.00   20.78
  17  11  -2    2.57   12.42
  17 -11  -2    4.10    5.79
  17 -11  -2   -4.98   16.34
 -17  11  -2   41.70   23.53
  17  11   2   19.57    7.26
   0  12   2   58.78   10.92
   0 -12   2   59.26   13.38
  -1  12   2   31.63    8.61
   1  12   2   26.68    8.94
  -2  12   2    1.83    9.09
   2  12   2    5.20    9.24
   2  12   2   13.08    8.98
   2 -12  -2    5.83    6.05
  -3  12   2    5.50    7.66
  -3 -12  -2    0.84    5.97
  -3  12  -2    9.67    8.25
   3  12   2   10.30    9.67
  -3 -12   2    5.79    7.07
   3  12   2    2.31    8.03
   3 -12  -2    3.55    5.42
  -4  12   2  186.17   27.27
  -4  12   2   97.96   23.31
  -4 -12  -2  125.11   19.72
   4 -12  -2   85.61   23.27
  -4  12  -2   71.20   24.66
   4  12   2  163.70   24.44
   4 -12  -2  146.66   26.17
   4  12   2  118.48   27.30
  -4 -12   2  167.88   21.44
   5 -12   2    0.04   22.17
  -5  12   2   12.31   17.77
  -5  12   2   13.85    7.33
  -5 -12  -2    5.42    7.18
   5 -12   2   23.01    8.43
   5 -12  -2   10.04   10.85
   5  12   2   10.30   15.79
  -5 -12   2   27.27   14.07
   5 -12  -2   11.87   10.74
   5  12   2   13.56   16.27
   5 -12  -2    8.61   15.17
  -5  12  -2   10.52   11.47
   6 -12   2   -0.22   12.72
  -6  12   2   24.74   10.59
  -6  12   2   14.37    6.34
  -6 -12  -2   -3.81   10.63
   6 -12   2    6.85   12.13
   6 -12  -2   10.92    8.36
   6 -12  -2    6.89    9.24
  -6  12  -2    4.65   10.96
  -6 -12   2   10.52   12.06
   6 -12  -2   -0.18    6.34
   6  12   2    5.68   14.73
   7 -12   2    0.04   12.06
  -7  12   2   36.61   18.21
  -7 -12  -2   15.61   11.54
  -7 -12  -2    1.94    8.14
  -7 -12  -2   14.11   11.10
  -7  12   2    9.97   11.18
   7 -12   2   12.90   10.30
   7 -12  -2    7.00   13.19
   7 -12  -2   35.40   16.23
   7  12   2   15.03   11.14
  -7  12  -2    8.72    8.43
  -7 -12   2   25.65    9.45
   7 -12  -2    3.30   11.36
   8 -12   2   -0.29   16.42
  -8 -12  -2    6.89    6.27
  -8 -12  -2   -1.91   15.43
  -8  12   2   15.87    6.89
   8 -12   2    2.53    4.91
   8 -12  -2    2.75   11.51
   8 -12  -2    2.82   14.88
  -8  12  -2   11.91   11.91
   8  12   2    2.71    9.71
   8 -12  -2   -1.28    9.02
   8  12   2    1.17    9.38
  -9 -12  -2   -5.83    8.83
   9  12  -2    2.75    6.93
   9 -12   2    0.00   13.85
  -9 -12  -2    8.17    8.10
  -9  12   2   -2.71    6.01
   9 -12  -2    3.19    5.79
  -9  12  -2    0.33    4.32
   9 -12  -2   29.94   13.05
  -9  12  -2   -4.91    6.78
   9  12   2   -0.29   13.16
   9 -12  -2   -1.72    6.05
   9  12   2   -0.04    5.35
  10 -12   2   -7.22   10.85
 -10 -12  -2    1.10   16.23
 -10 -12  -2    2.20   10.37
 -10  12   2   17.00   12.06
  10  12  -2   12.72    8.87
  10 -12  -2    8.21    9.93
  10 -12  -2    9.38   11.40
 -10  12  -2   -0.51   13.56
  10 -12  -2    6.12   12.02
  10  12   2    3.30   10.00
  11 -12   2    5.09    9.16
 -11 -12  -2    6.45   13.71
  11 -12   2    1.06    4.21
  11  12  -2    0.26   12.53
  11 -12  -2   -3.59    9.09
  11 -12  -2   -1.10    6.12
  11 -12  -2   -2.02   10.44
  11  12   2   -1.21    6.01
 -12 -12  -2    7.48    9.89
  12 -12   2    9.78    4.18
  12  12  -2   -8.43    8.76
  12 -12  -2   22.43   16.05
 -12  12  -2   -0.81    4.18
  12 -12  -2    2.75    5.72
  12 -12  -2   14.29   11.29
  12  12   2   -1.43   10.22
 -13 -12  -2   -0.99    8.76
  13 -12   2   -1.87    3.44
  13 -12  -2    2.42    4.65
  13  12   2    3.33    9.49
  13 -12  -2    0.04    9.13
  13 -12  -2    1.72    5.72
  14 -12   2    4.69    6.52
  14 -12   2   11.14   11.76
 -14 -12  -2    8.14   14.62
  14  12  -2    5.53    9.93
  14 -12  -2    0.33    9.78
  14 -12  -2    4.32    7.11
  14  12   2   -4.95    7.04
 -14  12  -2    4.29   20.63
  14 -12  -2   -1.06   10.63
  15 -12   2   10.08   19.20
  15 -12   2    0.29    5.72
 -15 -12  -2   11.36   13.74
  15  12  -2   -3.63    9.71
  15 -12  -2   -3.70    4.03
 -15  12  -2   -3.22    3.85
  15 -12  -2    4.07   14.92
 -15  12  -2   -9.20   17.66
  15  12   2    3.81    6.71
  15 -12  -2    0.40   10.52
 -16 -12  -2   30.16   15.83
  16  12  -2    4.29   18.65
  16 -12  -2   -0.84    8.76
  16 -12  -2    7.84    4.87
  16 -12  -2    0.99   10.99
 -16  12  -2    9.49   12.97
  16  12   2   11.84    8.39
   0  13   2    1.72    4.80
   0 -13  -2   -3.77    4.91
  -1  13   2   11.03    6.08
   1  13   2   19.79   10.11
   1  13   2    0.62    6.27
  -2  13   2   23.86    8.36
   2  13   2   41.92   19.64
  -3  13   2   55.19   12.61
  -3 -13  -2   16.20   17.26
   3  13   2   78.64   23.01
  -4  13   2    2.09    8.39
   4 -13  -2   15.94   12.06
   4  13   2   -0.73    7.81
   4 -13  -2    0.00    6.89
   4 -13  -2    4.51    5.20
   5 -13   2   -0.11   15.17
  -5  13   2   23.71    8.87
  -5 -13  -2    7.29    8.47
   5 -13  -2   36.17   12.64
   5 -13  -2    8.98   15.03
   5 -13  -2   13.96   11.51
   6 -13   2    0.00   24.55
  -6 -13  -2   11.98   13.41
  -6  13  -2   21.69    8.54
   6 -13  -2   11.07   11.54
   6  13   2   21.29   21.80
   6 -13  -2   12.83    9.86
   7 -13   2    0.62   10.81
  -7 -13  -2    7.07   10.81
  -7  13   2   -7.15   12.39
   7 -13  -2    7.44    7.59
   7 -13  -2    5.31    9.31
  -7  13  -2    7.11    7.26
   7 -13  -2    4.29    9.93
   8 -13   2    0.00   11.47
  -8 -13  -2    9.78    8.14
  -8  13   2    7.62    6.60
   8 -13   2    5.68    4.80
  -8  13  -2    2.97   11.47
   8 -13  -2   -8.58   14.81
   8 -13  -2    0.33   11.65
   8 -13  -2    1.36   10.11
   9 -13   2   -0.40   16.42
  -9 -13  -2    1.14    8.76
   9 -13  -2   -1.54    6.30
   9 -13  -2  -12.61   12.72
   9 -13  -2    0.18    6.05
  10 -13   2   23.45   13.12
 -10 -13  -2    9.38   17.74
  10 -13  -2    7.26   11.29
  10 -13  -2   11.07   12.39
  10  13   2    2.05   14.07
  11 -13   2   -0.11    4.40
  11  13  -2   -0.81   13.41
  11 -13  -2    1.91    8.50
  11 -13  -2   10.15    9.20
  11  13   2    0.95    7.07
  12  13  -2    9.93    9.97
  12 -13   2   19.86   18.91
  12 -13   2    3.48    4.32
  12 -13  -2   -4.69    5.90
 -12  13  -2    6.38    4.51
  12 -13  -2    4.84   11.98
  12  13   2    3.08    7.99
  13 -13   2  -10.48   10.66
 -13 -13  -2   -2.79    8.47
  13  13  -2    0.29    9.09
  13 -13   2   -0.51    3.63
  13 -13  -2    6.19    4.40
 -13  13  -2   -1.28    5.75
  13 -13  -2    5.46    8.83
  13 -13  -2   -0.33    6.63
  13  13   2  -10.81   11.69
  14 -13   2    0.15    6.74
  14 -13   2   10.96   13.01
 -14 -13  -2   29.90   14.92
  14  13  -2    8.83   16.12
  14 -13  -2   -3.85    8.14
  14 -13  -2   -7.81    8.39
  14  13   2   18.43    9.42
  14 -13  -2    0.81   11.18
  15 -13   2   25.25   21.62
  15  13  -2   23.93   15.43
  15 -13  -2    4.73    4.36
 -15  13  -2   -0.51    4.29
  15 -13  -2    6.23   13.38
  15  13   2    2.82    6.93
  15 -13  -2   -0.26    7.33
  -2 -14  -2   -2.79    6.16
  -3  14   2   -2.16    4.69
  -3 -14  -2    1.28    5.83
   3 -14  -2    4.07    7.29
   3 -14  -2   -0.66    9.02
  -4  14   2   11.51   12.68
  -4 -14  -2   -1.25   13.74
   4 -14  -2   25.51   15.90
   4 -14  -2   15.68    7.66
   4 -14  -2    4.76   10.22
   5 -14   2    0.15   16.56
  -5  14   2   17.59   14.22
  -5 -14  -2   12.83    8.87
   5 -14  -2   19.02   16.23
   5 -14  -2   13.96    9.75
   5 -14  -2   19.57   12.46
  -6  14   2   -5.06    5.97
   6 -14   2    0.00   15.54
  -6 -14  -2    0.92    5.94
   6 -14  -2    8.06    7.00
   6 -14  -2    4.32    8.50
   6 -14  -2   -2.82    6.74
   7 -14   2    0.00   21.84
   7 -14   2    3.19    8.50
   7 -14  -2   11.95    8.58
   7 -14  -2   13.16    9.93
   7 -14  -2   16.97    8.28
   8 -14   2   34.45   14.44
   8 -14  -2    7.95   14.26
  -8  14  -2   -3.22   11.69
   8 -14  -2   23.71   16.16
   9 -14   2   -8.50   16.31
   9 -14  -2    9.34    6.96
   9 -14  -2    7.51   12.50
  -9  14  -2   -3.04    5.53
  10 -14   2   23.05   12.06
  10 -14  -2    1.32    6.41
  10 -14  -2   -4.10   10.30
  11 -14   2   20.41   10.74
 -11 -14  -2   12.61    9.16
  11 -14   2    1.65    4.51
  11 -14  -2    1.17    8.50
  12 -14   2   -6.23   17.77
 -12 -14  -2   14.44    9.20
  12 -14   2    0.70    4.58
  12 -14  -2    6.71    5.61
 -12  14  -2   -0.15    4.25
  12 -14  -2   13.08   13.45
  13 -14   2    8.39   12.57
 -13 -14  -2   -1.03    9.60
  13 -14   2    0.04    4.58
  13 -14  -2    8.61    5.28
 -13  14  -2    6.01    6.78
  13 -14  -2    1.21    7.84
  13  14   2   10.63   13.74
   1 -15  -2    3.59    8.98
   3 -15  -2    8.72    9.34
   4 -15  -2  -15.17   16.53
   5 -15  -2   13.34   10.04
   6 -15   2   10.70   11.76
   6 -15  -2   -6.41   12.31
   7 -15   2   26.79   15.68
   7 -15   2   -1.43    4.47
   7 -15  -2   -0.48    6.67
   8 -15   2    2.16   13.19
   8 -15  -2   14.26   11.87
  -8  15  -2    1.58    7.00
   9 -15   2   12.68   13.67
   9 -15  -2   18.51    8.80
  -9  15  -2    1.80    6.78
  10 -15   2   11.40   18.47
  10 -15   2   12.75    8.25
  10 -15  -2   -4.29    6.34
  11 -15   2   -0.40    7.84
  11 -15  -2   -1.94    8.36
  11 -15  -2    7.07    7.29
   2 -16  -2   -2.24    7.66
   5 -16   2   10.77   16.60
   5 -16  -2   18.73   10.92
   6 -16  -2   12.24    8.80
   7 -16   2    3.77   16.01
   7 -16  -2   22.87   15.79
   8 -16   2   -4.25   20.60
   8 -16  -2    8.58    8.91
  -8  16  -2   12.09    7.88
   1 -17  -2   11.73    9.97
   2 -17  -2   12.68   10.92
   0   0   3    0.70    1.61
   0   0  -3   -0.07    1.87
   0   0  -3    0.48    0.92
   0   0   3    0.07    2.75
   0   0  -3   -2.13    4.91
   0   0  -3    2.93    3.26
   0   0   3   -0.29    1.58
   0   0  -3   -0.70    2.57
  -1   0   3  388.24   19.50
   1   0  -3  365.15   13.19
  -1   0  -3  368.96   14.77
   1   0   3  388.31   24.74
  -1   0  -3  331.10   30.20
  -1   0   3  334.18   13.16
   1   0   3  364.16   18.51
   1   0   3  390.55   22.10
  -1   0   3  364.38   23.05
  -1   0  -3  374.60   34.26
   1   0  -3  321.58   23.60
  -1   0  -3  381.53    9.75
   1   0   3  348.77   21.80
   1   0   3  403.34   20.19
  -1   0   3  340.67   25.98
   2   0  -3    3.88    1.69
   2   0  -3    0.92    1.10
   2   0   3    1.65    3.59
  -2   0   3    2.09    2.24
   2   0   3   -2.57    3.44
  -2   0  -3    0.73    1.61
   2   0  -3   -0.66    2.71
  -2   0  -3    2.90    3.85
  -2   0   3    4.25    3.26
  -2   0   3    1.72    1.72
   2   0   3    6.38    5.61
   3   0   3  144.13   22.76
   3   0  -3  150.88    5.90
  -3   0  -3  149.48    5.72
   3   0  -3  170.85   10.66
  -3   0   3  155.13    8.17
   3   0   3  144.68    9.09
   3   0  -3  152.34    5.64
  -3   0  -3  145.27   15.06
  -3   0  -3  157.18    7.70
  -3   0   3  145.63    6.60
  -3   0   3  140.58   11.07
   3   0   3  163.81   13.71
  -3   0   3  146.18    9.86
  -3   0  -3  146.04   13.82
  -4   0   3    0.44    2.71
  -4   0   3    0.88    2.13
   4   0  -3    0.73    1.69
   4   0  -3   -0.04    1.76
   4   0   3    1.36    2.57
  -4   0  -3    0.37    0.84
  -4   0  -3    0.77    1.94
   4   0  -3   -0.37    1.83
  -4   0   3   -1.47    2.79
  -4   0   3    0.18    2.75
  -4   0  -3   -2.35    3.85
  -4   0   3    0.37    4.76
   4   0   3    6.45    4.62
   4   0  -3   -0.70    2.27
  -5   0  -3  421.48   31.19
   5   0  -3  483.56   23.56
   5   0  -3  487.59   20.41
  -5   0   3  510.64   23.97
  -5   0  -3  429.21   11.47
  -5   0   3  432.47   29.06
  -5   0  -3  443.39   19.68
  -5   0   3  379.70   34.12
   5   0  -3  470.00   28.62
  -5   0  -3  418.25   31.63
  -5   0   3  496.13   22.79
  -5   0   3  477.95   41.63
   5   0   3  487.44   43.35
  -6   0   3    8.43    3.26
  -6   0  -3    3.74    5.53
  -6   0  -3    1.21    5.57
   6   0   3   17.15    7.22
   6   0  -3   11.18    4.25
  -6   0   3    4.69    4.80
   6   0  -3    9.24    2.35
   6   0  -3    2.38    4.54
   6   0   3    0.29    5.79
  -6   0   3    5.20    8.06
   7   0   3  603.90   50.98
  -7   0  -3  757.02   33.94
   7   0  -3  648.50   30.31
  -7   0  -3  684.42   53.32
  -7   0  -3  676.43   78.31
  -7   0  -3  646.71   50.61
   7   0   3  732.13   44.67
  -7   0   3  622.34   31.63
   7   0   3  727.37   32.87
   7   0  -3  699.00   32.25
  -7   0   3  649.38   48.92
   7   0  -3  623.18   47.02
  -7   0  -3  634.21   24.99
   8   0   3   -1.36    3.63
  -8   0   3    4.95    2.90
  -8   0  -3    0.55    6.78
  -8   0  -3   -1.39    5.86
   8   0  -3    4.51    2.68
   8   0  -3   -1.65    3.19
   8   0   3    3.52    6.96
  -8   0  -3    9.75    4.32
  -8   0   3    2.49    3.74
  -8   0  -3    5.53    9.42
  -8   0  -3    3.30    1.76
   8   0   3    7.37    2.64
  -9   0   3   25.32    4.58
  -9   0  -3   20.05   15.72
  -9   0  -3   28.80    9.86
  -9   0  -3   28.33    4.18
   9   0  -3   27.60    6.52
   9   0   3   37.71    6.41
   9   0   3   24.74    9.24
   9   0  -3   27.49    8.06
  -9   0  -3   31.81    9.67
  -9   0  -3   21.77    3.08
 -10   0  -3   -0.29   11.62
 -10   0  -3    1.39   12.31
 -10   0   3    5.28    3.37
 -10   0   3    1.61    4.14
  10   0   3    3.15    4.65
  10   0  -3    7.70    3.22
  10   0  -3    2.82    3.85
 -10   0  -3   12.20    7.51
 -11   0   3    3.30    3.59
  11   0  -3   10.19    5.53
 -11   0  -3   11.80   16.05
 -11   0   3    6.60    7.84
 -11   0  -3    3.99    9.93
  11   0   3    8.61    7.73
  11   0  -3    0.95    4.14
 -11   0  -3    4.03    7.66
 -12   0   3   -2.05    4.91
 -12   0  -3    1.83    8.76
  12   0   3   -3.33    4.03
  12   0  -3    1.61    2.68
 -12   0   3    0.55    4.21
  12   0  -3    1.06    3.74
 -12   0  -3    2.42    6.45
 -12   0  -3   -3.52    8.47
  13   0  -3   25.76    4.98
 -13   0   3   32.32    9.27
 -13   0  -3   48.12   15.87
 -13   0   3   19.13   12.50
  13   0   3   23.56    7.37
  13   0  -3   22.21    7.26
 -13   0  -3   13.45   11.62
 -13   0  -3    8.43   15.79
  14   0   3   -5.24    5.50
 -14   0   3   -1.43    3.81
 -14   0  -3   -5.79   10.48
  14   0   3    2.20    7.92
 -14   0  -3   -2.68   14.62
  14   0   3   -1.61    3.22
 -14   0   3    1.69    5.13
  14   0  -3    4.03    5.28
 -14   0  -3   -2.38    8.06
 -15   0   3  133.03   13.19
 -15   0  -3  144.83   34.34
 -15   0  -3  134.93   38.85
  15   0  -3  157.73   12.20
 -15   0   3  121.96   27.08
  15   0   3  121.81   18.51
  15   0  -3  139.29   18.10
 -15   0  -3  144.79   27.01
 -16   0  -3    4.54   11.29
 -16   0  -3    3.33    9.05
  16   0  -3    1.21    6.01
 -16   0   3    5.68    6.89
 -16   0   3    4.76    6.56
  16   0  -3   -5.31    9.75
 -16   0  -3   -1.32    9.75
 -17   0   3  129.95   14.73
 -17   0  -3  133.80   53.06
 -17   0  -3  146.70   29.90
 -17   0   3  144.43   21.29
  17   0   3  123.90   19.90
  17   0  -3  130.10   31.74
 -17   0  -3  117.53   29.94
  17   0  -3  150.62   13.23
 -18   0  -3   -7.22   18.51
 -18   0   3    3.26   11.76
  18   0   3    7.92   10.48
  18   0  -3   -8.54   10.70
 -18   0  -3  -11.73   15.76
 -19   0  -3   10.55   22.10
 -19   0  -3   10.11   22.68
  19   0   3    9.16    9.64
  19   0  -3   18.51   10.08
 -20   0  -3   -9.09   11.21
 -20   0  -3    1.65   10.41
  20   0  -3    1.39    7.73
 -20   0   3    1.98   13.23
  20   0   3   -1.25    7.40
 -21   0  -3    3.08   12.83
 -21   0  -3    4.58   11.58
 -21   0   3    1.25   10.92
  21   0  -3  -10.11   13.82
  21   0   3    0.88   14.44
  22   0  -3  -15.36   18.51
 -22   0  -3   30.97   17.66
 -22   0  -3    1.25   16.01
  22   0   3    4.54   12.17
 -22   0   3   39.87   22.46
   0  -1  -3  169.57    5.86
   0   1  -3  182.10    8.39
   0  -1  -3  171.69    7.92
   0   1  -3  163.81   13.45
   0   1   3  156.15   11.95
   0  -1   3  161.25    9.86
   0   1  -3  167.99   11.76
   0   1   3  173.82    5.20
   0  -1   3  175.69    8.80
   0  -1   3  184.19    9.67
   0   1   3  155.93   19.31
   0  -1  -3  167.40   14.95
   0  -1   3  203.28   13.74
   0  -1   3  187.49    7.77
   0   1  -3  163.41   12.61
   0  -1  -3  172.53    7.59
   0  -1  -3  179.61   21.84
   0   1   3  187.52   17.85
   0   1   3  164.32    7.48
   0   1   3  179.94    4.62
  -1   1   3  342.03   13.08
   1  -1   3  329.24   21.04
  -1  -1  -3  295.89   23.27
   1  -1   3  368.59   16.64
   1   1  -3  387.83   19.13
  -1   1   3  314.91   21.77
   1  -1   3  358.96   21.95
  -1  -1  -3  348.48   23.86
  -1   1   3  370.43   12.83
   1  -1   3  369.33   26.20
  -1  -1  -3  359.14   16.56
   1   1  -3  303.40   20.56
  -1   1  -3  323.12   25.47
  -1  -1   3  357.75   12.75
   1   1   3  315.38   22.57
  -1  -1   3  360.83   17.52
  -1   1  -3  361.56   11.29
  -1  -1   3  326.41   21.48
  -1  -1   3  322.02   16.16
   1   1   3  321.87   11.21
   1   1   3  279.36   27.71
  -1   1  -3  388.24   20.89
  -1   1  -3  326.89   23.45
   1  -1  -3  289.95   24.00
   1  -1  -3  357.45   18.18
   1  -1  -3  311.39   24.22
   1  -1  -3  331.03   11.84
  -2   1   3   40.97    5.35
  -2  -1  -3   54.79   11.87
   2  -1   3   54.42   11.54
   2  -1   3   44.67   10.33
   2  -1   3   49.58    2.97
  -2  -1  -3   46.10    6.23
  -2   1   3   43.21    4.36
   2   1  -3   45.37    5.17
  -2   1   3   44.38    2.27
  -2  -1  -3   52.22    8.32
  -2   1   3   50.24    7.59
  -2   1   3   47.09    6.34
  -2  -1  -3   47.02    2.79
   2   1  -3   52.19    5.35
   2   1   3   57.02   12.42
  -2  -1   3   45.26    3.33
  -2   1  -3   51.01    3.04
  -2   1  -3   51.78    4.36
   2   1   3   45.99    3.88
  -2  -1   3   52.66    4.84
  -2   1  -3   68.71   11.65
  -2  -1   3   42.22    4.47
  -2  -1   3   44.09    5.35
  -2   1  -3   54.90    9.75
   2   1   3   51.82    6.56
   2  -1  -3   44.16    3.85
   2   1   3   49.84    7.33
  -3   1   3   17.22    3.59
  -3  -1  -3    9.78    2.38
   3  -1   3   13.60    2.53
   3   1  -3   21.22    4.03
   3  -1   3   10.63    7.55
  -3   1   3    9.09    7.22
   3   1  -3   15.32    2.97
  -3  -1  -3   13.27    2.90
  -3  -1  -3   16.56    8.76
  -3   1   3   15.25    7.92
   3   1  -3    6.78    3.37
   3  -1   3   19.72    9.97
   3   1   3   12.28    6.56
   3  -1  -3   14.11    4.47
  -3   1  -3   17.37    3.08
  -3   1  -3   16.56    1.58
   3   1   3   16.93    4.76
  -3  -1   3   12.50    2.27
  -3   1  -3   15.61    8.43
   3   1   3    8.91    3.22
   3   1   3   10.70    5.83
  -3  -1   3   13.38    4.21
  -3  -1   3    9.42    4.91
  -3   1  -3   13.85    6.78
   3  -1  -3   10.04    3.55
   3  -1  -3   10.26    2.68
  -3  -1   3   13.74    2.16
  -3  -1   3   12.86    2.57
  -4   1   3   28.66    4.76
   4   1  -3   26.57    3.74
  -4   1   3   21.77    6.30
   4   1  -3   29.72    5.06
  -4  -1  -3   28.25    3.41
   4  -1   3   28.29    8.58
  -4   1   3   27.96    4.14
  -4  -1  -3   26.06   11.58
  -4  -1  -3   27.89    1.83
  -4   1   3   23.82    5.90
  -4   1   3   26.97    2.02
   4   1  -3   28.18    3.19
  -4   1   3   28.11   10.30
   4  -1   3   25.80    8.87
  -4  -1  -3   25.21    7.44
   4   1   3   27.67    8.58
  -4  -1   3   26.42    3.52
  -4   1  -3   24.00    8.36
   4  -1  -3   28.62    3.70
   4   1   3   28.36    3.85
   4  -1  -3   22.13    3.08
   4   1   3   20.56    4.76
  -4  -1   3   24.04    5.17
  -4  -1   3   22.57    3.37
  -4   1  -3   35.07    6.16
  -4  -1   3   25.14    4.14
   4  -1  -3   31.08    3.99
  -4  -1   3   27.92    3.01
   4   1   3   25.03   11.29
  -4   1  -3   31.81    6.93
  -5   1   3   65.27    4.84
  -5  -1  -3   81.91   10.77
  -5   1   3   55.74   10.70
   5  -1   3   60.80   12.50
   5   1  -3   62.15    2.93
  -5  -1  -3   47.64    8.28
  -5   1   3   56.91   13.85
  -5  -1  -3   59.59   10.00
  -5  -1  -3   53.72    3.37
   5   1  -3   48.52    8.69
  -5   1   3   66.73   14.88
  -5  -1  -3   71.06    5.02
   5  -1  -3   59.77    6.93
   5  -1  -3   60.39    8.10
  -5   1  -3   73.99   15.90
   5   1   3   54.35    7.92
   5   1   3   56.33   16.56
   5  -1  -3   64.94    4.65
  -5  -1   3   50.28    7.81
  -5  -1   3   56.99    6.52
  -5   1  -3   62.01   13.01
  -5  -1   3   58.23    7.88
   5   1   3   65.71   12.28
  -6  -1  -3  109.50   11.91
  -6  -1  -3  132.19   19.83
   6   1  -3  104.63    6.52
  -6  -1  -3  112.51    4.40
  -6   1   3  104.04   13.34
   6  -1   3  111.81   18.21
   6   1  -3  106.57    4.84
  -6   1   3  109.06   10.66
  -6  -1  -3  103.34    6.82
  -6  -1  -3   80.62   19.42
   6   1  -3  111.44   11.84
   6  -1  -3  103.56    6.71
  -6  -1   3  109.21    7.55
  -6   1  -3  113.72   19.86
   6   1   3  113.31    7.33
  -6   1  -3  119.84    7.48
   6   1   3   94.33    7.33
  -6  -1   3  110.45   12.13
  -6   1  -3  102.83   12.75
   6  -1  -3  123.32   10.11
  -6  -1   3  133.94   14.40
   6  -1  -3  107.78    6.74
   6   1   3   96.49   19.42
  -6  -1   3  101.07   10.33
  -7  -1  -3    4.80    1.17
  -7   1   3    9.27    3.37
  -7  -1  -3    6.01    5.31
   7   1  -3    8.47    2.82
  -7  -1  -3    5.94    9.13
   7   1  -3    5.09    0.88
  -7   1   3    0.73    5.68
   7  -1   3    5.02    7.18
  -7  -1  -3    1.87    5.42
   7   1  -3    2.27    3.37
  -7  -1   3   14.15    4.43
  -7   1  -3    4.87    6.16
   7  -1  -3   11.65    4.32
   7   1   3    2.60    5.20
  -7  -1   3    5.31    5.17
   7  -1  -3    3.63    2.93
  -7   1  -3   11.36    8.76
  -7  -1   3   14.84    4.73
   8  -1   3   49.99   13.56
  -8   1   3   48.81    6.01
  -8  -1  -3   58.23   17.30
  -8  -1  -3   63.40   15.39
  -8  -1  -3   61.64   10.85
  -8   1   3   53.06    7.26
  -8  -1  -3   46.43    3.74
   8  -1   3   55.59    8.87
   8   1  -3   53.58    6.23
   8   1  -3   52.22    7.59
   8  -1  -3   54.20    5.42
  -8  -1   3   52.11    7.95
  -8   1  -3   63.36   18.95
  -8   1  -3   52.22   17.81
   8  -1  -3   52.70    5.17
  -8   1  -3   52.37    5.46
  -8  -1   3   59.00    7.07
   8   1   3   46.18    9.05
   8  -1  -3   51.12    8.69
  -8  -1   3   62.01    7.81
  -9   1   3   34.59    5.31
  -9  -1  -3   26.09   10.48
  -9  -1  -3   39.62   13.52
  -9  -1  -3   35.55   15.57
  -9   1   3   26.24   10.63
   9   1  -3   41.74    4.62
   9  -1   3   31.96    7.73
   9   1  -3   26.72    8.83
  -9  -1  -3   29.17    3.37
  -9   1  -3   34.92   22.46
  -9  -1   3   48.48    7.48
   9  -1  -3   40.82    7.29
  -9   1  -3   32.65   10.66
   9  -1  -3   41.45    7.73
  -9  -1   3   28.84    6.38
   9   1   3   32.07    5.75
   9  -1  -3   33.64    8.50
  -9  -1   3   32.58    4.69
  10  -1   3  520.86   26.72
 -10  -1  -3  525.52   47.24
  10   1  -3  498.07   25.21
 -10  -1  -3  487.44   49.95
 -10   1   3  441.16   26.46
 -10   1   3  550.58   45.96
  10  -1   3  467.87   45.41
  10   1  -3  471.57   39.18
 -10  -1  -3  522.99   46.65
 -10  -1  -3  453.07   20.96
  10  -1   3  495.06   35.40
 -10   1  -3  627.61   62.45
 -10  -1   3  442.99   24.55
  10  -1  -3  495.36   26.20
 -10   1  -3  559.82   50.54
  10  -1  -3  503.53   27.01
 -10   1  -3  554.94   27.16
  10   1   3  514.05   54.20
  10   1   3  461.46   37.93
  10  -1  -3  522.15   31.22
 -10  -1   3  498.62   40.06
 -10  -1   3  459.15   25.40
 -11   1   3   65.85   11.36
  11   1  -3   57.79    9.93
  11  -1   3   80.70   14.59
 -11   1   3   68.75    8.58
  11  -1   3   63.44   10.81
 -11  -1  -3   62.85   14.92
 -11  -1  -3   58.49   17.15
 -11  -1  -3   74.50   15.06
  11   1  -3   52.70    8.98
 -11   1  -3   64.46   21.55
 -11  -1   3   61.68    6.63
 -11   1  -3   49.62   24.00
 -11   1  -3   59.33   16.31
  11  -1  -3   65.63    6.93
  11   1   3   70.99    5.97
  11   1   3   64.02   11.43
  11   1   3   47.93   13.34
  11  -1  -3   50.68    8.50
 -11  -1   3   48.30    8.61
 -11  -1   3   65.52    7.04
 -12   1   3   50.02   12.31
 -12  -1  -3   46.72   17.15
  12   1  -3   48.01    6.16
 -12  -1  -3   66.22   15.54
 -12  -1  -3   55.74   21.29
 -12   1   3   65.82   12.57
  12   1  -3   51.27    8.54
  12  -1   3   55.63   15.94
 -12  -1  -3   50.87    6.38
 -12  -1   3   50.54    9.02
 -12  -1   3   50.54    9.64
 -12   1  -3   68.46   23.27
 -12   1  -3   62.04   14.70
  12  -1  -3   51.75    6.52
  12   1   3   40.75   16.12
 -12   1  -3   54.24    5.53
  12   1   3   44.34    8.72
  12  -1  -3   53.65    8.72
 -12   1  -3   60.50   20.08
 -12  -1   3   47.75   10.52
 -13   1   3    8.87    4.47
 -13  -1  -3    8.50   11.69
  13   1  -3   11.32    3.85
 -13   1   3   -0.70    5.39
 -13  -1  -3    5.94    2.79
  13  -1   3    9.97    6.34
  13   1  -3    5.24    5.31
 -13  -1  -3    0.37   13.85
 -13  -1  -3    1.03    9.71
 -13   1  -3    2.46    9.45
 -13  -1   3    4.10    6.67
 -13   1  -3   15.06   12.97
  13  -1  -3    9.49    4.03
 -13   1  -3    6.45   13.93
 -13  -1   3    6.38    8.83
  13   1   3    9.24    8.43
  13  -1  -3    6.12    5.53
 -14   1   3  120.28   12.06
 -14  -1  -3  122.22   12.09
 -14  -1  -3  135.34   35.47
  14   1  -3  122.66   15.14
 -14  -1  -3  125.04   28.07
 -14  -1  -3  107.30   25.03
 -14   1   3  124.82   14.70
  14  -1   3  117.82   23.60
  14   1  -3  113.57   14.73
 -14  -1   3  114.41   10.74
 -14   1  -3  118.88   29.83
 -14   1  -3  108.51   33.75
 -14   1  -3  123.21   24.33
 -14  -1   3  148.38   17.30
  14  -1  -3  132.92   15.72
  14  -1  -3  114.23   10.19
  14   1   3  109.21   13.78
 -15   1   3   10.81    5.13
 -15  -1  -3    8.61   16.60
 -15  -1  -3    7.18    8.28
 -15  -1  -3   16.82   11.51
  15  -1   3   -1.28    7.29
  15  -1   3   15.25    6.89
  15   1  -3    8.03    4.40
 -15   1   3   -2.68   10.63
  15   1  -3   10.55    6.67
 -15  -1   3    1.28    4.69
 -15   1  -3    0.55   14.66
 -15   1  -3    1.03   15.57
 -15   1  -3   12.28   11.29
  15  -1  -3   13.45    4.25
 -15  -1   3    9.78   12.28
  15   1   3   12.68    6.19
  15  -1  -3    5.50   11.32
 -16  -1  -3   38.37   15.79
  16  -1   3   37.71   15.46
 -16  -1  -3   41.12   16.93
 -16   1   3   52.81   11.03
 -16  -1  -3   40.57   13.63
  16  -1   3   33.57   17.99
  16   1  -3   40.93   11.29
 -16   1   3   27.41   12.79
 -16  -1   3   28.40   11.54
  16  -1  -3   48.19   17.00
 -16   1  -3   32.84   21.62
 -16   1  -3   39.87   28.80
  16  -1  -3   47.57    6.82
  16   1   3   36.54    6.01
 -16  -1   3   32.73   11.32
  16   1   3   37.78   15.90
 -17   1   3   17.74    6.49
  17  -1   3   14.51    9.67
 -17  -1  -3   17.11   13.67
 -17  -1  -3   22.06   13.45
 -17   1   3   16.45    9.45
 -17  -1  -3    6.49   11.10
  17   1  -3   18.14    8.80
 -17  -1   3   14.70    6.41
 -17   1  -3    4.14   16.45
  17  -1  -3   18.14    5.75
 -17  -1   3   16.97    9.49
  17   1   3   14.81    8.72
  17  -1  -3   18.65    9.89
 -17   1  -3   10.92   23.09
 -18  -1  -3   -2.24   12.09
 -18  -1  -3    0.15   12.06
 -18   1   3   10.30   14.11
  18  -1   3    8.94   12.94
  18   1  -3   15.76   12.57
 -18   1  -3  -11.40   13.49
  18  -1  -3    6.71    4.62
  18   1   3    5.94    7.51
 -18  -1   3   -5.83   16.78
  18  -1  -3   16.27    8.28
 -18   1  -3    4.36   13.19
 -19  -1  -3   11.84   12.83
 -19  -1  -3    1.76   12.50
  19  -1   3    2.86    9.09
  19   1  -3    4.03   13.27
  19   1   3    0.04   14.15
 -19  -1   3   21.73   11.10
  19  -1  -3   -5.28    8.65
 -19   1  -3    9.13   13.27
  19  -1  -3    7.40    4.80
 -20  -1  -3    4.69   25.76
 -20  -1  -3   29.79   15.21
  20  -1   3   10.63   18.32
  20   1  -3    1.91   11.51
  20   1   3   17.81   11.73
 -20   1  -3   10.77   17.59
  20  -1  -3   38.88   17.63
 -20  -1   3    4.51   19.90
 -20   1  -3   24.99   27.52
 -21  -1  -3   16.75   30.09
 -21  -1  -3   36.87   30.93
  21   1  -3    5.97   15.43
  21  -1   3   32.65   15.10
 -21   1  -3   35.40   30.23
  21   1   3   21.91   23.78
 -21   1  -3   23.42   33.31
 -21  -1   3   33.09   15.61
  21  -1  -3   37.42   14.04
 -22  -1  -3    9.53   32.43
  22  -1   3   20.96   22.94
 -22   1   3   34.30   15.32
  22   1  -3    0.66   15.32
 -22  -1  -3   40.90   19.53
 -22   1  -3   23.56   19.24
 -22   1  -3   15.32   21.44
 -22  -1   3   25.40   25.21
  22   1   3   22.61   14.59
  22  -1  -3   29.54   15.14
   0  -2  -3    6.01    2.27
   0  -2   3    1.91    3.88
   0   2   3    3.99    2.09
   0   2  -3    4.03    2.31
   0   2  -3    3.92    3.11
   0   2   3    1.80    4.36
   0   2   3    6.05    4.43
   0  -2  -3    0.77    8.03
   0   2  -3    2.24    2.93
   0  -2  -3    5.64    4.47
   0   2   3    5.50    4.18
   0  -2   3    4.03    4.36
   0  -2   3    3.99    1.36
   0  -2   3    2.46    1.17
  -1  -2  -3   28.58    3.77
   1  -2   3   28.62    7.44
   1   2  -3   32.47    2.60
  -1  -2  -3   31.63    7.26
  -1   2   3   19.79    6.63
  -1  -2  -3   30.34    6.67
   1   2  -3   27.60    4.80
  -1   2   3   23.78    9.31
   1  -2   3   34.78    8.61
  -1  -2   3   21.44    5.94
   1  -2  -3   37.34    5.97
  -1   2  -3   34.08    3.85
  -1   2  -3   31.59    1.94
  -1  -2   3   23.45    3.85
   1   2   3   36.13    3.63
   1   2   3   24.85   10.19
  -1   2  -3   28.40    5.75
   1   2   3   25.03    6.49
   1  -2  -3   30.42    7.70
   1   2   3   26.31    6.96
  -1  -2   3   28.29    1.54
  -2  -2  -3    3.81    3.44
   2  -2   3    0.92    1.76
   2   2  -3    3.15    2.75
  -2   2   3    1.36    1.54
  -2   2   3    3.63    6.56
  -2   2   3    6.49    7.18
  -2  -2  -3   12.06    6.74
  -2  -2  -3   12.31    7.33
   2   2  -3    3.04    4.65
   2  -2   3    0.15    5.97
   2  -2   3    4.65    5.57
   2  -2  -3    3.44    2.46
  -2  -2   3   -2.64    3.63
   2   2   3    9.97    4.80
   2   2   3   -0.33    7.40
  -2  -2   3    0.70    2.27
  -2   2  -3    0.55    4.03
  -2  -2   3    3.30    2.31
   2   2   3    2.86    1.32
   2   2   3   12.02    7.11
  -2   2  -3    0.73    2.49
   2   2   3    8.10    2.46
  -2   2  -3    3.30    2.38
  -2  -2   3    1.14    1.50
  -3   2   3   50.65    4.07
   3  -2   3   41.15   17.00
   3   2  -3   61.90    5.94
  -3   2   3   47.24    6.60
  -3   2   3   54.82    4.62
  -3   2   3   44.89   13.01
  -3  -2  -3   49.88   13.05
  -3   2   3   50.06   13.38
  -3  -2  -3   44.34    3.99
   3  -2   3   46.58    9.53
   3  -2   3   54.97    3.15
  -3   2  -3   49.29    8.91
  -3  -2   3   54.49    5.79
   3   2   3   48.15    9.27
  -3   2  -3   51.67    7.48
   3   2   3   58.09    5.09
   3   2   3   46.87   14.77
  -3  -2   3   47.20    7.40
   3  -2  -3   48.26    5.17
  -3  -2   3   42.33    7.15
   3  -2  -3   54.38    7.22
   3   2   3   52.48    8.91
  -3  -2   3   46.80    4.14
  -4   2   3   23.49    3.81
   4  -2   3    9.31    6.89
   4   2  -3   23.45    4.69
  -4  -2  -3   22.06   10.33
  -4   2   3   20.05    1.87
  -4  -2  -3   25.21    4.87
   4   2  -3   18.95    4.03
  -4   2   3   20.05    6.63
  -4   2   3   24.77    6.82
  -4   2   3   22.02    7.99
   4   2   3   17.99   12.79
  -4  -2   3   23.01    4.73
  -4   2  -3   24.66    3.63
   4   2   3   13.30   10.52
  -4   2  -3   17.88    9.56
  -4  -2   3   23.67    2.97
   4   2   3   19.13    3.81
   4   2   3   13.52    6.96
   4  -2  -3   17.63    5.94
  -4  -2   3   20.23    5.39
  -4  -2   3   16.45    3.70
  -4   2  -3   18.10    7.62
   4  -2  -3   22.61    3.19
   4  -2  -3   17.63    3.19
  -4  -2   3   18.03    3.41
  -5   2   3  531.20   29.65
  -5   2   3  478.13   17.26
  -5  -2  -3  484.22   26.94
  -5  -2  -3  583.57   41.81
   5   2  -3  506.42   28.11
  -5   2   3  497.96   27.78
   5  -2   3  416.38   35.55
  -5  -2  -3  445.44   47.35
  -5   2   3  496.05   38.74
  -5   2   3  503.86   51.64
   5   2  -3  412.57   34.78
  -5  -2  -3  448.27   40.49
   5   2   3  480.70   35.88
   5  -2  -3  461.46   23.38
  -5  -2   3  480.26   22.46
  -5   2  -3  494.51   44.78
  -5   2  -3  462.15   37.16
  -5   2  -3  489.09   24.22
   5   2   3  562.68   33.61
   5   2   3  511.74   27.41
  -5  -2   3  424.15   33.86
  -5  -2   3  462.85   27.38
  -5  -2   3  454.68   32.76
   5  -2  -3  526.07   26.02
   5   2   3  459.59   38.96
   5   2   3  525.11   63.55
   5  -2  -3  499.90   23.60
  -5  -2   3  460.10   19.24
  -6   2   3    6.85    3.19
   6   2  -3    4.29    3.63
  -6  -2  -3    2.79    6.71
  -6   2   3    0.99    3.66
   6  -2   3   -1.06    4.98
   6   2  -3    3.11    1.76
  -6  -2  -3    5.50    4.36
  -6  -2  -3   -3.33    8.54
  -6   2   3    2.75    5.20
   6   2  -3    2.38    5.06
  -6   2   3   -1.65    8.36
  -6  -2  -3    2.79    2.82
   6   2   3    1.87    5.13
  -6   2  -3   -0.59    5.20
   6   2   3    4.40    4.10
  -6   2  -3    3.59    5.02
  -6   2  -3   10.85    4.65
  -6  -2   3   -0.66    4.69
   6   2   3    5.57    3.77
   6   2   3    3.88    5.79
   6  -2  -3    1.21    2.27
   6  -2  -3    6.49    4.36
  -6  -2   3    0.33    3.26
   6   2   3    5.09   11.29
  -6  -2   3    4.73    2.49
   6  -2  -3    5.02    4.18
  -7  -2  -3  275.66   25.84
   7   2  -3  226.15   11.40
  -7   2   3  206.98   13.82
  -7   2   3  213.36   17.30
  -7  -2  -3  208.12   19.68
   7  -2   3  200.28   21.33
   7   2  -3  185.36   14.84
  -7  -2  -3  220.17   22.90
  -7  -2   3  205.99   10.88
   7  -2  -3  237.22   13.23
  -7   2  -3  186.90   33.61
  -7   2  -3  206.58   31.99
  -7  -2   3  203.28   15.25
   7   2   3  218.67   16.93
   7  -2  -3  249.35   18.69
   7   2   3  213.87   20.63
   7   2   3  227.36   11.65
  -7  -2   3  228.49   10.66
   7  -2  -3  224.90   12.86
  -8   2   3    9.97    5.57
  -8  -2  -3    5.28    1.39
  -8  -2  -3    8.72    7.62
   8   2  -3    5.61    2.68
  -8   2   3    8.21    5.02
  -8  -2  -3   10.70    8.28
   8   2  -3    3.48    1.32
   8  -2   3    1.69    5.90
  -8  -2  -3    1.76    9.38
   8   2  -3   -0.70    3.74
   8  -2  -3    3.22    2.97
  -8  -2   3    5.97    2.57
   8   2   3   -0.48    5.57
  -8   2  -3   15.72   10.00
   8   2   3    5.09    4.62
  -8   2  -3    8.91    4.87
  -8  -2   3    5.42    5.79
   8   2   3    6.34    4.76
  -8   2  -3    4.91    8.36
   8  -2  -3    3.96    3.30
   8  -2  -3    0.59    4.65
  -8  -2   3    4.36    3.59
  -9   2   3   25.47    8.91
  -9  -2  -3   29.94   12.13
  -9  -2  -3   23.01    9.34
   9   2  -3   32.10    4.40
  -9   2   3   37.97    8.47
  -9  -2  -3   22.54    9.05
   9  -2   3   26.28   12.90
   9   2  -3   24.70    6.08
   9  -2  -3   26.86    4.91
  -9   2  -3   33.97   14.99
  -9  -2   3   25.14    6.52
  -9  -2   3   32.47    6.49
   9  -2  -3   36.65    4.80
   9   2   3   31.52    6.45
  -9   2  -3   24.55   10.77
  -9  -2   3   23.64    8.72
   9   2   3   26.79    5.53
   9  -2  -3   35.84    5.61
 -10   2   3  116.02   15.57
 -10  -2  -3   95.76   16.60
 -10  -2  -3  107.16   17.00
  10   2  -3  108.47   12.42
 -10   2   3  112.87   16.05
  10  -2   3  105.65   22.76
 -10  -2  -3  134.79   20.23
  10   2  -3  112.07   16.16
 -10  -2   3  101.48    8.28
  10  -2  -3  110.31    8.72
  10  -2  -3  111.19    9.27
  10   2   3  100.71    7.55
 -10   2  -3  127.42   19.79
 -10   2  -3  127.86   12.75
 -10  -2   3  103.53   15.43
  10   2   3  109.94   10.26
  10  -2  -3  120.20   11.18
 -10  -2   3   97.63    7.84
 -10   2  -3  159.74   43.39
 -11  -2  -3   70.88   18.65
 -11  -2  -3   67.06   20.82
  11  -2   3   62.78   12.31
 -11  -2  -3   75.31   22.87
 -11   2   3   65.23   13.49
 -11   2   3   80.07   14.22
  11   2  -3   62.15    6.74
  11   2  -3   66.66    9.38
 -11  -2  -3   64.54    4.54
 -11   2  -3  104.41   40.53
  11  -2  -3   70.51    7.48
 -11   2  -3   78.53   17.59
 -11  -2   3   65.49    7.33
  11  -2  -3   72.19    7.33
 -11   2  -3   78.90    6.74
 -11  -2   3   65.93    9.02
  11   2   3   71.28    9.09
  11  -2  -3   81.61   10.19
 -11  -2   3   75.64    7.00
 -12   2   3   30.49    6.27
 -12  -2  -3   20.49   14.77
 -12   2   3   29.43    6.56
  12  -2   3   25.07    7.11
  12   2  -3   16.71    6.82
  12  -2   3   18.58   12.50
 -12  -2  -3   18.14   16.86
 -12  -2  -3   22.28    4.10
  12   2  -3   25.36    4.76
 -12   2  -3   20.12   27.49
 -12   2  -3   26.94   12.31
  12  -2  -3   30.45    5.20
 -12  -2   3   20.30    7.48
  12  -2  -3   28.47    5.17
  12  -2  -3   27.52    7.55
 -12   2  -3   22.10    4.54
 -12  -2   3   31.33   10.63
  12   2   3   18.43   10.30
 -12  -2   3   27.89    7.55
 -13   2   3    3.41    4.21
 -13  -2  -3    6.34   12.02
 -13  -2  -3    6.38   12.61
 -13  -2  -3    2.38   10.33
 -13   2   3   12.06    4.65
  13   2  -3    2.05    3.44
  13  -2   3    1.76    7.44
  13  -2   3   -3.15    5.94
  13   2  -3   -1.17    4.40
 -13  -2  -3    3.99    3.41
 -13   2  -3   -2.38   18.32
 -13  -2   3    1.61    3.70
 -13  -2   3   -0.59    3.63
  13  -2  -3    3.77    3.74
  13  -2  -3    5.72    5.79
 -13   2  -3    9.09   13.60
  13   2   3    2.09    7.29
  13  -2  -3    2.09    5.75
 -13  -2   3    7.51    4.87
 -14   2   3   17.30    5.90
 -14  -2  -3   19.50   17.77
 -14  -2  -3   26.61   18.25
 -14  -2  -3   17.15    9.64
 -14   2   3   25.76   10.70
  14  -2   3   11.98    9.02
  14   2  -3   19.09    6.74
 -14  -2  -3   19.17    3.48
 -14   2  -3   31.37   24.70
  14  -2  -3   23.86    5.09
 -14   2  -3   15.36    4.40
 -14  -2   3   16.38    5.17
 -14   2  -3   22.06   20.01
  14   2   3   19.17    4.29
 -14  -2   3   12.31    7.18
  14   2   3   22.39    7.22
  14  -2  -3   20.19   12.94
 -14  -2   3   18.51    5.72
 -15   2   3   89.97   10.41
 -15  -2  -3   71.86   30.75
 -15  -2  -3   89.53   17.85
 -15   2   3   85.79   20.52
  15  -2   3   80.04   15.76
  15   2  -3   63.03   12.61
 -15  -2  -3   71.94   20.93
 -15  -2  -3   65.30    9.71
 -15   2  -3   97.99   42.18
 -15  -2   3   84.18   13.74
 -15   2  -3   78.83   35.00
 -15  -2   3   58.09   19.86
  15  -2  -3   89.71   14.07
  15   2   3   83.70   11.69
  15  -2  -3  104.41   22.46
 -15  -2   3   82.42   14.44
 -16   2   3    5.09    6.78
 -16  -2  -3   -3.44   13.38
 -16  -2  -3   -6.45   12.46
 -16   2   3    6.89    6.23
  16   2  -3   -5.28    5.57
 -16  -2  -3   -2.64   13.23
  16  -2   3   -6.34    6.38
 -16  -2  -3    3.30    3.01
 -16   2  -3   13.71   16.97
 -16  -2   3    1.39    3.96
 -16   2  -3    1.14   10.30
 -16  -2   3    6.38    6.16
  16   2   3    0.18    7.99
 -16  -2   3    0.22    7.33
  16  -2  -3    2.93    6.56
  16  -2  -3    1.17    3.66
  17  -2   3  133.91   20.38
 -17  -2  -3  107.38   35.11
 -17   2   3  115.47   20.63
 -17   2   3  139.33   15.94
 -17  -2  -3  116.79   38.04
  17  -2   3  134.24   21.69
  17   2  -3  109.90   19.20
 -17  -2  -3  103.53   40.71
 -17  -2   3  127.20   13.78
 -17   2  -3  124.27   32.36
 -17   2  -3  121.45   49.25
  17  -2  -3  137.79   18.51
 -17  -2   3  123.76   30.64
  17   2   3  114.70   19.68
  17  -2  -3  150.58   23.82
  17   2   3  134.57   18.58
 -17  -2   3  107.89   25.03
 -18  -2  -3   17.22   25.18
 -18   2   3   24.52   18.18
 -18  -2  -3   23.09   21.77
  18  -2   3   27.38   12.09
  18   2  -3   19.09   10.15
 -18   2  -3   31.19   17.33
  18  -2  -3   18.87    6.38
  18   2   3   17.77    8.58
  18   2   3   14.88   10.66
  18  -2  -3   49.18   17.55
 -18   2  -3   14.84   17.74
 -18  -2   3   24.77   18.84
 -19  -2  -3    9.86   22.83
  19  -2   3    9.82   11.47
  19   2  -3   14.07   10.19
 -19  -2  -3   20.16   13.08
  19  -2  -3    7.84    8.76
 -19   2  -3   19.02   15.79
 -19   2  -3   10.11   25.73
  19   2   3    4.58   15.72
  19  -2  -3   16.38   15.54
 -19  -2   3   15.36   10.55
 -20  -2  -3    2.24   13.19
  20  -2   3    6.27    9.71
 -20  -2  -3    0.07   12.64
  20   2  -3   -5.42   14.07
 -20   2  -3    2.42   13.96
  20  -2  -3    6.60    4.84
 -20  -2   3   -1.25   14.33
  20   2   3    8.36    8.76
  20  -2  -3    8.17    9.31
 -20   2  -3    5.28   14.18
 -21  -2  -3    3.37   14.88
  21  -2   3    3.52   11.32
 -21  -2  -3    0.40   14.92
  21   2  -3   -1.50   16.93
 -21   2  -3   -7.99   25.10
 -21  -2   3   14.07   11.07
  21   2   3   11.51   10.00
 -21   2  -3    9.71   15.83
 -22  -2  -3    2.31   13.30
 -22  -2  -3   -0.95   20.16
  22  -2   3    1.14    9.93
  22   2  -3    2.71    9.49
 -22  -2   3   11.25   15.25
  22   2   3    2.64   14.33
 -22   2  -3   14.07   22.39
   0  -3  -3   13.41    6.85
   0  -3   3   21.66    5.42
   0   3   3   15.61    2.90
   0  -3   3   16.97    2.05
   0   3  -3   14.18    3.74
   0  -3   3   16.01    1.80
   0   3   3   25.21    6.67
   0   3  -3   12.02    2.64
   0  -3  -3   12.61    7.55
   0   3  -3   12.20    3.44
   0  -3  -3   24.44    9.67
   0  -3   3   15.21    7.44
  -1  -3  -3 1058.51   72.01
   1  -3   3  980.93   44.34
   1   3  -3 1047.41   65.85
  -1   3   3 1047.11   52.19
  -1  -3  -3 1079.62  103.31
  -1   3   3 1026.88   88.03
  -1  -3  -3 1123.85   85.35
   1   3  -3 1122.75   71.50
   1  -3   3  997.31   62.78
   1  -3   3 1101.35   76.45
  -1  -3   3 1130.78   49.03
  -1  -3   3 1017.76   65.52
  -1  -3   3 1022.52   48.56
  -1   3  -3 1056.49   59.15
   1   3   3  950.66   67.61
   1   3   3 1052.39   53.65
   1  -3  -3 1062.03   64.10
  -1   3  -3 1112.49   77.98
   1   3   3 1028.64   92.90
  -1   3  -3 1064.78   67.58
  -1  -3   3 1000.02   64.61
   2  -3   3    4.76    1.98
  -2   3   3    2.27    1.47
  -2  -3  -3    3.44    2.16
  -2   3   3    3.01    7.95
  -2  -3  -3   10.22    5.13
  -2  -3  -3    6.67    4.14
  -2   3   3    3.26    7.44
   2  -3   3    4.51    6.74
   2   3  -3    1.47    5.61
  -2  -3  -3    0.84    3.04
  -2  -3   3    2.13    1.21
  -2  -3   3    2.24    1.58
  -2  -3   3    6.96    3.11
   2   3   3    7.99    7.26
  -2  -3   3    4.76    3.37
   2   3   3    4.36    3.96
  -2   3  -3    1.36    3.92
   2   3   3    4.95    4.69
   2   3   3    4.14    1.03
   2  -3  -3    4.80    4.87
  -3  -3  -3   14.11    6.63
  -3  -3  -3   17.33    4.62
   3  -3   3   11.87    1.94
  -3   3   3   11.18    3.08
  -3   3   3   13.52   10.26
  -3  -3  -3   11.07    5.68
  -3   3   3   19.35    9.53
   3   3  -3   11.36    4.51
  -3  -3  -3   14.99    3.92
   3  -3  -3   22.72    6.01
  -3  -3   3   12.53    2.82
   3   3   3   15.43    5.31
   3   3   3   16.20   10.59
  -3   3  -3   21.91    8.03
   3   3   3   13.38    6.41
  -3  -3   3   12.75    4.40
  -3   3  -3   10.59    3.55
   3   3   3   13.27    2.46
  -3  -3   3   12.75    5.86
   4  -3   3   86.23   22.32
  -4  -3  -3  124.60   11.73
  -4  -3  -3   97.26   11.29
  -4   3   3  114.08   14.26
   4   3  -3   96.67   15.54
  -4   3   3  127.53   20.45
  -4  -3   3  115.99    6.78
   4   3   3  123.83   15.46
  -4  -3   3   96.09    5.97
  -4   3  -3  102.21   12.64
   4   3   3   90.96    7.37
  -4   3  -3   88.80    9.75
   4  -3  -3  105.18    5.83
   4   3   3  111.37    7.22
  -4  -3   3  102.83    8.03
   4  -3  -3   91.21   11.80
   4   3   3  122.80   14.00
   5  -3   3  174.92   21.11
   5   3  -3  199.65    9.75
  -5   3   3  181.51    9.53
  -5  -3  -3  194.67   26.39
  -5  -3  -3  235.90   18.51
  -5   3   3  197.45   21.84
  -5   3   3  200.31   26.53
   5   3  -3  184.19   20.56
   5   3   3  179.97   19.94
  -5  -3   3  190.89    8.91
   5  -3  -3  206.03   17.52
  -5   3  -3  198.92   11.98
  -5   3  -3  192.80   28.00
  -5  -3   3  194.96   14.00
  -5   3  -3  214.97   18.18
   5   3   3  196.39   10.74
   5   3   3  211.71   21.40
   5   3   3  229.45   13.85
  -5  -3   3  181.22   13.34
  -5  -3   3  185.91   14.04
   5  -3  -3  209.40   18.14
  -6   3   3   54.46    9.78
   6  -3   3   58.16   10.26
   6   3  -3   40.57    4.29
  -6  -3  -3   58.34   14.07
   6   3  -3   48.19    9.97
  -6  -3  -3   52.44    6.60
  -6   3   3   61.82   16.42
  -6   3   3   55.45    9.24
  -6   3   3   39.91   10.08
  -6   3  -3   46.72    9.38
   6  -3  -3   61.86    9.16
  -6   3  -3   29.83   15.61
  -6  -3   3   47.42    6.08
   6   3   3   52.19    7.48
  -6   3  -3   48.19    8.54
   6  -3  -3   47.27    3.81
   6   3   3   59.15    7.92
  -6  -3   3   41.74   10.55
  -6  -3   3   55.67    5.28
   6   3   3   50.87    9.53
   6  -3  -3   44.53    5.53
   6   3   3   52.66   11.58
  -6  -3   3   39.43    7.04
  -7  -3  -3   87.84   11.10
   7   3  -3   84.84    6.16
  -7   3   3   89.02    7.92
   7  -3   3   89.24   13.82
  -7  -3  -3  101.66   10.00
   7   3  -3   89.49    9.13
  -7  -3  -3   83.52   14.81
  -7   3   3   80.07    9.13
  -7  -3   3   91.03    6.67
   7  -3  -3   85.90    7.73
  -7   3  -3   90.00    7.92
  -7   3  -3   91.47   17.26
  -7   3  -3  109.79   21.59
   7   3   3   89.75    6.85
  -7  -3   3   91.21   13.19
   7  -3  -3   85.64    9.31
   7   3   3   75.75   13.82
   7   3   3  101.33    7.77
  -7  -3   3   99.20   12.61
   7   3   3   95.98   17.44
  -7  -3   3   87.51    6.38
   7  -3  -3   78.68    7.48
  -8   3   3  103.27   14.48
  -8  -3  -3  118.52   20.89
   8  -3   3  125.22   15.65
  -8  -3  -3  136.69   12.42
  -8  -3  -3  101.84   24.44
   8   3  -3  114.30   15.46
  -8   3   3  104.37   10.37
  -8  -3   3  103.34    6.89
  -8   3  -3  153.40   35.33
  -8   3  -3  115.55   13.23
   8   3   3  111.37    8.36
  -8   3  -3  139.08   27.96
  -8  -3   3  110.78   14.48
   8  -3  -3  119.18   11.91
   8   3   3  127.35   13.82
   8  -3  -3  116.32   12.90
  -8  -3   3  106.24    7.62
   8  -3  -3  117.93   13.74
  -9  -3  -3  159.71   15.28
   9  -3   3  143.33   29.10
  -9   3   3  137.57   17.44
  -9  -3  -3  127.68   16.89
  -9  -3  -3  128.26   19.31
  -9   3   3  144.06   12.24
   9   3  -3  129.58   13.05
  -9   3  -3  182.14   48.19
  -9  -3   3  126.32   12.75
  -9   3  -3  188.44   35.00
   9  -3  -3  158.97   10.99
   9   3   3  147.58   17.41
  -9  -3   3  128.30   17.77
   9   3   3  121.63   14.04
  -9   3  -3  171.91   11.43
   9  -3  -3  166.19   15.79
  -9  -3   3  138.60   14.00
   9  -3  -3  149.85   11.65
  10  -3   3   10.44   13.27
 -10  -3  -3    9.45    3.15
 -10   3   3    9.93    7.40
 -10   3   3    9.56    4.69
 -10  -3  -3    7.55    2.09
 -10  -3  -3   11.21    5.83
 -10  -3  -3   10.92   10.37
  10   3  -3    9.31    7.88
 -10  -3  -3   15.14    7.95
 -10   3  -3    7.51   14.92
  10  -3  -3   10.04    4.25
 -10   3  -3   21.77   14.84
  10   3   3   10.15    3.41
 -10  -3   3   10.48    3.44
  10  -3  -3   11.25    3.81
 -10  -3   3   12.28    4.40
  10  -3  -3    8.25    4.47
  10   3   3    7.51    7.15
 -10   3  -3    5.75    6.01
 -10  -3   3    6.34    5.83
 -10  -3   3   11.84    3.08
 -11   3   3   99.68   11.18
 -11   3   3   97.04   14.81
 -11  -3  -3  110.53   24.15
 -11  -3  -3   97.77   19.35
  11  -3   3   92.02   16.09
 -11  -3  -3   86.45   25.84
  11   3  -3   88.03   11.51
 -11   3  -3  109.10   28.03
  11  -3  -3   88.76    8.98
 -11  -3   3   90.41    7.88
  11  -3  -3   96.16   11.21
 -11   3  -3   78.09   31.59
  11  -3  -3   97.04    8.76
  11   3   3   83.23   11.47
 -11   3  -3   97.37    8.91
 -11  -3   3   80.55   10.85
  11   3   3   89.38   16.49
 -11  -3   3   86.45   15.76
 -11  -3   3   90.59    7.40
 -12  -3  -3   -2.09    6.19
 -12  -3  -3    0.04    1.83
 -12  -3  -3    2.79    1.61
 -12   3   3   -1.32    6.01
 -12  -3  -3    2.16    8.65
  12  -3   3   -4.10    5.79
 -12   3   3    1.43    4.25
  12   3  -3    2.31    4.29
 -12   3  -3    8.98   11.21
 -12  -3   3    6.89    4.14
  12   3   3   -0.55    2.53
 -12   3  -3    0.51    3.19
  12  -3  -3    3.15    3.37
 -12   3  -3    1.17   12.20
 -12  -3   3   -5.35    6.45
  12  -3  -3    3.52    4.25
  12   3   3    3.81    4.32
 -12  -3   3   -1.76    4.21
  12  -3  -3    2.93    3.52
 -12  -3   3    0.51    4.43
 -13   3   3   17.19    5.50
 -13  -3  -3   17.59    8.21
  13  -3   3    6.34   13.30
 -13  -3  -3   14.11    9.27
 -13   3   3   12.90    9.56
  13   3  -3   14.22    6.23
 -13  -3  -3    7.40    9.45
 -13  -3  -3   11.40    3.30
 -13   3  -3   17.70   15.50
 -13   3  -3   11.54   16.97
  13  -3  -3   20.96    8.06
  13   3   3    6.16    6.19
  13  -3  -3   16.60    7.26
 -13  -3   3   11.73    9.09
  13  -3  -3   17.66   10.44
 -13   3  -3   18.47    6.85
  13   3   3   13.63    6.49
 -13  -3   3   13.63    4.29
 -13  -3   3    8.06    9.97
 -14   3   3   19.72   11.76
  14  -3   3   16.09    6.85
 -14  -3  -3   22.28    9.60
 -14  -3  -3   33.31   11.54
  14   3  -3   16.56   11.14
 -14  -3  -3   16.01   10.44
  14  -3   3   25.32    9.34
 -14   3   3   22.98    6.30
 -14  -3  -3   17.55    5.75
 -14   3  -3   28.62   16.67
  14  -3  -3   21.77    5.50
 -14  -3   3   21.15    5.50
 -14   3  -3   26.64   13.12
  14  -3  -3   22.10    5.24
 -14  -3   3   13.49    7.15
 -14   3  -3   23.71    4.84
  14   3   3   13.34    7.92
 -14  -3   3   15.65   11.32
  14  -3  -3   28.47   14.33
 -15   3   3   17.19    7.77
 -15  -3  -3   23.09   11.10
 -15  -3  -3   18.14   10.33
  15  -3   3   -1.72   14.40
  15   3  -3    8.58   10.74
 -15  -3  -3   13.82   14.33
 -15   3   3   11.98    9.02
 -15  -3  -3   12.79    3.63
 -15  -3   3   13.93    8.43
 -15  -3   3   11.03    9.16
  15  -3  -3   15.43    7.55
 -15   3  -3    9.86   13.01
  15   3   3   11.40    6.16
 -15  -3   3   16.71   11.62
 -15   3  -3   13.71    6.45
  15  -3  -3   19.94    9.16
  15   3   3   18.07   12.35
 -15  -3   3    5.94    7.66
 -15   3  -3   20.16   14.66
 -16  -3  -3   17.77    8.39
 -16  -3  -3    3.63    7.88
 -16  -3  -3   -3.01   12.28
  16  -3   3    7.07    7.37
 -16   3   3   -3.26    6.08
  16   3  -3    1.25    8.32
 -16  -3  -3   -0.40    2.71
 -16  -3   3    0.92    3.88
 -16   3  -3    8.03    9.93
  16   3   3    1.06    2.79
 -16  -3   3    4.51    4.18
 -16  -3   3    6.82    5.68
  16  -3  -3   -0.33    3.70
  16  -3  -3   -4.25    7.44
  16   3   3   -0.44    8.87
 -16   3  -3   -1.65   10.96
 -17  -3  -3  107.78   21.91
 -17  -3  -3   93.60   23.23
 -17  -3  -3   68.16   21.22
 -17   3   3   85.35   25.25
  17  -3   3   73.22   28.00
  17   3  -3   61.13   23.60
 -17  -3  -3   63.95   13.34
 -17   3  -3   77.36   40.31
 -17  -3   3   59.29   25.73
 -17  -3   3   61.57   26.64
  17  -3  -3   88.47   30.71
  17   3   3  102.90   15.17
  17  -3  -3   99.83   10.41
 -17   3  -3   61.90   42.25
  18   3  -3    0.40    6.96
 -18   3   3    0.73   13.93
  18  -3   3    0.37    6.78
 -18  -3  -3   13.27   14.84
  18  -3   3    4.51    8.14
 -18  -3  -3    0.66    3.52
 -18   3  -3   14.73   11.91
  18  -3  -3    3.66    6.78
  18  -3  -3    6.08    7.95
 -18  -3   3    0.51    7.70
  18   3   3    1.91    6.78
 -18   3  -3   -2.31   18.91
 -19  -3  -3    8.03   10.99
 -19  -3  -3   -0.04   16.16
  19  -3   3   -7.70   15.06
  19   3  -3    2.71    7.88
 -19   3  -3   20.12   19.90
  19   3   3    1.58    3.81
  19  -3  -3    9.13    4.65
 -19   3  -3  -10.15   12.75
 -19  -3   3   -0.81   11.65
  19  -3  -3   -1.69    8.65
  19   3   3    1.06   11.95
 -20  -3  -3   -2.93   10.92
  20  -3   3   -2.90    9.16
 -20  -3  -3   -1.39   16.20
  20   3  -3   -1.32    7.77
 -20   3  -3   15.06   11.21
  20  -3  -3    2.71    6.27
 -20   3  -3   -0.99   12.53
  20  -3  -3  -10.85   12.68
  20   3   3    1.10   10.92
 -20  -3   3    3.77   10.41
 -21  -3  -3    4.84   48.89
  21  -3   3   86.19   39.32
  21   3  -3  117.09   23.01
 -21   3  -3  112.18   33.20
  21  -3  -3   96.82   11.03
  21  -3  -3   91.36   25.18
 -21   3  -3  108.99   54.49
  21   3   3  100.45   20.67
  22  -3   3   17.00   14.26
 -22  -3  -3    0.37   17.63
  22   3  -3    5.02   18.84
 -22  -3  -3   -0.48   23.42
 -22   3  -3   30.67   28.80
  22  -3  -3   22.13   12.57
 -22   3  -3   12.06   18.87
  22   3   3   16.12   11.21
 -22  -3   3   -4.03   18.51
   0  -4  -3    1.58    3.99
   0  -4  -3    1.54    3.99
   0  -4   3    3.70    1.61
   0   4   3    1.58    5.02
   0  -4  -3   13.93    9.45
   0   4   3    2.86    2.31
   0   4  -3    1.83    3.30
   0  -4  -3    4.14    4.47
   0  -4   3    5.61    4.21
   0  -4   3    5.06    6.56
   1   4  -3  150.55   17.19
  -1  -4  -3  173.52   14.77
  -1   4   3  166.52   12.31
  -1  -4  -3  148.71   19.42
  -1   4   3  159.34   24.48
  -1  -4  -3  195.00   14.92
   1  -4   3  176.60   17.77
  -1  -4  -3  178.47   21.04
   1  -4  -3  156.48   13.05
  -1  -4   3  153.62   11.80
   1   4   3  170.66   20.34
  -1  -4   3  156.67    9.82
   1  -4  -3  160.84   19.24
   1   4   3  161.98    9.78
   1   4   3  171.07   15.25
  -1   4  -3  163.78   15.32
  -1  -4   3  167.92   14.33
   2  -4   3  132.92    7.40
  -2  -4  -3  153.73    9.34
  -2   4   3  151.61   25.80
  -2  -4  -3  138.45   13.16
  -2  -4  -3  142.45   15.54
  -2   4   3  129.29    8.50
   2   4  -3  143.14   10.11
  -2   4   3  164.69   22.39
  -2  -4  -3  158.24   12.72
  -2  -4  -3  139.99   17.37
   2  -4  -3  142.12   16.67
   2   4   3  129.66    6.05
  -2  -4   3  135.48    9.38
  -2  -4   3  131.31    9.67
   2  -4  -3  144.32   16.01
   2   4   3  136.58   14.66
   2   4   3  139.00    8.76
  -2   4  -3  131.09   16.89
  -2   4  -3  118.66   10.37
   2   4   3  159.41   16.20
  -2  -4   3  152.16   17.66
  -3  -4  -3  267.89   25.03
   3  -4   3  257.96   12.35
  -3   4   3  315.97   39.91
  -3  -4  -3  311.87   22.83
   3   4  -3  266.28   16.89
  -3   4   3  268.40   12.50
  -3  -4  -3  302.34   21.11
  -3   4   3  303.69   35.99
   3   4  -3  269.54   28.99
   3  -4   3  367.86   36.24
  -3  -4  -3  308.20   19.28
   3  -4  -3  288.85   18.73
  -3   4  -3  280.02   17.15
   3   4   3  285.63   35.33
   3  -4  -3  285.70   23.60
  -3   4  -3  251.29   21.80
  -3   4  -3  283.54   21.99
  -3  -4   3  277.09   14.77
   3   4   3  300.10   21.44
   3   4   3  287.53   35.66
   3  -4  -3  261.84    9.97
  -3  -4   3  282.84   19.68
   3   4   3  275.33   13.45
  -3  -4   3  306.37   18.25
  -4  -4  -3   78.20   11.91
   4  -4   3   57.83   16.27
   4  -4   3   66.11    3.70
   4   4  -3   69.56   14.51
  -4  -4  -3   77.51    9.31
  -4   4   3   81.14   21.55
  -4  -4  -3   87.44   10.48
  -4   4   3   79.19   15.65
  -4   4   3   76.89    4.51
   4   4  -3   70.62    9.45
   4   4   3   73.07   18.65
   4  -4  -3   81.80    7.48
  -4  -4   3   72.49    5.79
  -4   4  -3   74.83   13.52
  -4   4  -3   84.87   11.18
  -4   4  -3   78.28    7.18
   4  -4  -3   72.78    7.92
  -4  -4   3   71.61    6.41
   4  -4  -3   78.09    5.17
  -4  -4   3   76.15    8.25
  -4  -4   3   74.39    4.21
   4   4   3   77.98    6.23
   4   4   3   60.65    8.87
   4   4   3   62.63   17.15
  -5  -4  -3   98.03   11.65
   5  -4   3   90.00   15.98
   5   4  -3   87.29    9.71
  -5   4   3   82.93    6.34
  -5  -4  -3   82.93   10.55
  -5   4   3  105.62   20.82
  -5   4   3  107.30   11.95
   5   4  -3   80.22   13.60
   5   4   3   71.94   20.63
   5  -4  -3   93.05   12.35
  -5  -4   3   91.76   13.60
  -5  -4   3   91.91    7.77
  -5   4  -3   90.48   12.83
  -5   4  -3   92.79   12.75
  -5  -4   3   85.20    6.05
   5  -4  -3   97.66   11.07
   5   4   3   74.98    6.41
   5   4   3   70.51   19.57
  -5  -4   3   89.02    7.51
   5   4   3  108.55    8.28
   5  -4  -3   92.24    5.39
   6  -4   3   11.03    1.76
   6  -4   3    7.11    8.21
  -6   4   3   10.70    2.71
   6   4  -3   10.22    4.29
  -6  -4  -3   19.86    9.67
  -6  -4  -3   16.53    6.74
  -6   4   3    6.56    7.33
  -6   4   3   21.48    6.56
   6   4  -3   10.96    7.77
  -6   4  -3   11.98   12.31
   6  -4  -3    7.55    4.29
  -6  -4   3   11.73    2.64
  -6  -4   3   11.54    4.58
  -6   4  -3    3.55   11.58
   6   4   3   13.41    3.19
   6  -4  -3   16.38    2.93
  -6  -4   3   11.62    7.07
  -6  -4   3    9.42    2.20
   6   4   3   15.57    4.73
   6  -4  -3   16.75    4.29
   6   4   3   10.66   11.07
   6   4   3   16.53    7.92
   7  -4   3    0.92    1.43
   7  -4   3   -5.75    6.23
   7   4  -3    1.69    2.90
  -7   4   3    0.66    1.80
  -7  -4  -3   -0.48    5.46
  -7  -4  -3    1.54    4.76
  -7   4   3    9.78    5.75
   7   4  -3    5.20    3.81
  -7  -4   3    4.76    3.19
  -7   4  -3    3.19    7.22
   7  -4  -3    3.11    3.30
  -7   4  -3    4.87    9.82
  -7  -4   3    2.53    2.38
  -7   4  -3   -1.25    3.04
   7   4   3   -1.25    4.18
  -7  -4   3    2.68    2.24
   7  -4  -3    4.95    2.68
   7   4   3    2.20    9.38
  -7  -4   3    0.66    4.87
  -7  -4   3    0.07    3.33
   7   4   3    3.81    2.53
   7   4   3   -3.41    7.73
   7  -4  -3    2.35    3.30
  -8  -4  -3    8.87    8.36
   8  -4   3    3.63    6.82
   8   4  -3    3.66    1.94
  -8   4   3    4.54    1.98
  -8  -4  -3    0.95    6.85
   8  -4   3    6.12    1.94
   8   4  -3    7.22    4.43
  -8  -4  -3    3.85   11.58
  -8  -4   3    6.49    2.42
  -8   4  -3   11.14   12.20
   8  -4  -3    0.29    5.39
  -8  -4   3    6.67    2.75
  -8   4  -3    7.11    5.53
   8   4   3    9.75    3.26
   8  -4  -3    7.22    5.86
  -8  -4   3    8.98    6.19
   8   4   3    5.57   10.92
   8   4   3   11.84    5.02
   8  -4  -3    5.42    5.57
  -8  -4   3    8.50    2.31
  -8   4  -3   13.05   16.45
   9  -4   3   41.34   12.35
  -9  -4  -3   51.05    8.39
  -9  -4  -3   53.32    9.71
   9   4  -3   39.36    8.58
  -9  -4  -3   49.44   13.71
  -9   4  -3   37.20   21.55
  -9  -4   3   47.71    7.62
   9  -4  -3   44.42    6.63
  -9   4  -3   52.99    6.49
   9   4   3   55.96    9.38
  -9  -4   3   50.32    8.54
   9  -4  -3   64.02   11.40
  -9  -4   3   43.28   10.92
   9   4   3   51.01   10.00
   9  -4  -3   55.74    6.85
  -9   4  -3   63.18   21.48
 -10   4   3  141.27   24.00
 -10  -4  -3  165.75   25.73
  10  -4   3  147.65   31.81
 -10  -4  -3  171.07   15.61
 -10  -4  -3  162.79   22.50
  10   4  -3  158.53   21.66
 -10  -4   3  143.80    9.89
 -10   4  -3  211.75   41.23
 -10  -4   3  151.28   10.44
  10  -4  -3  144.13   12.17
 -10   4  -3  165.06   17.22
  10   4   3  142.45   10.85
 -10  -4   3  128.96   15.06
 -10  -4   3  141.75   19.79
  10  -4  -3  180.93   20.23
  10   4   3  160.66   12.86
 -10   4  -3  159.45   37.60
  10  -4  -3  144.57   12.50
 -11  -4  -3   40.86    4.03
 -11   4   3   29.32    9.09
 -11  -4  -3   40.82   14.62
  11  -4   3   57.87   13.93
 -11  -4  -3   50.79   10.59
 -11  -4  -3   50.21   19.57
  11   4  -3   40.60    8.65
 -11  -4   3   48.74    5.90
  11  -4  -3   64.10   10.96
 -11   4  -3   51.42   23.16
  11   4   3   42.51    8.94
 -11  -4   3   51.67    6.01
 -11  -4   3   47.35    8.03
  11  -4  -3   66.62    9.13
  11   4   3   52.77    7.73
 -11   4  -3   41.56   16.56
 -11   4  -3   52.19    6.78
  11  -4  -3   52.55   11.47
 -12  -4  -3   31.74    3.55
 -12   4   3   21.66    8.10
 -12  -4  -3   38.70   11.76
  12  -4   3   42.36   10.81
  12   4  -3   28.88    7.55
 -12  -4  -3   34.08    9.56
  12  -4  -3   34.52    6.38
 -12  -4   3   25.10    7.51
 -12   4  -3   33.35   18.98
  12  -4  -3   34.34    5.50
  12   4   3   25.25    4.76
 -12   4  -3   30.01    5.86
 -12  -4   3   34.30    7.70
 -12  -4   3   24.37    6.27
  12  -4  -3   43.61   13.05
  12   4   3   30.71    7.07
 -12   4  -3   24.63   13.82
 -12  -4   3   25.51    7.51
 -13  -4  -3   17.08    5.24
 -13   4   3   22.24    7.88
 -13  -4  -3   35.44    9.31
  13  -4   3   27.38   15.36
 -13  -4  -3   26.90    9.09
 -13  -4  -3   27.49   10.92
  13   4  -3   23.12   10.96
  13  -4  -3   20.30    8.98
 -13  -4   3   21.44    4.47
  13  -4  -3   24.37    8.32
  13   4   3   24.66    7.22
 -13   4  -3   26.97    8.47
 -13  -4   3   13.71   10.70
 -13  -4   3   11.47    6.38
  13  -4  -3   14.77   12.61
  13   4   3   17.92    6.96
 -13   4  -3   21.26   13.52
 -13   4  -3   17.52   16.78
 -14  -4  -3   31.52    7.15
 -14   4   3   44.20   10.08
 -14  -4  -3   26.42   16.78
  14  -4   3   39.03   12.31
 -14  -4  -3   45.70   16.78
 -14  -4  -3   34.37   12.13
  14   4  -3   21.11   13.12
  14  -4  -3   45.15    7.29
  14  -4  -3   35.73    6.30
 -14  -4   3   25.43    9.09
 -14   4  -3   41.30   18.54
  14   4   3   28.47    5.20
 -14   4  -3   31.00    5.72
 -14  -4   3   23.56    8.39
 -14  -4   3   17.88   12.09
  14  -4  -3   40.42   10.19
  14   4   3   35.33   12.90
 -14   4  -3   39.03   15.54
 -15   4   3   -6.52    6.82
 -15  -4  -3    5.83   11.58
  15  -4   3    2.71    4.98
 -15  -4  -3    9.13   10.66
  15  -4   3   16.16    7.29
  15   4  -3    8.91    8.72
 -15  -4  -3    2.79    8.61
 -15  -4  -3   -0.11    3.04
 -15   4  -3    3.11    3.33
  15  -4  -3    3.44    6.71
 -15  -4   3   -0.66    3.92
 -15  -4   3    3.74    5.75
  15  -4  -3    4.10    3.77
 -15  -4   3    1.76    7.92
  15  -4  -3    0.95    6.56
  15   4   3    4.47    8.32
 -15   4  -3    7.04   16.05
 -15   4  -3    5.57   10.96
 -16   4   3    0.11   11.36
 -16  -4  -3   15.98    8.10
 -16  -4  -3   -2.27   11.87
  16  -4   3    0.22   12.35
  16   4  -3    4.84    9.42
 -16  -4  -3    1.03    2.97
  16  -4  -3    0.99    4.54
 -16  -4   3    3.70    4.98
  16  -4  -3    4.65    6.52
 -16   4  -3    4.62   10.48
 -16   4  -3    1.69    5.94
  16  -4  -3   -2.68   12.35
 -16  -4   3    7.40    9.34
  16   4   3    3.92    8.83
 -16  -4   3   -1.17    8.65
 -16   4  -3    2.24   11.51
 -17   4   3  137.54   30.71
 -17  -4  -3  168.39   33.46
  17  -4   3  113.28   22.50
 -17  -4  -3   88.28   23.45
  17   4  -3   84.98   25.54
 -17  -4  -3   93.82   13.67
 -17  -4  -3   98.73   31.55
  17  -4  -3  106.53   11.43
 -17   4  -3   73.88   28.14
  17   4   3   83.85   10.44
  17  -4  -3  143.25   22.72
  17   4   3  100.45   16.20
 -17   4  -3   51.64   27.89
 -18  -4  -3   26.46   17.81
  18  -4   3    8.72   17.33
 -18  -4  -3   26.24   12.94
  18   4  -3   11.43   14.55
 -18  -4  -3    9.75    4.73
 -18   4  -3   11.47   15.36
  18  -4  -3   13.60    8.54
  18  -4  -3   26.79   11.18
  18   4   3   18.18    8.43
 -18   4  -3    1.03   15.76
 -19  -4  -3    2.71   15.57
  19  -4   3   40.75   15.46
 -19  -4  -3    2.20   17.63
  19   4  -3    2.86   19.42
 -19   4  -3   44.45   30.31
 -19   4  -3   59.55   31.41
  19  -4  -3   53.87   20.49
  19   4   3   47.38   11.69
 -20  -4  -3   -0.88    8.94
  20  -4   3    4.73   14.48
 -20  -4  -3   -0.77   14.70
  20   4  -3   -1.43   11.29
 -20   4  -3   15.32   11.62
 -20   4  -3   12.31   11.76
  20  -4  -3   -1.80    3.81
  20  -4  -3   -6.41    7.62
  20   4   3    1.47   10.26
 -20  -4   3    0.00   14.04
 -21  -4  -3   -5.31   10.74
 -21  -4  -3   -0.26   19.02
  21   4  -3    0.55    9.27
 -21   4  -3   12.72   13.78
 -21   4  -3   -7.40   14.51
  21  -4  -3   24.11   15.21
  21   4   3    1.80    7.55
  21  -4  -3    2.60    6.34
   0   5  -3  947.36   73.22
   0   5   3  966.42   66.48
   0  -5  -3  942.08   45.15
   0   5   3 1029.96   55.63
   0  -5  -3 1137.89   83.01
   0   5  -3 1063.13   55.85
   0  -5  -3  997.31   71.50
   0  -5   3 1013.62   52.70
  -1   5   3   20.27   11.10
   1  -5   3   49.95   11.80
  -1  -5  -3   22.72    9.34
  -1  -5  -3   35.73    6.89
   1  -5   3   25.76    4.76
  -1  -5  -3   17.85   11.21
   1   5   3   34.74    4.73
   1   5   3   18.95    6.38
  -1   5  -3   27.30    5.72
  -1   5  -3   27.96    3.74
  -1  -5   3   32.84    3.11
  -1  -5   3   30.23    7.37
   1   5   3   36.61    9.16
   1  -5  -3   22.94    6.93
   2  -5   3   32.18   11.91
   2  -5   3   17.33    3.66
  -2   5   3   21.48   12.39
  -2  -5  -3   20.63    3.01
  -2  -5  -3   20.45    7.95
  -2   5   3   24.99   10.66
  -2  -5  -3   24.37    6.12
   2  -5  -3   13.89    9.42
  -2   5  -3   19.68    4.80
   2   5   3   22.21    6.52
   2  -5  -3   18.40    2.42
  -2   5  -3   21.62    6.78
  -2   5  -3   16.64    8.32
   2   5   3   21.37    7.29
  -2  -5   3   20.67    5.94
   3  -5   3   70.95    5.31
  -3   5   3   88.58   12.28
  -3  -5  -3   86.41   12.28
  -3  -5  -3   65.89    7.15
   3  -5   3   95.36   18.25
  -3   5   3   64.02   10.11
  -3  -5  -3   65.96    9.89
   3   5  -3   82.49   10.15
   3  -5  -3   78.57   14.26
   3   5   3   71.83    9.31
  -3   5  -3   55.85    8.72
   3   5   3   71.50   11.25
   3   5   3   67.21   11.18
  -3   5  -3   65.49   11.21
  -3  -5   3   90.92   14.92
  -4  -5  -3    6.60    6.71
   4  -5   3    8.94    2.53
  -4  -5  -3   14.48    2.86
  -4  -5  -3   11.87    8.47
  -4  -5  -3    9.78    4.98
  -4   5   3   10.96    5.75
  -4   5   3    9.60    7.15
   4   5  -3   19.13    5.57
   4   5   3   11.54    3.19
   4  -5  -3   11.21    4.80
   4   5   3   13.78   10.22
  -4  -5   3    7.62    2.16
  -4   5  -3   13.78    9.45
   4   5   3   11.62    6.45
   4  -5  -3   17.11    3.77
   4  -5  -3   12.79    3.01
  -4  -5   3    6.93    7.44
   4   5   3   12.97    5.31
  -5  -5  -3   15.14    7.99
   5  -5   3   17.37   11.29
  -5  -5  -3   16.78    6.12
   5  -5   3   15.54    2.16
  -5  -5  -3   10.88    5.53
  -5   5   3   22.24    8.28
  -5  -5  -3   16.45    6.38
  -5   5   3   22.39    6.82
   5   5  -3   22.35    6.41
   5   5   3    9.97   12.97
  -5   5  -3    7.37   11.76
   5   5   3   19.83    2.82
   5   5   3   18.76    3.96
  -5   5  -3   15.61    4.62
   5  -5  -3   14.40    5.09
   5  -5  -3   21.37    5.06
  -5  -5   3   15.50    5.02
   5   5   3   27.92    7.66
   6  -5   3    0.81   13.08
  -6  -5  -3    0.15    8.36
  -6  -5  -3    8.39    8.10
  -6  -5  -3   10.19    3.52
  -6   5   3   14.04    7.37
   6   5  -3    2.49    7.37
  -6   5   3   24.81    9.93
   6  -5   3    6.74    2.38
  -6  -5   3    6.74    2.24
   6   5   3   -8.83   11.47
  -6   5  -3   11.36    8.10
  -6  -5   3    5.64    4.54
   6  -5  -3   10.55    6.82
  -6   5  -3    9.42    3.96
   6   5   3    9.31    5.17
   6  -5  -3   10.30    5.17
   6   5   3   10.70    6.89
  -6  -5   3    6.63    2.42
  -6  -5   3   10.74    4.40
   6   5   3    5.57    2.75
   7  -5   3   94.81   17.41
  -7  -5  -3   98.43   14.29
  -7  -5  -3   96.27   12.09
  -7   5   3  141.57   26.68
  -7   5   3  109.61   14.40
   7   5  -3  105.14   17.55
   7  -5  -3  101.59    9.82
   7   5   3  111.19   15.50
   7  -5  -3   88.58   11.18
  -7  -5   3   84.65    8.47
   7   5   3   90.88    7.70
   7  -5  -3  119.73   13.45
  -7  -5   3   92.31    7.22
  -7  -5   3   94.11   11.03
  -7  -5   3   81.47    7.77
   7   5   3   98.03    7.95
   7   5   3  107.52   32.36
   7  -5  -3  105.80   10.81
  -7   5  -3   48.52   31.15
   8  -5   3    4.95    2.68
   8  -5   3    4.25    8.06
  -8  -5  -3    9.16    6.23
  -8   5   3   17.22    7.99
  -8   5   3    4.76    2.09
  -8  -5  -3    4.84    7.99
   8   5  -3   10.04    5.28
   8  -5  -3    6.93    4.32
  -8  -5   3   10.70    2.71
   8  -5  -3    9.42    4.58
   8   5   3    6.45    3.44
   8  -5  -3   15.14    4.32
   8   5   3    9.82    7.66
  -8  -5   3   11.29    4.51
   8   5   3   13.85    5.39
  -8  -5   3    5.06    3.74
   8   5   3    7.84   15.28
  -8  -5   3    8.43    6.08
   8  -5  -3    4.25    6.82
  -8   5  -3   13.82   12.20
   9  -5   3   13.19    9.53
  -9  -5  -3    9.13    6.45
  -9  -5  -3   17.74    7.33
   9   5  -3   13.41    9.75
  -9   5  -3   15.72   17.00
  -9  -5   3   13.30    5.20
   9  -5  -3   17.26    7.88
   9   5   3   22.72    6.67
  -9  -5   3   13.67    3.81
  -9   5  -3   15.79    4.62
   9  -5  -3   18.25    8.36
  -9  -5   3   13.23    5.35
  -9  -5   3   11.03    5.75
   9  -5  -3   17.48    7.73
   9   5   3   15.83    4.40
 -10  -5  -3   45.26   14.33
  10  -5   3   41.70    4.62
 -10  -5  -3   52.70   14.44
  10  -5   3   50.68   12.72
  10   5  -3   42.11    8.47
 -10  -5   3   41.01    5.17
  10  -5  -3   49.22    6.49
 -10   5  -3   44.86    9.78
 -10  -5   3   41.59    5.46
  10   5   3   39.76    5.86
  10  -5  -3   60.43   13.49
 -10  -5   3   41.01   12.94
  10   5   3   50.98    6.85
  10  -5  -3   42.91    6.67
 -10   5  -3   36.65   36.94
 -11  -5  -3  376.22   41.01
  11  -5   3  287.24   52.77
 -11  -5  -3  273.86   27.27
  11   5  -3  276.54   26.53
 -11  -5  -3  311.76   54.35
  11  -5  -3  297.98   31.37
 -11  -5   3  277.34   23.56
  11  -5  -3  322.86   29.13
 -11   5  -3  283.54   20.30
  11   5   3  286.84   25.47
  11  -5  -3  377.79   32.69
 -11  -5   3  286.51   34.81
 -11  -5   3  267.67   24.30
  11   5   3  307.47   31.11
 -11   5  -3  295.23   79.93
 -12  -5  -3   14.15    3.11
 -12  -5  -3   17.99    7.44
  12  -5   3   21.11   11.43
 -12  -5  -3   20.30    8.17
  12   5  -3   14.40   10.66
 -12  -5  -3   17.19   10.96
  12  -5  -3   26.39    6.01
 -12  -5   3   16.23    4.21
  12  -5  -3   24.74    5.46
 -12  -5   3    6.12    7.11
 -12   5  -3   16.31    5.42
  12   5   3   12.24    4.18
 -12  -5   3   16.23    6.23
  12  -5  -3   21.26   12.79
  12   5   3   24.52    8.94
 -12   5  -3   12.72   25.65
 -13  -5  -3   67.54    9.53
 -13  -5  -3   71.50   20.34
  13  -5   3   70.29   18.21
  13   5  -3   94.07   19.06
 -13  -5  -3  103.71   19.86
 -13  -5   3   85.46   12.50
  13  -5  -3   94.99    9.45
 -13   5  -3   90.63   13.96
 -13  -5   3   63.14   13.05
  13  -5  -3   81.80   10.77
 -13  -5   3   85.90   12.57
 -13   5  -3   51.86   31.26
  13  -5  -3  101.22   14.88
  13   5   3   97.22   16.71
  13   5   3   71.42   12.83
 -13   5  -3   58.38   38.26
 -14  -5  -3    1.14    4.25
 -14  -5  -3   15.98   11.21
 -14  -5  -3   19.75    7.59
  14  -5   3   11.58   14.11
  14   5  -3    4.51    6.27
 -14  -5  -3    8.91    9.82
 -14  -5   3    7.40    4.14
  14   5   3    5.72    3.63
 -14   5  -3    7.66    4.10
 -14  -5   3   14.62    9.67
  14  -5  -3   10.08    6.96
 -14   5  -3   -0.15   10.66
  14  -5  -3    6.05    7.11
  14   5   3    1.76    8.21
  14  -5  -3    4.54    8.50
 -14   5  -3   -0.26   18.32
 -15  -5  -3    5.72    9.67
 -15  -5  -3   -1.10    2.75
  15   5  -3    1.06    5.53
 -15  -5  -3    3.08    6.56
  15  -5   3   -0.51    7.81
 -15  -5  -3    4.07    7.84
  15  -5  -3    4.07    4.32
 -15  -5   3   -0.55    3.63
  15  -5  -3    4.36    3.66
  15   5   3   -0.88    2.97
 -15   5  -3    3.01    3.11
 -15   5  -3    8.25    9.05
 -15  -5   3   -5.06    5.20
  15  -5  -3    7.11   11.03
  15   5   3   -5.35    7.62
 -15   5  -3    7.37   15.83
  16  -5   3    2.57    5.68
 -16  -5  -3    9.53   11.51
 -16  -5  -3    2.82   10.74
  16  -5   3   -2.75    8.14
  16   5  -3    1.28    5.83
 -16  -5  -3    7.11    8.47
 -16  -5  -3    1.83    3.15
  16  -5  -3   -1.03    7.07
  16  -5  -3    1.17    3.88
  16   5   3    0.55    4.54
 -16   5  -3   -2.05   15.14
 -16   5  -3    3.77    5.86
 -16  -5   3    2.38    6.16
  16  -5  -3    7.44    7.70
 -16   5  -3   -6.71   10.55
 -17  -5  -3    5.28    8.80
  17  -5   3    4.51   15.83
  17   5  -3    7.59    7.73
 -17  -5  -3   16.01   10.74
 -17  -5  -3    2.86    6.05
  17  -5  -3    5.68    5.90
  17  -5  -3   10.96    8.10
 -17   5  -3    6.01   18.84
 -17   5  -3    7.37    7.04
  17  -5  -3   21.33   13.60
  17   5   3    5.75    6.52
 -17   5  -3   -6.12   13.19
 -18  -5  -3   21.18   12.75
  18  -5   3    5.50    9.64
  18   5  -3   -2.97    6.85
 -18  -5  -3    8.43   10.33
  18  -5  -3   -2.09    4.32
 -18   5  -3   -0.88   11.47
  18  -5  -3    0.66   14.51
  18   5   3    7.37    6.12
 -18   5  -3    0.92   12.09
 -19  -5  -3    2.79   14.11
  19  -5   3   -8.17   15.21
  19   5  -3    4.54    7.92
 -19  -5  -3    0.11   11.43
 -19   5  -3    0.04   15.57
  19  -5  -3   -3.22   10.55
  19  -5  -3    7.29    4.51
  19   5   3   -0.15    7.26
 -19   5  -3   28.00   20.41
 -20  -5  -3   -2.27   15.21
  20  -5   3    4.21   11.43
  20   5  -3    2.64   13.82
 -20  -5  -3    1.43   13.08
 -20   5  -3    8.21   22.65
  20  -5  -3    5.31    6.93
  20  -5  -3   29.06   17.96
  20   5   3   -0.11   11.43
 -21  -5  -3    4.76   18.36
  21  -5   3   35.62   21.59
  21   5  -3   -3.01   17.52
 -21  -5  -3    2.05   18.29
 -21   5  -3   20.30   17.96
  21  -5  -3   17.37   11.95
  21   5   3    0.07   14.44
   0  -6   3    0.73    1.21
   0   6   3   -0.81    4.21
   0  -6  -3   -1.28    1.98
   0  -6   3    6.01    4.07
   0  -6  -3   -2.93    7.48
   1  -6   3    5.61    5.35
  -1   6   3    7.92    5.53
  -1  -6  -3    8.87    2.82
   1  -6  -3    8.69    4.03
  -1   6  -3    7.33    2.35
  -1   6  -3    9.56    2.90
   1   6   3    9.67    4.98
   1  -6  -3    8.28    2.31
  -1  -6   3    9.82    5.35
   1  -6  -3    7.00   10.33
   1   6   3   15.36    7.37
  -2   6   3  136.11   17.66
  -2  -6  -3  142.52   27.08
  -2  -6  -3  114.30    9.34
  -2   6   3  138.93   15.79
   2  -6   3  165.17   17.04
  -2  -6  -3  144.90   20.41
   2  -6  -3  124.20   11.10
  -2   6  -3  125.00   17.15
   2   6   3  132.85   13.93
   2   6   3  115.73   16.64
  -2  -6   3  134.42   13.12
   2  -6  -3  120.93   14.22
  -3   6   3   87.66   14.33
  -3  -6  -3   77.29    8.69
  -3  -6  -3   64.79   21.84
  -3   6   3   86.08   11.32
  -3  -6  -3   79.96   16.16
   3  -6   3   87.70   12.64
   3  -6  -3   65.45   16.31
  -3   6  -3   72.41    8.36
   3   6   3   84.95   12.42
   3   6   3   60.83   12.50
   3  -6  -3   80.40   10.37
  -3  -6   3  102.68   16.05
   4   6  -3  114.34   19.72
  -4  -6  -3  119.14   16.75
  -4  -6  -3  114.38   10.88
  -4  -6  -3  123.06   12.46
  -4   6   3  116.65   13.85
  -4   6   3  141.90   17.15
   4  -6  -3  114.74   19.46
   4   6   3  122.18   14.51
  -4   6  -3  109.46   20.96
   4   6   3  103.49   15.28
   4  -6  -3  112.98    9.13
   4   6   3   97.33    9.53
  -4  -6   3  134.60   18.51
   4  -6  -3  102.03    6.78
   5   6  -3    8.83    5.20
   5  -6   3    6.67    9.16
  -5  -6  -3    2.57    6.45
  -5  -6  -3    6.89    2.79
  -5   6   3   -7.11   11.29
  -5  -6  -3    7.59    4.51
  -5   6   3   -6.78    9.02
   5  -6  -3    0.59    4.54
   5   6   3   18.32   10.15
  -5   6  -3    3.85   10.04
   5   6   3    3.74    3.41
   5  -6  -3    7.44    5.09
  -5  -6   3    3.70    7.04
   5   6   3    1.94    2.20
   5   6   3    1.87    6.30
  -6  -6  -3  159.01   29.57
   6  -6   3   91.98   22.35
  -6  -6  -3  128.59   23.71
  -6  -6  -3  139.88   16.34
  -6   6   3  165.17   21.15
  -6  -6  -3  158.28   22.79
  -6   6   3  169.79   17.37
   6   6  -3  143.33   16.64
   6   6   3  142.04   28.77
   6  -6  -3  134.93   19.35
  -6   6  -3  151.64   24.70
   6   6   3  128.37    9.13
   6   6   3  118.15   15.06
  -6   6  -3  116.13   16.60
   6  -6  -3  132.77   16.53
   6   6   3  127.90   28.40
  -6  -6   3  151.43   19.75
  -7  -6  -3  124.38   18.51
   7  -6   3   84.10   20.63
  -7  -6  -3  115.11   14.33
  -7  -6  -3  118.52   11.58
  -7  -6  -3  135.34   20.85
  -7   6   3  144.76   21.26
  -7   6   3  136.33   17.37
   7   6  -3   69.23   19.28
   7  -6  -3  114.70   18.47
  -7   6  -3  110.20   10.52
   7   6   3  107.49    9.34
   7  -6  -3  140.65   19.06
  -7  -6   3  102.17   18.51
   7   6   3  103.97    9.05
   7   6   3  118.70   27.67
   7   6   3  122.29   30.60
  -7   6  -3  100.67   37.05
   8  -6   3   56.07   21.55
  -8  -6  -3   55.78   15.79
  -8  -6  -3   50.32   13.89
  -8  -6  -3   54.13   10.22
  -8   6   3   76.89   24.59
  -8   6   3   73.18   13.52
   8   6  -3   61.16   10.00
  -8  -6   3   49.99    9.60
   8  -6  -3   74.69   15.54
  -8  -6   3   59.40   15.21
   8   6   3   58.71   26.72
   8  -6  -3   54.79    8.76
   8   6   3   56.99   21.18
   8   6   3   63.33    9.93
  -8   6  -3   58.09   21.40
  -9  -6  -3   83.26   11.98
   9  -6   3   92.83   28.11
  -9  -6  -3  101.18   18.54
   9   6  -3   81.28   17.48
  -9  -6   3   86.63    7.15
  -9  -6   3   88.91    8.28
   9  -6  -3   83.55   10.41
   9   6   3   84.14    8.83
   9  -6  -3  109.98   21.99
   9   6   3   85.94   17.70
  -9  -6   3   93.49   11.29
   9   6   3   96.82    9.67
   9  -6  -3  100.82   10.11
  -9   6  -3  110.89   50.13
  10  -6   3   26.39   10.48
 -10  -6  -3   24.37    7.44
 -10  -6  -3   10.26   10.55
 -10   6   3   28.00   11.25
  10   6  -3   23.71    6.85
  10  -6  -3   30.71    9.16
 -10   6  -3   17.70    4.76
 -10  -6   3   14.18    3.85
 -10  -6   3   16.82    6.30
  10   6   3   11.29    6.78
  10  -6  -3   18.51    8.03
 -10  -6   3   20.34    6.12
  10   6   3   15.83    7.84
  10  -6  -3   13.16    9.53
 -10   6  -3    9.02   31.15
  11  -6   3    4.87    2.24
  11  -6   3   10.55    8.91
 -11  -6  -3    3.81    6.74
 -11  -6  -3   17.33    6.34
  11   6  -3    9.64    5.72
  11  -6  -3    9.78    4.32
 -11  -6   3    4.25    3.44
 -11   6  -3    2.79    5.90
  11   6   3    7.22    3.70
  11  -6  -3    8.54   10.63
 -11  -6   3    7.84    5.64
  11   6   3   -1.65    4.51
 -11   6  -3   -2.57   23.05
  11  -6  -3    8.32    4.69
  12  -6   3    8.47    3.74
 -12  -6  -3    3.59    3.74
  12  -6   3   18.40   10.11
 -12  -6  -3   11.03   10.96
 -12  -6  -3    6.63   12.06
  12   6  -3    2.64   10.19
 -12  -6   3    8.50    3.74
  12  -6  -3    5.24    7.40
 -12   6  -3    9.64    4.69
  12   6   3    6.82    5.90
 -12  -6   3    5.97    9.13
  12  -6  -3   21.37   13.19
  12   6   3   20.01    5.09
 -12   6  -3   13.67   25.03
  13   6  -3    3.96    5.94
 -13  -6  -3    2.71    2.97
 -13  -6  -3   13.63    6.85
 -13  -6  -3    1.98    2.60
  13  -6   3    1.58   15.03
 -13  -6  -3    2.09    8.65
  13  -6  -3    4.98    5.20
  13  -6  -3    8.91    6.74
  13   6   3    6.96    4.62
 -13   6  -3    0.81    4.14
 -13  -6   3    9.34    8.32
  13  -6  -3    6.19    7.51
  13   6   3    0.66    3.41
 -13   6  -3    1.61   21.88
 -13  -6   3    2.71    3.63
 -14  -6  -3    8.10    5.61
 -14  -6  -3   27.23    9.27
 -14  -6  -3   13.41    7.55
  14  -6   3   16.45   11.73
  14   6  -3   15.61    8.10
  14  -6  -3   24.30    6.12
  14  -6  -3    9.13    5.24
  14   6   3   14.07    7.29
 -14   6  -3    6.63    7.62
 -14  -6   3   16.05    7.92
  14  -6  -3   19.35   15.21
  14   6   3   21.15    6.56
 -14  -6   3   12.86    4.58
 -14   6  -3    4.14   25.58
 -15  -6  -3    3.52    5.50
 -15  -6  -3   11.69    6.74
  15  -6   3    4.73    9.86
 -15  -6  -3   19.61   13.52
  15   6  -3   11.54    7.15
 -15  -6   3    5.57    7.44
  15  -6  -3    3.01    7.11
 -15   6  -3   -4.95   16.89
  15   6   3    5.39    3.77
 -15   6  -3    4.29    3.99
 -15  -6   3   14.99   10.55
  15  -6  -3    4.36    8.69
  15   6   3    0.37    5.75
 -15   6  -3   10.99   20.41
 -16  -6  -3   10.33    7.62
 -16  -6  -3   -1.65    5.90
  16  -6   3   -4.10   13.27
 -16  -6  -3   -2.64    3.19
  16  -6  -3    1.98    4.73
  16   6   3    3.88    3.01
 -16   6  -3   -0.70    3.92
  16  -6  -3    1.54   11.98
  16   6   3   -0.59    4.80
 -16   6  -3    9.86    9.27
  16  -6  -3    2.79    3.81
 -17  -6  -3   13.38    5.83
  17   6  -3   25.91   10.85
  17  -6   3   10.26    8.06
 -17  -6  -3   26.39   10.08
  17  -6   3   29.61   13.12
  17  -6  -3   30.60   12.13
 -17   6  -3   16.67   15.68
  17  -6  -3   24.15    6.67
 -17   6  -3   17.81    5.79
  17  -6  -3   26.24   11.95
  17   6   3   28.00    8.47
 -17   6  -3   12.35   18.32
 -18  -6  -3    3.04    7.99
  18  -6   3   -8.47   16.23
  18   6  -3    2.53    8.32
  18  -6  -3    0.33    6.08
  18  -6  -3    9.24    7.18
 -18   6  -3    4.95   18.36
 -18   6  -3   -1.72    5.35
  18  -6  -3    9.49    9.38
  18   6   3    7.40    6.41
 -18   6  -3   33.86   13.85
  19  -6   3   73.77   25.98
  19   6  -3   99.50   19.72
 -19   6  -3   58.42   29.46
  19  -6  -3   77.65   11.47
 -19   6  -3   70.88   27.49
  19  -6  -3   51.89   36.50
  19   6   3   88.03   16.56
 -20  -6  -3    4.43   10.63
  20  -6   3   18.69   22.43
  20   6  -3    9.86   12.20
 -20   6  -3   -3.26   28.03
 -20   6  -3   43.57   16.53
  20  -6  -3   27.45   13.27
  20   6   3   -0.15   13.78
 -21  -6  -3    3.48   17.00
  21   6  -3   -1.47   12.79
 -21   6  -3   -9.05   19.46
 -21   6  -3   31.81   27.63
  21  -6  -3   24.41    8.32
  21  -6  -3   31.08   19.17
  21   6   3    0.07   14.73
   0  -7  -3   10.55    9.78
   0   7   3   11.43    5.53
   0  -7  -3    3.41    3.22
  -1  -7  -3    8.76   18.47
  -1   7   3   17.85    6.49
  -1  -7  -3   15.46    4.18
  -1  -7  -3   19.57    8.28
   1  -7  -3   13.34    7.37
   1  -7  -3   19.28   11.29
   1   7   3   12.90    5.68
   1  -7  -3   11.10    8.32
   1  -7  -3   12.94    3.59
   1   7   3   16.20    8.91
  -2   7   3   17.70    8.83
  -2  -7  -3   17.48    3.30
  -2   7   3   12.72    6.93
  -2  -7  -3    9.27    8.69
  -2  -7  -3    7.55    9.34
   2  -7  -3   16.49   10.85
   2   7   3   14.55    6.23
  -2   7  -3    8.17    3.77
  -2   7  -3   12.31    4.36
   2  -7  -3   16.49    3.52
   2   7   3   11.14    8.06
  -2  -7   3   16.82    6.41
   2  -7  -3    7.07   11.07
   3  -7   3    0.18    1.36
  -3   7   3    3.52    9.09
  -3  -7  -3   -5.90    9.24
  -3  -7  -3   -2.31    3.99
  -3   7   3   -3.26    7.18
  -3  -7  -3    3.96    6.34
  -3   7  -3    0.81    5.61
   3   7   3    4.47    4.65
  -3   7  -3   -2.57    4.18
   3  -7  -3    6.38    6.67
   3  -7  -3    2.16    4.84
   3   7   3    0.11    8.17
   3  -7  -3   -0.40    2.90
  -3  -7   3    0.44    4.40
   3  -7  -3    0.48    2.42
  -4   7   3   20.74   12.64
  -4  -7  -3   19.39   12.72
  -4  -7  -3    9.24    3.33
  -4   7   3    2.16   10.15
  -4  -7  -3    9.31    5.39
   4  -7   3   16.45    7.18
   4   7  -3    8.83    6.27
   4  -7  -3    9.24    6.49
   4   7   3   14.40    9.97
  -4   7  -3   13.23    9.42
   4  -7  -3    5.53    6.45
   4  -7  -3    7.99    9.82
   4   7   3   -4.84   11.21
  -4   7  -3    1.91    5.02
   4   7   3   11.80    4.25
  -4  -7   3    7.66    5.83
   4  -7  -3   10.15    4.29
   5  -7   3    4.03   17.99
  -5  -7  -3   12.79    8.39
  -5   7   3   18.80    8.61
  -5  -7  -3    6.08    4.25
  -5  -7  -3    7.22    5.57
  -5   7   3   20.89    7.11
   5   7  -3    8.76   10.77
   5  -7   3   13.30    7.26
   5  -7  -3    5.57   10.70
   5  -7  -3   13.63    8.58
   5   7   3   -0.95   12.20
   5   7   3   16.93    4.84
  -5   7  -3   17.26   12.17
   5  -7  -3    6.74   10.26
   5   7   3   18.95   12.42
  -5   7  -3   13.38    8.54
  -5  -7   3   22.72    6.12
   5  -7  -3   11.32    5.64
   5   7   3    6.85    5.06
   6  -7   3   21.59   12.94
  -6  -7  -3    2.60    6.96
  -6  -7  -3    0.29    5.90
  -6   7   3   14.81    8.36
  -6  -7  -3    5.50    4.91
  -6   7   3   15.03    6.78
   6   7  -3    5.02    5.79
   6  -7  -3   -0.26    5.31
   6   7   3    3.66   11.10
  -6   7  -3   19.28    9.86
   6  -7  -3   10.08    9.56
   6  -7  -3    7.40    3.33
   6  -7  -3    5.09    7.18
   6   7   3    3.74    4.03
  -6  -7   3   -2.24    5.35
   6   7   3    6.52    4.36
   6   7   3    5.97   11.14
   7  -7   3   23.09   21.22
  -7  -7  -3   46.76   11.54
  -7  -7  -3   34.85    6.78
  -7   7   3   49.22   13.19
  -7  -7  -3   20.63   12.02
  -7   7   3   51.34   11.14
   7   7  -3   42.99    9.16
   7  -7  -3   25.62    7.77
   7   7   3   20.01   10.15
   7  -7  -3   23.42   20.19
   7  -7  -3   29.46    8.25
   7   7   3   37.64   11.43
  -7  -7   3   42.47    8.50
   7   7   3   29.50    7.48
   7   7   3   46.43   19.28
  -7   7  -3   43.94   26.72
  -8  -7  -3   15.87    8.28
   8  -7   3   -4.69    9.34
  -8  -7  -3    9.42    4.98
   8  -7   3    6.93    4.32
  -8  -7  -3   13.63    6.12
  -8   7   3   13.93    9.71
  -8  -7  -3   10.99    6.78
  -8   7   3    4.80    8.32
   8   7  -3    8.28    6.78
  -8  -7   3   10.37    3.77
   8   7   3    6.60    4.62
   8  -7  -3   14.84    6.01
  -8   7  -3    6.01   13.01
  -8  -7   3   10.15    6.45
  -8   7  -3    8.39    4.54
   8   7   3    5.13    3.92
   8   7   3   13.23   16.12
   8   7   3   11.32    8.39
   8  -7  -3    5.83    8.43
  -9  -7  -3   98.84   17.11
   9   7  -3   65.78   12.09
   9  -7   3   68.64   18.80
  -9  -7  -3   82.57   19.97
  -9  -7  -3   95.36   17.70
  -9  -7  -3   96.01   18.54
  -9   7   3  102.35   18.91
  -9   7   3  110.45   15.36
   9  -7  -3   86.74   10.92
  -9  -7   3   72.01    7.15
   9   7   3   80.40   13.63
   9  -7  -3   64.97   20.49
   9   7   3   71.28   16.78
  -9  -7   3   90.99   11.73
   9   7   3   76.70   12.68
   9  -7  -3   93.78   11.58
  -9   7  -3  106.86   49.51
  10  -7   3    0.51    3.08
  10  -7   3   -0.40    7.37
 -10  -7  -3    0.88    4.80
 -10  -7  -3    0.15    4.47
  10   7  -3    3.96    4.80
 -10  -7   3   -1.36    2.93
 -10  -7   3   -1.98    4.32
  10  -7  -3   -1.91    5.83
  10  -7  -3    5.09    4.07
 -10  -7   3    3.55    7.48
  10   7   3    1.80    3.30
  10  -7  -3    3.37    4.29
 -10   7  -3  -11.43   18.51
  11  -7   3  294.57   59.95
 -11  -7  -3  376.58   48.19
 -11  -7  -3  331.14   29.98
  11   7  -3  323.92   45.48
  11  -7  -3  366.18   38.33
 -11  -7   3  298.53   27.67
  11   7   3  283.35   28.95
  11  -7  -3  362.77   53.25
 -11  -7   3  375.41   40.79
  11   7   3  307.69   35.47
 -11   7  -3  279.98   99.06
  12   7  -3   -0.48    5.64
  12  -7   3   -0.51    2.97
 -12  -7  -3    9.16    6.41
  12  -7   3   17.99    8.14
 -12  -7  -3   -5.06    7.99
  12  -7  -3    4.43    4.07
 -12  -7   3    1.47    3.26
  12   7   3    0.04    3.37
 -12   7  -3   -0.26    5.83
  12  -7  -3   -5.57    6.49
 -12  -7   3   -0.15    5.68
  12   7   3    5.20    6.38
 -12   7  -3   18.21   22.79
  12  -7  -3    1.98    4.62
 -13  -7  -3  161.80   26.35
  13  -7   3  142.19   30.78
 -13  -7  -3  163.85   33.57
  13   7  -3  154.14   21.80
  13  -7  -3  160.95   17.33
  13  -7  -3  154.39   15.94
 -13   7  -3  106.61   75.09
 -13  -7   3  151.32   13.19
 -13   7  -3  140.47   15.17
  13   7   3  132.08   17.92
 -13  -7   3  191.63   19.97
  13  -7  -3  173.85   36.83
  13   7   3  162.35   18.18
 -14  -7  -3    9.75    3.99
  14  -7   3   25.36   16.97
 -14  -7  -3   24.26    9.16
 -14  -7  -3   23.64   14.84
  14   7  -3   22.02    8.76
  14  -7  -3   14.48    9.42
  14   7   3   17.88    5.57
 -14  -7   3   15.94   13.23
  14  -7  -3   17.11   11.10
 -14  -7   3   16.23    8.65
  14   7   3   15.10    6.71
 -14   7  -3    7.51   35.18
 -15  -7  -3    4.95    3.55
 -15  -7  -3   25.51    9.09
  15  -7   3   13.19   10.41
 -15  -7  -3   16.71    7.66
  15   7  -3   10.63    7.81
  15  -7  -3    2.02    6.27
  15  -7  -3    3.48    4.84
 -15   7  -3    4.54    6.63
  15   7   3    6.60    6.96
  15  -7  -3    2.31   15.06
  15   7   3    6.63    5.79
 -15   7  -3   -3.30   25.14
 -16  -7  -3   15.79    8.03
  16  -7   3   10.04   11.51
 -16  -7  -3    7.11    9.38
  16   7  -3    6.34   14.15
 -16   7  -3    5.17   20.56
  16  -7  -3   20.01    6.01
 -16   7  -3    5.31    8.32
  16  -7  -3    9.27   10.66
  16   7   3   18.40    6.85
 -16   7  -3   -3.01   18.98
 -17  -7  -3    3.04   10.19
  17  -7   3   36.54   18.25
  17   7  -3   38.22   15.46
 -17   7  -3   12.50   14.88
 -17   7  -3    7.81    5.31
  17  -7  -3   27.71    9.75
  17  -7  -3   13.05   18.47
  17   7   3   24.04    7.81
 -17   7  -3    5.83   19.94
 -18  -7  -3   -6.08    6.60
  18  -7   3   -8.17    8.58
  18   7  -3   18.80   11.36
  18  -7  -3    4.07    4.10
  18  -7  -3   -7.48    8.32
  18   7   3    0.04    5.42
 -18   7  -3    6.74   13.16
 -19  -7  -3    6.19    7.81
  19  -7   3   13.16   10.88
  19  -7  -3   -0.84    6.96
  19  -7  -3    2.79    4.36
  19  -7  -3   19.17   15.83
  19   7   3   -0.15    6.08
 -19   7  -3   -8.39   18.73
 -19   7  -3    7.37   15.65
 -20  -7  -3   -2.31    8.76
  20  -7   3   11.69   19.57
  20   7  -3   16.38   10.26
  20  -7  -3    7.37    7.22
 -20   7  -3    9.53   13.78
  20  -7  -3    9.49   11.62
  20   7   3    0.00   11.29
   0   8   3    4.51    7.81
   0  -8  -3   -3.22    3.81
   0  -8  -3   -6.89   11.54
  -1  -8  -3   -1.58   11.65
  -1   8   3    7.18    8.80
   1  -8  -3   26.06   12.68
   1  -8  -3    2.71    5.75
   1   8   3   -0.07    7.04
   1  -8  -3    4.07    2.35
   1  -8  -3   13.38   11.47
   1   8   3   -4.84    7.59
  -2   8   3   31.74   17.85
  -2  -8  -3   58.64   28.11
  -2   8   3   36.98   13.16
  -2  -8  -3   22.46    7.22
  -2  -8  -3   42.99   10.37
   2  -8   3   35.88    8.91
   2  -8  -3   16.53   10.99
   2  -8  -3   73.33   29.10
   2   8   3   31.59   12.53
   2  -8  -3   26.17    6.05
   2   8   3   37.78   10.33
  -3   8   3    0.51    7.07
  -3  -8  -3   -2.57    4.84
  -3   8   3   -1.03    5.46
  -3  -8  -3    5.79    7.29
   3  -8   3   -2.46    6.34
   3  -8  -3    6.71    4.18
   3   8   3    4.03    8.54
  -3   8  -3    1.83    2.02
   3  -8  -3  -12.94   17.00
   3   8   3    4.51    9.67
  -3   8  -3    4.76    3.08
   3  -8  -3   -2.27    3.55
   3  -8  -3    3.55    6.12
  -4  -8  -3  301.20   45.88
  -4  -8  -3  244.69   28.80
  -4   8   3  285.88   26.50
  -4   8   3  329.42   33.64
  -4  -8  -3  308.75   33.53
   4  -8   3  323.63   43.35
   4   8   3  254.59   36.98
   4  -8  -3  400.92   78.68
   4   8   3  225.31   39.18
  -4  -8   3  294.79   26.35
   4  -8  -3  228.90   21.62
   4  -8  -3  227.39   39.91
  -5   8   3    5.90   12.86
  -5  -8  -3   12.75    7.70
  -5  -8  -3    2.82    4.29
  -5   8   3    5.97    9.93
   5  -8   3    9.09    6.67
  -5  -8  -3    3.33    4.76
   5   8  -3    5.83    5.79
   5  -8  -3    4.76    6.16
   5   8   3    3.77   10.48
  -5   8  -3    9.97    6.49
   5  -8  -3    0.84    7.40
   5   8   3    5.42   11.62
   5  -8  -3    6.82   17.00
  -5  -8   3    7.81    5.94
   5  -8  -3    1.47    4.40
   5   8   3    1.25    3.33
   6  -8   3    4.80    9.45
  -6  -8  -3    2.75    6.78
  -6   8   3    9.13    7.07
  -6  -8  -3    7.15    4.54
  -6  -8  -3    2.05    4.32
  -6   8   3    8.58    5.97
   6   8  -3    4.25    8.54
   6  -8   3    7.11    6.63
   6  -8  -3    1.76    5.61
   6   8   3    0.81    9.89
  -6   8  -3   -1.72    9.86
   6  -8  -3    1.76   16.31
   6  -8  -3   -4.10    8.58
  -6  -8   3    2.57    5.61
   6   8   3   -0.33    3.52
   6  -8  -3    1.39    5.17
   6   8   3   -3.99    6.45
   7  -8   3   -4.95   10.04
   7  -8   3   13.71   10.96
  -7  -8  -3   13.08   12.94
  -7  -8  -3   10.88    8.61
  -7   8   3    7.40    8.72
  -7  -8  -3   -3.11    8.32
  -7   8   3    5.97    7.26
   7   8  -3    6.45    6.52
   7  -8  -3    6.41    9.75
   7   8   3    8.03    4.43
   7  -8  -3   -0.99   11.95
   7  -8  -3    8.10    9.49
   7   8   3   13.19    7.92
  -7  -8   3   13.23    6.30
   7   8   3    7.66    3.81
   7   8   3    3.30   13.38
   7  -8  -3    9.93    6.52
  -7   8  -3    5.46   22.46
  -8  -8  -3    0.55    6.56
  -8  -8  -3    5.97    4.69
  -8   8   3    7.70    7.15
  -8  -8  -3   -0.11    4.65
  -8   8   3   -5.13    6.01
   8  -8   3   -3.04    3.55
   8   8  -3   -6.67    8.98
   8  -8  -3   -9.38    9.71
   8   8   3    4.29    5.35
   8  -8  -3   -3.26    5.28
  -8  -8   3    7.26    5.39
   8   8   3    2.60    5.31
   8   8   3   -4.21    6.56
  -8   8  -3    5.17   13.45
  -9  -8  -3   -1.21    7.77
   9  -8   3    7.22    8.50
  -9  -8  -3   10.11    6.30
  -9  -8  -3    2.09    9.71
  -9  -8  -3    1.76    7.59
  -9   8   3   12.57   13.34
  -9   8   3   11.54   11.51
   9   8  -3    1.76    6.56
   9  -8   3    0.95    3.70
   9  -8  -3    3.59    7.70
  -9  -8   3    6.16    3.44
  -9   8  -3    0.77    4.07
   9   8   3    2.42    4.32
   9  -8  -3    2.97    9.53
   9   8   3    5.09   12.09
  -9  -8   3    7.92    8.61
   9  -8  -3    0.15    5.68
   9   8   3    3.66    4.43
  -9   8  -3    1.54   15.28
 -10  -8  -3    5.72   12.79
  10  -8   3   -1.14   14.07
 -10  -8  -3    5.79   10.04
 -10  -8  -3   -2.27    7.07
 -10  -8  -3    8.21    6.16
 -10   8   3    2.53    8.91
 -10   8   3   14.26    8.06
  10  -8  -3    2.90    8.06
 -10  -8   3    2.90    5.83
  10   8   3    5.75    6.67
  10  -8  -3    1.17   10.48
  10   8   3   10.41   12.79
  10   8   3   10.66    6.49
  10  -8  -3    0.18   10.00
 -10   8  -3    8.39   25.14
 -11  -8  -3   23.53   11.36
  11  -8   3   11.29   12.17
 -11  -8  -3   15.65   10.41
 -11  -8  -3   23.45    8.21
 -11   8   3   27.67   11.36
  11   8  -3   18.62    8.25
  11   8   3   10.15    5.50
  11  -8  -3   19.02   10.48
 -11  -8   3   22.54    8.36
  11   8   3   20.93    6.08
  11  -8  -3   23.67    7.48
 -11  -8   3   13.67    5.24
  11  -8  -3   18.29    6.89
 -11   8  -3   43.17   34.41
 -12  -8  -3   12.02    8.94
  12  -8   3    6.16    8.58
 -12  -8  -3    5.83    6.52
 -12  -8  -3    0.04    9.78
  12   8  -3    1.32    6.34
 -12  -8   3    2.46    6.41
 -12   8  -3    5.20    4.32
  12   8   3    5.13    6.08
  12  -8  -3    4.18   12.17
 -12  -8   3   -3.70    6.74
  12  -8  -3    4.36    7.04
  12   8   3    0.92    7.04
 -12   8  -3   33.97   30.01
  12  -8  -3    0.70    4.95
 -13  -8  -3    7.26   14.92
  13  -8   3    5.75   16.20
 -13  -8  -3    2.53    4.62
 -13  -8  -3   13.16    8.61
 -13  -8  -3    1.43    6.49
  13   8  -3    0.07    7.70
  13   8   3    3.01    8.10
  13  -8  -3   10.99    8.10
 -13  -8   3    7.55    4.43
 -13   8  -3    1.98    7.33
  13   8   3    5.94    4.29
  13  -8  -3   18.54    8.72
 -13  -8   3    0.48   11.43
 -13   8  -3   -0.33   37.60
 -14  -8  -3    3.52    4.07
 -14  -8  -3    0.92    8.50
 -14  -8  -3    0.07    5.72
  14   8  -3   -0.15   11.84
  14  -8  -3    6.96    5.83
 -14   8  -3    0.15    6.19
  14   8   3    2.24    6.89
  14  -8  -3    3.92   14.11
  14  -8  -3    9.64    4.91
 -14   8  -3   23.20   25.73
 -15  -8  -3   -4.03    4.65
  15  -8   3   -1.61    8.72
 -15  -8  -3    1.10    5.46
  15   8  -3   -5.02   10.55
  15  -8  -3    6.38    6.34
 -15   8  -3    0.51    3.48
  15  -8  -3    9.27    9.02
 -15   8  -3  -11.91   23.67
  16  -8   3    1.17   16.09
 -16  -8  -3   -0.66    6.74
  16   8  -3   12.72   13.16
  16  -8  -3    1.06    6.52
  16  -8  -3   13.45    8.10
 -16   8  -3    6.82    4.73
  16  -8  -3    3.33   14.99
  16   8   3    7.44    5.90
 -16   8  -3    0.81   18.03
  17  -8   3   -3.85   11.03
 -17  -8  -3    1.43    6.78
  17   8  -3   -6.30   13.49
  17  -8  -3    6.85    5.06
 -17   8  -3    2.71    6.08
  17  -8  -3   -0.26   10.63
 -17   8  -3   15.06   11.69
  17   8   3    9.16    6.05
 -17   8  -3    3.04   17.74
  18  -8   3   -1.10    9.27
  18   8  -3   12.39   12.31
  18  -8  -3    5.17    6.96
  18  -8  -3    7.88   14.70
 -18   8  -3   10.88   11.54
  18   8   3    0.04    5.46
 -18   8  -3    0.04   15.32
 -19  -8  -3   -3.55    5.86
  19   8  -3   -5.09   12.94
  19  -8  -3   -0.11    6.12
  19  -8  -3    5.79    6.34
  19  -8  -3   -0.92    8.72
 -19   8  -3  -15.98   18.14
  19   8   3    0.07    5.24
 -19   8  -3   22.17   24.41
   0   9   3  101.99   13.27
   0  -9  -3  167.81   55.59
   0  -9   3  128.08   17.59
  -1  -9  -3   -6.38   11.95
  -1   9   3    3.66    4.76
   1  -9  -3    8.14    8.87
   1   9   3   -1.47    4.73
   1  -9  -3   -1.03    2.46
   1  -9  -3   -1.54   11.07
   1   9   3    4.51    7.00
  -2  -9  -3   28.66   16.23
  -2   9   3   19.68    7.00
  -2  -9  -3   15.43    6.49
  -2   9  -3    6.67    5.64
   2  -9  -3   11.10   11.36
   2   9   3   23.78   11.25
   2  -9  -3    0.07   10.33
   2  -9  -3   16.38    5.61
   2   9   3   16.09    8.10
  -3  -9  -3   -5.72   13.78
  -3   9   3   -5.17    6.16
  -3  -9  -3    5.17    4.73
  -3   9   3   -1.80    4.95
  -3   9  -3   -2.27    4.10
   3   9   3   -2.79    8.21
   3  -9  -3   -3.19    6.74
   3   9   3    0.77    4.87
   3  -9  -3    1.21    3.55
   3  -9  -3   11.80    9.31
  -4  -9  -3   23.82   10.26
  -4   9   3   37.16   15.25
  -4  -9  -3   35.40   12.20
  -4   9   3   39.84   17.81
   4  -9   3   44.45   10.59
   4  -9  -3   25.69   12.97
   4   9   3   34.85   17.85
   4  -9  -3   37.42   11.21
  -4   9  -3   23.60    6.60
   4  -9  -3   24.48    5.13
  -5   9   3   56.66   13.05
  -5  -9  -3   52.88   12.02
  -5  -9  -3   42.73   20.60
  -5   9   3   50.79    9.82
  -5  -9  -3   45.63    9.82
   5  -9   3   62.08   17.48
   5  -9  -3   34.45   11.62
   5   9   3   47.53   19.42
  -5   9  -3   22.02   12.90
   5  -9  -3   17.77   11.10
   5   9   3   42.47   19.09
  -5  -9   3   45.04   10.11
   5   9   3   28.36    9.64
   6  -9   3    8.69   11.95
  -6   9   3    7.04   13.82
  -6  -9  -3   22.90    9.05
  -6  -9  -3    4.87    8.36
  -6   9   3   18.18   10.74
  -6  -9  -3   11.18    6.19
   6   9  -3   -1.58    7.18
   6  -9   3   14.33    7.51
  -6   9  -3    5.50   14.11
   6  -9  -3    5.97   11.87
  -6   9  -3    4.95    5.50
   6  -9  -3    6.01   11.36
  -6  -9   3   11.69    6.96
   6  -9  -3    5.57    6.01
   6   9   3    8.98    6.74
   6   9   3   12.35   14.66
   6   9   3    5.79    8.39
   7  -9   3    1.61   13.08
  -7  -9  -3   20.41   17.63
  -7   9   3   25.10   11.84
  -7  -9  -3   31.08    8.21
  -7   9   3   36.28    9.42
  -7  -9  -3    0.07   12.35
   7   9  -3   42.51   14.33
   7  -9   3   37.93   15.43
  -7   9  -3   24.44   22.65
   7  -9  -3   23.27    9.27
   7   9   3   21.73    6.78
   7  -9  -3    0.99   35.84
   7  -9  -3    6.85   14.77
   7   9   3   33.06   12.17
  -7  -9   3   34.67    9.53
   7   9   3   40.35   22.17
   7  -9  -3   18.98    9.31
   7   9   3   15.54    9.93
   8  -9   3   15.54   12.28
  -8  -9  -3   33.79   11.14
  -8  -9  -3   21.18   12.17
   8   9  -3   28.47    8.94
  -8   9   3   29.76   18.62
  -8   9   3   18.65   14.77
   8  -9   3   20.05    9.42
   8  -9  -3    3.77   19.31
   8  -9  -3   16.16    7.66
   8  -9  -3   16.93   14.84
   8   9   3   15.68    6.01
  -8  -9   3   28.88   14.62
   8   9   3   17.41   19.06
   8   9   3   19.35   11.87
   8   9   3   12.39    9.71
   8  -9  -3    3.04    9.24
  -8   9  -3    3.81   24.59
   9  -9   3   36.06   23.64
  -9  -9  -3   44.05   19.79
  -9  -9  -3   64.43   24.63
  -9  -9  -3   59.07   12.20
  -9   9   3   75.90   17.77
  -9   9   3   60.72   14.07
   9   9  -3   61.71   13.38
   9  -9   3   46.39   20.63
  -9  -9   3   54.35    7.70
   9  -9  -3    4.43   24.00
   9  -9  -3   31.96   17.48
   9  -9  -3   20.01   15.14
   9   9   3   48.08   14.66
  -9  -9   3   40.17   21.69
   9   9   3   32.32   25.25
   9  -9  -3   58.23    9.38
  -9   9  -3   51.89   27.05
 -10  -9  -3   10.26    9.60
  10  -9   3    9.31   10.33
 -10  -9  -3   13.12    7.59
 -10  -9  -3    4.98    8.39
 -10   9   3   26.75   16.89
 -10  -9  -3    0.04    5.86
 -10   9   3   20.56   13.71
  10   9  -3   15.98   13.08
  10  -9   3    4.07    4.73
 -10   9  -3    9.31    7.55
 -10  -9   3    5.42    4.76
  10  -9  -3   15.57    5.97
  10   9   3   14.40    5.39
  10  -9  -3    3.59    8.58
  10   9   3   13.67   10.59
 -10  -9   3    3.41    7.48
  10  -9  -3    0.04    6.89
  10   9   3    2.97    8.91
 -10   9  -3   -0.84   16.23
 -11  -9  -3  188.88   36.10
  11  -9   3  125.30   30.05
 -11  -9  -3  196.02   39.98
 -11  -9  -3  221.24   33.13
 -11  -9  -3  165.13   21.99
 -11   9   3  285.66   51.16
  11   9  -3  185.14   29.79
  11  -9  -3  173.30   28.18
 -11  -9   3  185.14   24.26
  11   9   3  160.95   25.07
 -11  -9   3  232.67   25.91
  11   9   3  169.24   23.16
  11  -9  -3  170.55   19.86
 -11   9  -3  206.07   80.62
 -12  -9  -3    8.50    9.67
  12  -9   3    8.43   14.73
 -12  -9  -3   13.56    8.91
 -12  -9  -3    0.15    9.31
 -12   9   3   21.99    9.86
  12   9  -3   17.77    8.80
  12  -9  -3   13.01    9.27
 -12   9  -3    3.55    7.04
  12   9   3   -1.17    4.80
  12  -9  -3   -6.49    9.75
  12   9   3    2.86    6.30
 -12   9  -3   19.39   30.16
 -13  -9  -3   70.14   29.32
 -13  -9  -3   43.06   11.21
  13  -9   3   50.57   29.98
 -13  -9  -3   86.45   27.34
  13   9  -3   85.64   28.07
  13  -9  -3   74.91   11.18
  13  -9  -3   41.19   28.40
 -13   9  -3   49.80    8.98
  13  -9  -3   81.39   11.95
 -13   9  -3   87.51   60.14
  14  -9   3    6.63   12.97
 -14  -9  -3   33.24   17.77
 -14  -9  -3    5.39    5.94
  14   9  -3   20.49   13.74
 -14  -9  -3   13.34   12.61
 -14  -9  -3    0.04    7.15
  14  -9  -3   13.63    9.27
  14  -9  -3   22.21   11.84
  14   9   3   14.15   11.14
 -14   9  -3   23.97   33.90
 -15  -9  -3   15.03    9.75
  15  -9   3   -4.07   15.50
 -15  -9  -3    0.04    5.97
  15   9  -3    4.73    7.59
  15  -9  -3    2.16    6.34
  15  -9  -3    6.60    8.32
 -15   9  -3    0.29    6.16
  15  -9  -3   -2.35   15.68
  15   9   3    4.07   10.04
 -15   9  -3    5.06   16.75
 -16  -9  -3   13.56    8.39
  16  -9   3   17.00   13.71
 -16  -9  -3   -0.04    5.31
  16   9  -3    4.18    6.82
  16  -9  -3   -0.62    5.42
 -16   9  -3   -0.84    5.97
  16  -9  -3    8.76   14.18
  16   9   3    2.13    5.64
 -16   9  -3   -8.43   13.85
 -17  -9  -3   -1.10   11.98
  17  -9   3   14.77   12.68
 -17  -9  -3   15.57    7.18
  17   9  -3   13.60    9.86
  17  -9  -3    6.82    8.72
 -17   9  -3    0.92    4.40
 -17   9  -3   17.30   18.43
  17   9   3    0.15    7.81
 -17   9  -3    0.44   18.14
 -18  -9  -3   21.69   13.23
  18  -9   3   28.44   18.84
 -18  -9  -3    0.81    9.78
  18   9  -3   29.35   10.37
  18  -9  -3    1.47    8.39
 -18   9  -3    4.51   14.84
  18   9   3    0.15    8.98
 -18   9  -3    5.06   21.04
   0  10   3   -1.50    4.80
  -1 -10  -3   23.16   17.48
  -1  10   3   -4.10    8.25
  -1 -10  -3    2.20    5.09
   1 -10  -3   -5.28    6.19
   1  10   3    5.28    4.98
   1 -10  -3    0.44    4.25
  -1 -10   3   -3.41    5.28
  -2 -10  -3   13.89   14.99
  -2  10   3    8.94   12.13
  -2 -10  -3    7.55    6.49
   2 -10   3   11.07    7.33
   2  10   3   13.27    7.26
   2 -10  -3    8.14    3.96
   2  10   3   18.62    8.10
  -2 -10   3   15.87    7.26
   2 -10  -3    1.03    7.95
   2 -10  -3   -0.22   10.00
  -3 -10  -3   14.11   15.10
  -3  10   3   23.71    7.18
  -3 -10  -3   13.16    7.73
   3 -10  -3   10.55   13.34
   3  10   3   30.16    8.50
   3  10   3   20.05    8.72
   3 -10  -3    9.64    4.65
   3 -10  -3   30.60   16.01
  -4  10   3   10.88    8.50
  -4 -10  -3    8.61   17.88
  -4 -10  -3    3.33    6.74
  -4  10   3    7.44    6.49
  -4 -10  -3   11.54    8.80
   4  10   3    2.60    7.59
   4 -10  -3   -1.87   11.40
   4  10   3    9.53   13.38
   4 -10  -3    4.51    3.74
   4 -10  -3    9.31    8.47
  -5  10   3  154.28   32.58
  -5 -10  -3   88.03   14.51
  -5 -10  -3  133.61   22.61
  -5  10   3  102.43   22.72
   5 -10   3  149.63   19.39
   5 -10  -3   47.49   27.34
   5  10   3  111.59   19.39
   5  10   3  145.78   32.25
  -5 -10   3  118.66   17.08
   5 -10  -3   80.04   15.43
   6 -10   3   -9.82   10.33
  -6  10   3    9.13    7.37
  -6 -10  -3    1.61    4.25
  -6 -10  -3    4.76    7.59
  -6  10   3   -4.10    4.98
  -6 -10  -3    0.00    7.48
   6 -10  -3    8.28    6.27
  -6  10  -3   -1.28    4.54
   6 -10  -3    3.85   10.11
  -6  10  -3   -3.77    6.49
  -6 -10   3    7.48    5.68
   6 -10  -3   -0.29    4.91
   6  10   3   -2.64    7.11
   7 -10   3   19.97    9.60
  -7  10   3    7.66   14.92
  -7 -10  -3   11.07    9.31
  -7 -10  -3    6.74    9.13
  -7  10   3    9.86   10.77
  -7 -10  -3    0.04    8.83
   7 -10   3    8.50    7.88
   7  10  -3    4.65    7.37
   7 -10  -3   -0.26    7.18
   7 -10  -3    9.49   14.22
   7  10   3   16.16    9.16
  -7 -10   3    2.05    7.22
   7  10   3    2.64    9.42
   7 -10  -3    1.06    4.07
  -7  10  -3    5.24    8.36
   7  10   3    2.38    7.11
   8 -10   3   17.22    9.34
   8 -10   3    6.78    7.26
  -8  10   3    4.95    8.91
  -8 -10  -3   -2.31    9.16
  -8 -10  -3    5.50    8.76
  -8 -10  -3   -0.07    5.17
   8  10  -3   -0.44    7.29
   8 -10  -3   -2.31   10.77
   8  10   3    1.50    4.69
   8 -10  -3    3.85   26.79
   8 -10  -3    9.45    8.25
  -8 -10   3   -3.08   10.88
   8  10   3   18.07   13.93
   8 -10  -3    1.43    4.73
   8  10   3    0.77    4.87
  -9 -10  -3   42.33   20.12
   9 -10   3   44.82   21.37
  -9  10   3   58.85   20.63
  -9 -10  -3   23.01    9.64
  -9  10   3   30.86   16.23
  -9 -10  -3    0.04   12.53
   9  10  -3   33.20   16.49
   9 -10  -3   10.85   25.10
   9  10   3   28.73   12.17
   9 -10  -3   16.78    9.16
  -9 -10   3   23.97   17.44
   9  10   3   47.82   21.15
   9  10   3   -0.04   12.68
 -10 -10  -3    6.93    8.80
 -10 -10  -3    7.92    9.60
 -10  10   3   -0.26    9.78
 -10 -10  -3    0.04    7.95
 -10  10   3   16.82    7.44
  10  10  -3    4.65    7.55
  10 -10   3   -3.11    7.66
  10 -10  -3    2.64    5.61
 -10 -10   3    3.88    4.87
  10  10   3    7.26    6.08
  10  10   3    5.83    9.86
 -10 -10   3    4.36    6.38
  10 -10  -3    0.51    6.38
  10  10   3   -0.15    5.90
 -10  10  -3  -12.02   12.53
  11 -10   3   21.55   11.10
 -11 -10  -3   18.80   10.74
 -11 -10  -3   13.12    8.94
 -11 -10  -3    0.07    6.41
  11  10  -3   16.89    9.31
  11 -10  -3    0.62   10.88
  11 -10  -3    0.18   12.39
  11  10   3    3.63    9.64
 -11  10  -3   15.72   15.14
  12 -10   3   10.48   12.28
 -12 -10  -3    4.10   12.53
 -12 -10  -3    3.48   11.18
 -12 -10  -3    0.07    6.67
  12  10  -3    9.02   11.14
  12 -10  -3    0.40    4.80
  12  10   3   -3.77    5.02
  12 -10  -3    1.76    5.31
 -13 -10  -3   -3.63   14.40
 -13 -10  -3    1.94    3.88
  13 -10   3    6.89    9.97
 -13 -10  -3   10.37    8.76
 -13 -10  -3    0.07    9.60
  13  10  -3   21.00   14.07
  13 -10  -3    3.59    7.95
 -13  10  -3    0.55    4.21
  13  10   3    3.22    5.75
  13 -10  -3    1.03    6.01
 -13  10  -3   -6.60   13.34
 -14 -10  -3   -3.85    8.50
  14  10  -3   10.04    8.10
 -14 -10  -3   -0.04    5.53
 -14  10  -3    1.61    5.64
  14 -10  -3    5.90    7.33
  14  10   3   -0.22    8.14
 -14  10  -3    4.32   13.12
  15 -10   3   31.52   17.96
 -15 -10  -3    5.17    9.82
 -15 -10  -3    0.07    6.16
  15  10  -3    9.16    9.45
  15 -10  -3    1.72    6.49
  15 -10  -3    1.03    5.42
 -15  10  -3    0.26    6.01
  15  10   3    2.42    9.45
 -16 -10  -3    9.56   11.51
  16 -10   3   -2.86   12.39
  16  10  -3   18.21   11.32
  16 -10  -3   -6.78    7.99
 -16  10  -3    8.36    4.98
  16  10   3   14.11   10.99
 -17 -10  -3   35.07   13.30
  17 -10   3    3.66   14.48
  17  10  -3   16.42   13.52
  17 -10  -3   -2.27    9.27
 -17  10  -3  -12.61   27.67
  17 -10  -3   27.45    9.53
 -17  10  -3    5.24    5.61
  17  10   3   21.84    9.34
 -18 -10  -3    7.70   10.44
 -18 -10  -3   -3.41    6.74
 -18  10  -3    7.37   11.91
 -18  10  -3    4.36   20.67
   0  11   3   77.43   14.37
   0  11   3  100.93   19.64
  -1 -11  -3   13.16   22.43
  -1  11   3   13.49    6.45
  -1 -11  -3    5.28    7.81
   1  11   3    8.06   11.43
  -2  11   3    4.51    6.12
  -2 -11  -3    0.59    5.68
  -2 -11  -3    5.28   12.39
   2  11   3    8.17    9.53
   2 -11  -3    0.44    8.76
  -3 -11  -3   17.19   14.48
  -3  11   3    7.77   12.42
  -3 -11  -3    3.44    8.36
   3  11   3   23.20   11.98
   3  11   3   31.26   10.41
  -3 -11   3   18.51    8.80
  -4  11   3   53.32   23.78
  -4 -11  -3   52.19   31.08
  -4  11   3   42.99   12.06
   4 -11   3   54.20   19.46
   4  11   3   41.12   18.73
   4  11   3   37.45   14.92
  -4 -11   3   70.51   13.30
   4 -11  -3   20.30   14.11
  -5  11   3   21.26   12.68
   5 -11   3   12.83   23.05
  -5 -11  -3   16.34    7.29
  -5  11   3   23.75   10.19
  -5 -11  -3   29.43   12.53
   5 -11   3   29.28    9.64
   5 -11  -3   13.85   17.04
   5  11   3   22.79   14.95
   5  11   3   20.60   19.75
  -5 -11   3   12.31   15.83
   6 -11   3   13.38   12.90
  -6  11   3   32.91   17.19
  -6 -11  -3    6.23    9.60
  -6  11   3    6.52   13.74
  -6 -11  -3   15.32   17.04
   6 -11   3   20.82   15.28
   6 -11  -3   -4.65    8.87
  -6  11  -3    5.06    6.67
  -6 -11   3   14.33    8.47
   6  11   3   13.41    9.05
   6  11   3   17.41   10.92
  -7 -11  -3   -3.33    7.33
  -7 -11  -3    1.06    8.54
   7 -11   3    9.71    7.18
   7 -11  -3   -0.73    6.05
  -7  11  -3    2.68    7.62
   7  11   3   -0.04    8.39
  -7 -11   3    1.76    6.71
   8 -11   3    9.56   11.36
  -8  11   3    2.05   17.33
  -8 -11  -3   13.74    7.11
  -8 -11  -3   16.53   11.18
  -8  11   3    1.69   11.76
  -8 -11  -3    0.00   12.02
   8 -11   3   25.84   14.55
   8 -11  -3    4.03   13.56
   8 -11  -3    1.43   28.44
   8  11   3   18.21    6.08
  -8 -11   3    1.87   15.10
  -8  11  -3    5.46   10.19
   8  11   3   -6.93   11.32
   8  11   3    2.71    6.08
   9 -11   3   35.00   16.56
  -9 -11  -3    2.20   10.63
  -9 -11  -3   -0.77   15.68
  -9 -11  -3    0.18    7.18
   9 -11   3    0.22    5.42
   9  11  -3   11.58    8.28
   9 -11  -3   10.92    7.11
   9 -11  -3   -0.55   15.65
   9  11   3    0.26    9.09
  10 -11   3    6.34    8.69
 -10 -11  -3    1.14    9.53
 -10 -11  -3    0.84    8.83
  10  11  -3    2.35    7.29
 -10 -11  -3    0.00    9.34
  10 -11  -3   -1.80    8.94
 -10  11  -3   -1.06    4.25
  10 -11  -3   -0.15    5.97
  10  11   3    2.27    5.46
  11 -11   3   14.22   10.37
 -11 -11  -3    2.13    7.92
 -11 -11  -3   14.77   10.55
 -11 -11  -3    0.11    6.60
  11  11  -3    9.82   13.08
 -11  11  -3   -1.87    7.88
  11 -11  -3    8.43    6.56
  11 -11  -3   -0.29   11.87
  11  11   3   -0.81   10.41
  12 -11   3    4.47   18.25
 -12 -11  -3   16.67   14.40
 -12 -11  -3   15.39   17.19
 -12 -11  -3   -0.04    7.26
  12  11  -3    3.52    9.64
  12 -11  -3    6.67    6.96
  12  11   3    5.86    7.26
  12 -11  -3   15.98    7.55
 -13 -11  -3   -1.50    8.91
  13 -11   3    1.76    9.49
 -13 -11  -3   -0.07    8.36
  13 -11  -3   -4.32    8.80
 -13  11  -3    1.87    6.23
  13  11   3   -2.38    6.12
  13 -11  -3   -2.82    8.83
  14 -11   3   18.76   11.69
 -14 -11  -3    3.11    9.75
 -14 -11  -3    0.00    5.50
  14  11  -3   -1.03    9.24
  14 -11  -3   -0.33    5.20
 -14  11  -3    2.20    6.12
  14  11   3    2.82    9.97
  14 -11  -3   -0.40    6.71
 -15 -11  -3   -0.59   10.19
 -15 -11  -3    1.58    5.90
  15 -11   3  -17.74   19.24
  15  11  -3    1.98   10.15
 -15  11  -3   -3.30    5.02
 -15  11  -3  -15.39   18.36
  16 -11   3   27.74   13.63
 -16 -11  -3   10.41    7.44
 -16 -11  -3    3.08   12.09
  16  11  -3   10.33   18.69
  16 -11  -3    1.10   14.37
  16 -11  -3   11.21    9.64
 -16  11  -3    8.14    5.61
  16  11   3   -7.22   12.09
 -16  11  -3   23.93   20.56
   0  12   3   -4.43    8.94
  -1 -12  -3   17.30   18.25
  -1  12   3    2.24    9.42
   1  12   3    2.90    9.31
   1 -12  -3    0.04   11.91
  -2 -12  -3    4.36   14.00
  -2  12   3    9.34    6.89
   2 -12  -3    0.59    9.93
   2  12   3   14.29    7.22
  -3 -12  -3   46.43   25.29
  -3  12   3   84.69   15.90
   3  12   3  102.17   18.58
   3 -12  -3   34.23   27.01
  -4 -12  -3   17.19   21.95
  -4  12   3    5.50   13.01
   4  12   3   22.72   10.19
   4  12   3   16.60   12.79
  -4 -12   3   21.88   10.44
   4 -12  -3    4.51   10.59
  -5  12   3  218.60   45.74
   5 -12   3   88.69   32.51
  -5  12   3  164.62   23.71
   5  12   3  162.71   29.43
   5  12   3  205.70   48.08
   6 -12   3    7.48   19.06
  -6  12   3   18.95    8.28
   6 -12  -3   -2.71    8.28
  -6  12  -3    3.63    6.45
   6  12   3   -0.59   16.97
   7 -12   3   -3.55   13.41
  -7  12   3   39.54   15.87
  -7 -12  -3   26.57   12.94
   7 -12  -3   14.55   14.95
  -7  12  -3   10.30    7.48
   8 -12   3    3.66   10.37
  -8 -12  -3    9.78   15.72
   8 -12  -3    3.92    8.72
   8 -12  -3    0.55   27.45
   9 -12   3    3.22   16.82
  -9 -12  -3   13.30   10.63
   9 -12  -3    0.22    7.44
   9 -12  -3   -2.09   14.59
  10 -12   3   -5.50    9.42
 -10 -12  -3    5.31    6.41
 -10 -12  -3   -3.70    9.34
  10 -12  -3    5.13   10.52
 -10  12  -3    1.25    4.65
  10 -12  -3   -1.47   10.44
  10  12   3    0.99    4.91
  11 -12   3    8.14   10.26
 -11 -12  -3  -13.96   16.05
 -11 -12  -3    0.00    8.76
  11  12  -3    0.29    9.20
  11 -12  -3    7.33    6.12
 -11  12  -3    5.79    7.81
  11 -12  -3   -6.67    7.40
  11  12   3    1.76    8.36
  12 -12   3    6.67   17.11
 -12 -12  -3   -2.24   16.31
 -12 -12  -3   -0.04    5.94
  12  12  -3   10.15    9.34
  12 -12  -3    8.39    6.52
  12 -12  -3   -0.88    7.04
  12  12   3    1.28    9.89
  13 -12   3   24.92   12.53
  13  12  -3   13.71   11.43
  13 -12  -3   -2.64   11.43
 -13  12  -3    4.36    7.81
  13 -12  -3    1.28   13.60
  13  12   3    1.91    7.44
  14 -12   3    9.75   22.54
 -14 -12  -3    7.44   12.31
  14  12  -3   33.94   18.10
  14 -12  -3   -1.43    6.52
  14  12   3   22.94    7.99
  14 -12  -3    0.29    8.43
  15 -12   3   21.48   20.34
  15  12  -3  -14.77   15.83
  15 -12  -3    1.10   11.65
  15 -12  -3    6.78    8.17
 -15  12  -3   -4.36    5.24
  15  12   3   27.23   11.43
   0  13   3    5.39    7.77
  -1  13   3    8.43    7.62
   1  13   3    8.47    7.88
   1 -13  -3   -0.84    8.65
  -2  13   3   -7.33   10.99
   2  13   3   -8.36   12.42
   2 -13  -3    0.55    8.32
  -3  13   3    9.75    6.89
   3  13   3    1.58   13.23
   3 -13  -3   -0.33   13.74
  -4  13   3   40.86   11.51
   4  13   3   32.58   18.36
   4 -13  -3   10.88   12.86
   5 -13   3    0.07   10.96
  -5  13   3    2.20    9.42
   5 -13  -3   -3.04   11.07
   5  13   3    4.95   11.65
   6 -13   3   -0.04   15.65
   6 -13  -3    0.73    7.99
  -6  13  -3    0.51    6.38
   6  13   3   12.50    9.82
   7 -13   3    0.00   13.45
   7 -13  -3   14.55   10.81
  -7  13  -3   14.95    8.10
   8 -13   3   -8.69   11.91
   8 -13  -3   -4.98    9.31
   9 -13   3  -10.44   19.75
  -9 -13  -3    6.71   12.94
   9 -13  -3   18.36    9.16
 -10 -13  -3   10.30    9.78
  10 -13  -3    0.66   11.14
 -10  13  -3   -1.50    4.98
  10 -13  -3    2.24   10.77
  11 -13   3   26.28   12.79
 -11 -13  -3   33.42   20.85
  11 -13  -3    1.14    8.21
 -11  13  -3    6.74    6.27
  11 -13  -3    6.19    9.82
  12 -13   3   -9.89   17.30
 -12 -13  -3   -7.07   10.99
  12 -13  -3    0.92    9.38
  12 -13  -3    1.28    7.22
  13 -13   3   -5.97   13.01
 -13 -13  -3    1.25   12.24
  13 -13  -3    0.92   13.41
 -14 -13  -3   34.12   18.62
  14  13  -3   20.67   26.39
   0  14   3   -0.48    9.93
   0 -14  -3   -0.37   10.00
  -1  14   3    5.46    7.26
   1 -14  -3   -0.37    7.66
   1  14   3    1.32   11.76
  -2  14   3   -1.50    7.04
   2  14   3   13.05   11.29
   2 -14  -3    0.07   12.75
   3 -14  -3    0.18    7.70
   4 -14  -3   11.47   10.08
   5 -14  -3    3.55    8.76
  -5  14  -3    9.31   11.98
   6 -14   3   23.20   12.13
   6 -14  -3    8.21    9.27
  -6  14  -3   -2.75    7.95
   7 -14  -3   24.33   11.91
  -7  14  -3   24.30   15.25
   8 -14   3    0.77   12.72
   8 -14  -3   11.76   15.28
   9 -14   3   -6.41   21.22
  10 -14   3   31.44   11.84
  10 -14  -3  -11.65   12.72
 -10  14  -3   -3.26    5.83
  10 -14  -3   15.61   13.34
  11 -14   3   15.28   13.16
  11 -14  -3    3.81    8.87
  11 -14  -3   14.73   10.55
  12 -14   3   -5.53   17.30
 -12 -14  -3   -8.17   10.08
  12 -14  -3    1.25    6.16
  12 -14  -3    0.15    7.29
   0 -15  -3    3.55    8.32
  -1 -15  -3    3.85   10.59
   1 -15  -3   -3.44    7.81
   2 -15  -3   17.26   16.71
   3 -15  -3   16.53   11.18
   4 -15  -3   11.43   16.38
   5 -15   3   18.03   24.11
   5 -15  -3   10.08   10.15
  -5  15  -3   12.53    9.71
   6 -15   3    7.59   13.19
   6 -15  -3   13.08   15.72
  -6  15  -3    0.95    8.65
   7 -15   3   13.93   15.10
   7 -15  -3   11.07   11.40
   8 -15   3   17.30   14.70
   8 -15  -3   -3.99   16.42
   9 -15   3   -6.52   13.60
   9 -15  -3   12.64    9.09
   0 -16  -3   -1.47    8.06
  -1 -16  -3    3.04    8.47
   1 -16  -3    1.65   12.02
  -2 -16  -3   -0.07   13.05
   2 -16  -3    4.76    8.47
   3 -16  -3   -1.72   12.42
   4 -16  -3   -6.89    8.47
  -4  16  -3    5.61   13.67
   5 -16   3   -5.06   16.34
   0   0   4   21.44    6.56
   0   0  -4   17.04    2.09
   0   0   4    9.27    3.85
   0   0   4   15.06    5.02
   0   0  -4   20.08    5.42
   0   0  -4   14.66    4.43
   0   0  -4   14.07    5.86
   0   0   4   17.19    2.38
   0   0   4   14.99    7.07
  -1   0   4    1.32    3.37
  -1   0  -4    0.29    1.28
   1   0   4    0.15    2.79
   1   0   4   -0.77    6.27
  -1   0   4    2.38    4.14
  -1   0  -4    1.32    5.75
   1   0  -4    2.16    1.61
  -1   0  -4    4.36    3.33
  -1   0   4    1.69    3.37
   1   0  -4    3.63    2.86
   1   0   4    3.63    3.19
   1   0   4   -2.97    3.26
  -1   0   4    3.37    3.81
  -1   0   4   -0.37    1.58
  -1   0  -4    4.07    4.10
   1   0  -4    2.27    6.45
   1   0   4    1.54    1.98
   2   0  -4   48.04    3.77
   2   0   4   45.22    6.01
  -2   0  -4   50.68    2.64
   2   0  -4   50.65    3.81
   2   0   4   57.54   13.23
  -2   0  -4   54.24   11.98
   2   0   4   42.44   11.51
  -2   0   4   45.00    4.98
  -2   0  -4   56.62    7.15
  -2   0   4   49.77    5.13
  -2   0   4   54.53    6.01
  -2   0   4   64.13    7.99
   2   0   4   53.72    7.04
  -2   0   4   45.77    3.30
  -2   0  -4   70.33    8.58
  -2   0   4   52.04    8.06
   2   0   4   51.75    6.63
   2   0   4   45.33    7.51
  -3   0   4    1.83    4.18
  -3   0  -4   -0.99    1.39
   3   0  -4   -0.66    1.80
  -3   0   4    1.94    2.35
   3   0   4    8.83    5.53
  -3   0   4    4.40    2.86
   3   0   4   -1.39    3.37
   3   0   4    2.79    3.41
   3   0  -4   -0.48    1.50
  -3   0   4   -1.72    1.80
  -3   0  -4    2.86    4.43
   4   0  -4   84.03    8.94
   4   0  -4   93.78    6.38
  -4   0  -4   90.37    2.86
   4   0   4   80.48   10.55
   4   0   4   86.27   10.11
   4   0   4   88.36    9.38
  -4   0  -4  101.22   12.28
  -4   0   4   97.52    6.74
  -4   0   4  104.19   10.74
  -4   0   4   90.77    6.78
   4   0   4   96.78   19.79
  -4   0  -4   87.92    6.60
  -5   0   4   11.21    3.26
   5   0  -4   12.46    4.43
   5   0   4   12.75    4.73
  -5   0   4    5.94    3.41
  -5   0  -4    4.32    1.06
   5   0   4    7.59    4.73
  -5   0  -4    8.43    6.05
  -5   0   4    3.15    3.22
  -5   0   4    4.36    4.07
   5   0   4   -1.32   11.07
  -5   0  -4    4.10    7.95
   5   0  -4    2.13    4.14
  -6   0   4   44.12    5.61
  -6   0  -4   48.08    5.57
  -6   0   4   37.23    6.63
   6   0   4   51.56    5.79
  -6   0   4   41.26    4.25
   6   0   4   51.34    8.61
  -6   0   4   42.14    7.18
   6   0  -4   45.04    4.73
   6   0   4   42.55   18.47
  -6   0  -4   48.34   14.59
   6   0  -4   47.49    4.91
   6   0   4   61.27    7.95
  -6   0  -4   35.62   14.84
  -7   0   4    6.30    3.70
   7   0  -4    9.16    3.22
  -7   0   4    8.65    4.03
  -7   0  -4    4.76    5.86
  -7   0   4    3.48    4.62
   7   0   4   10.77    5.39
  -7   0   4    2.79    6.89
  -7   0  -4    5.94    5.57
  -7   0   4    2.90    7.66
   7   0  -4    1.72    3.11
  -8   0   4  347.23   21.91
   8   0  -4  352.58   26.02
  -8   0  -4  353.06   20.41
  -8   0  -4  372.99   47.64
  -8   0  -4  377.46   42.80
  -8   0   4  399.38   28.25
   8   0   4  362.99   24.04
  -8   0   4  446.80   30.56
  -8   0   4  416.57   30.34
   8   0  -4  399.85   23.27
  -9   0   4   10.04    3.92
  -9   0  -4    4.69    6.19
  -9   0   4   -1.14    3.66
  -9   0  -4    8.21    6.27
   9   0   4    3.99    6.27
  -9   0   4    1.25    4.69
   9   0  -4    1.69    5.42
  -9   0   4    4.36    5.53
 -10   0   4   44.89    7.44
  10   0  -4   49.47    6.45
 -10   0  -4   52.22   20.78
 -10   0  -4   58.45   11.87
 -10   0   4   46.29    9.42
  10   0   4   51.56    8.47
  10   0  -4   66.84    7.33
 -10   0   4   72.82   10.81
 -11   0   4    0.15    3.08
 -11   0   4   -0.95    3.33
 -11   0  -4    3.96   11.76
  11   0   4   -2.38    5.64
 -11   0  -4   -1.83    8.87
  11   0  -4    0.18    5.28
  11   0  -4    4.73    5.57
 -12   0   4  188.11   15.21
  12   0  -4  208.67   14.37
 -12   0  -4  287.86   35.51
  12   0   4  209.36   14.62
 -12   0  -4  242.49   39.91
  12   0   4  220.50   19.86
  12   0  -4  213.72   25.21
 -12   0   4  185.62   24.37
 -13   0   4   -3.01    6.01
 -13   0  -4   -2.24   12.83
  13   0  -4    0.62    3.55
 -13   0  -4   -9.93   10.37
  13   0   4    4.32    3.41
 -13   0   4    3.26    4.07
  13   0   4   -2.27    7.73
 -14   0  -4   -4.80   13.45
 -14   0  -4   -2.93   10.55
  14   0  -4    2.27    5.86
  14   0   4    1.06    6.74
  14   0   4   10.33    5.57
 -14   0   4   -1.39    4.47
  14   0  -4   -3.66    4.76
 -14   0   4    4.69    6.63
 -15   0   4    2.13    5.42
 -15   0  -4   -3.01   16.05
 -15   0  -4   13.01   11.51
  15   0  -4    5.02    4.58
 -15   0   4    0.33    8.54
  15   0   4    1.72   10.74
  15   0  -4    2.46    5.61
 -16   0  -4    6.82   14.81
 -16   0   4   13.16    7.33
  16   0  -4   13.93    8.94
  16   0   4   15.79    7.84
  16   0  -4    6.82    8.14
 -17   0  -4   -5.09   10.96
 -17   0   4    3.99    8.87
  17   0  -4   -1.83    4.10
 -17   0  -4   13.45   14.88
  17   0   4    7.92    6.01
  17   0  -4   -5.17    6.16
 -18   0  -4   34.34   19.39
 -18   0  -4   15.32   26.79
  18   0   4   19.86   16.82
  18   0  -4   28.33   18.47
 -19   0  -4   25.58   14.26
 -19   0  -4    4.65   13.93
  19   0   4    0.55    7.95
  19   0  -4    5.75   14.73
 -20   0  -4  -18.03   18.18
 -20   0  -4   26.79   17.22
  20   0   4    8.25   15.17
  20   0  -4   29.06   20.78
 -20   0   4   23.42   19.20
 -21   0  -4   -2.38   24.30
 -21   0  -4  -11.21   14.95
  21   0   4   -3.48   10.04
 -21   0   4   -1.06   17.19
   0   1  -4   -1.25    1.94
   0  -1   4    0.66    3.08
   0  -1   4    0.07    3.19
   0  -1  -4   -0.04    1.83
   0   1   4   -0.26    6.27
   0   1  -4    1.69    1.28
   0   1   4   -0.73    2.82
   0   1  -4    1.43    4.36
   0  -1  -4    1.94    4.03
   0  -1  -4    0.77    1.50
   0   1  -4   -3.37    3.70
   0  -1  -4    1.17    6.71
   0  -1   4    0.26    1.39
   0  -1   4    0.40    3.52
   0  -1  -4   -0.07    1.32
  -1  -1  -4   10.37    3.22
  -1   1   4   14.33    3.96
   1  -1   4   13.45    5.20
   1  -1   4   17.30    3.52
   1  -1   4   20.41    7.37
   1   1  -4   13.52    2.64
  -1   1   4   10.96    8.76
  -1  -1  -4   17.33    2.97
  -1  -1  -4   12.02    9.42
  -1  -1  -4   13.49    9.71
   1   1  -4    8.65    8.17
  -1   1   4    9.75    4.51
   1  -1   4   14.40    3.77
   1  -1   4   11.43    3.96
  -1   1   4   11.62    3.77
   1  -1   4   11.91    4.07
  -1  -1   4   11.91    4.69
  -1  -1   4   15.39    2.79
  -1   1  -4   16.78    2.79
   1   1   4   10.81    5.46
  -1   1  -4   10.37    4.29
  -1   1  -4   17.44    3.08
   1   1   4    8.43    7.26
  -1   1  -4   11.10    5.57
  -1  -1   4   10.92    3.96
  -1  -1   4   13.34    3.01
   1  -1  -4   15.06    2.68
  -2   1   4   11.58    7.48
   2  -1   4   17.48    8.54
  -2  -1  -4    6.08    5.39
  -2  -1  -4    7.99    2.57
   2   1  -4   10.99    2.16
   2  -1   4   10.92    4.10
   2   1  -4   12.06    2.42
  -2  -1  -4    7.73    2.97
  -2   1   4    9.02    7.40
   2  -1   4   14.04    3.15
  -2  -1  -4   12.68    5.64
   2  -1   4   16.38    4.76
  -2   1   4   11.36    6.45
   2  -1   4   10.88    3.77
  -2   1   4   12.20    2.13
  -2   1  -4   16.27    4.47
  -2  -1   4   10.59    3.77
   2  -1  -4    6.96    4.18
   2   1   4   11.43    5.13
  -2   1  -4   10.26    3.11
  -2  -1   4    9.89    5.24
   2   1   4    6.01    7.77
  -2   1  -4   13.05    8.39
  -2  -1   4   10.77    2.82
   2   1   4    8.72    1.98
   2  -1  -4   10.66    1.65
  -2  -1   4   10.08    3.44
  -3   1   4    0.29    3.30
   3  -1   4    3.33    7.59
  -3  -1  -4    7.62    4.51
  -3  -1  -4    3.52    1.87
   3  -1   4    2.90    5.39
   3   1  -4    2.31    2.05
   3  -1   4    5.79    2.68
  -3   1   4    2.42    3.01
   3   1  -4    5.06    1.83
  -3  -1  -4    6.60    2.46
  -3  -1  -4   -1.14    7.84
  -3   1   4    5.06    6.89
   3  -1   4    4.21    3.08
   3  -1  -4    2.71    1.54
  -3  -1   4    4.58    2.57
  -3   1  -4    3.41    1.47
   3   1   4   12.46    5.20
   3  -1  -4    1.80    3.44
  -3   1  -4    4.32    2.64
  -3  -1   4    1.76    5.09
   3   1   4    3.30    2.09
  -3   1  -4   10.92    8.14
  -3  -1   4    0.99    2.05
  -3  -1   4    2.82    2.90
   3   1   4   -0.66    7.04
  -4   1   4   11.14    3.77
  -4   1   4   25.40    6.63
  -4  -1  -4    8.87    1.98
  -4   1   4   13.63    4.73
   4   1  -4   13.89    2.75
   4  -1   4   13.23    6.60
   4  -1   4   17.04    3.59
   4   1  -4    6.05    3.30
  -4  -1  -4   15.10    3.19
  -4  -1  -4   11.76    9.82
  -4   1   4   15.98    8.50
   4   1  -4    7.29    4.84
   4  -1   4    9.34    9.53
   4   1   4    8.69    7.73
   4  -1  -4   10.04    3.30
  -4  -1   4   10.96    3.01
   4  -1  -4   12.35    2.93
  -4   1  -4   18.80    5.61
   4   1   4   11.43    3.19
  -4   1  -4    7.18    9.49
  -4  -1   4   16.89    6.56
  -4  -1   4    8.54    3.66
   4   1   4   14.04    9.78
  -4   1  -4    7.26    8.21
   4  -1  -4    8.32    2.71
  -5   1   4  427.08   24.92
  -5   1   4  413.52   41.92
   5  -1   4  507.96   25.25
   5  -1   4  440.24   39.69
   5   1  -4  461.13   18.25
  -5  -1  -4  507.60   24.11
  -5  -1  -4  467.58   46.54
  -5   1   4  413.78   31.44
   5  -1   4  437.64   54.31
  -5   1   4  458.93   33.09
   5  -1  -4  470.25   20.89
   5  -1  -4  487.92   23.42
  -5  -1   4  390.51   23.01
  -5   1  -4  459.26   38.59
   5   1   4  407.99   21.33
  -5  -1   4  414.37   28.22
  -5   1  -4  456.51   42.33
  -5  -1   4  465.60   36.87
  -5  -1   4  496.90   23.64
   5   1   4  475.13   40.49
  -6   1   4   41.85    4.36
  -6   1   4   40.46    6.08
   6   1  -4   51.67    4.98
   6  -1   4   57.61    8.21
  -6   1   4   44.09   12.50
  -6  -1  -4   53.58   10.22
   6  -1   4   52.11    5.83
  -6   1   4   48.34    8.39
   6   1  -4   43.83    8.61
  -6  -1  -4   42.33   15.76
   6   1  -4   43.43    3.96
   6  -1  -4   42.07    4.36
  -6  -1   4   56.84    8.58
  -6   1  -4   59.95    9.67
   6  -1  -4   56.95    8.25
  -6  -1   4   50.39    6.27
  -6  -1   4   52.73    7.11
   6   1   4   49.51    6.85
  -6  -1   4   45.77    4.87
  -6   1  -4   36.83   12.72
  -6  -1   4   48.12   11.87
   6  -1  -4   42.47    6.01
   6   1   4   47.53   12.79
  -7   1   4  165.75   14.66
  -7  -1  -4  201.19   28.14
  -7   1   4  211.71   13.71
   7   1  -4  199.32    9.49
   7  -1   4  180.05   17.30
  -7   1   4  193.61   27.05
  -7   1   4  207.16   19.79
   7   1  -4  178.40   18.54
  -7  -1  -4  181.44   22.46
  -7  -1   4  235.24   18.29
  -7  -1   4  182.14   11.76
  -7   1  -4  199.73   31.33
  -7   1  -4  175.47   19.28
   7  -1  -4  208.56   14.07
  -7  -1   4  194.85   18.40
   7   1   4  174.37   15.43
  -7  -1   4  198.41   13.96
  -7  -1   4  190.09   22.17
   7  -1  -4  192.14   12.02
  -8   1   4    7.33    3.88
   8   1  -4    1.98    2.86
  -8   1   4    1.65    4.47
   8  -1   4    6.38    3.41
  -8  -1  -4    1.91    5.86
   8  -1   4    6.30    7.15
  -8  -1  -4   -4.36    9.45
  -8   1   4    4.51    5.42
  -8   1   4   10.33    8.69
   8   1  -4    2.05    3.59
  -8  -1   4    4.62    3.33
   8  -1  -4    5.06    5.39
  -8   1  -4    4.10    6.56
   8   1   4    0.04    5.17
   8  -1  -4    6.89    2.57
  -8   1  -4    6.38    8.87
  -8   1  -4   10.63    5.46
  -8  -1   4   -0.40    5.13
   8   1   4    6.56    3.08
  -8  -1   4    2.20    3.70
   8  -1  -4    3.08    4.84
  -8  -1   4   10.48    4.51
  -9   1   4   53.76    7.55
   9   1  -4   65.67    6.16
   9  -1   4   65.08    7.40
   9  -1   4   52.26    9.71
  -9  -1  -4   38.48   13.05
  -9   1   4   41.96   13.82
   9   1  -4   56.80   10.92
  -9   1   4   55.78   11.84
  -9  -1  -4   38.33   16.97
   9  -1   4   64.02   10.26
   9  -1  -4   47.71    5.72
  -9   1  -4   50.43   19.68
  -9   1  -4   55.67   19.20
   9  -1  -4   60.61    6.67
   9   1   4   65.45    7.04
  -9   1  -4   69.34    6.96
   9   1   4   42.11    9.89
  -9  -1   4   53.94    7.04
  -9  -1   4   49.88    9.24
   9  -1  -4   54.60    9.89
  -9  -1   4   56.66   14.84
 -10   1   4   13.74    4.07
 -10   1   4   19.09    5.46
 -10  -1  -4   17.59    9.24
  10  -1   4   19.28    7.84
  10   1  -4   16.64    4.36
  10  -1   4   15.54    6.60
 -10  -1  -4   21.66   14.37
  10   1  -4   21.84    5.50
 -10   1   4   24.81    8.58
 -10  -1   4   14.88    4.95
 -10   1  -4   10.88    9.82
  10  -1  -4   19.90    4.80
 -10   1  -4   15.90   11.47
  10   1   4   24.59   13.63
  10   1   4   22.06    4.62
 -10  -1   4   20.89    4.76
  10   1   4   16.97    8.03
  10  -1  -4   20.41    4.80
 -10  -1   4   30.97    6.52
 -11   1   4    3.41    3.85
  11   1  -4    3.33    5.50
 -11  -1  -4    0.88    7.81
 -11   1   4    7.37    5.20
 -11  -1  -4    2.71   11.03
  11  -1   4    3.74    8.39
  11   1  -4    3.15    6.85
 -11  -1   4    6.85    3.59
 -11   1  -4    4.51    7.66
  11  -1  -4    3.52    5.83
 -11   1  -4    7.77    9.78
  11   1   4    4.10    5.13
 -11  -1   4    2.42    5.90
  11   1   4    6.19    4.21
  11   1   4   -2.68    6.56
  11  -1  -4    2.53    4.58
 -11  -1   4    0.59    5.24
 -12   1   4    4.03    3.77
 -12  -1  -4   -3.77    7.04
  12   1  -4    3.01    3.66
 -12   1   4    1.76    4.58
 -12  -1  -4    4.40    7.92
  12  -1   4    3.15    5.68
  12   1  -4    5.61    4.47
 -12   1  -4    0.11   10.63
 -12  -1   4   -0.04    3.59
 -12   1  -4   -2.05    7.81
  12  -1  -4    3.59    3.74
 -12  -1   4    4.95    4.18
 -12   1  -4    3.77    3.52
  12   1   4    9.20    7.15
  12   1   4   -1.32    6.52
  12  -1  -4    3.52    7.29
 -13   1   4   60.10   14.40
 -13  -1  -4   59.59   29.32
  13   1  -4   82.57    8.39
 -13   1   4   78.68   11.51
 -13  -1  -4   64.68   30.31
 -13  -1  -4   82.09   17.66
  13  -1   4   72.56   21.88
  13   1  -4   56.33   11.29
 -13  -1   4   77.03   14.70
 -13   1  -4   74.14   19.50
  13  -1  -4   96.16   14.00
 -13   1  -4   72.12   38.15
  13   1   4   85.50   16.31
  13  -1  -4   80.70   17.66
 -13  -1   4   66.04   17.22
 -14   1   4    6.41    8.03
  14   1  -4    8.10    6.89
 -14  -1  -4    5.50   18.73
 -14   1   4    5.06    8.94
 -14  -1  -4    5.42    9.60
  14  -1   4    0.66    6.96
  14   1  -4    5.09    5.79
 -14  -1   4    3.99    4.95
 -14   1  -4   15.43   21.73
 -14   1  -4   11.98   10.30
 -14  -1   4    5.57    6.16
  14  -1  -4    5.02    4.40
  14   1   4   13.78    5.83
  14  -1  -4    5.09   10.04
 -15  -1  -4  182.14   56.91
 -15   1   4  181.95   21.84
  15   1  -4  192.84   15.54
 -15  -1  -4  165.61   32.91
  15  -1   4  152.30   36.39
  15   1  -4  167.44   21.88
 -15   1   4  202.51   20.19
 -15  -1   4  216.58   19.31
 -15   1  -4  178.29   36.17
 -15   1  -4  204.34   65.05
  15  -1  -4  210.94   16.75
  15   1   4  214.79   17.19
 -15  -1   4  144.13   30.01
  15   1   4  182.90   31.44
  15  -1  -4  181.51   36.32
 -16  -1  -4   14.99   21.62
 -16   1   4   14.33    7.37
 -16  -1  -4    4.10   12.31
  16  -1   4    8.28    8.72
  16   1  -4   10.85    7.73
 -16   1  -4   20.38   13.38
 -16   1  -4   17.55   23.27
  16  -1  -4    9.97    5.57
 -16  -1   4    4.91    7.44
  16   1   4    8.72   10.70
  16  -1  -4   11.84   14.26
 -17   1   4   79.23   24.44
 -17  -1  -4   89.97   40.75
 -17  -1  -4   75.71   24.74
  17  -1   4   60.80   17.92
  17   1  -4   76.96   15.79
 -17   1  -4   77.47   27.05
 -17   1  -4   78.94   43.32
  17  -1  -4   89.93   11.69
 -17  -1   4   94.51   22.68
  17   1   4   70.99   14.55
  17  -1  -4   80.04   28.62
 -18  -1  -4    0.88   19.17
 -18  -1  -4   -0.33   12.24
  18  -1   4    6.56    7.92
  18   1  -4    2.82    7.70
  18  -1  -4    2.90    7.84
 -18   1  -4   -4.25   12.39
 -18   1  -4    6.45   12.57
  18   1   4   -1.47   10.74
  18  -1  -4   12.72    9.38
 -18  -1   4   -5.79   11.36
 -19  -1  -4   -2.16   16.09
 -19  -1  -4    6.01   16.31
  19  -1   4   -5.42    7.33
  19   1  -4   -5.24    7.29
 -19   1  -4   20.82   11.07
  19  -1  -4    3.44    4.32
  19   1   4   -4.87    7.22
  19  -1  -4   -3.11    8.65
 -19   1  -4  -13.74   17.99
 -20  -1  -4   -2.57   20.27
  20  -1   4   -6.93   12.72
 -20  -1  -4   10.92   21.22
 -20   1  -4    8.91   13.52
 -20   1  -4   11.58   20.89
  20   1   4   10.70    8.10
  20  -1  -4    9.49   10.81
 -21  -1  -4    4.65   13.74
  21  -1   4   -1.39    9.53
 -21  -1  -4   -9.13   16.09
  21   1  -4   33.83   17.55
 -21   1  -4   13.19   14.70
  21   1   4    5.39   13.63
  21  -1  -4   -3.48   16.67
   0  -2   4   43.76    5.28
   0   2   4   39.29    3.88
   0  -2   4   30.82    5.06
   0  -2  -4   26.68    3.74
   0   2  -4   36.98    6.56
   0   2   4   29.50    6.74
   0  -2  -4   32.36   13.60
   0   2  -4   36.79    6.19
   0   2  -4   27.52    6.19
   0  -2  -4   32.10    8.21
   0   2   4   26.35    6.85
   0  -2   4   36.94    6.67
   0  -2  -4   30.60    2.71
   0   2   4   28.03    7.62
  -1   2   4  294.27   24.85
  -1  -2  -4  294.86   18.21
   1  -2   4  327.33   30.05
  -1   2   4  352.76   23.71
   1   2  -4  301.49   14.81
  -1  -2  -4  287.71   26.83
  -1   2   4  300.47   24.96
  -1  -2  -4  316.67   25.73
   1  -2   4  313.07   25.47
   1   2   4  360.09   26.17
  -1  -2   4  340.96   14.07
   1  -2  -4  322.64   21.04
  -1  -2   4  317.95   19.94
   1   2   4  275.04   21.91
   1   2   4  330.56   19.35
  -1   2  -4  340.19   22.39
   1   2   4  278.55   30.82
  -1   2  -4  287.13   30.05
  -1  -2   4  279.62   16.05
   2  -2   4   13.41    8.43
   2  -2   4   21.55    3.44
  -2  -2  -4   14.62    3.81
   2  -2   4   24.22    6.93
   2   2  -4   16.78    2.46
  -2  -2  -4   19.64    6.60
   2   2  -4   19.90    4.43
  -2   2   4   18.36    5.86
  -2   2   4   13.38    3.77
  -2  -2  -4   15.65    6.45
   2  -2   4   21.77    7.95
   2   2   4   13.89    9.42
  -2   2  -4   17.66    6.60
   2  -2  -4   14.37    3.11
   2   2   4   18.14   11.03
   2   2   4   12.64    6.27
   2   2   4   13.74    5.09
  -2  -2   4   18.03    6.01
  -2  -2   4   15.06    2.64
  -2   2  -4   12.06    9.86
  -2   2  -4   23.34    6.01
  -2  -2   4   18.73    4.76
   2  -2  -4   15.87    3.37
  -2  -2   4   14.59    2.64
  -3  -2  -4    7.33    1.80
   3  -2   4    5.09    7.84
   3   2  -4    3.26    3.26
  -3   2   4    5.31    5.17
  -3  -2  -4    3.26    8.39
  -3  -2  -4    8.83    5.24
   3  -2   4   15.03    8.28
   3  -2   4    9.75    6.45
   3   2  -4    8.54    3.48
  -3  -2   4    2.79    1.98
  -3  -2   4    6.96    3.99
   3  -2  -4    7.59    2.64
   3   2   4    3.74    7.95
  -3  -2   4    1.14    5.46
  -3   2  -4    3.85    4.98
   3   2   4    4.36    8.69
   3   2   4    7.70    4.18
   3   2   4    5.31    1.58
  -3  -2   4    8.36    3.96
   3   2   4    4.03    9.09
  -3   2  -4    6.01    3.26
   3  -2  -4    6.93    1.98
  -4  -2  -4   32.14    8.25
  -4   2   4   38.55   11.91
   4   2  -4   28.91    5.50
   4  -2   4   32.07   10.48
   4   2  -4   26.75    4.47
  -4  -2  -4   37.16    8.14
  -4   2   4   17.66   11.18
   4  -2   4   34.85   14.29
   4   2  -4   29.35    7.59
  -4  -2  -4   25.36    3.55
  -4   2   4   32.40    5.57
  -4  -2   4   27.27    5.90
   4   2   4   29.54   13.45
   4  -2  -4   30.64    6.85
   4   2   4   31.88   13.45
   4   2   4   31.92    4.21
  -4   2  -4   34.41    5.06
  -4   2  -4   35.33    8.50
  -4  -2   4   36.17    4.87
  -4  -2   4   27.23    2.86
   4   2   4   25.51    3.15
  -4  -2   4   38.22    6.67
  -4   2  -4   42.55    9.64
  -4  -2   4   34.67    4.91
   4   2   4   32.43   11.07
   4  -2  -4   26.28    5.39
   5   2  -4   35.36    6.63
   5  -2   4   18.62   11.76
  -5   2   4   27.05   12.50
   5   2  -4   34.67    3.01
  -5  -2  -4   32.87    8.50
  -5   2   4   38.85   12.31
   5   2  -4   31.41    8.98
  -5   2   4   42.91    6.19
   5   2   4   30.60    9.56
  -5  -2   4   35.29    6.52
  -5   2  -4   37.78   13.12
   5   2   4   31.88    4.36
  -5  -2   4   40.42    5.79
  -5  -2   4   30.49    4.32
  -5   2  -4   41.26   10.30
   5   2   4   32.10   13.49
   5   2   4   31.33    9.93
   5  -2  -4   36.65    4.18
  -6  -2  -4    0.22    1.50
  -6   2   4    1.87    3.26
   6   2  -4    0.66    3.96
   6  -2   4    2.38    7.04
   6   2  -4    1.76    2.20
  -6   2   4    4.84    7.77
  -6  -2  -4   -0.37    7.51
  -6   2   4   -2.27    4.76
   6   2  -4    7.51    4.69
  -6   2   4    3.63    6.05
  -6   2  -4    6.52    8.10
  -6  -2   4    8.39    3.92
  -6  -2   4    1.21    3.08
   6   2   4    1.69    5.57
   6   2   4    1.32    2.75
  -6   2  -4    2.38    3.15
  -6   2  -4    6.52    3.99
   6   2   4    1.98    1.87
  -6  -2   4    4.40    2.71
   6  -2  -4    2.53    4.62
  -6  -2   4    3.52    3.22
   6  -2  -4    3.85    2.86
   6   2   4    2.90    8.32
  -6  -2   4    1.10    2.38
   6  -2  -4    1.50    3.55
   6   2   4   -3.59    6.23
  -7   2   4    4.69    6.16
   7   2  -4    6.30    3.01
  -7   2   4    2.90    3.88
  -7   2   4    6.23    2.35
   7  -2   4    8.10    9.13
  -7  -2  -4    3.44    6.30
  -7   2   4    7.44    5.17
  -7   2   4    7.99    5.90
   7   2  -4    3.22    5.68
   7  -2  -4    4.25    2.71
  -7  -2   4    5.09    5.02
  -7   2  -4    9.86    8.32
  -7   2  -4    7.99    3.63
  -7  -2   4    4.54    4.18
  -7   2  -4    2.49    6.30
  -7  -2   4    0.88    3.44
   7   2   4    3.81    2.46
   7  -2  -4    8.47    3.22
  -7  -2   4    4.29    4.14
   7   2   4    5.86    6.56
   7  -2  -4    3.37    2.71
   7   2   4    3.92    8.72
  -7  -2   4    4.65    2.60
   7   2   4    8.10    3.11
  -8   2   4  119.14   11.21
  -8  -2  -4  191.11   31.11
   8   2  -4  118.88    8.80
  -8   2   4  126.73    9.31
   8  -2   4  173.08   26.06
  -8  -2  -4  118.30   23.89
  -8   2   4  150.80   15.43
  -8   2   4  130.94   23.93
   8   2  -4  140.69   17.08
  -8  -2  -4  136.14   19.35
   8  -2  -4  122.14   12.61
  -8   2  -4  122.18   26.97
  -8   2  -4  148.71   17.59
   8  -2  -4  133.76   14.66
   8   2   4  112.95   16.89
  -8  -2   4  118.15   14.07
   8   2   4  114.70   13.45
  -8   2  -4  139.95   16.05
  -8  -2   4  118.88    9.13
   8   2   4  121.70    8.39
  -8  -2   4  145.89   15.32
   8  -2  -4  164.65   14.40
  -8  -2   4  149.63   16.75
  -8  -2   4  124.82    8.50
  -9   2   4   41.89    7.26
  -9  -2  -4   53.28   12.46
   9   2  -4   39.73    5.24
  -9   2   4   37.38    5.97
  -9  -2  -4   37.53    9.78
   9  -2   4   34.45    9.60
  -9   2   4   21.29   13.67
   9   2  -4   37.09    6.93
  -9   2   4   43.68   10.04
  -9  -2  -4   43.68   11.32
  -9   2  -4   35.03   13.89
  -9   2  -4   41.45    5.94
   9  -2  -4   35.07    5.31
   9  -2  -4   37.45    5.97
  -9  -2   4   39.98    5.72
  -9   2  -4   52.22   17.92
   9   2   4   23.78   15.57
  -9  -2   4   35.99    5.75
   9   2   4   34.59    5.09
   9  -2  -4   36.13    9.34
  -9  -2   4   33.39   10.04
  -9  -2   4   37.93    7.59
  -9  -2   4   37.31    4.84
 -10   2   4   10.33    4.76
 -10  -2  -4    8.72    9.67
  10   2  -4   12.64    6.45
 -10   2   4   15.17    4.84
 -10  -2  -4    7.99    7.62
  10  -2   4    6.12   11.10
 -10  -2  -4   18.69   13.01
 -10   2   4   14.92    6.82
  10   2  -4   10.37    8.36
 -10   2   4   16.60    7.88
  10  -2  -4   10.41    6.19
 -10  -2   4   12.68    4.07
  10  -2  -4   19.42    4.62
 -10   2  -4   19.42   11.40
 -10  -2   4    9.09    6.96
  10   2   4   17.08    6.27
 -10   2  -4   14.44    4.51
 -10   2  -4   11.25   15.36
  10  -2  -4    9.53    4.95
 -10  -2   4   19.09    5.75
 -10  -2   4   14.18    6.01
 -11   2   4   14.07    5.39
 -11  -2  -4   20.78   16.64
 -11   2   4    3.22    8.03
  11   2  -4   19.57    7.22
  11  -2   4   22.46    7.55
 -11  -2  -4   12.72   14.73
  11  -2   4   14.62    8.58
 -11  -2  -4   23.16    9.34
  11   2  -4   16.53    5.97
  11  -2  -4   19.86    8.03
 -11  -2   4   11.98    4.62
  11  -2  -4   17.92    4.43
 -11   2  -4   20.89   21.91
 -11   2  -4   25.03    4.95
 -11  -2   4   15.25    4.98
  11   2   4   19.42    7.48
 -11   2  -4   31.63   10.48
  11  -2  -4   19.83    6.19
 -11  -2   4   14.95    7.00
 -12   2   4   80.51   10.63
  12   2  -4   95.25    9.34
 -12  -2  -4  133.14   31.08
 -12   2   4   89.53   16.20
  12  -2   4   94.88   14.44
 -12  -2  -4  104.00   19.20
  12  -2   4  101.18   15.65
 -12  -2  -4   88.32   18.87
  12   2  -4  104.22   11.43
 -12  -2   4   88.76   13.67
 -12   2  -4  128.89   44.53
  12  -2  -4   93.19    9.67
  12   2   4   93.49    8.54
 -12   2  -4   99.53    9.82
 -12  -2   4   95.25   11.32
  12   2   4   96.49   15.25
 -12   2  -4  133.76   21.11
  12  -2  -4  122.18   13.05
 -13   2   4   53.76   12.97
 -13  -2  -4   64.87   25.62
 -13   2   4   62.41   15.46
  13   2  -4   67.91    7.62
 -13  -2  -4   48.52   16.31
  13  -2   4   47.49   20.23
 -13  -2  -4   51.20   16.53
  13   2  -4   43.02    9.60
 -13  -2   4   46.29   12.42
  13  -2  -4   62.34   12.50
  13   2   4   57.17    6.71
 -13   2  -4   63.88   38.70
  13   2   4   57.76    8.72
 -13   2  -4   58.78   17.63
  13  -2  -4   44.82   16.56
 -13   2  -4   53.50    7.88
 -14   2   4    1.28    9.34
 -14  -2  -4   10.81   10.88
 -14   2   4    1.50    5.46
 -14  -2  -4   11.58   10.66
  14  -2   4    7.92    8.43
 -14  -2  -4   16.16   10.15
  14   2  -4   10.85    9.60
  14  -2  -4   11.84    5.02
 -14  -2   4    8.36    4.65
 -14   2  -4    6.52   14.77
 -14  -2   4   15.83    6.34
 -14   2  -4    7.88    4.87
  14   2   4    9.75    5.75
 -14   2  -4    3.44   11.21
  14  -2  -4   15.10   11.07
 -15  -2  -4    6.05   10.33
 -15   2   4    6.78    5.90
 -15  -2  -4   14.18    9.34
  15  -2   4    1.10   12.94
 -15  -2  -4    2.64   10.33
  15   2  -4   -2.53    9.16
 -15   2   4    8.65    9.75
 -15  -2   4    5.83    4.51
 -15   2  -4   22.35   14.55
 -15  -2   4   -6.74   10.26
  15   2   4    0.00    8.47
  15  -2  -4    2.13    7.22
 -15   2  -4    1.25   11.03
  15  -2  -4    3.30    7.51
 -16  -2  -4   67.03   19.24
 -16   2   4   41.37   17.19
 -16  -2  -4   46.10   17.55
  16  -2   4   36.76   13.49
 -16  -2  -4   42.88   19.42
  16   2  -4   31.88   16.89
 -16   2  -4   52.15   24.48
  16  -2  -4   52.30    8.50
  16   2   4   41.81   12.28
  16   2   4   45.52   11.25
 -16   2  -4   44.23   31.77
  16  -2  -4   60.43   15.90
 -16  -2   4   46.03   12.57
 -17   2   4   31.96   17.41
 -17  -2  -4   33.83   16.71
  17  -2   4   33.79   11.43
  17  -2   4    7.26   19.39
 -17  -2  -4   28.07   17.48
  17   2  -4   28.88   16.05
 -17   2  -4   24.52   29.50
 -17   2  -4   29.46   33.68
  17  -2  -4   33.02   12.17
  17   2   4   39.21   10.59
  17  -2  -4   20.96   14.66
 -18  -2  -4    2.13   10.52
  18  -2   4    2.35    8.76
 -18  -2  -4    1.50   12.02
  18   2  -4    2.86   11.25
 -18   2  -4   11.73   19.20
 -18   2  -4  -11.98   21.07
  18  -2  -4    0.18    4.91
  18   2   4    4.14   11.25
  18  -2  -4   10.52    9.64
 -19  -2  -4   -1.61   13.71
  19  -2   4   21.33   16.64
 -19  -2  -4   17.70   14.77
  19   2  -4   15.54   14.81
 -19   2  -4   -2.64   15.83
 -19   2  -4   15.14   24.55
  19  -2  -4   -0.48    9.56
  19   2   4   17.33   13.16
  19  -2  -4   21.29   19.09
 -20  -2  -4    0.22   12.20
  20  -2   4   13.63    9.02
 -20  -2  -4    5.17   13.05
 -20   2  -4   -5.50   13.56
  20   2   4    1.10    6.93
  20  -2  -4    6.78   16.34
  20  -2  -4    0.48    5.09
 -21  -2  -4    4.87   26.64
  21  -2   4   60.98   31.41
 -21  -2  -4   55.52   30.09
  21   2  -4   75.64   21.73
 -21   2  -4  101.88   46.91
 -21   2  -4   79.63   28.40
  21   2   4   55.23   26.20
  21  -2  -4   85.94   21.69
   0  -3  -4    5.83    3.74
   0  -3   4    1.47    1.80
   0  -3   4    4.07    4.87
   0   3   4    0.59    3.41
   0   3   4    8.50    4.32
   0  -3  -4   -0.44    8.36
   0   3  -4    4.40    5.06
   0  -3  -4    2.82    4.95
   0   3   4   -3.59    7.26
   0  -3   4    1.94    3.26
  -1   3   4    8.06    9.89
  -1  -3  -4    7.81    3.04
   1  -3   4    8.65    3.11
   1   3  -4    7.51    2.93
  -1   3   4    9.09    4.18
  -1  -3  -4   11.62   10.37
  -1   3   4   11.95    6.08
  -1  -3  -4    6.23    5.86
   1  -3   4    3.41    7.33
   1  -3   4   11.98    6.56
   1  -3  -4    9.20    3.26
  -1  -3   4    5.20    3.92
  -1  -3   4    5.24    5.35
  -1   3  -4    8.76    3.37
  -1   3  -4   12.35    2.49
   1   3   4   10.11    5.02
   1   3   4    2.86    8.83
   1   3   4    8.21    4.65
  -1   3  -4    5.42    6.78
  -1  -3   4    9.27    5.68
  -1  -3   4   11.47    2.20
  -2   3   4   12.72    2.68
  -2  -3  -4    8.06    5.02
   2  -3   4   16.09    3.01
   2   3  -4   11.80    3.01
  -2  -3  -4   15.39   10.88
  -2   3   4   16.01    6.01
  -2  -3  -4   22.87    6.41
   2  -3   4   16.89   10.19
   2  -3   4   21.37    6.16
   2   3   4   18.25    6.63
  -2  -3   4   21.40    3.74
   2  -3  -4   20.82    5.97
   2   3   4   17.33    6.01
  -2   3  -4   17.48    6.19
   2   3   4   14.26    5.35
  -2   3  -4   11.03    8.94
  -2  -3   4   13.74    3.77
  -2  -3   4   14.95    4.03
   2  -3  -4   14.81    5.02
  -2  -3   4   14.77    1.61
  -3  -3  -4  282.58   20.34
   3  -3   4  270.56   13.45
  -3   3   4  280.68   36.35
  -3  -3  -4  298.34   36.21
  -3   3   4  306.33   14.59
  -3   3   4  294.68   25.47
   3  -3   4  276.98   42.07
  -3  -3  -4  296.91   33.28
   3  -3   4  351.44   35.69
   3   3   4  270.05   24.22
   3  -3  -4  303.88   17.81
  -3  -3   4  266.02   15.79
   3   3   4  253.82   23.23
  -3  -3   4  270.05   20.67
  -3   3  -4  296.25   23.93
   3   3   4  314.32   21.73
  -3   3  -4  250.63   23.23
  -3  -3   4  265.84   17.77
   3  -3  -4  320.26   22.32
  -3   3  -4  262.25   25.80
  -3  -3   4  307.94   14.95
   4  -3   4    5.94    2.13
  -4  -3  -4    7.95   10.08
  -4  -3  -4    9.24    2.64
   4  -3   4    6.67   10.33
  -4   3   4    6.71    8.36
   4   3  -4    8.14    2.68
   4   3  -4    6.78    2.31
  -4   3   4    8.39    3.52
  -4  -3  -4    6.82    8.87
  -4   3   4   12.68    9.02
   4   3  -4    3.52    4.32
   4  -3   4   17.99    8.76
   4  -3  -4   10.08    6.05
   4   3   4   16.23    7.04
  -4  -3   4    7.00    2.60
  -4   3  -4   13.19    3.99
   4   3   4   10.77    5.39
  -4   3  -4   16.16    6.56
  -4  -3   4    8.32    4.91
   4   3   4    7.37    5.94
  -4   3  -4    7.22    5.94
  -4  -3   4    9.93    5.64
   4   3   4    8.06    2.13
   4  -3  -4    8.50    3.01
  -4  -3   4    9.64    3.33
  -5  -3  -4  500.38   60.87
   5  -3   4  515.07   60.47
  -5   3   4  447.72   50.46
  -5  -3  -4  568.47   44.45
  -5   3   4  510.78   54.24
  -5   3   4  501.15   24.19
   5   3  -4  586.46   28.00
   5   3   4  538.27   46.98
   5   3   4  567.44   29.28
  -5   3  -4  522.91   43.76
   5  -3  -4  547.98   31.96
  -5  -3   4  504.66   31.26
  -5   3  -4  442.33   42.07
  -5  -3   4  462.78   28.55
  -5   3  -4  546.70   31.77
  -5  -3   4  475.42   33.57
   5   3   4  581.95   30.01
  -5  -3   4  545.97   31.52
   5  -3  -4  455.63   26.20
   5   3   4  456.58   56.47
  -6  -3  -4  148.38   11.03
   6  -3   4  164.62   28.47
   6   3  -4  178.65   10.11
  -6  -3  -4  171.32   18.07
  -6   3   4  187.78   18.21
  -6   3   4  176.16   17.44
   6   3  -4  174.40   15.32
  -6  -3   4  148.60   13.56
   6  -3  -4  160.15   16.71
   6   3   4  166.52   11.18
  -6   3  -4  183.71   19.46
  -6  -3   4  197.05   12.09
  -6   3  -4  156.41   30.12
  -6  -3   4  167.18   12.02
   6   3   4  157.25    8.47
   6  -3  -4  172.42   10.37
   6   3   4  176.97   29.61
  -6  -3   4  187.96   13.23
   6  -3  -4  166.89   14.22
  -6   3  -4  167.66   15.87
   6   3   4  163.99   23.64
  -7   3   4  152.16   17.37
   7  -3   4  202.95   30.97
  -7  -3  -4  185.80   29.39
  -7   3   4  191.52   20.82
   7   3  -4  205.74   11.98
  -7   3   4  164.80   31.22
  -7   3  -4  177.37   28.40
   7  -3  -4  199.47   14.18
  -7   3  -4  159.56   22.65
  -7  -3   4  198.44   17.59
   7   3   4  184.11   14.51
   7   3   4  194.23   12.83
  -7  -3   4  171.47   12.86
   7  -3  -4  198.66   12.17
   7   3   4  177.26   32.69
   7   3   4  214.05   28.77
  -7  -3   4  190.82   10.37
   7  -3  -4  174.37   12.46
  -8  -3  -4    2.53    1.61
  -8   3   4    1.50    5.39
  -8  -3  -4    6.67    8.83
   8   3  -4    2.86    2.71
  -8   3   4    2.71    1.83
   8   3  -4    4.07    2.13
  -8  -3  -4   -2.20    5.83
  -8   3   4   -1.39    8.94
  -8   3   4    8.94    5.86
   8   3  -4   -1.91    6.30
  -8   3   4    4.10    6.52
  -8  -3   4    2.09    4.98
   8  -3  -4   12.17    5.50
  -8   3  -4   11.91    7.22
   8   3   4    3.08    4.98
  -8   3  -4   -1.69    5.83
  -8  -3   4    2.90    3.26
  -8  -3   4   -2.27    3.19
   8   3   4    2.60    2.68
  -8   3  -4    7.73    6.08
   8  -3  -4    1.80    2.93
  -8  -3   4    2.68    2.86
  -8  -3   4    1.58    2.71
  -8  -3   4    3.11    2.42
   8  -3  -4    4.54    5.06
  -9  -3  -4   49.69   10.81
  -9   3   4   36.10    9.27
   9  -3   4   30.38   12.13
  -9  -3  -4   46.69   10.37
  -9   3   4   34.12   10.52
  -9   3   4   48.04   17.44
   9   3  -4   42.25    7.51
  -9   3   4   38.70    7.62
   9   3   4   46.91    5.90
   9  -3  -4   40.38    5.57
  -9  -3   4   35.88    5.97
  -9   3  -4   39.73   15.06
  -9   3  -4   49.51    6.89
  -9  -3   4   32.73    9.16
   9   3   4   37.34    5.35
  -9  -3   4   25.14    8.32
  -9   3  -4   43.76   12.53
   9  -3  -4   34.04    8.98
  -9  -3   4   43.50    9.27
  -9  -3   4   33.90    4.54
 -10  -3  -4   34.96    9.67
 -10   3   4   20.38    6.23
 -10  -3  -4   30.97   14.44
  10  -3   4   32.98   13.74
 -10   3   4   41.34   14.55
  10   3  -4   30.20   10.96
 -10   3   4   34.96    9.86
 -10  -3  -4   31.59   11.43
 -10   3   4   25.18    6.27
  10  -3  -4   17.19    8.32
 -10  -3   4   29.90    4.84
  10  -3  -4   27.85    8.94
 -10   3  -4   21.15   22.57
  10   3   4   32.43    5.02
 -10   3  -4   31.96    9.20
 -10  -3   4   36.57    8.69
  10   3   4   24.48    5.46
 -10   3  -4   33.20   13.05
  10  -3  -4   27.45    6.16
 -10  -3   4   29.94    9.27
 -10  -3   4   26.90    6.63
 -11  -3  -4   71.94   14.11
 -11   3   4   57.50    9.45
 -11  -3  -4   70.36   14.22
  11  -3   4   73.18   20.78
 -11   3   4   88.06   15.03
  11   3  -4   66.15   10.77
 -11  -3  -4   76.85   16.64
 -11   3   4   62.70    9.53
  11  -3  -4   66.18    8.03
 -11  -3   4   56.95   11.51
 -11   3  -4   84.29   38.08
  11  -3  -4   76.48    8.54
  11   3   4   60.17   11.18
 -11   3  -4   84.47    8.39
 -11  -3   4   63.14    9.53
  11   3   4   72.23    8.61
 -11   3  -4   75.53   28.91
  11  -3  -4   91.84   10.55
 -11  -3   4   85.50   11.51
 -12  -3  -4   56.00   13.67
 -12   3   4   53.47    9.64
 -12  -3  -4   54.02   13.82
  12  -3   4   48.01   12.83
  12   3  -4   71.86   10.11
 -12  -3  -4   85.86   16.09
 -12   3   4   49.36    8.28
 -12  -3  -4   46.91    5.94
  12  -3  -4   63.29   11.32
 -12  -3   4   61.64   11.51
 -12   3  -4   61.68   25.87
  12  -3  -4   56.80    8.25
 -12   3  -4   60.94   11.87
 -12  -3   4   68.16    9.02
  12   3   4   56.11    8.72
 -12   3  -4   71.83   28.69
  12  -3  -4   62.74   10.37
 -12  -3   4   62.52    7.26
 -13  -3  -4   -4.69    6.74
 -13  -3  -4   -8.36   10.33
  13  -3   4    0.92    9.13
  13  -3   4    3.52    5.35
  13   3  -4   -0.66    7.66
 -13  -3  -4   -2.49   13.12
 -13   3   4    1.50    6.45
 -13  -3   4    2.49    3.48
  13  -3  -4   -2.20    3.59
 -13   3  -4    7.40   12.64
  13  -3  -4    6.78    3.77
 -13   3  -4    2.93    3.48
 -13  -3   4   -2.24    7.37
 -13   3  -4   11.73   14.07
  13  -3  -4    4.58    5.17
 -13  -3   4   -2.02    5.94
 -13  -3   4    3.99    3.48
 -14  -3  -4   27.05   11.51
 -14   3   4   30.71   12.90
  14  -3   4   21.22   14.33
 -14  -3  -4   28.69   17.99
  14  -3   4   11.62   10.59
 -14  -3  -4   20.89   20.74
  14   3  -4   26.50   12.94
 -14   3   4   40.49   12.09
 -14  -3   4   22.06    6.27
 -14   3  -4   28.25   10.33
 -14   3  -4   34.30   20.56
  14  -3  -4   24.99    6.71
  14   3   4   25.03    5.17
 -14  -3   4   30.71    8.21
  14   3   4   24.99   11.95
 -14   3  -4   33.61   25.07
  14  -3  -4   29.79   10.30
 -14  -3   4   27.60    9.56
 -15  -3  -4   18.47   10.92
 -15   3   4    7.51   11.03
 -15  -3  -4   13.16   17.33
  15  -3   4    6.89   15.10
 -15  -3  -4   11.43   18.03
  15   3  -4   18.47    7.77
 -15  -3   4   13.49    9.53
 -15  -3   4   11.62    7.92
  15  -3  -4   21.07    6.41
 -15   3  -4    4.69   17.88
  15   3   4   14.84    5.13
 -15   3  -4   19.64   13.71
  15   3   4   13.41   10.19
  15  -3  -4    9.34   10.55
 -16   3   4   22.76   16.53
 -16  -3  -4   16.75   20.49
 -16  -3  -4   29.10   21.55
  16  -3   4   18.91   12.31
 -16  -3  -4   38.04   22.79
  16   3  -4   34.78    9.09
 -16   3  -4   16.53   19.46
  16  -3  -4   30.49   11.47
 -16  -3   4   34.30   14.37
 -16   3  -4   23.56   16.71
  16   3   4   17.74    8.21
  16  -3  -4   38.59   21.59
 -17   3   4   22.39   13.19
 -17  -3  -4   30.64   23.78
  17  -3   4   37.31   13.78
 -17  -3  -4   30.42   26.61
  17   3  -4   36.46   10.92
 -17   3  -4   26.35   20.56
  17  -3  -4   31.77    8.10
 -17   3  -4   23.67   18.80
  17   3   4   39.21    9.86
  17  -3  -4   26.06   22.76
  18  -3   4   10.81    8.17
 -18  -3  -4    1.54   17.92
  18  -3   4    1.03   13.52
 -18  -3  -4    7.66   18.03
  18   3  -4   -1.43    7.44
 -18   3  -4   19.42   12.97
  18  -3  -4   -1.72    7.70
 -18   3  -4   -3.04   12.50
  18   3   4    3.19    9.97
  18  -3  -4    5.02   16.53
 -19  -3  -4   -4.54   21.26
  19  -3   4    2.53   11.32
  19   3  -4   27.34   13.67
 -19  -3  -4   21.66   24.22
 -19   3  -4    8.58   22.72
  19  -3  -4    3.26    6.01
 -19   3  -4   24.52   22.76
  19   3   4   10.08   11.58
  19  -3  -4    1.39   12.53
 -20  -3  -4    0.99   22.76
  20  -3   4   11.58   19.09
  20   3  -4    4.10   17.04
 -20  -3  -4   14.26   17.55
 -20   3  -4   31.77   25.25
 -20   3  -4   36.35   24.00
  20  -3  -4   -2.09   10.19
  20   3   4   12.68    7.95
  20  -3  -4    3.70   13.34
 -21  -3  -4    2.42   13.67
  21  -3   4   -6.74   10.99
  21   3  -4   20.82   17.30
 -21  -3  -4    9.05   15.83
 -21   3  -4   18.29   15.21
 -21   3  -4   10.48   21.88
  21  -3  -4    3.59    5.28
  21   3   4   -0.62    7.88
  21  -3  -4   32.47   16.34
   0   4   4  215.78   21.22
   0   4   4  199.18   18.32
   0  -4  -4  222.34   23.93
   0   4  -4  221.31   18.58
   0  -4   4  197.56   12.64
   0  -4  -4  208.37   21.22
   0  -4   4  197.67   19.31
  -1  -4  -4  311.10   21.33
   1  -4   4  283.28   16.56
  -1   4   4  324.18   27.38
  -1  -4  -4  314.06   32.65
  -1  -4  -4  370.54   27.63
   1  -4   4  325.68   30.20
  -1  -4   4  280.46   13.67
  -1  -4   4  323.12   19.31
   1   4   4  300.25   25.51
  -1  -4   4  345.10   16.56
  -1   4  -4  304.68   20.67
   1  -4  -4  318.64   20.45
   1   4   4  290.76   27.01
  -1  -4   4  321.91   24.33
  -2  -4  -4   60.50   10.88
   2  -4   4   48.30    4.58
  -2   4   4   44.12    6.71
  -2  -4  -4   53.06   11.84
  -2   4   4   53.10   10.08
  -2  -4  -4   59.92    9.89
   2  -4  -4   65.41   10.88
  -2  -4   4   63.80    8.50
  -2  -4   4   55.78    4.43
   2   4   4   60.10   10.15
  -2   4  -4   63.47   11.62
   2   4   4   58.93    9.71
  -2  -4   4   66.70   11.87
  -3  -4  -4    5.24    4.21
  -3   4   4   -7.59    9.20
  -3  -4  -4   10.99    6.63
   3  -4   4    7.22    1.39
  -3   4   4   18.51    6.34
  -3   4   4    6.08    4.10
  -3  -4  -4    9.75    5.57
   3  -4   4    6.82    5.53
  -3  -4   4    7.66    1.76
   3  -4  -4    7.70    3.92
   3   4   4    7.55    8.83
  -3  -4   4    7.44    3.88
   3   4   4    6.38    5.94
  -3   4  -4    2.35    5.94
  -3  -4   4    4.62    2.38
  -3   4  -4   10.99    4.98
  -3   4  -4    0.92    4.69
  -3  -4   4    1.21    6.45
  -4  -4  -4   30.16    7.40
   4  -4   4   19.97    2.75
   4  -4   4   19.61   12.64
  -4  -4  -4   24.74    8.43
  -4   4   4   26.68    3.22
  -4   4   4   28.07   11.84
  -4  -4  -4   21.95    7.37
  -4   4   4   34.34   12.02
   4   4  -4   12.79    9.38
   4  -4   4   28.88    6.89
   4   4   4   27.71    7.77
  -4  -4   4   20.63    2.90
   4  -4  -4   29.21    8.50
   4   4   4   30.20   14.15
  -4  -4   4   29.17    3.52
  -4   4  -4   22.35    5.06
   4   4   4   31.59    7.07
  -4   4  -4   30.60    7.88
  -4  -4   4   20.16    3.04
  -4  -4   4   17.81    4.65
   4  -4  -4   16.53    4.51
   4   4   4   20.45    2.16
  -5  -4  -4  130.50   26.28
   5  -4   4  107.05   24.52
  -5   4   4  127.57    9.89
  -5  -4  -4  140.58   24.04
  -5   4   4  124.75   23.78
   5   4  -4   98.51   19.31
  -5   4   4  119.54   23.12
  -5  -4  -4  127.53   11.21
  -5  -4   4  123.87    7.66
   5  -4  -4  147.21   11.40
  -5   4  -4  129.69   16.78
   5   4   4  117.23   27.05
  -5   4  -4  103.89   11.84
   5   4   4  141.75    9.89
  -5  -4   4  132.59    8.58
  -5  -4   4  105.03    9.67
  -5   4  -4  124.71   10.99
   5   4   4  106.09   16.42
  -5  -4   4  112.29   10.41
   5   4   4  109.68    7.99
   5  -4  -4  130.90   13.23
  -6  -4  -4   25.54    8.72
  -6   4   4   14.55    2.27
  -6  -4  -4   21.88    6.89
   6  -4   4   13.89   11.69
  -6   4   4   17.85    7.51
  -6  -4  -4   27.41    7.40
  -6   4   4   19.72    7.77
   6   4  -4   20.30    9.93
  -6  -4  -4   21.88    4.18
  -6  -4   4   18.43    4.32
   6  -4  -4   18.36    8.06
  -6  -4   4   18.07    5.90
  -6   4  -4   17.30    8.83
  -6   4  -4   21.29    5.20
   6   4   4   21.66    4.58
  -6  -4   4   17.22    5.09
  -6  -4   4    9.60    4.80
  -6   4  -4   19.35    9.42
   6  -4  -4   14.62    2.82
   6   4   4   16.20    3.96
   6  -4  -4   12.42    6.74
   6   4   4   23.27   15.32
   6   4   4   21.59    7.88
  -7  -4  -4    9.16    8.17
   7  -4   4    1.47    8.80
  -7  -4  -4   -1.65    4.91
  -7   4   4    4.58    5.68
  -7   4   4    1.50    1.47
  -7   4   4   -4.47    9.45
   7   4  -4    6.71    4.69
  -7  -4  -4    1.72    4.73
   7  -4  -4    0.70    3.22
  -7   4  -4    3.59    3.52
   7   4   4    5.42    3.30
  -7  -4   4    1.50    4.40
  -7  -4   4    3.59    2.68
  -7  -4   4    6.67    3.15
  -7   4  -4    1.76    5.46
   7  -4  -4   -2.42    3.33
   7   4   4    1.91    2.20
   7   4   4   -4.76    6.41
  -7   4  -4   -4.03   10.59
   7  -4  -4    1.39    3.01
   7   4   4   -1.39   11.32
  -7  -4   4    1.32    3.11
  -8  -4  -4   32.73    8.76
   8  -4   4   17.15    8.87
  -8  -4  -4   31.77    8.03
  -8   4   4   30.38   13.38
  -8   4   4   33.35    8.91
   8   4  -4   14.11    6.19
  -8  -4  -4   17.41    7.07
  -8  -4   4   23.93    4.54
  -8   4  -4   32.80   15.57
  -8   4  -4   22.90   11.76
  -8   4  -4   24.92    8.98
   8   4   4   14.48    7.84
  -8  -4   4   24.44    5.13
   8  -4  -4   22.72    7.92
  -8  -4   4   24.44    4.14
   8  -4  -4   22.02    4.36
   8   4   4   19.64    5.94
   8   4   4   10.96   15.17
   8   4   4   27.08   12.86
   8  -4  -4   12.64    7.37
  -8  -4   4   19.42    3.44
  -9  -4  -4   17.74    7.70
   9  -4   4    4.32    7.70
  -9  -4  -4   18.36   11.76
  -9   4   4   11.73    8.17
  -9   4   4    4.18   11.29
   9   4  -4   11.69    9.02
  -9  -4  -4    8.32    3.55
  -9  -4   4    8.72    3.63
  -9   4  -4   21.66   10.11
   9  -4  -4   17.37    4.54
  -9   4  -4    7.48   17.41
  -9   4  -4   17.52    5.09
   9   4   4   10.63    4.14
  -9  -4   4   13.85    4.80
   9  -4  -4    2.75    6.60
   9   4   4   14.44    3.96
  -9  -4   4    6.56    4.03
  -9  -4   4   11.69    3.22
 -10  -4  -4   18.80    9.05
  10  -4   4   25.69    9.78
 -10  -4  -4   10.08    9.09
 -10   4   4   26.06    9.16
  10   4  -4   19.97    6.60
  10  -4  -4   24.88    7.59
 -10   4  -4   20.45   12.06
 -10  -4   4   14.44    4.14
 -10   4  -4   16.56   22.10
  10   4   4   14.62    4.65
 -10   4  -4   15.25    8.87
  10  -4  -4   11.98    7.73
 -10  -4   4   16.53    8.25
  10  -4  -4   16.45    8.54
  10   4   4   19.02    7.33
 -10  -4   4   30.31    7.37
 -10  -4   4   17.26    5.64
  11  -4   4   45.77   23.82
 -11  -4  -4   92.28   16.31
 -11   4   4  109.46   27.49
  11   4  -4   69.01   12.64
  11  -4  -4   82.86    9.93
 -11  -4   4   85.28   13.27
  11   4   4   89.89   12.86
 -11   4  -4  105.21   23.12
 -11   4  -4  103.42   29.68
  11  -4  -4   97.81   10.22
 -11   4  -4   97.26   10.33
 -11  -4   4   79.12   15.54
  11  -4  -4   88.25   12.57
  11   4   4   90.30   14.62
 -11  -4   4  105.73   10.30
 -11  -4   4   85.57   11.47
 -12  -4  -4    2.60    1.83
 -12  -4  -4    6.30    7.26
  12  -4   4   -6.16    6.82
 -12  -4  -4    0.11   10.04
  12   4  -4    2.20    7.70
 -12  -4  -4    4.43   12.53
  12  -4  -4    4.84    5.97
 -12  -4   4   -1.06    3.41
 -12   4  -4   -4.25    9.42
 -12   4  -4   10.81   12.94
  12  -4  -4    3.55    6.01
  12   4   4    0.66    3.22
 -12   4  -4    5.13    5.90
 -12  -4   4    1.36    4.51
  12  -4  -4    5.68    5.28
  12   4   4   -2.57    6.38
 -12  -4   4   -0.11    4.43
 -13  -4  -4   11.69    8.39
 -13  -4  -4   -3.19    7.44
  13  -4   4    3.44    7.51
  13   4  -4    1.17    5.72
 -13  -4  -4   10.00   14.37
 -13  -4  -4    2.20    3.55
  13  -4  -4    6.78    4.40
 -13  -4   4    3.52    3.88
 -13   4  -4   -3.01   10.77
 -13   4  -4   -6.41   14.40
  13  -4  -4    5.97    4.47
  13   4   4    4.25    5.35
 -13  -4   4    8.14    5.39
  13  -4  -4    4.18    6.82
  13   4   4    6.16    7.62
 -13   4  -4    7.81    4.03
 -13  -4   4    1.10    3.30
 -14  -4  -4   10.74   20.08
  14  -4   4   20.60   15.14
 -14  -4  -4   29.13   11.47
  14  -4   4    8.17   18.14
  14   4  -4   27.16    8.72
 -14  -4  -4   32.51   13.67
 -14  -4   4   13.45   10.08
  14  -4  -4   27.41   10.19
 -14  -4   4   22.32    9.05
 -14   4  -4   26.31   16.67
 -14   4  -4   16.97   19.86
  14  -4  -4   22.39   10.59
 -14   4  -4   29.21   10.04
 -14  -4   4   17.41   12.17
  14  -4  -4   24.55   17.52
  14   4   4   23.31    9.89
 -14  -4   4   28.88    9.71
 -15  -4  -4   12.13   17.37
  15  -4   4    9.71    7.29
 -15  -4  -4    4.18    9.42
  15  -4   4    4.43    8.76
  15   4  -4    8.39    6.71
 -15  -4  -4    2.02   11.18
  15  -4  -4   10.41    5.35
 -15   4  -4   -3.11   18.51
  15  -4  -4    6.56    5.35
 -15   4  -4   11.91    4.95
 -15  -4   4   -2.86    6.85
  15  -4  -4    0.99   15.83
  15   4   4    5.83    5.28
 -15  -4   4    9.27    5.13
 -16  -4  -4   28.69   14.00
 -16  -4  -4   26.86   12.97
  16  -4   4   16.16   18.36
  16   4  -4   25.36    9.34
 -16  -4  -4    9.20   15.46
 -16   4  -4   29.02   24.92
 -16   4  -4   18.69   17.44
  16  -4  -4   20.49   11.07
 -16   4  -4   21.48    5.90
  16  -4  -4   31.96   22.02
  16   4   4   21.77    7.22
 -17  -4  -4    1.54    9.24
  17  -4   4    1.25    8.72
  17   4  -4   -6.30    6.52
 -17  -4  -4    2.05   10.85
 -17   4  -4   -3.74   11.32
  17  -4  -4    5.72    4.73
 -17   4  -4    5.13   17.11
  17  -4  -4    2.68    9.75
  17   4   4    3.08    5.20
 -18  -4  -4   -1.94   10.04
  18  -4   4   -2.20   13.23
  18   4  -4   -3.15    7.37
 -18  -4  -4   -5.83   11.54
 -18   4  -4   -6.60   12.17
  18  -4  -4    2.57    4.80
 -18   4  -4   22.43   11.43
  18  -4  -4    4.14   10.48
  18   4   4    6.01    8.76
  19  -4   4   -0.22    8.54
 -19  -4  -4   -2.13   11.84
  19   4  -4   16.71    8.58
 -19  -4  -4   18.87   14.11
  19  -4  -4    1.98    8.91
 -19   4  -4   14.04   13.01
  19  -4  -4   -0.77   17.41
  19   4   4    0.04   10.41
 -20  -4  -4   -0.81    9.97
  20   4  -4    4.32    8.50
 -20  -4  -4   -7.95   19.46
  20  -4  -4    1.10    4.47
 -20   4  -4    0.95   18.80
  20  -4  -4    1.69    8.83
  20   4   4    0.15    5.61
   0   5   4   -4.43    5.46
   0  -5  -4    5.20    5.79
   0  -5   4    0.62    1.54
   0   5  -4    1.21    3.11
   0   5   4   -3.88    3.96
   0   5  -4    0.84    3.22
   0  -5   4    3.11    3.66
   0  -5   4    0.00    1.72
  -1  -5  -4   33.50    7.26
   1   5  -4   27.19    5.94
  -1   5   4   39.21    9.60
  -1  -5  -4   34.30   17.77
  -1  -5  -4   40.38    9.05
   1  -5  -4   28.40    7.37
  -1  -5   4   38.52    3.88
  -1   5  -4   26.72    6.49
   1   5   4   32.10   12.86
  -1   5  -4   30.60    6.89
   1   5   4   37.38    9.56
  -1  -5   4   44.27    6.60
  -2  -5  -4    8.28    7.11
   2  -5   4    5.72    1.25
   2  -5   4    2.90    2.60
  -2  -5  -4    5.46   11.40
  -2   5   4   12.02    5.79
  -2  -5  -4    4.62    9.34
   2   5  -4    6.19    5.53
   2  -5  -4    4.32    6.78
  -2  -5   4    3.19    2.20
   2   5   4   11.73    9.64
  -2   5  -4    2.97    6.56
   2   5   4   15.87    5.97
  -2   5  -4    7.44    5.24
  -2  -5   4    7.18    4.25
  -2  -5   4    8.94    4.54
  -3   5   4  272.03   36.98
   3   5  -4  221.97   20.16
  -3  -5  -4  276.39   41.67
  -3   5   4  275.51   25.62
  -3  -5  -4  278.33   33.61
   3  -5   4  271.81   33.61
  -3  -5  -4  286.65   22.54
  -3  -5   4  236.34   14.62
   3  -5  -4  270.09   19.64
  -3  -5   4  214.38   13.60
  -3  -5   4  221.20   12.20
   3   5   4  217.65   32.10
   3   5   4  233.77   25.32
  -3   5  -4  212.88   19.57
  -3   5  -4  201.45   20.19
  -3  -5   4  249.68   17.92
   4  -5   4    1.94    7.81
   4  -5   4    5.50    1.94
  -4  -5  -4    5.31    3.55
  -4   5   4    6.82   10.41
  -4   5   4   11.03   10.66
  -4  -5  -4    6.93    6.96
  -4  -5  -4    3.19    5.64
   4  -5   4    7.18    5.53
  -4  -5  -4    6.82    7.55
  -4  -5   4    5.72    3.19
   4  -5  -4   12.35    6.74
  -4   5  -4    7.84    5.46
  -4  -5   4    4.03    2.53
   4   5   4    8.61    9.71
  -4  -5   4    3.52    3.22
   4   5   4   -0.33    3.55
  -4   5  -4    9.78    5.31
  -4  -5   4    5.42    3.99
   4   5   4   22.94   10.59
  -5   5   4  107.49   15.14
   5  -5   4   82.79   15.72
  -5  -5  -4   91.18   10.33
  -5  -5  -4  102.68   16.34
  -5   5   4   89.78    6.19
  -5  -5  -4  101.18   12.72
  -5   5   4  105.36   14.70
   5   5  -4   85.83   11.98
   5  -5   4  102.72   13.27
  -5  -5  -4   94.88   19.13
  -5   5  -4   89.20   14.59
   5  -5  -4   95.58   10.33
   5   5   4  100.41   25.43
  -5  -5   4   94.26   10.33
   5   5   4  100.60    8.87
   5   5   4   99.13   23.38
  -5   5  -4   77.91   11.18
  -5  -5   4   74.28   14.00
   5  -5  -4   93.71    9.49
  -6  -5  -4    4.69   10.41
   6  -5   4    2.24    6.93
  -6  -5  -4    1.65    7.37
   6   5  -4    7.62    3.99
  -6   5   4   13.41    6.49
  -6  -5  -4   10.92    8.43
  -6   5   4    5.13    3.26
  -6   5   4    3.41    6.49
   6   5  -4    5.13    5.31
  -6  -5  -4    7.29    5.02
  -6  -5   4    5.61    2.16
   6  -5  -4    7.22    6.49
  -6   5  -4    4.51    7.37
  -6   5  -4   12.72    4.10
   6   5   4   -0.70    3.70
  -6  -5   4    4.65    2.86
  -6  -5   4   11.40    4.98
   6   5   4    1.65   10.77
  -6   5  -4    2.46    7.84
  -6  -5   4    4.32    6.05
   6  -5  -4    3.15    2.20
   6   5   4    3.01    2.82
   6  -5  -4    6.23    6.49
   6   5   4   14.29   11.07
   6  -5  -4    2.46    1.65
  -7  -5  -4   23.82    8.14
  -7   5   4   18.25   12.28
  -7  -5  -4   18.98    9.56
   7  -5   4    9.49    7.62
   7   5  -4    9.20    2.60
  -7   5   4    7.44    2.57
  -7  -5  -4   12.90    7.15
  -7   5   4    7.15   11.84
   7   5  -4    5.53   10.52
  -7  -5  -4   14.88    8.72
   7  -5  -4   16.12    4.95
  -7   5  -4   15.76    7.88
  -7  -5   4   13.27    3.88
  -7   5  -4   23.67   16.75
  -7   5  -4   19.90    4.76
   7   5   4    9.24    6.56
  -7  -5   4    8.21    4.03
  -7  -5   4    9.09    7.73
   7  -5  -4    6.82    4.65
   7   5   4   12.39    4.18
   7  -5  -4   14.81    4.54
   7   5   4   -2.75    9.67
  -7  -5   4   15.79    4.54
   7   5   4    4.25    7.92
  -8  -5  -4  155.20   28.88
  -8  -5  -4  141.53   17.74
   8  -5   4  111.99   27.05
  -8   5   4  163.52   19.79
  -8  -5  -4  140.43   26.35
  -8   5   4  147.14   17.59
   8   5  -4  139.77   16.71
  -8  -5   4  114.16    8.47
  -8   5  -4  166.85   22.83
   8  -5  -4  117.42   11.76
  -8  -5   4  125.63   10.19
  -8   5  -4  132.81   27.56
  -8   5  -4  117.34   12.79
  -8  -5   4  131.42   12.53
   8  -5  -4  126.10   14.84
   8   5   4  127.93   13.74
   8   5   4  126.51   17.96
   8   5   4  142.23   25.91
   8  -5  -4  117.53   14.84
  -9  -5  -4  111.37   15.46
   9  -5   4   84.18   24.37
  -9  -5  -4   92.39   14.22
  -9   5   4  105.73   26.09
  -9   5   4  106.24   14.92
   9   5  -4   76.34   12.09
  -9  -5   4   91.51    7.84
  -9   5  -4   97.92   33.02
  -9  -5   4   92.64    8.21
  -9   5  -4   97.48   10.70
   9   5   4   78.57    8.54
  -9  -5   4  101.84   10.70
   9  -5  -4   81.80   15.79
   9   5   4   80.15    9.05
   9  -5  -4  107.16   10.55
   9  -5  -4   89.09    9.27
 -10  -5  -4  132.92   17.63
  10  -5   4  132.08   19.83
 -10   5   4  161.03   21.37
 -10   5   4  159.08   29.21
  10   5  -4  135.81   15.39
 -10   5  -4  157.87   41.48
 -10  -5   4  105.51   14.55
 -10   5  -4  139.66   32.80
  10   5   4  117.97   16.97
 -10  -5   4  129.84   14.59
  10  -5  -4  134.27   22.06
  10  -5  -4  135.92   12.83
  10   5   4  119.95   16.49
 -10   5  -4  132.41   19.39
 -10  -5   4  129.18   13.16
  10  -5  -4  120.31   12.31
 -11  -5  -4   27.49    9.20
  11  -5   4   25.51   10.59
 -11  -5  -4   10.33   14.33
 -11   5   4   14.00    9.31
  11   5  -4   10.52   11.10
 -11   5  -4   20.27   19.68
 -11  -5   4   10.41    4.43
  11  -5  -4   25.14    9.49
 -11   5  -4   21.88   19.46
  11   5   4   18.69    5.09
 -11   5  -4   17.63    5.90
 -11  -5   4   13.01    9.97
  11  -5  -4    5.72   11.10
  11   5   4   17.55    7.95
  11  -5  -4   17.70    9.09
 -12  -5  -4   84.98   23.12
  12  -5   4   34.01   22.90
 -12  -5  -4   86.60   14.48
 -12   5   4   85.20   15.65
  12   5  -4   67.61   11.69
  12  -5  -4   54.75    8.91
 -12   5  -4   53.91   31.00
 -12  -5   4   50.50    7.04
 -12   5  -4   53.17   31.52
  12  -5  -4   64.35    8.80
  12   5   4   40.90   11.84
 -12   5  -4   58.20    8.39
 -12  -5   4   80.00   15.21
  12  -5  -4   38.15   21.11
  12   5   4   60.94    9.34
 -13  -5  -4   14.51    5.46
 -13  -5  -4   21.69   19.06
  13  -5   4   38.37   11.73
 -13  -5  -4   34.52   11.07
 -13   5   4   20.93   12.17
  13   5  -4   24.37    9.13
 -13   5  -4   23.16   23.05
 -13  -5   4   32.43    9.20
 -13   5  -4   22.46   22.17
  13  -5  -4   29.54   10.30
  13   5   4   13.67    5.17
 -13   5  -4   25.40    9.45
 -13  -5   4   21.33    8.21
  13   5   4   26.35    7.26
 -14  -5  -4   36.83   13.49
  14  -5   4   22.50   11.95
 -14  -5  -4   25.84   11.69
  14   5  -4   25.54    9.02
  14  -5  -4   21.66    7.11
 -14   5  -4   31.11   15.32
 -14   5  -4   14.62   29.21
  14  -5  -4   23.60    7.00
 -14   5  -4   17.63    6.45
  14   5   4   14.70    4.98
 -14  -5   4   23.82    8.32
  14   5   4   23.09    7.81
 -15  -5  -4    3.26   10.08
  15  -5   4    0.59    9.13
  15  -5   4    6.89   13.60
 -15  -5  -4    7.59   12.64
  15   5  -4   -2.53    9.45
 -15   5  -4    4.58   10.04
  15  -5  -4    2.75    7.81
 -15   5  -4   14.00   18.47
  15  -5  -4    5.53    7.44
 -15  -5   4   -2.46    9.27
 -15   5  -4    1.80    6.19
  15   5   4   -0.11    5.72
 -16  -5  -4   17.77   26.28
  16  -5   4   20.96    9.34
 -16  -5  -4   32.10   21.91
  16  -5   4   21.26   12.86
  16   5  -4    3.52   15.98
 -16   5  -4   29.21   16.82
  16  -5  -4   36.13    8.32
 -16   5  -4   19.64   19.06
  16  -5  -4   27.49    7.81
 -16   5  -4   24.41    6.12
  16   5   4   25.87    9.09
 -17  -5  -4   35.22   22.35
  17  -5   4   37.78   20.89
 -17   5  -4    7.66   17.15
 -17   5  -4   10.92   18.91
  17  -5  -4   31.74   12.02
 -17   5  -4   21.26    6.27
  17   5   4   40.02   14.29
 -18  -5  -4   -1.83   18.03
  18  -5   4    7.84   11.40
 -18   5  -4   13.93   21.26
 -18   5  -4   17.22   14.55
  18  -5  -4    3.70    6.01
  18   5   4   12.97   11.69
 -19  -5  -4    6.49   41.01
  19  -5   4   90.96   23.75
  19   5  -4   85.02   32.73
 -19   5  -4   64.43   30.67
  19  -5  -4   94.51   13.30
 -19   5  -4   92.61   30.34
 -20  -5  -4    1.14   11.10
  20  -5   4   -6.63   10.00
  20   5  -4  -13.96   14.22
 -20   5  -4   14.07   13.38
  20  -5  -4   -2.68    7.62
 -20   5  -4    0.29   11.32
  20   5   4    0.04    7.73
   0   6   4  610.10   54.31
   0  -6  -4  524.86   43.83
   0  -6  -4  563.19   59.70
   0   6   4  539.59   44.12
   0  -6   4  667.27   45.85
  -1  -6  -4   30.97   11.98
   1  -6   4   17.00    3.26
  -1   6   4   20.27    8.58
  -1  -6  -4   29.68   10.33
   1  -6   4   24.74    7.07
  -1  -6  -4   19.39   12.28
   1  -6  -4   10.26   11.91
   1  -6  -4   17.81   11.43
   1   6   4   19.53    7.73
  -1   6  -4   14.66    5.09
   1   6   4   22.50    9.02
  -1  -6   4   33.61    6.38
  -2   6   4  165.83   19.68
  -2  -6  -4  209.07   24.08
  -2  -6  -4  191.70   19.57
   2  -6   4  199.98   17.22
  -2  -6  -4  189.68   19.35
   2  -6  -4  174.70   17.74
  -2  -6   4  155.31   10.19
   2  -6  -4  178.98   25.29
   2   6   4  170.77   28.73
  -2   6  -4  145.23   13.96
   2   6   4  196.24   31.44
  -2  -6   4  173.85   16.60
   3  -6   4    1.17    2.68
  -3  -6  -4   -0.81    6.38
  -3   6   4    3.48    9.45
  -3  -6  -4    5.57    5.09
   3  -6   4    2.68    5.39
  -3  -6  -4   -3.33    9.05
  -3   6  -4   -3.04    3.85
   3  -6  -4    0.11    7.40
  -3  -6   4    2.16    1.72
  -3  -6   4    0.40    2.35
   3   6   4    5.42    8.83
   3  -6  -4    2.75    8.10
  -3   6  -4    3.08    2.38
  -3   6  -4    4.76    5.31
   3   6   4    3.77    9.05
  -3  -6   4   -0.51    4.29
   4  -6   4   17.26   20.89
  -4   6   4   40.53   11.51
  -4  -6  -4   47.49   18.47
  -4  -6  -4   52.59   14.33
   4  -6   4   50.76    9.60
  -4  -6  -4   25.54   10.41
   4   6   4   38.11    6.01
  -4  -6   4   30.05    7.37
   4   6   4   42.18   16.45
   4  -6  -4   40.02    7.48
  -4   6  -4   42.88   11.32
   4   6   4   48.52   17.04
  -4   6  -4   46.61    8.91
  -4   6  -4   21.11    8.87
  -4  -6   4   39.76    7.44
   5  -6   4   15.61   18.84
  -5  -6  -4   18.29    8.10
  -5   6   4   32.69   10.41
  -5  -6  -4   42.11   10.19
   5  -6   4   38.63   12.94
   5   6  -4   17.26   12.20
  -5  -6  -4   25.76   13.71
   5  -6  -4   33.42   10.66
  -5   6  -4   25.95    8.03
  -5   6  -4   23.45   10.66
  -5  -6   4   21.29    3.11
   5   6   4   17.22   17.15
  -5  -6   4   29.10    6.74
   5   6   4   24.77    9.71
  -6   6   4    8.69   11.76
  -6  -6  -4   19.42    7.04
  -6  -6  -4    1.28    4.62
  -6  -6  -4   14.92    5.61
  -6   6   4    3.59   10.88
   6   6  -4    7.33    8.83
   6  -6   4   11.43    6.19
   6   6   4    9.93    8.43
   6  -6  -4    9.09    4.62
  -6   6  -4    9.42    7.15
  -6  -6   4    2.35    3.59
  -6  -6   4    7.95    3.26
  -6   6  -4    7.40    7.66
   6   6   4    0.59    6.08
   6   6   4    9.34    7.29
  -6  -6   4    1.32    4.80
   6  -6  -4    0.11    6.78
   6   6   4    4.03    3.26
   7  -6   4   20.08    9.82
  -7  -6  -4   16.12    6.71
  -7  -6  -4   30.05    9.60
  -7  -6  -4   21.26    7.55
  -7   6   4   27.71    9.97
  -7   6   4   30.64    8.54
   7   6  -4   14.37    7.22
  -7  -6   4   21.22    5.17
  -7  -6   4   14.07    4.54
  -7   6  -4   23.20   17.85
  -7   6  -4   18.69   20.52
  -7   6  -4   21.07    8.94
   7   6   4   26.09    5.17
  -7  -6   4   23.38    6.67
   7   6   4   13.34    4.98
   7   6   4   13.63   11.21
   7   6   4   12.20    8.65
   7  -6  -4   24.26    9.38
  -8  -6  -4    5.20   11.40
   8  -6   4    0.88    7.29
  -8  -6  -4   11.62    5.31
  -8  -6  -4    8.39    6.19
  -8   6   4    1.21    2.46
  -8   6   4   13.82    9.86
   8   6  -4    0.48    8.69
  -8   6  -4    3.19    4.25
  -8  -6   4    6.27    2.68
   8  -6  -4    0.22    4.62
  -8  -6   4    8.94    5.17
  -8   6  -4   14.26   15.46
  -8   6  -4    8.21   11.14
   8   6   4    0.77    3.70
  -8  -6   4   -1.06    6.60
   8   6   4    3.66   10.63
   8   6   4    5.57    4.18
   8   6   4   -3.37    9.97
   8  -6  -4    4.91    4.03
  -9  -6  -4   40.71   11.69
  -9  -6  -4   27.30    9.20
   9  -6   4   35.14   11.03
  -9  -6  -4   44.89    9.78
  -9   6   4   34.74   10.52
   9   6  -4   30.71    8.76
  -9  -6   4   25.95    6.89
   9  -6  -4   29.21   10.37
  -9   6  -4   23.42   27.60
  -9   6  -4   28.51   16.93
  -9   6  -4   31.37   10.74
   9   6   4   29.24    9.05
  -9  -6   4   23.09   10.59
  -9  -6   4   26.68    8.91
   9   6   4   20.30   17.00
   9   6   4   20.38    7.48
   9  -6  -4   32.43    9.34
 -10  -6  -4   12.17   12.53
 -10  -6  -4   12.35   10.00
  10   6  -4   -0.22    3.22
  10  -6   4   -0.92   11.36
 -10  -6  -4    0.29    9.49
 -10   6   4    4.80    6.96
  10  -6  -4    6.16    4.62
 -10   6  -4   13.23   11.95
 -10  -6   4    2.90    3.52
 -10   6  -4    2.90    9.49
 -10   6  -4    9.05    4.43
  10   6   4    1.87    4.21
 -10  -6   4    1.36    7.26
  10   6   4    2.60    3.59
  10  -6  -4    7.48    4.29
 -11  -6  -4  380.80   56.40
 -11  -6  -4  311.76   31.96
  11  -6   4  267.27   39.36
 -11   6   4  389.96   53.58
  11   6  -4  241.43   27.12
 -11   6  -4  294.20   33.97
 -11   6  -4  267.93   67.83
 -11  -6   4  272.43   20.63
 -11   6  -4  292.85   48.67
  11   6   4  301.93   23.12
 -11  -6   4  262.03   27.56
  11   6   4  248.03   25.51
  11  -6  -4  314.87   24.99
  11  -6  -4  298.93   24.99
 -12  -6  -4   25.36   13.60
  12  -6   4   -5.24   10.11
 -12  -6  -4   14.66    6.96
 -12   6   4   -4.25    8.91
  12   6  -4    7.44    6.05
 -12  -6   4    0.48    6.49
  12  -6  -4   12.39    8.21
 -12   6  -4   13.93   10.74
  12   6   4   -1.39    6.96
 -12   6  -4    4.14    4.98
 -12  -6   4    9.71    5.50
  12   6   4    9.56    7.48
 -13  -6  -4  220.47   35.55
  13  -6   4  168.03   45.00
 -13  -6  -4  197.86   36.87
 -13   6   4  280.35   34.67
  13   6  -4  175.17   33.94
 -13   6  -4  196.76   28.55
  13  -6  -4  212.48   19.64
 -13  -6   4  192.80   16.31
 -13   6  -4  162.82   72.52
  13  -6  -4  223.07   19.53
 -13   6  -4  207.46   37.82
  13   6   4  169.09   16.86
 -13  -6   4  209.99   31.88
  13   6   4  188.44   29.43
 -14  -6  -4   10.26    4.87
 -14  -6  -4   11.43   11.69
  14  -6   4   11.62   11.14
 -14  -6  -4   25.47   13.63
  14   6  -4   14.59   11.65
 -14   6  -4   17.66   24.88
  14  -6  -4    4.47    9.38
 -14   6  -4   12.57   18.21
  14   6   4   17.30    7.26
 -14   6  -4    9.09    5.61
 -14  -6   4    9.86    7.22
  14   6   4   11.62    9.75
 -15  -6  -4   -4.18   14.59
  15  -6   4    6.23    8.80
 -15  -6  -4   -5.97   11.84
  15   6  -4    2.35    9.86
  15  -6  -4   -1.76    5.39
 -15   6  -4    2.53   15.03
 -15   6  -4    7.26   20.19
  15  -6  -4    2.97    4.91
 -15   6  -4    4.69    3.99
  15   6   4   -4.84    8.06
  16  -6   4    2.13    8.80
  16  -6   4    7.44   13.74
 -16  -6  -4   -0.44   12.06
  16   6  -4    3.08    6.30
 -16   6  -4   -0.84    9.38
 -16   6  -4  -14.04   19.83
 -16   6  -4   -0.22    5.72
  16  -6  -4    4.07    7.44
  16   6   4   -3.74    7.84
 -17  -6  -4    4.47    9.67
  17  -6   4   20.96   10.19
  17   6  -4   -5.20    8.06
  17  -6   4    2.24    7.15
 -17   6  -4    6.74   11.80
  17  -6  -4    6.49    6.08
 -17   6  -4   15.28   15.57
  17  -6  -4    1.69    5.72
 -17   6  -4    4.36    5.13
  17   6   4    7.88   10.04
 -18  -6  -4   -3.08   10.70
  18  -6   4   -9.34   17.52
  18   6  -4   18.36    9.20
 -18   6  -4    5.53   12.64
 -18   6  -4   24.66   16.89
  18  -6  -4    1.61    6.08
  18   6   4   -0.18   10.52
 -19  -6  -4   -0.29   10.48
  19   6  -4   12.35    8.91
 -19   6  -4    3.37   19.53
 -19   6  -4  -12.31   16.56
  19  -6  -4    0.84    8.21
  19   6   4   -0.07   11.18
   0   7   4   -4.80    8.06
   0  -7  -4   13.30    6.82
   0   7   4    6.67    6.34
   0  -7   4    2.13    5.79
   0  -7  -4    8.47   10.74
  -1  -7  -4   44.75   12.24
  -1   7   4   53.03   12.24
   1  -7   4   47.97   10.19
  -1  -7  -4   34.85   12.13
   1  -7  -4   34.01   10.26
   1   7   4   55.52   10.74
   1  -7  -4   37.93   16.78
   1   7   4   40.27   12.79
  -1  -7   4   57.24    9.56
  -2  -7  -4  145.89   19.64
   2   7  -4   96.82   13.82
  -2   7   4  134.02   26.28
  -2  -7  -4  149.37   30.16
   2  -7  -4  109.24   23.60
   2  -7  -4  128.63   28.22
   2   7   4  125.37   17.55
   2   7   4   84.76   28.66
  -2  -7   4  130.65   15.50
  -3  -7  -4  205.59   25.10
  -3   7   4  193.06   31.96
  -3  -7  -4  190.05   25.36
  -3  -7  -4  208.26   20.89
  -3  -7  -4  163.99   25.54
   3  -7  -4  155.64   19.31
   3   7   4  171.18   31.81
   3  -7  -4  171.36   35.88
   3   7   4  179.09   34.78
  -3  -7   4  177.41   19.35
  -4   7   4    8.91    7.26
   4  -7   4    1.83    2.49
  -4  -7  -4   -0.99    8.83
   4   7  -4   -0.33    4.65
  -4  -7  -4    0.00    6.85
  -4   7   4    3.77    5.64
  -4  -7  -4    3.74    5.17
   4  -7   4   10.04    6.05
  -4  -7  -4    0.37   11.07
   4  -7  -4    4.29    8.06
  -4  -7   4    1.69    2.97
   4   7   4    8.61    9.86
   4  -7  -4   -1.50    6.19
  -4   7  -4    3.88    4.03
   4   7   4    1.14    5.72
  -4   7  -4   -1.61    5.94
  -4   7  -4   -0.37    4.91
  -4  -7   4   -1.50    4.80
   5  -7   4    1.50   13.45
  -5   7   4   40.46   17.59
   5   7  -4   20.78    7.59
  -5  -7  -4   14.81    8.91
  -5  -7  -4   53.65   18.03
  -5   7   4   37.82   13.82
  -5  -7  -4   40.93   13.34
   5  -7   4   38.66    9.49
   5  -7  -4   34.45    7.73
  -5   7  -4   25.29   12.53
   5   7   4   33.24   18.14
  -5  -7   4   27.38    3.41
  -5  -7   4   32.65    4.54
  -5   7  -4   27.12    7.04
  -5  -7   4   34.48    7.81
  -5   7  -4   27.12    8.50
   5   7   4   25.65   10.30
   6  -7   4    6.27    9.20
  -6   7   4   24.22    8.87
   6   7  -4   16.05    5.57
  -6  -7  -4    8.14    8.83
  -6   7   4    5.68    7.07
  -6  -7  -4   12.20    6.52
  -6  -7  -4    3.74    5.31
   6  -7   4   12.64   11.69
   6   7  -4   15.79    6.45
   6   7   4    3.52    9.09
   6  -7  -4    8.50    9.60
  -6  -7   4    4.98    4.29
  -6   7  -4    8.03   14.44
  -6  -7   4   16.49    3.70
   6  -7  -4   -0.55   12.53
  -6   7  -4   16.45   13.74
   6   7   4   21.29    8.06
  -6  -7   4   11.43    9.93
   6   7   4    7.77    4.18
  -7  -7  -4   18.25    7.95
   7  -7   4   11.95   11.07
   7   7  -4   17.22    6.49
  -7  -7  -4   27.01   17.85
  -7  -7  -4   33.61   12.83
  -7   7   4   29.76    9.27
   7   7  -4   22.46   12.50
   7  -7   4   33.57    9.64
   7  -7  -4   24.85    7.48
  -7  -7   4   29.17    3.85
  -7   7  -4   36.90   14.95
  -7  -7   4   13.78    7.92
   7   7   4   29.46    6.01
  -7   7  -4   18.07   21.80
  -7  -7   4   24.66   11.51
   7   7   4   20.74   15.79
   7   7   4   34.59   12.42
  -8  -7  -4   97.26   17.26
   8  -7   4   61.27   23.60
   8   7  -4   56.22   15.36
  -8  -7  -4   85.28   14.11
  -8  -7  -4   80.00   12.64
  -8   7   4   68.86   14.33
   8   7  -4   79.56   13.08
  -8  -7   4   71.28    9.45
   8  -7  -4   85.50   16.89
  -8  -7   4   72.89    8.25
  -8   7  -4   77.95   35.88
  -8   7  -4   84.73   29.32
   8   7   4   76.67   14.55
  -8  -7   4   85.20   18.87
   8   7   4   77.40   21.18
   8   7   4   62.92   15.06
  -9  -7  -4   22.02    9.82
   9  -7   4   24.74   14.29
  -9  -7  -4   14.88   11.69
  -9  -7  -4    6.08   10.63
  -9   7   4   20.23   13.05
   9   7  -4   10.26   11.21
   9  -7  -4    7.29    5.97
  -9  -7   4   12.28    4.51
  -9   7  -4    5.35   20.56
  -9   7  -4    0.81   27.74
  -9   7  -4   10.41    5.50
   9   7   4   12.72    4.87
  -9  -7   4    7.29    5.97
   9   7   4   14.81    9.42
   9   7   4    6.67    5.94
   9  -7  -4    7.40    5.53
 -10  -7  -4   80.07   26.68
 -10  -7  -4   51.71   24.04
  10  -7   4   49.62   16.60
 -10  -7  -4   69.52   13.49
 -10   7   4   82.20   15.83
  10   7  -4   76.08   14.00
  10  -7  -4   66.48   14.99
 -10   7  -4   81.14   30.05
 -10   7  -4   77.69   34.19
 -10   7  -4   42.95   14.37
  10   7   4   70.36    9.71
 -10  -7   4   75.35   11.47
  10  -7  -4   58.45   14.44
 -11  -7  -4    0.29    8.80
 -11  -7  -4    4.84    8.87
  11  -7   4    4.51    8.36
 -11  -7  -4    3.22    6.96
 -11   7   4   14.07    8.76
  11   7  -4    8.72    7.29
  11  -7  -4    6.38    5.02
 -11   7  -4   13.19   15.57
 -11  -7   4    9.34    5.72
 -11   7  -4   -0.99   17.92
  11   7   4    1.32    5.02
 -11  -7   4   13.74    9.42
  11   7   4    2.13    6.82
  11  -7  -4    5.06    5.17
 -12  -7  -4   17.59   10.74
 -12  -7  -4   17.81   10.92
  12  -7   4    8.10   18.51
 -12  -7  -4   24.11   13.27
 -12   7   4   21.44   17.00
  12   7  -4    9.93   14.26
 -12   7  -4  -15.14   18.40
 -12  -7   4   11.51    5.24
 -12   7  -4   15.46   13.67
 -12   7  -4    5.42    9.24
  12   7   4   14.29    5.86
 -12  -7   4    9.42   11.58
  12  -7  -4   14.07    6.45
  12   7   4    9.67    5.79
  12  -7  -4   15.10    7.04
 -13  -7  -4    5.35   12.61
 -13  -7  -4    1.17    2.64
 -13  -7  -4    9.24   13.08
  13  -7   4    2.90    9.64
 -13  -7  -4   14.26    9.45
  13   7  -4    2.13    8.94
  13  -7  -4    5.31    7.99
 -13   7  -4    3.44   22.39
 -13   7  -4   -0.92    9.02
 -13   7  -4    1.65    4.51
 -13  -7   4   -0.15    5.50
  14  -7   4   -8.10    9.82
 -14  -7  -4    3.52    4.62
 -14  -7  -4   -2.93   10.63
 -14  -7  -4   -1.76    6.96
  14   7  -4    1.10    6.56
  14  -7  -4    5.31    5.83
 -14   7  -4   -1.65   24.85
 -14   7  -4    7.55    9.42
  14  -7  -4    8.17    5.31
 -14   7  -4    2.09    7.26
  14   7   4    9.78    8.10
 -15  -7  -4   -0.84    4.32
 -15  -7  -4   -0.04   10.11
  15  -7   4    8.69   13.96
 -15  -7  -4    1.98    6.56
  15   7  -4    1.03    6.05
 -15   7  -4   -2.24    8.69
  15  -7  -4    3.30    7.51
 -15   7  -4    2.71    6.12
  16  -7   4    5.53   10.77
 -16  -7  -4    0.59    7.99
  16  -7  -4   11.84    6.12
 -16   7  -4    2.02   16.20
 -16   7  -4    4.07   17.59
  16  -7  -4    3.59    5.68
 -16   7  -4    3.66    4.18
  16   7   4   -1.61    8.58
  17  -7   4   31.55   13.27
 -17  -7  -4   -2.64    6.52
  17   7  -4   -1.32    6.67
 -17   7  -4   30.86   14.07
  17  -7  -4    0.07    4.69
 -17   7  -4    5.31    6.27
  17   7   4   -6.56    7.40
  18  -7   4   -9.27   10.52
  18  -7   4   20.01   11.58
 -18  -7  -4   -1.43    8.39
  18   7  -4   13.08    9.05
  18  -7  -4    4.07    6.85
 -18   7  -4   34.01   19.20
  18  -7  -4    1.47    9.49
 -18   7  -4   11.69    7.11
  18   7   4    0.04   10.33
  19  -7   4   -4.21   12.13
 -19  -7  -4   -2.09    8.65
  19   7  -4    9.97    9.13
 -19   7  -4   19.17   12.20
  19  -7  -4    3.30    5.46
 -19   7  -4    4.29    4.69
  19   7   4    0.00   10.92
   0   8   4    8.72    7.40
   0  -8  -4   18.07   10.04
   0   8   4   28.58    9.97
  -1   8   4    9.56   13.38
  -1  -8  -4   21.66   15.61
  -1   8  -4   -1.10   10.04
   1   8   4   13.60    7.40
   1   8   4   25.21    9.34
  -1  -8   4   20.60    7.66
   1  -8  -4   16.89   14.73
   2   8  -4   -2.13    3.96
  -2   8   4    1.76    5.64
  -2  -8  -4   -1.61    6.63
  -2  -8  -4    0.84    7.18
   2  -8  -4    0.04    5.90
   2   8   4   -2.31    5.20
   2   8   4    7.33    8.98
  -2  -8   4    3.74    4.95
  -3  -8  -4   76.04   29.35
  -3   8   4   82.86   15.10
  -3  -8  -4   62.92   27.34
   3  -8   4   97.96   13.74
   3  -8  -4   78.72   23.67
   3   8   4   80.48   22.76
   3   8   4   73.15   15.46
  -3  -8   4   94.33   13.74
  -4  -8  -4   62.19   15.10
  -4  -8  -4   72.49   16.09
  -4   8   4   71.35   22.02
  -4  -8  -4   65.08   11.65
   4  -8   4   80.22   21.88
   4  -8  -4   65.19   12.97
   4   8   4   50.17   23.27
   4   8   4   50.65   14.18
   4   8   4   55.26    9.97
  -4  -8   4   60.69   11.91
   5  -8   4   75.09   24.70
  -5  -8  -4  104.59   21.48
  -5  -8  -4  139.44   22.21
  -5   8   4  134.86   20.41
  -5  -8  -4  154.94   24.37
   5  -8   4  133.87   20.05
   5  -8  -4  122.80   26.86
   5   8   4  123.46   30.09
  -5  -8   4  121.41   24.44
   5   8   4  115.40   14.29
   5   8   4  121.81   20.01
  -6  -8  -4   -7.92    9.89
   6   8  -4    5.79    7.48
  -6  -8  -4    5.64    7.11
  -6   8   4    2.27    5.94
  -6  -8  -4    5.72    5.13
   6  -8   4    1.36    6.08
   6   8   4   11.21    6.71
  -6  -8   4    1.80    2.16
  -6  -8   4   -0.51    1.87
   6  -8  -4   -0.11   10.15
  -6   8  -4   -0.77    4.10
   6   8   4    1.36    6.71
   6   8   4   -0.15    9.71
  -6   8  -4   -6.38    7.18
  -6  -8   4   -4.25    7.84
   7  -8   4   16.56   20.93
   7   8  -4   29.06   14.62
  -7  -8  -4   57.79   13.96
  -7   8   4   58.05   12.24
  -7  -8  -4   50.28   14.81
   7   8  -4   41.48   10.66
  -7   8  -4   36.65   13.49
   7  -8  -4   49.00   14.84
  -7  -8   4   32.84    7.29
  -7   8  -4   23.20   28.73
  -7  -8   4   40.97    6.71
   7   8   4   46.39   19.86
  -7  -8   4   43.98   10.59
   7   8   4   36.61    8.25
   7   8   4   56.66   14.73
   8  -8   4   17.70   17.63
   8   8  -4   24.96    8.17
  -8  -8  -4   15.14   11.51
  -8  -8  -4   17.55    8.14
  -8   8   4   28.47    9.56
   8   8  -4    8.39   12.72
   8  -8  -4   18.40    7.88
  -8   8  -4   11.98   24.88
  -8   8  -4    7.95   14.73
   8  -8  -4    1.36   12.57
   8   8   4   16.45    6.30
  -8  -8   4   19.75    8.83
   8   8   4   22.61   13.60
   8   8   4   34.85   10.44
  -9  -8  -4   69.23   29.94
   9  -8   4   56.14   18.10
  -9  -8  -4  100.63   20.56
   9   8  -4   72.19   15.06
  -9   8  -4   68.82   41.23
   9   8   4   83.08   15.46
   9  -8  -4   80.73   12.17
  -9  -8   4   78.02   13.41
   9   8   4   97.70   18.58
   9  -8  -4   80.07   17.15
  -9   8  -4   42.40   37.67
 -10  -8  -4   21.48   10.59
  10  -8   4   18.40   10.00
  10   8  -4    5.39    8.03
 -10  -8  -4    2.13    7.33
 -10   8   4   18.29   14.73
  10   8  -4    1.69    8.10
  10  -8  -4   18.87    6.63
 -10   8  -4   24.66   27.60
 -10   8  -4    8.80    5.72
  10   8   4   11.10    6.41
 -10  -8   4   11.73   11.76
 -10   8  -4   15.03   20.45
  10   8   4    4.87   16.78
  10  -8  -4   17.85    6.63
 -11  -8  -4  278.30   35.80
  11  -8   4  200.57   50.02
 -11  -8  -4  249.86   27.60
  11   8  -4  221.49   43.57
  11  -8  -4  200.53   22.35
 -11   8  -4  271.96   65.85
 -11  -8   4  228.97   26.02
 -11   8  -4  176.93   30.71
  11   8   4  255.61   23.38
 -11   8  -4  191.08   63.62
 -11  -8   4  257.15   38.74
  11  -8  -4  250.19   23.49
 -12  -8  -4   34.56   20.05
 -12  -8  -4   12.35   15.50
  12   8  -4   34.41   11.18
  12  -8   4   15.98   12.97
  12  -8  -4   18.65   13.01
 -12   8  -4   11.10   23.45
 -12   8  -4   32.21   23.64
 -12   8  -4   23.38    7.22
 -13  -8  -4  158.06   37.93
  13  -8   4   88.10   29.10
 -13  -8  -4  131.20   20.89
  13   8  -4  112.10   22.43
 -13   8  -4   38.15   43.54
 -13   8  -4  117.60   49.18
  13  -8  -4  123.28   16.42
 -13   8  -4  107.23   21.37
  13  -8  -4  117.86   17.59
 -14  -8  -4    2.79    9.27
 -14  -8  -4    1.39    3.26
 -14  -8  -4   11.73   16.12
  14  -8   4   25.14   17.48
 -14  -8  -4   -0.37    7.29
  14   8  -4    4.14    8.39
 -14   8  -4    0.55   10.26
 -14   8  -4   10.33   16.60
  14  -8  -4    4.62    8.32
 -14   8  -4   -0.95    4.87
  14   8   4    7.29    5.09
 -15  -8  -4   30.12   14.07
 -15  -8  -4   27.85   11.43
  15  -8   4   33.86   14.81
  15   8  -4   25.87   19.35
  15  -8  -4   22.57    8.91
 -15   8  -4   37.49   15.46
 -15   8  -4   -0.51   25.62
  15  -8  -4   29.43    7.99
  15   8   4   13.08    7.55
 -15   8  -4   15.03    6.63
 -16  -8  -4   27.41   12.50
  16  -8   4   22.32   13.08
 -16  -8  -4   -1.03    9.24
  16   8  -4   28.69   16.49
 -16   8  -4    6.12   19.94
 -16   8  -4   10.00   21.00
  16  -8  -4    0.59    6.52
 -16   8  -4   10.37    7.33
  16   8   4    4.84    9.86
 -17  -8  -4   -5.90   19.24
  17  -8   4   77.62   29.21
 -17  -8  -4   32.54   12.28
  17   8  -4   51.93   19.94
 -17   8  -4   21.69   28.03
  17  -8  -4   43.98   11.51
 -17   8  -4   35.80   31.41
  17  -8  -4   45.66   15.14
 -17   8  -4   21.95    8.10
 -18  -8  -4    1.14   11.54
  18  -8   4    4.36    5.28
  18  -8   4   -0.26    9.97
 -18  -8  -4   -1.50    7.07
  18   8  -4  -10.81   11.80
  18  -8  -4   -4.25    6.60
 -18   8  -4    6.45   16.93
  18  -8  -4    0.15    5.50
 -18   8  -4    3.70    4.29
  18   8   4    0.26    9.34
   0   9  -4   -1.21    4.62
   0  -9  -4    9.56    8.47
   1   9  -4    1.03    5.13
  -1   9   4    1.25    6.12
  -1  -9  -4   -0.62   15.90
  -1   9  -4   -0.22    4.95
   1   9   4   18.80    7.66
   1  -9  -4   10.37    8.87
  -2   9   4  127.57   19.35
   2  -9  -4   91.98   22.57
   2   9   4  129.25   17.33
  -2  -9   4  129.29   18.95
  -3   9   4    6.12   11.18
  -3  -9  -4   -2.35    9.02
  -3  -9  -4    0.73   16.49
   3  -9  -4    4.29    8.58
   3   9   4    8.50    6.82
  -3  -9   4   11.98    7.00
  -4  -9  -4   14.40   16.53
  -4   9   4   17.85    7.59
  -4  -9  -4    1.47   14.59
   4  -9  -4    3.41   13.34
   4   9   4   -5.39    8.54
   4   9   4    5.28    8.76
  -4  -9   4   14.22    7.59
   5  -9   4   35.80   19.68
  -5   9   4   62.01   16.23
  -5  -9  -4   51.23   17.11
  -5  -9  -4   67.83   17.11
  -5   9   4   61.86   14.84
  -5  -9  -4   63.00   11.54
   5  -9  -4   49.33   14.48
   5   9   4   49.07   22.21
  -5  -9   4   42.29   19.28
   5   9   4   59.26   14.92
   6  -9   4    7.33   13.89
  -6  -9  -4    2.46    8.91
  -6  -9  -4   13.34   13.16
  -6   9   4   -3.44   12.31
  -6  -9  -4   10.48    5.86
   6   9   4    0.48   11.80
   6  -9  -4    1.76    6.93
  -6   9  -4    2.05    4.76
   6   9   4    0.44    5.64
  -6  -9   4    3.44   10.26
   6   9   4    8.36   11.80
   7  -9   4   10.96   15.76
  -7  -9  -4   10.66    9.82
  -7   9   4    8.43    8.06
  -7  -9  -4   13.19    6.49
   7  -9  -4   10.59    7.29
  -7   9  -4    6.52    5.68
   7   9   4    8.98    9.82
   7   9   4    7.00    8.54
  -7  -9   4    7.95    7.95
   7   9   4    1.69    9.34
   8  -9   4   18.40   15.46
  -8  -9  -4   46.03   24.37
  -8   9   4   56.00   13.93
  -8  -9  -4   49.80   12.46
   8   9  -4   48.81   12.72
   8   9   4   41.41    9.60
  -8  -9   4   56.22   13.41
   8   9   4   40.42   20.38
   8   9   4   57.50   14.11
   9  -9   4    8.39    9.97
   9   9  -4   11.18   12.13
  -9  -9  -4   10.88    9.89
  -9  -9  -4   -3.19   11.36
  -9   9   4    9.42   15.10
   9   9  -4    4.43    8.21
   9  -9  -4    7.15   10.55
   9   9   4   14.51    5.79
  -9  -9   4    0.18   11.65
   9   9   4   18.87   16.38
   9  -9  -4    0.66    7.33
  10  -9   4   14.04   14.99
  10   9  -4    9.56    6.49
 -10  -9  -4   25.18   10.37
 -10  -9  -4    7.37    7.00
  10   9  -4    6.23   13.27
  10  -9  -4    4.14    6.56
 -10   9  -4   12.86   19.72
 -10   9  -4   -2.31   12.46
 -10   9  -4    8.98    8.87
 -10  -9   4   12.79   12.13
  10  -9  -4    3.44    6.82
  11  -9   4    2.09    9.02
 -11  -9  -4    4.76   10.04
 -11  -9  -4   -6.19   14.22
  11   9  -4   -0.95    7.73
 -11   9  -4    1.83   20.89
 -11   9  -4    5.97    4.91
 -11   9  -4    4.03   11.03
  11  -9  -4    3.81    9.97
 -12  -9  -4    3.63   14.29
  12  -9   4   -6.63    8.94
 -12  -9  -4    2.49    9.67
  12   9  -4    4.29    7.95
  12  -9  -4    5.06    5.94
 -12   9  -4   15.83   14.95
 -12   9  -4   -8.17   17.22
 -12   9  -4    2.09    7.77
  12  -9  -4    2.64    5.90
 -13  -9  -4   21.44   11.32
  13  -9   4   16.71   17.26
 -13  -9  -4    0.07    7.37
  13   9  -4   17.74   13.96
 -13   9  -4   -9.75   14.70
  13  -9  -4    8.98   10.33
 -13   9  -4    1.54   18.36
 -13   9  -4    4.62    5.79
 -14  -9  -4    0.81   10.81
  14  -9   4    6.49   12.57
 -14  -9  -4    0.04    7.04
  14   9  -4   12.06   14.59
 -14   9  -4    1.69    5.53
 -14   9  -4  -12.24   17.81
 -14   9  -4    1.39   15.50
  14  -9  -4   11.95    6.52
  14  -9  -4   12.17    6.89
 -15  -9  -4   -1.98   12.57
  15  -9   4    1.58   12.39
 -15  -9  -4   15.25    7.66
  15   9  -4   27.82   15.94
 -15   9  -4   -6.67   13.08
  15  -9  -4    6.52    6.60
 -15   9  -4    6.41    8.72
 -15   9  -4   12.75   18.98
  16  -9   4   15.46   21.00
 -16  -9  -4   -3.48   12.09
 -16  -9  -4    4.73   11.21
  16   9  -4   14.66   10.85
 -16   9  -4   10.96   13.38
 -16   9  -4  -12.06   19.20
  16  -9  -4   22.24   10.70
 -16   9  -4    3.74    4.76
 -17  -9  -4   20.12   14.77
  17  -9   4    0.51   14.07
 -17  -9  -4   24.15   12.42
  17   9  -4    5.42   12.35
  17  -9  -4   18.25    8.72
 -17   9  -4   30.93   20.85
 -17   9  -4   -7.95   19.31
  17  -9  -4   12.97    7.62
 -17   9  -4    4.87    6.19
   0  10  -4    0.26    4.91
   0  10   4    3.70    5.06
   0 -10  -4   17.44   13.89
   1  10  -4    0.55    7.07
  -1  10   4   -1.98    4.95
  -1 -10  -4   -0.66    8.80
   1  10   4   -1.10    8.10
  -1  10  -4    1.54    4.36
   1 -10  -4    1.39    8.32
  -2  10   4    5.39    9.82
  -2 -10  -4   -0.84    9.53
   2 -10  -4    5.46   13.16
   2  10   4    3.26    8.47
  -2  10  -4   -0.73    4.98
  -3  10   4   11.54    8.76
  -3 -10  -4    0.59   18.76
   3 -10  -4   12.68   10.70
   3  10   4   15.14    9.49
  -3 -10   4   10.63    8.80
  -4  10   4   41.45   12.17
  -4 -10  -4   52.19   16.31
   4 -10  -4   24.08   24.19
   4  10   4   33.94   14.95
   4  10   4   47.24   14.55
  -4 -10   4   51.49   12.94
   5 -10   4   11.32   20.30
  -5  10   4   32.98   25.03
  -5 -10  -4   64.76   29.35
  -5  10   4   64.90   19.83
  -5 -10  -4   60.06   23.78
   5 -10  -4   32.87   13.93
   5  10   4   62.37   15.61
  -5 -10   4   46.91   20.45
   5  10   4   50.83   14.92
  -6  10   4    7.55    9.20
   6 -10   4   -8.94   14.84
  -6 -10  -4    7.70   10.04
  -6 -10  -4   -7.18    9.09
  -6  10   4   16.71    8.03
   6 -10  -4   -3.59   12.86
   6  10   4   -0.81    6.52
  -6  10  -4    7.70    7.59
  -6 -10   4   -0.81   11.29
   6  10   4   -4.40   15.25
   6  10   4    7.77   12.90
  -7  10   4   12.39   16.20
   7 -10   4   -7.81   16.71
  -7 -10  -4   -0.07   10.37
  -7 -10  -4   13.41    9.78
  -7  10   4   12.02   13.93
  -7 -10  -4    3.01    7.48
   7 -10  -4    8.76    7.33
  -7  10  -4    5.17    5.17
   7  10   4   13.49    7.00
   7  10   4    4.62    9.42
  -7 -10   4    0.88    8.25
   7  10   4   -8.06   16.23
   8 -10   4   20.08   14.62
  -8 -10  -4   36.32   21.55
  -8  10   4   35.66   12.20
  -8 -10  -4    0.04   16.53
  -8  10  -4   22.39   13.01
   8 -10  -4    6.71   15.32
  -8 -10   4   47.93   13.12
   8  10   4   60.10   17.55
   9 -10   4   12.64   10.88
  -9 -10  -4    0.00    7.62
   9  10  -4   37.82   14.81
   9 -10  -4   17.81    8.10
   9 -10  -4    0.51    8.58
  10 -10   4   -5.13   12.97
  10  10  -4    3.66    9.93
 -10 -10  -4   -0.66   13.01
 -10 -10  -4    0.04    5.39
  10 -10  -4    6.05    8.58
  10 -10  -4    4.87    8.69
 -11 -10  -4   47.97   24.37
  11 -10   4   26.97   15.90
 -11 -10  -4    0.07   16.45
  11  10  -4   48.15   14.04
  11 -10  -4   44.60   11.51
 -11  10  -4   21.77    8.50
  11 -10  -4   48.15   11.18
  12 -10   4    7.55   11.73
 -12 -10  -4    0.00   12.35
  12  10  -4   15.68   16.49
  12 -10  -4   14.18    8.10
 -12  10  -4    6.05   10.04
  12 -10  -4   20.74    8.10
  13 -10   4   16.64   19.28
 -13 -10  -4   43.43   13.85
 -13 -10  -4    0.15    7.77
  13  10  -4   20.60   17.26
  13 -10  -4   26.94   12.42
 -13  10  -4    6.27    6.67
  13 -10  -4   10.63   12.97
  14 -10   4   -5.09   11.40
 -14 -10  -4   12.50    6.30
  14  10  -4    6.60    9.20
 -14  10  -4    9.34    7.99
 -14  10  -4   12.83   18.25
  14 -10  -4   -0.55    7.37
 -15 -10  -4   25.36   20.67
  15 -10   4    7.22   19.68
 -15 -10  -4   -0.48    6.85
  15  10  -4    7.33   10.77
 -15  10  -4   24.19   14.59
 -15  10  -4   15.98   20.96
  15 -10  -4   -0.62   10.77
 -15  10  -4    9.31    5.24
 -16 -10  -4    7.00   19.35
  16 -10   4   11.84   19.86
 -16 -10  -4    2.38    9.75
  16  10  -4   15.94   10.26
  16 -10  -4   -0.66    7.62
 -16  10  -4   10.66   11.76
 -16  10  -4   -2.42   18.10
  16 -10  -4    6.89    6.23
 -16  10  -4    0.11    4.43
   0  11  -4    0.73    9.24
   0  11   4   -3.19    9.93
   0 -11  -4   -3.85   14.77
  -1  11   4    7.04   11.32
  -1 -11  -4    1.32   10.85
   1  11   4    9.97    7.15
  -1  11  -4   -0.37    6.19
   1 -11  -4   -3.15   10.88
  -2 -11  -4   -0.04    9.89
  -2  11  -4   -0.40    5.64
   2 -11  -4   20.74   15.87
  -3  11   4   95.65   16.12
  -3 -11  -4   -0.59   29.57
   3 -11  -4   31.08   20.38
   3  11   4   98.36   28.22
   3  11   4   84.10   29.24
  -4  11   4   41.12   20.08
   4 -11  -4   25.91   24.26
   4  11   4   63.44   22.98
   4  11   4   43.02   15.54
  -4 -11   4   27.82   14.37
   5 -11   4   64.72   28.77
  -5  11   4  103.82   19.06
   5 -11  -4   55.85   21.55
   5  11   4  138.05   22.32
   6 -11   4   24.81   15.21
  -6  11   4   32.47   17.66
  -6 -11  -4   27.30   13.82
   6 -11  -4   20.12   20.30
   6  11   4   21.37   14.22
   7 -11   4   11.91   16.60
  -7 -11  -4   -7.92   15.50
   7 -11  -4    5.06    7.70
  -7  11  -4    4.43    5.50
   7  11   4   -3.96   11.10
   8 -11   4   -5.68    9.42
  -8 -11  -4    6.05    9.27
   8 -11  -4   -8.50   11.69
  -8  11  -4   -1.47    5.31
  -9 -11  -4   31.88   13.05
  -9 -11  -4    0.07    8.28
   9 -11   4   15.94   12.35
   9 -11  -4   25.65    8.98
   9 -11  -4   -1.10    9.67
  10 -11   4   -8.87   14.44
 -10 -11  -4    6.56   15.57
 -10 -11  -4   -0.15    5.72
  10 -11  -4    4.43   10.63
  10 -11  -4    1.03   10.96
  11 -11   4   -3.41    8.91
 -11 -11  -4    0.04    8.98
  11  11  -4    2.42   13.01
  11 -11  -4   -1.94    6.89
 -11  11  -4    8.39    7.66
  11 -11  -4   -0.29    6.96
 -12 -11  -4   27.08   11.80
  12 -11   4   27.67   16.53
 -12 -11  -4    0.00    6.52
  12  11  -4    5.42    9.75
  12 -11  -4    7.51   10.77
 -12  11  -4   -0.81    5.35
  12 -11  -4    3.11   11.21
  13 -11   4   10.77   17.30
 -13 -11  -4   65.23   19.46
 -13 -11  -4   31.33   12.42
  13  11  -4   31.11   15.68
  13 -11  -4   33.20   11.40
  13 -11  -4   26.28   12.13
  14 -11   4   16.64   13.52
 -14 -11  -4   33.24   21.73
 -14 -11  -4   10.08    8.94
  14 -11  -4    5.75    8.21
 -14  11  -4    7.77    8.72
  14 -11  -4   -2.93    9.20
  15 -11   4    9.67   18.95
 -15 -11  -4   24.59   20.01
 -15 -11  -4   -3.88   13.38
  15  11  -4    8.25   17.37
  15 -11  -4    4.25   12.28
  15 -11  -4    9.27   14.51
   0  12   4   -0.95    7.29
   0  12  -4   -1.21   11.73
   0 -12  -4   -6.27   14.40
  -1  12   4   20.63    8.61
  -1 -12  -4    0.37   18.29
  -1  12  -4   -0.11    8.28
   1 -12  -4    9.16   12.24
  -2  12   4   -3.41   10.04
  -2 -12  -4    0.99    8.43
   2  12   4    0.73    6.78
  -2  12  -4   -0.29    6.19
   2 -12  -4   10.99   14.07
  -3  12   4    2.35    6.78
  -3 -12  -4    1.03   11.62
   3 -12  -4   -3.55    8.47
   3  12   4    1.32    7.66
  -3  12  -4   -0.73    9.20
   4 -12  -4    3.01   14.15
   4  12   4   -0.44    7.15
   5 -12  -4    0.81    8.28
   5  12   4   -0.73   12.72
   6 -12   4    6.19   12.13
   6 -12  -4    3.66    9.78
   7 -12   4   14.37   21.29
  -7 -12  -4   17.37   14.88
   7 -12  -4    9.60   10.33
  -7  12  -4    9.93   11.84
   8 -12   4   31.70   15.76
  -8 -12  -4   59.73   16.05
   8 -12  -4    4.10   18.03
  -8  12  -4    8.65    8.32
   9 -12   4   21.59   12.39
  -9 -12  -4    0.92   24.08
   9 -12  -4   20.67    9.67
   9 -12  -4    3.30   10.44
  10 -12   4  -15.57   17.41
  10 -12  -4   -1.76   14.04
  10 -12  -4   11.21   14.95
  11 -12   4   -3.74   10.26
  11  12  -4   -1.36   13.12
 -11 -12  -4    6.12   12.02
  11 -12  -4    6.08    7.88
  12 -12   4   11.95   18.29
 -12 -12  -4   18.95   14.15
 -12 -12  -4   24.37   12.72
  12 -12  -4   18.10   14.81
 -12  12  -4   -1.69    6.45
  12 -12  -4    1.32   13.12
  13 -12   4    2.35    9.82
 -13 -12  -4   -3.48   18.47
 -13 -12  -4    0.59    7.00
  13 -12  -4   -2.35    6.89
 -13  12  -4    7.29    7.84
  13 -12  -4    0.62    7.29
   0  13  -4    1.03   16.82
   0 -13  -4   10.48   10.37
  -1 -13  -4    0.11   13.78
  -1  13  -4   -0.73    7.77
   1 -13  -4   -2.13    8.94
  -2 -13  -4   -0.04    8.69
   2 -13  -4  -13.82   14.04
  -2  13  -4    0.11    7.55
  -3 -13  -4   -0.07    9.13
   3 -13  -4    8.83    9.97
  -3  13  -4    1.43   12.09
  -4 -13  -4    0.51   13.27
   4 -13  -4    3.81   14.99
   5 -13  -4   16.60   13.12
   6 -13   4   43.57   17.52
   6 -13  -4   23.45   24.59
   7 -13   4    0.62   20.93
   7 -13  -4    7.55   11.03
  -7  13  -4   26.86   13.12
   8 -13   4   10.37   10.85
   8 -13  -4    3.11    8.39
  -8  13  -4   -2.16    6.30
   9 -13   4   22.65   13.96
  -9 -13  -4   41.04   16.09
   9 -13  -4   -7.26   11.65
  -9  13  -4   22.98   12.79
   9 -13  -4    5.31   11.40
 -10 -13  -4   17.52   14.33
  10 -13  -4    3.70   15.57
  10 -13  -4   -2.09   16.60
  11  13  -4   14.62   15.90
  11 -13  -4    8.21    8.47
  12 -13   4   16.09   19.72
 -12 -13  -4   19.86   23.20
  12 -13  -4   17.99   15.72
 -12  13  -4    4.87    6.56
  12 -13  -4   22.65   15.76
   0 -14  -4   -1.94   10.81
   1  14  -4   26.09   16.05
  -1 -14  -4   -2.35   11.80
   1 -14  -4    1.54    8.28
  -2 -14  -4   -9.34   17.41
   2 -14  -4  -12.17   16.45
  -2  14  -4  -10.88   11.54
  -3 -14  -4   -2.38    9.82
   3 -14  -4   -7.70   10.41
  -3  14  -4  -10.96   15.57
  -4 -14  -4   -1.36   10.15
   4 -14  -4   19.57   16.16
   5 -14   4   23.23   22.24
  -5 -14  -4   13.63   16.82
   5 -14  -4    1.83   11.80
   6 -14   4  -13.38   13.41
   6 -14  -4   30.12   16.27
   7 -14   4    4.47   14.84
   7 -14  -4   23.16   11.14
  -7  14  -4    6.41    9.34
   8 -14   4    6.19   24.19
   8 -14  -4    2.38   17.96
  -8  14  -4   17.11    8.94
   9 -14  -4    2.46    8.32
   9 -14  -4   -0.48    8.83
   0  15  -4   16.89   14.99
   0 -15  -4   11.98   11.62
   1  15  -4   -6.41   12.86
  -1 -15  -4   -9.05    9.24
  -1  15  -4    6.63   11.54
   2  15  -4   -3.33   21.37
  -2 -15  -4   15.28   14.84
  -2  15  -4    3.08   11.95
  -3 -15  -4   27.16   18.65
   3 -15  -4    5.68   11.14
  -4 -15  -4    9.86   12.35
   4 -15  -4   17.22   18.18
   5 -15   4   17.08   17.41
   5 -15  -4   11.73   12.53
   6 -15   4   -4.43   24.26
  -6 -15  -4    6.49   17.74
   6 -15  -4   12.17   15.10
   0   0   5    0.04    3.85
   0   0   5    7.11    5.42
   0   0   5   -0.22    1.72
   0   0  -5    0.88    1.61
   0   0  -5    5.06    3.63
   0   0   5    4.25    2.46
   0   0   5    0.66    3.01
   0   0   5    0.73    1.36
   0   0  -5    2.20    5.06
   1   0   5   46.91    7.11
  -1   0   5   38.37    6.19
  -1   0  -5   51.23    4.98
   1   0  -5   55.12    4.10
   1   0   5   56.51   12.13
   1   0   5   53.50    8.54
  -1   0   5   49.36   11.62
   1   0  -5   61.53    7.37
  -1   0  -5   47.02    9.09
  -1   0  -5   43.43   10.81
  -1   0   5   50.76    5.42
  -2   0   5    4.91    3.81
   2   0   5   -4.14    4.32
  -2   0  -5   -1.21    1.83
   2   0  -5    0.95    1.76
   2   0   5   12.31    5.72
  -2   0   5    2.57    2.42
   2   0   5    0.33    2.09
  -2   0   5    0.00    5.02
   2   0  -5    0.18    1.91
  -2   0  -5    4.32    6.23
  -2   0   5   -0.22    1.17
  -2   0  -5   -2.16    7.40
   2   0   5   -1.32    1.83
   2   0   5   -3.11    3.52
  -3   0   5    5.17    3.15
   3   0   5    3.88    5.57
   3   0  -5    4.32    2.42
  -3   0  -5    5.68    7.84
  -3   0  -5    2.97    1.36
   3   0   5   17.63    7.55
  -3   0   5    1.28    6.27
  -3   0  -5   11.21    5.09
   3   0  -5    9.02    2.09
   3   0   5    0.26    2.97
  -3   0   5    2.71    1.83
  -3   0   5    5.09    4.84
  -3   0  -5    6.08    9.71
   3   0   5    0.99    3.22
  -4   0   5    1.03    4.40
  -4   0  -5    0.11    6.38
  -4   0  -5   -0.29    1.28
  -4   0  -5    0.07    4.10
   4   0   5   -0.33    2.75
  -4   0   5    0.18    1.10
  -4   0   5   -2.68    3.66
  -4   0  -5   -1.14    7.77
  -4   0   5   -2.13    3.92
   4   0  -5    0.62    2.05
   4   0   5    1.87    3.74
   4   0   5    2.60    5.20
  -5   0   5   15.14    6.49
   5   0  -5   12.17    5.42
   5   0   5    7.11    4.25
  -5   0   5   13.01    5.24
  -5   0  -5    8.69    8.17
   5   0   5    1.54   13.60
   5   0   5   14.37    6.56
  -6   0   5    0.55    3.19
   6   0  -5    1.98    3.85
  -6   0   5   -1.61    5.24
  -6   0  -5    1.80    2.97
  -6   0   5    0.15    2.75
   6   0   5    0.81    3.70
  -6   0  -5   -5.24    8.47
  -6   0   5    3.41    7.00
   6   0   5   -2.24   10.48
   6   0  -5    2.09    3.26
  -7   0   5  127.60   10.85
  -7   0   5  106.02   16.34
   7   0  -5  125.22    9.09
  -7   0  -5  101.18   16.27
   7   0   5   76.74   13.89
  -7   0   5  116.65   21.59
  -8   0   5    4.69    3.85
   8   0  -5    5.09    3.19
  -8   0   5   -0.33    6.41
  -8   0  -5   14.00    6.52
   8   0   5   -0.84    3.59
  -8   0   5    2.13    4.95
   8   0  -5   -0.11    5.42
  -9   0   5  822.91   51.89
   9   0  -5  873.52   58.78
  -9   0   5  714.98   76.26
  -9   0   5  611.93   51.60
  -9   0  -5  732.65   71.68
   9   0   5  687.97   67.58
  -9   0   5  826.39   82.90
  -9   0  -5  732.97   74.25
 -10   0   5   10.41    4.40
  10   0  -5   12.72    5.75
 -10   0   5   -0.88    5.97
 -10   0  -5   -4.65   13.67
 -10   0   5   -3.88    5.17
  10   0   5    5.35    4.43
 -10   0   5   15.06    6.63
  10   0  -5    0.37    5.09
 -10   0  -5   -2.16    8.43
 -11   0   5   71.28    9.42
  11   0  -5   78.24    8.36
 -11   0   5   56.66    8.69
 -11   0  -5   69.04   18.25
  11   0   5   92.09   16.34
  11   0  -5   52.95   18.25
 -11   0  -5   77.36   28.51
 -12   0   5   -3.11    3.96
 -12   0   5    0.29    3.85
  12   0  -5    1.94    3.33
 -12   0  -5    5.94    8.54
 -12   0   5    0.62    6.85
  12   0   5    4.58    7.88
 -12   0  -5   10.77   12.57
  12   0  -5   -0.62    5.50
 -13   0   5  193.28   17.99
 -13   0   5  144.06   25.80
  13   0  -5  210.65   23.45
 -13   0  -5  239.01   39.07
  13   0   5  237.80   31.19
  13   0   5  200.06   24.92
 -13   0  -5  215.81   34.45
  13   0  -5  193.64   26.39
 -14   0   5    6.82    5.09
  14   0  -5    8.39    4.98
 -14   0  -5   -4.21   13.56
  14   0   5    3.26   11.54
 -14   0  -5   12.24   11.36
  14   0  -5   -0.77   12.09
 -15   0  -5  220.91   57.57
  15   0  -5  183.12   23.67
  15   0   5  128.59   22.54
 -15   0  -5  172.79   36.24
  15   0  -5  179.97   34.81
 -16   0  -5    2.46   20.08
 -16   0   5    1.39    5.72
 -16   0  -5    2.79   12.06
  16   0  -5    6.78   10.59
  16   0  -5    7.66    4.80
 -17   0  -5   12.79   18.54
  17   0  -5   -0.29    4.87
  17   0   5    5.94   10.63
 -17   0  -5    0.22   11.03
 -18   0  -5    3.19   14.59
  18   0   5    3.11    7.04
 -18   0  -5   27.23   23.27
 -19   0  -5    8.58   17.04
   0  -1   5  110.86    8.06
   0   1   5  103.05   16.16
   0  -1   5   90.33    8.61
   0  -1   5  118.48   10.55
   0   1   5  128.70   20.30
   0   1  -5  109.10    5.28
   0   1  -5   96.89    7.11
   0   1  -5  104.59   14.22
   0  -1  -5  130.17   23.89
   0  -1   5  112.14    9.67
   1  -1   5  120.50   12.68
  -1  -1  -5  102.68    7.59
   1  -1   5   96.97   12.39
  -1   1   5   95.10   16.12
  -1   1   5   97.00   12.13
  -1  -1  -5   89.93   14.62
   1   1  -5  121.56    6.93
  -1  -1  -5  112.18   24.63
  -1  -1   5  102.10    8.91
   1  -1  -5  111.41    9.42
   1   1   5  116.94   20.52
  -1  -1   5  107.41   11.21
  -1   1  -5   96.16   11.21
   1   1   5  109.54   17.26
  -1   1  -5  106.86   14.00
   2  -1   5  301.71   34.85
  -2  -1  -5  289.29   14.92
   2   1  -5  328.54   17.96
   2   1  -5  299.81   19.06
  -2   1   5  312.63   24.33
  -2  -1  -5  343.34   28.80
  -2   1   5  336.75   28.51
  -2  -1  -5  350.67   43.54
   2  -1   5  288.08   23.45
   2  -1   5  368.04   22.43
   2   1   5  314.69   30.01
  -2  -1   5  329.35   16.78
   2  -1  -5  303.03   11.95
   2   1   5  314.69   35.36
   2  -1  -5  321.91   19.72
   2   1   5  302.23   16.45
  -2  -1   5  325.13   19.79
  -2   1  -5  305.64   16.64
  -2   1  -5  298.86   32.40
  -2  -1   5  303.58   17.99
  -2   1  -5  309.59   27.89
  -2   1  -5  314.72   13.74
   3   1  -5   14.95    4.03
  -3  -1  -5   11.62    2.79
  -3  -1  -5   17.44    6.52
   3  -1   5    9.09    5.68
  -3   1   5    7.51    6.38
  -3  -1  -5   11.87    7.40
  -3   1   5    6.74    6.89
   3  -1   5   11.10    5.06
   3  -1   5   14.29   10.81
  -3   1   5   17.04    4.40
  -3  -1   5   13.38    5.64
   3  -1  -5   12.75    1.72
   3   1   5   12.94    6.96
   3  -1  -5   13.93    3.08
  -3   1  -5    7.99    5.39
  -3  -1   5   13.89    6.41
  -3   1  -5   10.85    2.35
  -3   1  -5   17.08    3.88
  -3  -1   5    9.75    4.03
  -3  -1   5    6.05    3.11
  -3   1  -5   14.40    6.60
   3   1   5    8.69    1.91
  -3  -1   5    9.02    4.25
   3   1   5    7.11    8.06
  -4   1   5  380.43   34.67
  -4   1   5  371.56   23.97
   4  -1   5  322.20   29.90
  -4  -1  -5  316.59   12.90
  -4  -1  -5  379.96   30.89
   4   1  -5  352.14   21.04
  -4   1   5  333.71   19.42
   4  -1   5  340.08   27.38
   4   1  -5  319.16   14.70
  -4   1   5  345.43   36.39
  -4  -1  -5  387.72   32.25
   4  -1   5  344.22   42.55
  -4   1   5  349.98   21.62
  -4   1  -5  342.65   27.82
  -4  -1   5  330.63   25.32
   4   1   5  337.41   30.64
   4  -1  -5  339.39   17.63
  -4  -1   5  342.94   20.52
  -4  -1   5  363.43   30.78
  -4  -1   5  334.18   17.48
  -4   1  -5  388.27   49.69
  -4  -1   5  308.71   20.71
   4   1   5  351.19   18.84
  -4   1  -5  342.83   25.73
   4   1   5  351.48   21.77
   4   1   5  321.54   36.21
  -5   1   5    7.99    5.50
  -5  -1  -5   -4.58    5.20
  -5   1   5    0.70    1.50
   5   1  -5    3.96    3.96
   5  -1   5   12.61    5.39
   5   1  -5    2.24    2.57
  -5   1   5    8.69    7.33
  -5  -1  -5    2.68    9.42
   5  -1   5    2.42    5.83
   5  -1   5    2.93    6.56
   5  -1   5    6.27    4.18
  -5  -1   5    1.10    3.19
   5  -1  -5    3.01    2.86
  -5  -1   5   -0.99    4.21
   5   1   5    8.43    3.30
  -5  -1   5    3.48    2.09
  -5  -1   5   -2.60    5.39
   5   1   5   -1.65    2.49
  -5   1  -5   -6.01   10.04
  -5  -1   5    2.86    3.41
   5   1   5    2.75    6.45
  -6   1   5   15.65    4.58
   6   1  -5    9.49    3.22
   6  -1   5    6.82    6.19
   6  -1   5   10.08    7.11
   6  -1   5    4.54    7.37
   6   1  -5   11.54    2.20
  -6  -1  -5   11.62    7.37
  -6   1   5   16.05    6.78
   6   1  -5    6.60    5.83
  -6  -1   5    9.31    4.18
   6  -1  -5    8.91    5.57
   6   1   5   10.88    4.21
  -6   1  -5   12.64    4.21
  -6   1  -5   11.14    7.44
  -6  -1   5    7.59    3.19
   6   1   5   12.86    3.81
   6   1   5    4.80    9.49
  -7   1   5   29.35    5.75
  -7   1   5   34.48   10.22
   7  -1   5   20.52    5.83
  -7  -1  -5   27.01    7.95
  -7   1   5   15.21   11.40
   7   1  -5   10.70    5.13
  -7   1  -5   27.23   14.73
  -7  -1   5   19.06    6.16
   7   1   5   12.39    5.28
  -7   1  -5    1.61   12.31
  -8   1   5  242.49   18.91
   8   1  -5  257.96   14.73
   8  -1   5  274.19   31.19
  -8  -1  -5  235.38   25.73
  -8   1   5  309.74   25.80
   8   1  -5  233.66   21.91
  -8  -1   5  253.05   17.66
  -8  -1   5  254.73   18.32
  -8   1  -5  241.32   29.61
  -8  -1   5  230.88   21.15
   8  -1  -5  244.25   15.90
   8   1   5  237.58   16.05
  -8  -1   5  288.78   28.77
  -8   1  -5  240.77   27.71
  -9   1   5   12.09    4.80
   9   1  -5   12.53    6.30
  -9  -1  -5   10.81    8.50
  -9   1   5   10.66   10.19
   9  -1   5   10.41    5.50
  -9   1   5    6.63   10.96
   9   1  -5    6.71    7.40
  -9  -1   5    9.45    4.98
   9  -1  -5    8.06    7.11
  -9  -1   5    6.27    3.92
  -9   1  -5    6.34   13.60
  -9  -1   5    2.31    3.81
   9   1   5    6.82    5.94
  -9  -1   5   11.98    5.35
  -9   1  -5    7.84   12.53
 -10   1   5   69.37    9.31
  10   1  -5   64.90   12.02
 -10  -1  -5   75.09   16.97
 -10  -1  -5   87.62   23.56
  10   1  -5   67.36   17.26
 -10  -1   5   62.81    8.69
  10  -1  -5   75.38    8.36
  10   1   5   77.84   15.61
 -10   1  -5   66.95   16.38
 -10   1  -5   69.70    9.13
  10   1   5   62.92   12.90
 -10   1  -5   87.88   15.65
 -10  -1   5   92.64   18.43
 -10  -1   5   63.73   12.72
 -11   1   5   32.03    6.89
  11   1  -5   34.01    6.38
 -11  -1  -5   27.82   21.55
  11  -1   5   29.65    8.28
 -11   1   5   36.13    9.42
  11   1  -5   18.73    9.38
 -11  -1  -5   30.86   13.01
 -11  -1   5   29.50    6.82
  11  -1  -5   33.79    6.60
  11   1   5   32.21   12.35
 -11   1  -5   30.93   13.89
  11   1   5   29.76    9.97
 -11   1  -5   39.21   13.49
 -11  -1   5   35.58    8.76
 -11  -1   5   32.80    9.56
 -12   1   5    7.26    4.95
  12   1  -5    6.38    4.36
 -12  -1  -5    0.44   15.21
  12  -1   5   -1.94    8.28
 -12   1   5    2.75    8.39
  12   1  -5    8.54    9.93
 -12  -1  -5    2.53    9.86
 -12  -1   5    3.11    7.59
  12  -1  -5   12.79    7.44
 -12  -1   5    4.14    5.35
 -12   1  -5   -0.29   11.14
  12   1   5    4.32    5.02
 -12   1  -5   14.48   10.37
 -13   1   5    9.24    5.57
  13   1  -5   11.95    7.44
  13  -1   5    9.13    6.12
 -13   1   5   -0.33    8.61
 -13  -1  -5    9.86   10.77
  13   1  -5   -0.04   11.21
 -13  -1  -5   -4.18   11.32
 -13  -1   5    9.16    8.58
 -13  -1   5    7.70    8.61
  13  -1  -5    5.68    4.84
  13   1   5    9.67    5.28
 -13   1  -5    5.86   21.59
  13   1   5    7.44    9.24
 -13   1  -5   24.63   18.73
  14   1  -5  111.08   12.17
 -14  -1  -5  149.37   28.99
  14  -1   5  100.16   23.67
  14   1  -5  123.39   19.64
 -14  -1  -5  137.21   43.13
  14  -1  -5  105.10   12.42
 -14   1  -5  163.30   54.05
  14   1   5  116.39   12.72
 -14  -1   5  106.50   14.51
 -14   1  -5  129.18   42.51
  14   1   5  118.41   23.16
  15   1  -5   30.97    7.44
  15  -1   5   54.05   14.26
 -15  -1  -5   30.75   18.47
  15  -1   5   23.23    9.86
  15   1  -5   26.79   11.87
 -15  -1  -5   40.02   28.55
  15  -1  -5   26.72   12.24
 -15   1  -5   38.04   35.62
 -15  -1   5   23.16   13.34
 -15   1  -5   46.39   28.11
  15   1   5   31.30   10.22
 -16  -1  -5  162.24   31.22
  16  -1   5  114.85   27.01
  16   1  -5  113.02   20.23
 -16  -1  -5  109.57   48.96
  16  -1  -5  115.95   13.89
 -16   1  -5  139.00   38.59
 -16   1  -5  148.86   48.81
  16   1   5  129.58   25.84
 -16  -1   5   93.85   16.45
 -17  -1  -5   33.24   15.98
  17  -1   5   15.32    8.80
  17   1  -5   13.71   10.26
 -17  -1  -5   17.96   26.83
  17  -1  -5    0.11   11.62
 -17   1  -5   11.25   18.62
 -17   1  -5   27.27   24.74
  17   1   5    5.02   15.36
 -18  -1  -5   13.71   19.61
  18  -1   5   29.39   10.11
  18   1  -5    2.16   12.86
 -18  -1  -5   70.95   32.14
 -18   1  -5   15.50   32.62
 -18   1  -5   33.68   28.99
  19   1  -5   -8.28   10.77
 -19  -1  -5   -1.39   15.43
  19  -1  -5    1.69    6.34
 -19   1  -5  -13.34   14.88
  19   1   5    1.76   14.73
 -19   1  -5   15.39   22.94
   0  -2   5   -1.61    2.02
   0  -2   5    1.94    3.55
   0  -2  -5   -0.33    1.94
   0   2  -5    1.03    1.47
   0   2   5    1.61    4.58
   0   2   5    0.95    3.66
   0   2  -5    0.73    2.57
   0  -2   5    0.59    3.26
   0   2  -5    4.58    4.36
   0  -2  -5    2.64    1.72
   1  -2   5   15.83    4.54
   1  -2   5    7.11    8.50
  -1  -2  -5   14.55    3.74
   1  -2   5    7.11    8.06
   1   2  -5   15.06    3.77
   1   2  -5   14.95    3.30
  -1  -2  -5    8.98   11.80
  -1   2   5   16.27    4.65
  -1  -2  -5   15.39    8.03
   1  -2   5    9.82    4.32
  -1   2   5   12.02    4.43
   1   2   5    9.82    8.03
   1  -2  -5    7.70    2.68
  -1  -2   5   12.97    3.01
   1  -2  -5    9.45    3.04
  -1   2  -5   11.73    3.92
  -1  -2   5   11.43    4.07
   1   2   5   10.26    6.60
  -1   2  -5    9.45    6.08
  -1   2  -5   14.40    6.19
  -1  -2   5   10.52    4.14
   1   2   5   15.21    6.74
  -2  -2  -5   10.85    3.37
   2  -2   5   14.55    7.29
  -2   2   5   14.84    2.79
   2   2  -5    7.99    3.11
  -2  -2  -5    7.00    7.66
  -2  -2  -5    8.72    7.99
  -2   2   5   12.90    4.91
   2   2  -5   17.00    2.60
   2  -2   5   16.89    3.41
   2  -2   5   11.18   10.48
   2  -2   5   16.75    4.95
   2  -2  -5   14.73    2.05
  -2  -2   5    9.75    3.22
   2  -2  -5   14.15    5.17
   2   2   5   15.39    6.85
  -2  -2   5   15.10    4.07
   2   2   5   11.87    7.26
  -2   2  -5   15.39    4.10
  -2   2  -5   10.44    7.95
   2   2   5    5.39    8.80
  -2   2  -5   11.32    6.82
  -2  -2   5   11.40    4.32
  -3   2   5   12.72    5.68
  -3  -2  -5   13.12    3.19
   3   2  -5   15.68    3.01
   3  -2   5   16.89    4.73
  -3   2   5   20.93    4.25
  -3  -2  -5   16.49    7.37
   3   2  -5   17.48    2.93
  -3   2   5   13.56    7.26
  -3  -2  -5   21.37    7.26
   3  -2   5   14.95    6.01
   3  -2   5   14.33   10.77
   3  -2  -5   11.76    2.13
  -3  -2   5   14.55    4.95
   3   2   5   18.29    7.70
   3  -2  -5   17.00    5.20
  -3   2  -5    5.28    5.64
   3   2   5   16.20    7.81
  -3  -2   5   11.58    4.07
  -3   2  -5   18.65    4.62
   3   2   5    6.67    9.38
  -3   2  -5   10.00    7.26
  -3  -2   5   11.80    5.09
  -4  -2  -5    1.28    2.24
  -4  -2  -5   -2.75    8.39
   4   2  -5    3.26    2.24
   4   2  -5    5.90    3.01
   4  -2   5    3.01    3.63
  -4   2   5    4.18    5.17
  -4  -2  -5   -0.44    8.25
   4  -2   5    3.81    9.24
   4  -2   5    4.51    6.12
   4   2   5    3.22    7.00
  -4  -2   5    1.32    1.91
   4  -2  -5    3.70    2.82
  -4   2  -5    5.61    7.33
   4   2   5   -6.56    9.53
  -4  -2   5    4.58    2.75
   4  -2  -5    2.53    2.75
   4   2   5    1.54    5.50
  -4   2  -5    1.14    5.31
  -4  -2   5    0.29    2.90
  -4   2  -5    1.21    6.30
  -4  -2   5    6.63    2.31
   4   2   5    0.92    0.92
   4   2   5    0.77    1.10
  -5  -2  -5   16.01   12.28
  -5   2   5   20.78    4.84
   5  -2   5   13.52    5.68
   5   2  -5   15.03    3.77
  -5   2   5   14.26   12.64
  -5  -2  -5   21.07    7.44
   5  -2   5   24.30    9.34
   5   2   5   17.88   13.52
   5  -2  -5   18.87    2.86
  -5  -2   5   18.40    4.18
   5  -2  -5   25.95    3.99
  -5  -2   5   18.07    4.76
  -5   2  -5   13.67   13.52
  -5  -2   5   14.70    3.74
   5   2   5   24.63    8.28
   5   2   5   18.65    7.51
   6  -2   5    8.98    7.84
  -6  -2  -5    4.69    5.90
  -6  -2  -5    3.96    1.87
  -6   2   5   12.06    7.66
   6   2  -5    7.07    2.86
  -6   2   5    7.26    3.70
   6   2  -5    6.93    2.02
  -6  -2  -5    7.37    6.93
  -6   2   5    3.19    6.89
   6   2  -5    9.34    6.67
  -6   2   5    9.56    7.00
   6  -2  -5    4.95    2.53
  -6  -2   5    7.84    3.59
   6  -2  -5    9.71    5.28
   6   2   5    7.73    6.93
  -6   2  -5    8.61    4.03
  -6   2  -5    3.04    7.44
  -6  -2   5    8.36    5.50
  -6  -2   5    5.94    3.26
   6   2   5   15.43    8.39
  -7   2   5   99.72   18.14
  -7  -2  -5  112.21   24.37
  -7   2   5  106.35   14.70
   7  -2   5   85.46   19.31
   7   2  -5   77.18   16.23
  -7   2   5  106.53   10.88
   7  -2  -5   90.30   10.33
  -7  -2   5  117.09    9.71
   7  -2  -5  103.42    9.20
   7   2   5  122.03   17.59
  -7   2  -5  101.92   18.25
  -7  -2   5   85.83   14.15
  -7  -2   5   78.75   11.32
  -7   2  -5   83.99   14.37
   7   2   5   90.59   18.95
   8   2  -5  146.29   10.04
  -8   2   5  148.20   15.65
   8  -2   5  128.19   15.32
  -8  -2  -5  120.20   18.36
  -8   2   5  160.26   17.63
   8   2  -5  130.87   22.90
  -8   2   5  133.17   13.71
  -8  -2   5  130.54   11.36
   8  -2  -5  132.70    9.31
   8  -2  -5  148.82   11.54
  -8   2  -5  155.02   32.10
  -8  -2   5  138.97   11.80
  -8  -2   5  155.02   13.45
  -8   2  -5  139.77   25.43
   9   2  -5  410.01   29.90
  -9   2   5  340.41   32.51
   9  -2   5  316.92   40.57
  -9  -2  -5  310.00   35.29
   9   2  -5  334.07   46.14
  -9   2   5  371.42   26.28
  -9  -2   5  397.91   24.66
   9  -2  -5  351.37   21.69
   9   2   5  400.37   22.83
  -9   2  -5  330.78   38.48
  -9  -2   5  280.72   32.43
  -9   2  -5  346.64   37.42
   9   2   5  297.10   21.48
  -9  -2   5  344.11   33.90
  10   2  -5   86.96   13.34
  10  -2   5  101.40   15.76
 -10   2   5  108.36   23.97
  10  -2   5   90.81   20.30
 -10  -2  -5  104.59   27.12
  10   2  -5  101.55   13.38
 -10   2   5   78.28   11.21
 -10  -2   5   96.27   10.22
  10  -2  -5   96.60   10.30
  10   2   5   80.92   10.19
 -10   2  -5   84.58   19.17
 -10   2  -5  108.91   11.10
 -10  -2   5   83.55   14.33
 -10   2  -5  115.95   27.82
 -10  -2   5   98.62   11.40
  11   2  -5   34.34    6.05
 -11  -2  -5   37.86   13.08
  11  -2   5   29.24    8.58
 -11   2   5   34.63   11.25
  11   2  -5   39.32   14.26
 -11   2   5   25.65    7.59
 -11  -2   5   29.24    9.78
  11  -2  -5   25.47    6.93
  11   2   5   23.45    9.97
 -11   2  -5   46.91   22.87
 -11   2  -5   43.35   20.19
 -11  -2   5   26.94    7.07
  11   2   5   25.91    8.50
 -11  -2   5   31.92   13.38
  12   2  -5    6.45    4.43
 -12  -2  -5   14.11   10.33
  12  -2   5    5.02   10.77
 -12   2   5   -0.33    6.45
  12   2  -5   13.05   11.25
 -12   2   5   11.47    5.97
 -12  -2   5    4.58    8.58
  12  -2  -5   11.47    7.99
 -12   2  -5   11.40   21.62
 -12   2  -5   10.96   11.14
 -12  -2   5    2.13    8.28
 -12   2  -5   18.58    5.28
  12   2   5    9.89    7.59
 -13  -2  -5   91.43   35.99
  13  -2   5   88.21   16.20
  13   2  -5   82.86   16.64
 -13  -2  -5  112.91   35.95
 -13   2   5  104.30   13.38
 -13  -2   5   89.82   11.98
 -13   2  -5   95.98   11.47
  13  -2  -5  102.65   11.32
 -13   2  -5  113.79   32.73
 -13   2  -5  117.20   25.91
 -13  -2   5   73.62   12.90
  13   2   5   89.35   20.16
 -14  -2  -5   79.49   35.07
  14  -2   5   56.40   23.23
  14   2  -5   74.43   23.16
 -14  -2  -5   78.09   22.43
  14  -2  -5   76.59   16.34
 -14  -2   5   42.11   19.28
 -14   2  -5   77.65   23.23
  14   2   5   66.15   13.23
 -14   2  -5  152.49   31.52
 -15  -2  -5   48.52   29.98
  15  -2   5   38.77   11.95
  15   2  -5   33.06   18.51
 -15  -2  -5   46.76   20.82
 -15  -2   5   31.70   17.41
  15  -2  -5   57.17    8.80
 -15   2  -5   67.98   27.82
 -15   2  -5   54.97   20.85
  15   2   5   41.63   12.46
 -16  -2  -5    8.94   19.39
  16  -2   5    4.51   11.87
  16   2  -5   10.88   12.02
 -16  -2  -5   -2.20   13.34
  16  -2  -5    8.54    8.80
 -16   2  -5    7.22   16.67
 -16   2  -5   11.14   12.97
  16   2   5   -0.77   11.07
  17  -2   5    5.46    7.84
 -17  -2  -5   -3.11   16.20
  17  -2   5    1.36    6.78
  17   2  -5   -7.62   10.81
 -17  -2  -5   10.88   11.69
  17  -2  -5   -0.99    5.31
 -17   2  -5  -11.98   13.41
 -17   2  -5   -1.94   11.07
  17   2   5   -5.35    8.94
 -18  -2  -5    3.26   19.17
  18  -2   5    9.97   11.69
  18   2  -5   13.67   12.79
 -18  -2  -5    3.77   13.93
  18  -2  -5   -4.58    5.61
 -18   2  -5    5.35   13.08
  18   2   5    2.02    6.74
 -19  -2  -5    2.97   18.07
  19  -2   5   -1.80    7.07
 -19  -2  -5    3.88   13.89
  19  -2  -5    3.30    8.94
  19   2   5    7.84   11.25
   0  -3   5   10.26    3.77
   0  -3   5    0.40    4.14
   0   3   5    3.22    2.82
   0   3  -5    4.65    3.59
   0  -3  -5    6.12    4.07
   0   3   5   14.70    5.83
   0   3   5    4.76    4.87
   0  -3   5   10.66    5.17
   0   3  -5    5.31    7.33
   1   3  -5  330.26   19.79
   1  -3   5  352.14   18.21
  -1  -3  -5  300.39   22.21
  -1   3   5  317.58   21.18
  -1   3   5  299.88   28.36
  -1  -3  -5  321.54   47.02
  -1  -3  -5  353.97   33.28
  -1   3   5  318.17   27.12
   1  -3   5  312.78   23.64
   1  -3   5  318.94   26.09
  -1  -3   5  337.15   17.52
   1  -3  -5  307.50   18.25
  -1  -3   5  356.79   25.07
   1   3   5  336.20   31.41
   1   3   5  290.76   27.96
   1   3   5  344.08   18.32
  -1   3  -5  352.95   21.59
  -1   3  -5  348.66   27.49
  -1  -3   5  277.56   20.12
  -2   3   5   60.21   15.65
   2  -3   5   54.90    4.65
  -2  -3  -5   42.44    4.40
   2  -3   5   40.53   13.85
   2   3  -5   54.31    5.64
  -2   3   5   60.54   18.54
  -2  -3  -5   51.38   19.61
  -2  -3  -5   53.83   11.10
   2  -3   5   63.47   16.05
   2  -3   5   62.63    7.66
   2   3   5   55.81    9.20
  -2  -3   5   50.13    7.55
   2  -3  -5   48.48    5.42
   2   3   5   64.06   17.74
  -2  -3   5   52.52    6.78
  -2   3  -5   47.93    7.22
   2   3   5   52.33    5.50
  -2   3  -5   36.06    9.27
  -2   3  -5   50.13    8.94
  -2  -3   5   44.67    5.39
   2  -3  -5   44.93    3.66
   3  -3   5   71.17    6.85
   3   3  -5   77.87    6.49
  -3  -3  -5   68.38    5.17
   3  -3   5   60.83   16.12
  -3  -3  -5   67.03   20.63
  -3   3   5   95.83   14.11
  -3  -3  -5   34.41   19.02
   3  -3   5   92.17   13.85
  -3  -3   5   85.57    8.80
   3  -3  -5   89.46   10.74
  -3   3  -5   52.52   13.16
   3   3   5   60.50   20.12
  -3  -3   5   74.28    8.10
   3   3   5   79.41   17.19
  -3   3  -5   65.49   12.06
  -3  -3   5   67.10    9.49
   4  -3   5  305.12   37.16
  -4  -3  -5  400.37   33.86
  -4   3   5  377.68   31.88
  -4  -3  -5  375.23   31.63
   4  -3   5  422.98   37.53
   4   3   5  363.13   40.53
  -4   3  -5  358.22   31.15
  -4  -3   5  314.39   17.74
   4   3   5  343.86   34.37
   4  -3  -5  336.53   19.50
   4   3   5  341.51   20.34
  -4   3  -5  390.91   36.10
  -4  -3   5  312.74   27.19
  -4  -3   5  346.64   21.69
   5   3  -5    7.11    3.48
  -5  -3  -5   -0.40    6.38
   5  -3   5    9.38    7.81
  -5   3   5    3.26    1.87
  -5   3   5    7.44   10.88
  -5  -3  -5   11.87    6.08
   5  -3   5    6.60    7.15
   5   3   5    3.88    8.80
   5   3   5    2.35    6.49
  -5  -3   5    2.75    3.15
   5  -3  -5    4.47    3.44
   5   3   5    4.51    3.55
  -5  -3   5    4.07    2.71
  -5   3  -5   17.92   10.96
  -5   3  -5    7.48    6.49
  -5  -3   5    3.48    3.92
   5  -3  -5   11.84    4.18
  -6  -3  -5    7.88   10.04
  -6  -3  -5    7.51    1.76
  -6   3   5   15.94    5.90
   6  -3   5   -0.15    8.98
   6   3  -5    6.93    3.63
  -6   3   5    9.64    7.26
  -6  -3  -5    6.82   10.11
   6   3  -5    5.86    6.89
   6  -3   5   17.26    8.14
   6  -3  -5    9.27    3.01
  -6  -3   5    7.15    3.66
   6  -3  -5    6.19    5.72
   6   3   5    7.92    5.53
  -6   3  -5    1.91    4.62
  -6  -3   5   13.56    6.34
  -6   3  -5    7.55   12.90
  -6  -3   5    5.79    2.90
  -6   3  -5    7.04    6.41
   6   3   5   10.59    6.78
   6   3   5    4.29    7.84
  -7  -3  -5  103.38   15.28
  -7   3   5  107.45   20.52
  -7  -3  -5   94.92   16.38
  -7   3   5  108.80   15.50
   7  -3   5  108.88   14.29
   7   3  -5   93.60   19.28
   7  -3  -5  103.31    8.28
  -7  -3   5  107.30    9.16
   7  -3  -5  103.89    9.56
  -7   3  -5  109.54   21.91
  -7  -3   5   97.66   13.82
  -7  -3   5   80.62   11.91
  -7   3  -5  110.67   22.21
   7   3   5   87.51   20.38
   8  -3   5   39.18   12.17
  -8   3   5   59.59   11.03
  -8  -3  -5   74.65   19.46
   8   3  -5   52.11   10.52
   8  -3  -5   59.51    9.05
  -8  -3   5   50.02    7.04
   8  -3  -5   58.96    7.33
  -8   3  -5   62.41   13.23
  -8   3  -5   49.18   26.57
  -8  -3   5   46.43   10.85
  -8  -3   5   61.20   11.40
  -8   3  -5   48.04   11.51
   8   3   5   37.71   25.14
   9  -3   5   -2.20    8.28
  -9   3   5    0.51    5.20
  -9  -3  -5    1.98    5.94
   9   3  -5    2.20    5.53
   9  -3  -5    2.38    2.93
  -9  -3   5   -0.04    3.41
   9  -3  -5    3.08    5.61
  -9   3  -5    4.07    3.96
  -9  -3   5   -0.37    5.17
  -9  -3   5   -1.14    3.81
   9   3   5    1.50    3.52
  10  -3   5    2.64    8.94
 -10   3   5   -2.86    8.47
 -10  -3  -5    4.36    6.41
  10   3  -5    6.67    9.09
  10  -3  -5    1.65    4.98
 -10  -3   5   -0.92    5.64
  10  -3  -5   -3.81    3.88
 -10   3  -5    3.26    7.55
 -10   3  -5    1.10    7.22
 -10   3  -5    5.24    3.92
 -10  -3   5    0.51    3.15
 -10  -3   5    0.73    5.86
  10   3   5    1.50    2.64
  11  -3   5   35.14   16.71
  11  -3   5   33.09   10.41
 -11  -3  -5   42.40   18.84
  11   3  -5   35.88    9.71
 -11  -3   5   36.76   10.22
  11  -3  -5   47.49    6.19
  11  -3  -5   31.48   11.21
 -11   3  -5   29.98   25.54
  11   3   5   35.03   10.33
 -11   3  -5   43.68   14.77
 -11   3  -5   35.84   11.51
 -11  -3   5   25.51    6.85
 -11  -3   5   23.42    7.55
  11   3   5   21.95    5.57
  12  -3   5    5.46    9.02
 -12  -3  -5   17.88   15.98
  12  -3   5   10.66   12.57
  12   3  -5   25.43    8.47
 -12  -3   5    9.93    5.28
  12  -3  -5   14.81    4.73
  12  -3  -5   12.90    5.83
 -12   3  -5   27.27   16.16
 -12   3  -5   16.38   12.94
 -12   3  -5   15.90    6.12
 -12  -3   5    3.55    9.34
 -12  -3   5    8.98    7.99
  12   3   5   16.56    5.28
 -13  -3  -5   -2.20    8.61
  13  -3   5   10.88    6.38
  13   3  -5    7.33   10.15
  13  -3  -5    3.81    7.07
 -13   3  -5  -10.22   13.89
  13   3   5    6.19    3.99
 -13   3  -5   -5.13   16.23
 -13  -3   5   -4.80    4.84
  13   3   5    2.31    4.32
 -14  -3  -5   67.98   17.22
  14  -3   5   36.65   17.74
  14   3  -5   33.24   18.47
  14  -3  -5   40.68    8.21
 -14   3  -5   61.24   27.34
 -14   3  -5   29.50   28.62
 -14  -3   5   33.35    9.53
 -14   3  -5   38.11    8.28
  14   3   5   29.68    9.02
 -15  -3  -5  123.32   25.07
  15  -3   5   86.34   18.95
  15   3  -5   66.88   17.37
  15  -3  -5  109.90   12.68
 -15   3  -5  104.37   37.20
 -15   3  -5   74.94   40.82
 -15  -3   5   71.90   21.88
  15   3   5   68.16   21.15
 -16  -3  -5   -1.98   14.15
  16  -3   5    6.34    8.87
  16   3  -5   17.48    8.91
  16  -3  -5    6.05   10.85
 -16   3  -5   20.63   18.03
 -16   3  -5   20.34   22.24
  16   3   5   13.05   10.00
  17  -3   5   56.40   18.91
 -17  -3  -5   -0.22   16.45
  17  -3   5   34.30   10.70
  17   3  -5   13.12   10.70
  17  -3  -5    5.68    7.77
 -17   3  -5   12.02   19.61
 -17   3  -5   25.73   16.34
  17   3   5   13.71    8.32
  18  -3   5    6.34    8.80
 -18  -3  -5   -4.25   13.08
  18  -3   5   -6.08    8.06
  18   3  -5    3.99    8.47
  18  -3  -5    1.06    9.71
  18   3   5   -5.31    6.30
 -19  -3  -5    3.66   14.77
  19  -3   5   -4.03    9.27
  19   3  -5    8.36    9.31
 -19   3  -5   -4.95   14.33
  19  -3  -5    5.31    6.96
 -19   3  -5   32.54   14.73
  19   3   5    4.98   12.42
   0  -4  -5    0.81    4.91
   0  -4   5    1.50    1.91
   0   4   5    4.29    5.57
   0   4  -5   -2.82    3.26
   0   4   5   -2.42    7.51
   0   4   5    1.06    2.64
   0  -4   5    7.48    3.11
   0  -4   5    3.70    5.68
   1  -4   5   12.24    4.58
  -1  -4  -5   12.68    3.63
   1   4  -5    7.00    3.96
  -1   4   5    8.32    4.87
  -1   4   5   15.90    6.89
  -1  -4  -5    4.03    8.06
  -1   4   5   13.74    6.23
   1  -4   5    9.45    4.62
   1  -4   5   14.92    9.31
  -1  -4   5   13.34    7.29
  -1  -4   5   12.83    4.36
   1  -4  -5    6.67    4.03
  -1   4  -5   16.16    4.36
   1   4   5    6.71    3.63
   1   4   5    4.76    9.42
  -1  -4   5    8.39    6.19
  -1   4  -5   17.99    7.33
   1  -4  -5    9.78    2.97
  -2   4   5  122.73   16.49
   2  -4   5   97.19    9.02
  -2  -4  -5  104.59    8.17
   2  -4   5  104.99   24.66
  -2   4   5   97.15    9.82
   2   4  -5   91.54   11.98
  -2   4   5  114.96   25.84
  -2  -4  -5  137.98   18.10
   2  -4   5  127.71   11.91
   2  -4  -5  112.29    9.60
  -2  -4   5  104.52    9.93
  -2  -4   5  117.38   15.68
   2   4   5  125.96   14.18
   2   4   5  102.35    8.65
  -2   4  -5   93.67   16.93
  -2   4  -5   86.05    9.82
   2  -4  -5   87.62    9.86
   3  -4   5   14.99    4.07
  -3  -4  -5   20.01    5.64
   3  -4   5   21.48   13.08
  -3  -4  -5   12.75    9.67
  -3   4   5   20.85   15.25
  -3   4   5   25.07    3.41
  -3  -4  -5   33.83    8.94
   3  -4   5   33.24    6.30
   3   4  -5   19.39    4.29
   3   4   5   25.65    8.03
  -3  -4   5   24.52    5.68
   3  -4  -5   13.52    7.07
  -3   4  -5   17.44    6.85
   3   4   5   27.89    9.27
  -3  -4   5   25.14    7.33
  -3   4  -5   26.97    5.72
  -3   4  -5   23.64    6.67
  -3  -4   5   33.06    6.89
   3  -4  -5   19.42    3.88
  -4  -4  -5  102.98   11.21
   4  -4   5  101.26   23.86
  -4  -4  -5  141.86   24.99
  -4   4   5  121.92   16.12
  -4  -4  -5  139.59   16.05
   4  -4   5  156.01   15.46
  -4  -4   5  128.81    8.87
   4  -4  -5  110.09    9.86
   4   4   5  108.29   17.26
  -4  -4   5  132.11   14.37
  -4   4  -5  113.42   17.41
   4   4   5  118.85   10.08
  -4   4  -5  137.06   17.41
   4   4   5  124.89   16.38
  -4  -4   5  116.98    9.45
  -4  -4   5  122.77    8.21
   4  -4  -5  111.77   11.43
  -5  -4  -5   -3.11    3.30
   5  -4   5   -7.33    7.37
  -5  -4  -5   -1.76    5.20
   5   4  -5    1.25    1.94
  -5   4   5    6.05    8.28
  -5  -4  -5    0.37    5.06
   5  -4   5   -0.77    4.43
   5   4   5    4.62    5.28
   5  -4  -5    2.68    2.93
  -5   4  -5   -0.18    3.55
   5   4   5   -0.66    4.51
  -5   4  -5   -3.70    8.58
  -5  -4   5    0.29    3.70
  -5  -4   5    1.14    2.20
   5  -4  -5    1.76    2.35
   5   4   5   -6.23    8.03
  -6   4   5   73.99   12.42
  -6  -4  -5   69.26   12.17
   6  -4   5   43.83   17.99
  -6   4   5   65.27   13.52
  -6  -4  -5   59.15   11.80
   6  -4   5   75.68   10.66
  -6  -4   5   50.21    6.56
   6  -4  -5   59.26   11.58
   6   4   5   51.27   10.11
  -6  -4   5   56.36    9.27
  -6   4  -5   53.25   22.72
  -6   4  -5   52.52   16.93
  -6  -4   5   56.07    6.01
  -6   4  -5   58.12    8.91
   6   4   5   63.66   22.39
   6  -4  -5   54.02    6.41
   6   4   5   47.35   18.07
  -7  -4  -5    4.73    3.63
  -7  -4  -5   10.37   11.54
   7  -4   5    3.55    7.11
  -7   4   5   17.22   11.03
  -7   4   5    8.36    3.30
   7   4  -5    5.39    3.99
  -7  -4  -5    9.75   10.96
   7   4  -5    6.96    5.53
   7  -4   5   10.77    9.86
  -7  -4   5   13.19    3.99
   7  -4  -5   10.59    4.73
  -7  -4   5    2.38    4.76
   7   4   5    8.91    3.99
  -7   4  -5   15.83    8.54
  -7   4  -5   -8.39   10.44
  -7  -4   5   14.37    5.64
  -7   4  -5    9.38    6.63
  -7  -4   5   11.87    3.01
   7   4   5   11.80    7.59
   7   4   5   -1.87   13.85
   7  -4  -5   10.37    3.96
  -8  -4  -5  307.58   32.32
  -8   4   5  334.88   31.74
   8  -4   5  306.37   31.88
  -8  -4  -5  333.16   32.87
   8   4  -5  286.29   27.67
   8  -4  -5  289.91   25.62
  -8  -4   5  307.17   26.57
   8  -4  -5  323.96   30.75
   8   4   5  266.28   18.51
  -8   4  -5  331.14   59.40
  -8   4  -5  311.02   46.36
  -8   4  -5  313.37   23.49
  -8  -4   5  245.17   25.07
  -8  -4   5  243.23   26.17
   8   4   5  304.39   40.13
  -8  -4   5  274.27   17.63
  -9  -4  -5    1.58   11.07
   9  -4   5   -5.09    7.44
  -9  -4  -5    6.08    6.96
   9   4  -5   -0.55    8.17
   9  -4  -5    4.62    3.66
  -9  -4   5    4.36    6.30
   9  -4  -5    5.72    4.29
   9   4   5    2.49    3.70
  -9   4  -5    0.40    9.89
  -9   4  -5    3.59    8.25
  -9   4  -5    6.19    4.69
  -9  -4   5   -0.26    3.08
  -9  -4   5    6.45    5.68
  -9  -4   5    6.23    3.15
  10  -4   5  243.34   46.25
 -10  -4  -5  240.48   40.13
  10   4  -5  234.76   26.31
  10  -4  -5  245.50   24.33
 -10  -4   5  233.77   18.73
  10  -4  -5  269.13   26.50
 -10   4  -5  260.19   30.78
  10   4   5  194.74   23.53
 -10   4  -5  256.71   57.24
 -10   4  -5  345.76   57.79
 -10  -4   5  237.03   17.00
  11  -4   5   -6.01    6.52
 -11  -4  -5   -2.05    6.45
  11   4  -5   -7.70    9.42
  11  -4  -5    0.26    3.88
 -11   4  -5   16.82   16.89
 -11   4  -5    6.78   17.15
 -11  -4   5   -0.62    3.92
 -11   4  -5    1.83    4.10
 -11  -4   5    3.44    5.46
  12  -4   5   24.26   16.20
 -12  -4  -5   30.23   10.70
  12   4  -5   12.94   12.06
 -12   4  -5   19.72   24.37
 -12  -4   5   18.65    6.16
  12  -4  -5   15.43    8.65
  12  -4  -5   24.74    6.52
 -12   4  -5   18.32   20.85
 -12   4  -5   21.88   10.44
 -12  -4   5   15.39    9.78
  13  -4   5   -0.33    6.74
  13  -4   5    7.44   10.59
 -13  -4  -5    7.11    7.48
  13   4  -5    7.26    5.42
  13  -4  -5   -0.77    3.99
  13  -4  -5   -2.71    6.96
 -13   4  -5   -9.56   15.06
 -13   4  -5    0.92    4.54
 -13  -4   5    5.24    7.48
  14  -4   5  118.74   26.57
  14  -4   5   84.03   18.76
 -14  -4  -5  105.21   32.62
  14   4  -5   81.91   15.32
 -14   4  -5  132.26   30.78
 -14   4  -5  112.58   12.86
  14  -4  -5   98.25   13.56
 -14   4  -5  104.52   41.85
 -14  -4   5   96.86   14.29
  15  -4   5    0.44   11.73
  15   4  -5    8.47   10.59
 -15   4  -5   -3.30   11.29
  15  -4  -5    0.84    7.73
 -15   4  -5   -1.91    4.73
 -15   4  -5  -13.63   14.66
 -16  -4  -5    2.05   15.50
  16  -4   5   -6.93    7.81
  16   4  -5   10.04   11.10
 -16   4  -5  -11.76   17.22
  16  -4  -5    1.28    5.46
 -16   4  -5   48.74   20.71
 -17  -4  -5   -3.81   19.31
  17  -4   5    8.76   13.19
  17   4  -5   20.27   13.52
  17  -4  -5   -3.48    9.49
 -17   4  -5   10.30   14.18
  17   4   5    2.90    5.61
  18  -4   5    4.07   13.23
 -18  -4  -5    1.21   19.50
  18  -4   5   -3.92    7.37
  18   4  -5    8.17   10.92
  18  -4  -5    2.02    5.61
 -18   4  -5    1.83   12.53
 -18   4  -5   -7.73   17.22
  18   4   5    0.22    5.46
  19  -4   5   31.15   13.08
 -19  -4  -5    7.29   32.32
  19  -4   5   46.54   19.61
  19   4  -5   28.18   19.64
  19  -4  -5    7.51   14.81
 -19   4  -5   25.25   19.24
 -19   4  -5   33.13   27.52
  19   4   5    0.18   15.25
   0  -5  -5    7.40    6.67
   0  -5   5    3.96    2.27
   0   5   5    9.97    6.30
   0   5   5    4.58    4.84
   0  -5   5    1.36    4.51
   0   5  -5   11.91    3.88
  -1  -5  -5   45.48    7.07
   1  -5   5   33.31    6.41
   1   5  -5   36.35    5.94
  -1   5   5   37.20    6.49
  -1   5   5   44.78    9.78
  -1  -5  -5   47.57   11.73
   1  -5  -5   38.08    6.63
  -1  -5   5   39.07    6.60
   1   5   5   36.02    8.39
   1   5   5   42.91    9.86
  -1   5  -5   38.00    6.67
  -1   5  -5   43.65    7.11
  -1  -5   5   32.98   10.96
  -2   5   5   17.59    7.26
  -2  -5  -5    2.35    4.21
   2  -5   5    5.35    2.24
   2   5  -5    4.84    3.44
  -2   5   5    1.39    3.55
  -2   5   5    8.36   10.96
  -2  -5  -5   13.52   11.76
  -2  -5  -5   16.49    6.89
   2  -5   5    7.88    5.17
   2  -5  -5   17.74    6.63
  -2  -5   5    7.22    3.92
  -2   5  -5   10.55    4.32
   2   5   5   14.59    6.60
   2   5   5    8.69    5.86
  -2   5  -5   12.72    7.04
  -2  -5   5    0.26    4.29
   2  -5  -5    0.66    5.35
  -2  -5   5    4.47    2.60
  -2  -5   5    4.69    5.83
  -3  -5  -5   90.33   14.44
   3  -5   5   88.43   19.24
   3   5  -5   95.76    8.80
  -3   5   5  124.38   24.96
  -3  -5  -5  126.47   25.84
  -3  -5  -5  119.32   23.64
  -3   5   5   90.37    7.44
   3  -5   5  105.69   12.72
   3   5   5  124.86   23.93
  -3  -5   5   77.32   12.24
   3  -5  -5  101.95   15.17
  -3  -5   5  100.63    9.86
   3   5   5   89.20   14.81
   3   5   5  103.75   14.29
  -3   5  -5   85.46   15.79
  -3   5  -5  107.74   18.03
  -3  -5   5   84.14   10.00
   3  -5  -5   96.64    9.31
  -4  -5  -5   27.56    9.31
   4  -5   5   21.11   10.85
  -4   5   5   30.31    3.99
   4   5  -5   30.27    4.73
  -4  -5  -5   47.68   10.22
  -4   5   5   41.30    9.89
  -4  -5  -5   54.53    9.78
   4  -5   5   51.89   14.59
   4   5   5   30.53   15.39
   4  -5  -5   36.50    6.60
   4   5   5   35.99   10.55
  -4  -5   5   27.92    7.04
  -4  -5   5   25.76    6.93
   4   5   5   26.90    9.53
  -4   5  -5   35.66   14.62
  -4  -5   5   28.77    5.94
  -4   5  -5   40.24    7.15
   4  -5  -5   28.22    7.77
  -4  -5   5   24.41    5.53
  -5  -5  -5   -2.38    3.37
   5  -5   5    5.20    5.61
  -5   5   5    1.10    3.22
  -5  -5  -5   -2.09    5.64
  -5   5   5   -1.32    9.02
  -5  -5  -5   -2.93    5.20
   5  -5   5    2.46    8.80
   5   5   5    2.13    9.13
   5  -5  -5    0.29    5.17
  -5  -5   5   -3.48    3.99
  -5  -5   5   -0.40    3.08
  -5   5  -5   -2.71    3.88
  -5   5  -5   -4.29    7.99
   5   5   5   10.55    5.75
  -5   5  -5   -0.92    6.78
   5  -5  -5    2.09    4.62
  -5  -5   5    0.22    3.15
  -6  -5  -5    1.61    3.15
  -6   5   5    3.08    6.12
   6  -5   5    4.65    6.12
  -6  -5  -5    6.82    5.94
  -6   5   5   -1.25    2.02
  -6   5   5    2.13    6.08
  -6  -5  -5   -0.70    5.42
   6  -5   5    3.48    5.13
   6   5   5   -1.72    9.71
   6  -5  -5   -1.10    3.63
  -6  -5   5   -2.13    4.32
  -6   5  -5   -2.13    3.96
  -6   5  -5    5.75    9.97
  -6   5  -5   -2.90    7.44
  -6  -5   5   -0.18    3.55
  -6  -5   5   -2.09    3.63
   6  -5  -5   -0.99    2.93
   6   5   5    0.88    5.83
  -7   5   5   48.01   25.69
  -7  -5  -5   85.46   17.15
   7  -5   5   71.64   24.04
  -7  -5  -5   99.64   14.88
  -7   5   5   96.42   23.20
   7   5  -5   89.49   19.57
  -7   5  -5  110.23   18.43
  -7  -5   5   96.67   14.00
   7  -5  -5  111.59   16.31
   7   5   5   75.49    9.53
  -7   5  -5   99.64   22.46
  -7  -5   5   73.77    9.56
   7   5   5  103.89   26.24
  -7  -5   5   99.79    8.47
   7  -5  -5  102.57   13.60
   7   5   5  106.39   18.80
  -8  -5  -5    1.10    7.00
   8  -5   5   -5.86   10.52
  -8  -5  -5    9.13    6.16
  -8   5   5   -5.79    6.30
   8   5  -5    1.91    8.32
   8  -5   5   -5.61    9.86
  -8  -5   5    0.18    5.83
   8  -5  -5    7.77    4.47
  -8   5  -5    8.36    5.02
  -8   5  -5    7.11   14.48
  -8   5  -5   10.44    6.78
   8   5   5   -2.38    3.77
  -8  -5   5    4.43    3.70
   8   5   5   -2.38    9.16
  -8  -5   5    3.48    2.60
   8   5   5   -5.13   11.54
   8  -5  -5   -1.54    3.85
  -9  -5  -5   17.85   15.57
   9  -5   5   18.54    9.60
  -9  -5  -5   28.29   14.37
   9   5  -5   15.68    7.81
   9  -5  -5   23.38    6.19
  -9   5  -5   17.15   10.77
   9   5   5   13.67    7.95
  -9   5  -5   10.37   18.07
  -9   5  -5    7.77   14.51
  -9  -5   5   20.38    8.80
  -9  -5   5   11.98    4.07
   9  -5  -5   18.98    8.61
  10  -5   5    0.51    8.10
 -10  -5  -5    9.45    7.62
 -10  -5  -5   -5.28    6.63
  10   5  -5   -1.72    9.20
  10  -5  -5    3.08    3.96
 -10   5  -5    6.19   16.49
  10  -5  -5    0.15    4.40
  10   5   5    1.91    3.66
 -10   5  -5   -7.62   16.86
 -10   5  -5    2.35    4.84
 -10  -5   5    5.42    6.38
 -11  -5  -5   14.51    8.80
  11  -5   5    4.87   14.15
 -11  -5  -5    4.73    7.48
  11   5  -5    7.92   10.74
  11  -5  -5    9.02    6.85
 -11   5  -5   -7.88   13.19
  11  -5  -5    4.98    4.65
 -11   5  -5   -6.85   12.97
  11   5   5    1.03    4.58
 -11   5  -5    7.59    5.31
 -11  -5   5   -1.98    4.62
 -11  -5   5    5.50    6.38
  12  -5   5    0.48   10.85
 -12  -5  -5   35.58   15.76
  12   5  -5   18.47   10.08
  12  -5  -5   12.42    6.27
 -12   5  -5   41.15   19.64
  12  -5  -5   30.45   10.59
 -12   5  -5   32.21   21.04
 -12   5  -5   17.33   10.55
 -12  -5   5   21.07    7.15
 -12  -5   5   26.24    6.01
  13  -5   5   34.45   21.22
 -13  -5  -5   44.67   14.99
  13   5  -5   32.18   19.06
  13  -5  -5   36.32   13.19
 -13   5  -5   43.13   25.98
  13  -5  -5   45.88    9.34
 -13   5  -5   29.83   29.13
 -13   5  -5   40.06    9.31
 -13  -5   5   47.49   14.37
 -13  -5   5   47.86    8.32
  14  -5   5   13.74   15.79
  14  -5   5   14.92   11.76
 -14  -5  -5   20.63   12.09
  14   5  -5   19.57   12.83
 -14   5  -5   21.62   18.36
  14  -5  -5   19.68    7.15
  14  -5  -5   24.48   11.32
 -14   5  -5   29.39   22.72
 -14   5  -5   15.57   10.88
  15  -5   5   34.15   12.86
  15  -5   5   39.62   13.71
 -15  -5  -5    5.68   16.38
  15   5  -5   29.43   15.90
 -15   5  -5   50.83   19.46
 -15   5  -5   23.42   37.78
 -15   5  -5   39.47    8.80
  16  -5   5   17.77   13.38
 -16  -5  -5   -0.81   10.26
  16   5  -5   -1.39    6.74
 -16   5  -5   12.90   11.51
  16  -5  -5    1.72    9.09
 -16   5  -5   -3.15   22.17
 -17  -5  -5   -2.79   13.30
  17  -5   5   25.69   10.15
  17   5  -5    9.97    8.03
 -17   5  -5    6.16   13.93
  17  -5  -5    2.24    7.66
 -17   5  -5   31.81   26.97
 -18  -5  -5   -1.61   12.64
  18  -5   5    4.58   13.89
  18   5  -5   -2.97    9.02
 -18   5  -5   32.73   13.78
  18  -5  -5    1.61   10.81
 -18   5  -5   37.05   25.65
   0   6   5   -1.50    2.02
   0  -6  -5    5.64    4.25
   0  -6   5    1.06    1.76
   0   6   5   -3.88    5.17
   0   6   5    1.54    5.79
   0  -6   5    0.11    4.21
  -1  -6  -5   13.52    7.66
   1  -6   5    5.86    2.20
  -1   6   5    0.73    2.27
  -1   6   5    0.15    6.01
   1  -6   5    0.29    5.28
   1  -6  -5    2.79    4.73
  -1  -6   5    3.85    3.48
   1   6   5    8.32    6.38
  -1  -6   5    0.04    4.98
  -2  -6  -5  192.25   20.52
  -2   6   5  190.09   34.45
  -2  -6  -5  213.18   25.54
   2  -6   5  248.94   30.64
   2  -6  -5  159.96   23.20
  -2   6  -5  152.78   22.98
   2   6   5  219.33   35.40
   2   6   5  188.77   20.60
  -2   6  -5  140.65   19.57
  -2  -6   5  191.66   18.18
  -3  -6  -5    8.28    5.02
   3  -6   5    1.98    2.53
   3  -6   5    0.66   13.19
  -3   6   5    0.33    1.43
  -3   6   5   -2.82    6.78
  -3  -6  -5   -2.93    7.00
  -3  -6  -5   12.31    6.01
   3  -6   5   12.83    8.83
  -3  -6   5    0.55    2.97
   3  -6  -5    3.63    4.54
  -3  -6   5    3.96    4.07
   3   6   5    5.35    5.94
  -3   6  -5   10.81    4.29
   3   6   5    6.05    5.79
  -3   6  -5    3.66    3.77
  -3  -6   5   -0.18    4.40
  -4  -6  -5   13.63    9.82
   4  -6   5   -0.18   14.48
  -4  -6  -5    6.05   14.04
  -4   6   5   10.70    8.21
  -4  -6  -5   25.18   12.09
   4   6   5   21.07    8.47
   4  -6  -5   18.21    9.24
   4   6   5   16.23    8.36
  -4  -6   5   14.37    5.86
  -4   6  -5   11.62    5.79
   4   6   5   15.28    5.31
  -4   6  -5   15.43    8.61
   4  -6  -5   12.83    4.76
  -4  -6   5    6.08    3.92
  -5  -6  -5    9.05    8.43
   5  -6   5    0.29   13.38
  -5  -6  -5   16.64    7.77
  -5   6   5   11.51   11.25
  -5  -6  -5    6.63    6.82
   5  -6   5   -2.79    7.00
   5   6   5    6.89   11.80
  -5  -6   5    6.85    5.72
  -5   6  -5    5.61    7.95
   5   6   5    4.95    4.36
  -5   6  -5    7.59   10.26
   5   6   5    8.94    7.77
  -5  -6   5    9.56    4.87
   5  -6  -5    8.80    6.01
  -5  -6   5    2.64    3.88
  -6  -6  -5   -0.55    4.62
   6  -6   5    0.73    6.89
  -6   6   5   -0.77    1.39
  -6   6   5    3.41    6.16
  -6  -6  -5    1.10    5.28
  -6  -6  -5    6.82    9.86
   6  -6   5    5.31    5.68
   6   6   5   -0.62    9.82
   6  -6  -5    3.44    4.14
  -6  -6   5    2.38    2.93
  -6   6  -5    1.25    6.85
   6   6   5   -0.11    3.70
  -6   6  -5   -2.24    6.38
  -6  -6   5   -3.11    6.60
   6  -6  -5   -2.46    3.37
  -6  -6   5    3.41    2.27
   6   6   5    2.46   10.19
  -7  -6  -5    6.19    5.39
  -7  -6  -5    6.41    8.76
   7  -6   5    6.05    8.54
  -7   6   5   10.55   12.53
  -7  -6  -5    1.36    7.00
   7  -6   5   -1.69   11.84
   7  -6  -5    9.82    5.06
  -7  -6   5    6.78    4.14
  -7   6  -5   13.85    5.46
   7   6   5    6.93    7.48
  -7   6  -5   16.12   11.18
  -7  -6   5    9.13    8.72
   7  -6  -5    6.19    6.78
   7   6   5    9.27    9.60
  -7  -6   5    7.33    3.30
   7   6   5    9.86    8.43
  -8  -6  -5  161.10   30.93
   8  -6   5  109.13   20.96
  -8  -6  -5  148.20   27.27
  -8   6   5  132.88   18.80
   8   6  -5  135.01   17.74
   8  -6  -5  105.03   13.19
  -8   6  -5  102.06   21.88
  -8   6  -5  114.48   42.80
   8   6   5  115.80   18.14
  -8  -6   5  119.91   18.73
   8   6   5  145.01   29.13
   8   6   5  135.48   21.26
   8  -6  -5  102.61   12.09
  -8  -6   5  104.48   10.26
  -9  -6  -5   36.10   12.57
   9  -6   5   21.91   19.17
  -9  -6  -5   31.15   10.15
  -9   6   5   28.95   11.14
   9   6  -5   26.46   15.06
  -9   6  -5   10.66   16.49
   9  -6  -5   32.73   11.62
  -9   6  -5   40.27   20.27
   9   6   5   28.11    6.89
  -9   6  -5   27.23    8.39
  -9  -6   5   29.61    7.92
   9  -6  -5   30.49    7.40
 -10  -6  -5   90.11   29.54
  10  -6   5   74.21   19.13
 -10  -6  -5  120.06   23.89
 -10   6   5   82.90   26.42
  10   6  -5   74.58   15.83
 -10   6  -5   85.61   29.35
 -10   6  -5   88.54   13.56
  10  -6  -5   77.36   11.43
 -10   6  -5   82.05   45.30
  10   6   5   78.31   10.77
 -10  -6   5   70.07   12.61
  10  -6  -5   84.07   10.41
 -11  -6  -5   11.18   13.89
  11  -6   5    8.83    8.61
 -11  -6  -5    1.47   12.42
  11   6  -5   -6.41    7.04
 -11   6  -5    4.43   20.93
  11  -6  -5    7.70    7.66
 -11   6  -5    9.60   23.64
 -11   6  -5    5.64    8.47
 -11  -6   5    2.68    8.28
 -12  -6  -5   22.61   12.06
  12  -6   5   18.10   17.88
 -12  -6  -5   15.17   10.22
  12   6  -5    9.97   13.89
  12  -6  -5   10.85    6.34
 -12   6  -5   11.07   27.71
  12  -6  -5   16.82    6.41
 -12   6  -5   18.84   19.97
 -12   6  -5   13.49    6.82
 -12  -6   5    2.57   10.63
 -13  -6  -5   34.92   15.72
  13  -6   5   18.98   14.22
 -13  -6  -5   64.76   14.44
  13   6  -5   23.45   12.39
 -13   6  -5   21.48   32.47
  13  -6  -5   34.15    8.43
  13  -6  -5   36.17   13.16
 -13   6  -5   37.42   27.41
 -13   6  -5   31.96   13.16
 -14  -6  -5   36.87   16.60
  14  -6   5   26.68   14.73
 -14  -6  -5   49.95   15.90
  14   6  -5   44.16   13.74
 -14   6  -5   37.38   32.84
  14  -6  -5   45.15    9.45
  14  -6  -5   38.74    9.71
 -14   6  -5   49.95   26.97
 -14   6  -5   34.70    8.83
 -15  -6  -5   13.38   19.24
  15  -6   5   -3.48   14.40
  15  -6   5    8.61   17.22
 -15  -6  -5   38.11   18.07
  15   6  -5    7.18    9.75
 -15   6  -5    2.57   23.23
  15  -6  -5   14.44    6.56
  15  -6  -5    4.69   11.69
 -15   6  -5   12.90   29.65
 -15   6  -5    7.62    9.97
  16  -6   5   18.10    8.32
  16  -6   5    9.31    9.93
 -16   6  -5    7.70   13.78
  16  -6  -5    7.18    6.49
  16  -6  -5   -2.13    7.04
 -16   6  -5   29.57   28.47
 -16   6  -5    5.24    5.75
 -17  -6  -5  -14.59   17.55
  17  -6   5  -10.70   12.64
 -17  -6  -5    3.01   14.70
  17   6  -5    0.84   12.50
  17  -6  -5    0.99    9.38
 -17   6  -5   -0.37   26.50
 -17   6  -5    2.82    4.03
 -18  -6  -5   17.22   23.64
 -18  -6  -5   -0.04   20.27
  18  -6   5   23.89   11.51
  18   6  -5    5.28   18.76
 -18   6  -5   17.96   13.19
  18  -6  -5    2.05    8.03
 -18   6  -5   16.67   35.03
   0  -7  -5   -0.18    8.91
   0  -7   5    4.87    2.75
   0   7   5   -2.02    6.27
   0   7   5    2.68    7.29
   0  -7   5   -2.68    5.57
  -1  -7  -5   76.96   13.34
   1  -7  -5   45.70   16.53
  -1  -7   5   63.33   11.98
  -2  -7  -5    0.00    9.09
   2  -7   5   -2.79    2.79
   2   7  -5   11.36    6.34
   2  -7  -5    1.06    4.73
  -2  -7   5   -1.87    2.75
   3   7  -5   39.80   14.73
  -3   7   5   75.16   14.29
  -3  -7  -5   60.87   23.31
   3  -7   5   72.38   13.01
   3  -7  -5   64.02   16.45
  -3  -7   5   50.57    7.18
   3   7   5   53.17   14.55
   3   7   5   96.12   15.28
  -4  -7  -5    0.66    8.58
   4  -7   5   18.91   12.68
   4   7  -5    5.20    8.94
  -4   7   5   18.87   13.45
  -4  -7  -5   16.27   10.15
  -4  -7  -5   27.49    8.61
   4  -7   5   18.84    8.03
   4   7   5    9.24    9.64
   4  -7  -5   21.18    6.63
  -4   7  -5   10.52    9.89
   4   7   5   26.09   10.30
  -4  -7   5   12.61    4.43
  -4  -7   5    9.64   11.10
   5  -7   5   35.03   15.14
   5   7  -5   37.49   11.58
  -5  -7  -5   51.01   21.62
  -5   7   5   49.99   12.24
  -5  -7  -5   71.86   18.62
   5  -7   5   51.16   20.45
   5   7   5   26.17   21.40
   5  -7  -5   58.82   14.62
  -5   7  -5   34.04    9.02
   5   7   5   47.05   22.24
  -5  -7   5   61.68   14.88
   5  -7  -5   38.96    8.39
  -6  -7  -5    1.54   16.34
   6  -7   5   19.09   12.64
  -6  -7  -5   33.86   12.39
  -6   7   5   36.76   11.40
  -6  -7  -5   29.32   10.11
   6   7   5   29.61   19.46
   6  -7  -5   19.86    8.10
  -6  -7   5   31.81    4.91
  -6   7  -5   28.47    7.59
   6   7   5   17.92   11.51
  -6   7  -5   11.76    9.05
   6   7   5   37.16   18.18
  -6  -7   5   30.42   12.79
   7  -7   5   -4.14   17.30
  -7  -7  -5   12.24   17.30
  -7   7   5   39.40   10.77
  -7  -7  -5   46.07   13.89
  -7  -7  -5   -0.44   14.07
  -7  -7   5   16.31    4.65
   7  -7  -5   25.40    7.66
  -7   7  -5    5.17   11.10
   7   7   5   17.66    6.93
  -7   7  -5   21.69   17.00
  -7  -7   5   18.51    8.36
   7  -7  -5   20.34    6.49
   7   7   5   32.25   13.12
   7   7   5   24.22   11.51
   8  -7   5   30.93   25.76
  -8  -7  -5   66.59   16.38
  -8   7   5   57.79   22.83
  -8  -7  -5   65.34   13.05
   8  -7  -5   53.43   10.15
  -8   7  -5   56.07   10.66
   8   7   5   61.24    9.93
  -8   7  -5   45.74   29.94
  -8  -7   5   69.63   10.92
   8   7   5   61.24   21.91
   8   7   5   59.22   17.44
   8  -7  -5   49.99   13.60
   9  -7   5   51.27   15.90
  -9  -7  -5   45.19   24.19
  -9   7   5   39.69   13.38
  -9  -7  -5   61.64   19.09
   9   7  -5   59.00   12.50
   9  -7  -5   47.31    9.24
  -9   7  -5   44.56   10.00
  -9   7  -5   38.55   20.01
   9   7   5   35.18   14.48
  -9  -7   5   41.81   16.01
   9   7   5   42.51   23.16
   9  -7  -5   38.99    8.10
 -10  -7  -5    6.27   12.61
  10  -7   5   -3.41    7.70
 -10  -7  -5    4.54   10.33
  10   7  -5   -3.37    6.82
 -10   7  -5   -3.37    8.39
  10  -7  -5    6.45    7.95
 -10   7  -5   23.12   19.97
 -10  -7   5   -0.26    8.32
  10  -7  -5    7.77    7.18
 -11  -7  -5   42.22   14.59
  11  -7   5   14.48   21.11
 -11  -7  -5   30.97   11.84
  11   7  -5   43.43   17.70
  11  -7  -5   34.89    9.05
 -11   7  -5   42.33   41.74
 -11   7  -5   36.72    9.42
 -11  -7   5   27.38   10.55
  11  -7  -5   31.48    8.72
  12  -7   5   14.37   11.87
 -12  -7  -5   -0.33   11.18
 -12  -7  -5    7.26    8.80
  12   7  -5   13.16    8.65
  12  -7  -5   13.12    6.12
  12  -7  -5    2.79   10.00
 -12   7  -5   30.16   20.82
 -12   7  -5   12.28   10.52
 -12   7  -5   17.55   26.09
 -13  -7  -5   99.57   35.62
  13  -7   5   53.14   31.96
 -13  -7  -5  105.62   29.54
  13   7  -5   94.07   18.98
  13  -7  -5   86.67   14.81
  13  -7  -5   93.30   14.40
 -13   7  -5   66.59   42.36
 -13   7  -5   96.34   13.96
 -13   7  -5   56.55   45.59
 -14  -7  -5   13.82   17.00
  14  -7   5  -12.68   15.06
 -14  -7  -5   11.32   14.48
  14   7  -5    3.15   13.05
  14  -7  -5   10.85    6.08
  14  -7  -5   -9.24    9.31
 -14   7  -5  -17.99   21.80
 -14   7  -5   12.42    8.61
 -14   7  -5   -4.36   19.72
 -15  -7  -5   18.43   22.13
  15  -7   5    9.53   11.32
 -15  -7  -5   22.39   11.51
  15   7  -5   -3.19   15.76
  15  -7  -5    5.50    7.51
  15  -7  -5   25.80    7.84
 -15   7  -5   35.33   23.16
 -15   7  -5    4.84    6.38
 -15   7  -5   -6.01   22.61
  16  -7   5    5.46    8.54
  16  -7   5   12.86   14.77
 -16  -7  -5   14.70   10.08
  16   7  -5   17.30   14.99
 -16   7  -5   -1.28   19.83
  16  -7  -5    2.42    6.85
  16  -7  -5   -1.98    7.18
 -16   7  -5    9.67   33.39
 -16   7  -5    7.95    7.84
 -17  -7  -5   27.49   12.97
  17  -7   5  -10.66   12.24
 -17  -7  -5   18.18   10.44
  17   7  -5    9.34   10.19
 -17   7  -5  -15.57   17.08
  17  -7  -5    7.11    6.93
 -17   7  -5   -2.02    7.51
  17  -7  -5   -0.55    7.29
   0  -8  -5    1.58    6.41
   0  -8   5   -0.88    3.48
   0   8  -5    4.91    4.54
   0   8   5    5.53    6.74
  -1  -8  -5   16.34   17.63
   1   8  -5   18.40    7.37
   1  -8  -5   34.92    9.93
  -1   8  -5   22.39   11.43
  -1  -8   5   28.51    9.86
  -2  -8  -5  187.89   26.17
   2   8  -5  141.20   16.49
   2  -8  -5  157.84   29.72
  -3  -8  -5    0.62   11.51
  -3   8   5   15.76   10.37
   3   8  -5   14.51    7.70
  -3  -8  -5   23.16   11.43
   3  -8  -5   20.93    8.69
   3   8   5   34.70   10.26
   3   8   5   28.40   11.58
  -4  -8  -5   -0.40   15.98
   4  -8   5   -1.21   13.78
   4   8  -5   17.11    6.71
  -4   8   5   25.03   15.25
  -4  -8  -5   11.54   16.64
   4   8   5   27.01   10.81
   4  -8  -5   23.20   12.35
   4   8   5   -5.13    9.78
   5  -8   5    0.00    8.32
   5   8  -5   -1.17    5.02
  -5   8   5   -1.61    6.93
  -5  -8  -5    9.24    8.36
  -5  -8  -5   12.13    6.63
  -5  -8  -5    0.15   13.27
   5   8   5   13.38   12.61
   5   8   5   -1.72   12.09
   5  -8  -5    2.57    5.79
  -5  -8   5    0.81    3.15
  -5  -8   5   13.12    9.53
   6  -8   5    8.65   13.38
   6   8  -5    5.39    4.14
  -6   8   5   -1.47   10.19
  -6  -8  -5    6.93   12.28
  -6  -8  -5    5.72   10.15
  -6  -8  -5    0.55    9.05
   6   8   5   -1.43   12.39
  -6  -8   5    0.11    3.11
   6  -8  -5   -7.62    8.69
  -6   8  -5    3.81    4.62
   6   8   5    0.55    4.87
   6   8   5   -5.97    7.51
  -6  -8   5    2.02    5.90
   6  -8  -5   -0.55    5.09
   7  -8   5   15.46   12.42
   7   8  -5   -1.50    4.58
  -7  -8  -5    3.33    8.21
  -7   8   5   -3.77    7.40
  -7  -8  -5   10.63    6.45
  -7  -8  -5    1.10    8.43
   7  -8  -5   -0.59    5.46
  -7   8  -5    2.71    4.65
   7   8   5    0.99    8.25
  -7  -8   5    3.74    6.71
   7  -8  -5   -0.18    7.66
   7   8   5    0.62    8.10
   8  -8   5   18.18   10.99
   8   8  -5   12.68    8.80
  -8  -8  -5   27.27   12.13
  -8  -8  -5   26.94    9.34
  -8  -8  -5   -0.15   10.52
   8  -8  -5   17.74    7.84
  -8   8  -5   11.58   10.37
  -8  -8   5   20.01   12.61
   8   8   5   25.76   15.28
   8  -8  -5   15.25    6.67
   9  -8   5    9.02   14.95
  -9  -8  -5   22.68   16.38
  -9  -8  -5   24.52   12.97
  -9  -8  -5    0.37    9.20
   9  -8  -5   10.81    6.82
  -9  -8   5    3.92   12.09
  -9   8  -5   15.65    6.96
   9  -8  -5    8.03    5.83
  10  -8   5   17.74   14.59
 -10  -8  -5    4.36   10.08
 -10  -8  -5   17.30    7.88
  10   8  -5    5.39    7.77
  10  -8  -5    4.43    6.30
 -10   8  -5    7.81    6.23
 -10   8  -5    0.70   11.36
  10  -8  -5    1.03    5.72
  11  -8   5    7.07    7.70
 -11  -8  -5   17.30    8.32
  11   8  -5   -4.73    6.38
  11  -8  -5   -0.73    5.06
 -11   8  -5    4.73   15.76
 -11   8  -5    0.37    8.10
  11  -8  -5   -0.37    4.98
 -12  -8  -5    0.11   15.43
  12  -8   5   12.90   13.74
 -12  -8  -5    4.14   10.88
  12   8  -5   -3.63   10.88
  12  -8  -5   -3.04    5.68
 -12   8  -5   -5.94   18.91
 -12   8  -5    5.31    5.53
  12  -8  -5   -1.65    9.42
 -13  -8  -5   30.45   13.56
  13  -8   5   25.58   21.18
 -13  -8  -5    4.58   10.11
  13   8  -5   12.75   16.49
  13  -8  -5    9.82    8.21
  13  -8  -5   20.05    7.51
 -13   8  -5    1.98   20.30
 -13   8  -5   24.96   12.02
 -14  -8  -5   15.54   10.08
  14  -8   5   -6.63    8.39
 -14  -8  -5    0.81    7.15
  14   8  -5    8.14    7.51
 -14   8  -5    1.17   13.67
 -14   8  -5    3.37    5.31
 -15  -8  -5    7.84    9.64
 -15   8  -5    3.81    4.32
  15  -8  -5    1.10    5.72
  15  -8  -5   -2.97    5.97
 -15   8  -5   -7.73   13.56
 -16  -8  -5   -2.90   15.17
  16  -8   5    1.61   13.71
 -16  -8  -5   35.47   11.03
  16   8  -5    1.47   11.73
  16  -8  -5   11.69   13.67
 -16   8  -5   34.59   20.19
 -16   8  -5   14.26   10.00
 -16   8  -5   15.06   21.77
   0  -9  -5   10.63   15.57
   0   9  -5    6.74    5.90
  -1  -9  -5   -3.59    8.17
   1  -9   5    0.33    1.54
   1   9  -5   -1.98    7.15
   1  -9  -5   14.70    7.62
  -1  -9   5   -0.40    1.80
  -1   9  -5    6.67    4.58
  -2   9   5   31.70   13.89
  -2  -9  -5   30.42   14.84
   2   9  -5   14.15   11.69
  -2   9   5   27.89   10.66
   2  -9  -5   31.99   18.95
   2   9   5   42.33   16.64
  -2   9  -5   10.37    7.51
  -2  -9   5   19.28    9.64
  -3  -9  -5   -2.42   23.60
   3   9  -5   14.48   14.07
  -3   9   5   43.17   20.05
   3  -9  -5   32.36   11.95
   3   9   5   40.86   17.33
  -3   9  -5   16.16   12.13
   3   9   5   35.33   13.08
   4  -9   5   37.05   19.50
  -4   9   5   48.74   16.86
  -4  -9  -5   58.27   16.82
  -4  -9  -5    2.49   30.12
   4   9   5   66.88   16.67
   4  -9  -5   56.66   14.26
   4   9   5   46.69   15.61
   5  -9   5   63.66   20.34
  -5   9   5   81.65   29.10
  -5  -9  -5   78.17   30.60
   5   9   5   63.22   29.61
   5   9   5   60.94   20.19
   5  -9  -5   66.22   23.78
  -5  -9   5  115.14   17.59
   6  -9   5   19.86   19.53
   6   9  -5    7.33   12.42
  -6  -9  -5   31.30   12.39
  -6  -9  -5   19.97   15.14
  -6  -9  -5    2.60   14.07
   6  -9  -5   21.91    9.16
  -6  -9   5   25.03   10.48
   6  -9  -5    0.26   12.72
   6   9   5   12.64   20.74
   7  -9   5   -5.90    9.78
   7   9  -5    8.87   10.52
  -7  -9  -5    9.34   10.15
  -7  -9  -5    8.10    7.70
  -7  -9  -5   -0.95   11.47
   7  -9  -5   -4.51   11.36
  -7   9  -5    8.39    5.61
  -7  -9   5   15.68    8.91
   7  -9  -5   -0.40    6.71
   8  -9   5   30.27   14.15
  -8  -9  -5    0.88   26.31
   9  -9   5   -0.22   13.08
   9   9  -5    0.26    4.07
  -9  -9  -5    3.15    8.72
  -9  -9  -5    7.22    6.30
  -9  -9  -5   -0.92   14.77
   9  -9  -5    0.77    9.34
  -9   9  -5   -5.72    7.92
   9  -9  -5   -4.47    8.28
  10  -9   5   10.41    9.45
 -10  -9  -5   15.39   10.08
 -10  -9  -5    9.38    7.92
 -10   9  -5   -4.40    6.49
  10  -9  -5    0.11    6.56
  10  -9  -5    5.46    6.05
  11  -9   5    9.13    9.86
 -11  -9  -5    5.31   15.76
 -11  -9  -5    3.04   11.76
  11   9  -5   -0.92   12.64
  11  -9  -5   -6.89    9.89
 -11   9  -5    5.53    9.71
  11  -9  -5    6.96    9.09
 -12  -9  -5   -3.04    9.89
 -12  -9  -5    8.43    6.74
  12   9  -5    9.71    7.70
  12  -9  -5    5.64    6.05
 -13  -9  -5   40.20   14.07
  13  -9   5    5.20   13.49
 -13  -9  -5    7.44    9.20
  13   9  -5   -1.91   10.52
  13  -9  -5   23.49   13.82
 -13   9  -5    8.58   12.42
 -14  -9  -5    0.84   12.72
  14  -9   5   -1.87   16.64
 -14  -9  -5    4.14    8.25
  14   9  -5    1.14   10.26
  14  -9  -5   13.52    7.37
  14  -9  -5    0.84    7.73
 -14   9  -5    7.66    6.12
 -15  -9  -5   11.65   12.53
  15  -9   5    9.49   16.75
 -15  -9  -5   -3.37    8.17
  15   9  -5   10.33   15.36
  15  -9  -5   -5.57   11.98
 -15   9  -5   -3.96   11.29
 -15   9  -5   15.76    8.91
   0 -10  -5  -14.04   16.31
   0 -10   5   -0.40    3.01
   0  10  -5   -2.49    7.84
  -1 -10  -5   50.98   19.72
   1 -10  -5   47.05   18.32
  -1  10  -5   26.09    9.56
  -2 -10  -5   49.95   27.12
  -2  10   5   66.95   25.80
   2 -10  -5   65.12   23.12
   2  10   5   95.39   17.99
  -3 -10  -5   81.03   45.66
   3 -10  -5   95.69   32.29
  -3  10  -5   70.22   12.61
   3  10   5  128.96   31.37
   4 -10   5   26.46   16.05
  -4 -10  -5    0.48   18.80
   4 -10  -5   35.44   13.12
  -4  10  -5   15.43   12.31
  -4 -10   5   22.02   17.92
   5 -10   5    2.97   20.27
  -5 -10  -5   37.45   12.83
  -5 -10  -5    0.73   17.11
   5 -10  -5   15.36   18.91
   6 -10   5   -6.89   19.13
  -6 -10  -5   24.88   11.80
  -6 -10  -5    0.18   13.16
   6 -10  -5   12.46    9.49
   7 -10   5   -6.56    9.42
  -7 -10  -5    8.28   14.48
  -7 -10  -5   -0.04   15.90
   7 -10  -5    4.14    7.00
   7 -10  -5    0.99    6.60
   8 -10   5   -0.55   14.18
   8  10  -5    2.31    9.78
  -8 -10  -5   -0.73    9.97
  -8 -10  -5    9.60    7.37
  -8 -10  -5    0.48   15.61
   8 -10  -5   -2.57    7.04
  -8  10  -5    3.74    5.17
   8 -10  -5   -4.03    9.45
   9 -10   5    4.47   15.39
  -9 -10  -5   -0.84   10.85
  -9 -10  -5   -1.98    8.10
  -9 -10  -5    1.72   17.74
   9 -10  -5   -3.15    7.73
  -9  10  -5   -5.39    5.97
   9 -10  -5   -5.39    6.93
  10 -10   5   14.55   11.03
 -10 -10  -5    8.54   18.43
 -10 -10  -5    3.70   13.60
 -10 -10  -5   -0.04   18.18
 -10  10  -5    9.53   11.25
  10 -10  -5   -3.66   11.80
  10 -10  -5   12.09   11.14
  11 -10   5    4.54   13.78
 -11 -10  -5    1.39   10.00
 -11 -10  -5   -1.03   11.14
  11 -10  -5    1.06    7.04
  11 -10  -5    3.26    6.16
  12 -10   5   -8.36    9.42
 -12 -10  -5   -3.08   10.55
 -12 -10  -5   -4.51    6.89
  12 -10  -5   -3.48   10.00
 -12  10  -5   10.52    8.72
  12 -10  -5    3.48    6.60
  13 -10   5    3.22   12.24
 -13 -10  -5   19.97   12.68
 -13 -10  -5    0.73    7.55
  13 -10  -5   -1.72    8.25
 -13  10  -5    7.88    6.63
  13 -10  -5    3.37    8.17
  14 -10   5   11.21   19.50
 -14 -10  -5   19.39   20.08
 -14 -10  -5    5.39   11.98
  14  10  -5   14.70   15.61
  14 -10  -5    1.87    7.55
 -14  10  -5   -4.29    9.05
   0 -11  -5  -19.06   26.68
  -1 -11  -5   -6.23   12.46
   1 -11  -5    0.88   18.21
  -1  11  -5    6.38    8.80
  -2 -11  -5    4.47   19.50
   2 -11  -5   14.81   12.20
  -2  11  -5   -0.18    5.86
  -3 -11  -5   -0.48   17.52
   3 -11  -5    3.41   16.45
  -3  11  -5   -0.99    5.17
  -4 -11  -5    0.26   14.22
   4 -11  -5   18.58   12.72
  -4  11  -5   12.28    7.22
   5 -11   5    0.07   10.92
  -5 -11  -5   -0.92   10.88
   5 -11  -5   -7.37    9.60
   6 -11   5   14.22   17.59
  -6 -11  -5    0.18   12.09
   6 -11  -5    2.42   13.93
   7 -11   5  -10.81   10.81
  -7 -11  -5    3.70   10.74
  -7 -11  -5   -1.69   18.18
   7 -11  -5   -6.89    8.94
   7 -11  -5    0.15    8.03
   8 -11   5   44.64   27.52
  -8 -11  -5   74.72   20.05
  -8 -11  -5    2.13   29.90
  -8  11  -5   27.23   15.79
   8 -11  -5   49.33   23.38
   8 -11  -5   51.67   22.72
   9 -11   5   -4.69   10.26
   9  11  -5   -4.43   10.22
  -9 -11  -5    2.64   15.03
   9 -11  -5   10.88    8.14
  -9  11  -5    6.08    6.16
   9 -11  -5    1.10    7.33
  10 -11   5    2.46   10.63
 -10 -11  -5   21.99   11.95
 -10 -11  -5   -6.12   11.76
 -10 -11  -5   -0.51   13.82
  10 -11  -5   -1.91   13.71
 -10  11  -5    1.06    9.60
  10 -11  -5   -4.03   12.13
  11 -11   5   -0.37   19.50
 -11 -11  -5   17.99   14.07
 -11 -11  -5    2.79    8.39
  11 -11  -5    5.61    8.94
 -11  11  -5   10.63    7.62
  11 -11  -5   10.92    8.58
  12 -11   5   22.79   12.83
 -12 -11  -5   25.29   20.96
 -12 -11  -5   -4.76    8.21
  12 -11  -5   -7.84   14.48
 -12  11  -5    7.33   11.58
  12 -11  -5   26.46   14.07
  13 -11   5   10.26   10.22
 -13 -11  -5   -4.32    6.41
  13 -11  -5    5.90    7.29
 -13  11  -5    0.88    5.61
  13 -11  -5   -1.21    7.18
   0 -12  -5    9.34   14.95
  -1 -12  -5    6.89   12.13
   1 -12  -5   -3.01   19.79
  -2 -12  -5   -5.53   19.97
   2 -12  -5    4.76   13.63
  -3 -12  -5   26.17   24.33
   3 -12  -5   40.46   26.75
  -3  12  -5   14.55    8.94
  -4 -12  -5   -1.39   13.38
   4 -12  -5   39.58   12.90
  -4  12  -5    2.90    7.29
   5 -12   5    6.41   15.32
  -5 -12  -5   -0.07   15.14
   5 -12  -5   20.78   13.49
  -5  12  -5   25.80   12.83
   6 -12   5   32.14   27.08
  -6 -12  -5   13.93   18.07
   6 -12  -5   36.10   21.88
  -7 -12  -5   21.37   20.96
   7 -12  -5   10.15   11.32
   7 -12  -5    2.42    9.49
  -8 -12  -5   45.26   20.93
   8 -12  -5    9.42   10.41
   9 -12   5    8.06   10.96
  -9 -12  -5    3.55   11.58
   9 -12  -5    7.00    8.87
   9 -12  -5   -4.87    7.77
  10 -12   5   10.08   11.51
 -10 -12  -5   -3.26   12.97
  10 -12  -5   -3.63   14.73
 -10  12  -5    6.89    6.71
  10 -12  -5  -11.43   13.71
  11 -12   5   14.15   23.75
 -11 -12  -5   15.98   25.21
  11 -12  -5   13.38   11.03
 -11  12  -5   10.19    8.83
  11 -12  -5   20.38   10.37
   0 -13  -5   24.70   26.17
  -1 -13  -5   -8.72   11.91
   1 -13  -5   -1.83   20.74
  -2 -13  -5    8.80   13.63
   2 -13  -5   30.34   16.49
  -2  13  -5   11.43   17.55
  -3 -13  -5   23.23   24.30
   3 -13  -5   41.63   26.50
  -3  13  -5   14.70   11.18
  -4 -13  -5    2.16   12.31
   4 -13  -5   13.74   11.76
  -4  13  -5    1.03    8.50
   5 -13   5  -10.11   16.27
  -5  13  -5   -4.21   14.22
   6 -13   5   -2.42   20.01
   6 -13  -5   14.51   16.93
   7 -13   5   20.56   15.90
  -7 -13  -5   29.87   16.12
   7 -13  -5   -6.08   13.41
   8 -13   5    7.37   12.50
  -8 -13  -5  -10.52   19.35
   8 -13  -5    8.50   16.89
   8 -13  -5    4.58   10.11
   9 -13   5   24.88   23.42
  -9 -13  -5    0.15   17.48
   9 -13  -5   27.01   10.92
  -9  13  -5    5.39    8.58
   9 -13  -5   -1.54   10.19
   0 -14  -5   -2.90   16.56
  -1 -14  -5   -5.79   11.25
   1 -14  -5   -5.94   11.84
  -1  14  -5   -4.03   17.26
   2 -14  -5   23.31   16.09
  -3 -14  -5   14.33   23.23
   3 -14  -5   38.99   25.73
  -3  14  -5   22.32   13.74
  -4 -14  -5    3.04   19.90
  -4  14  -5    0.29    8.65
  -5 -14  -5   -0.62   12.79
   5 -14  -5    5.09   10.88
  -5  14  -5    0.22   13.27
   0   0   6  413.38   38.81
   0   0  -6  405.79   24.15
   0   0   6  371.12   31.19
  -1   0   6    2.42    3.70
   1   0   6    0.55    6.38
   1   0   6   -0.62    5.46
   1   0  -6    6.60    3.48
  -1   0  -6    4.36    3.01
  -1   0   6   -0.33    8.58
  -1   0  -6    2.75   11.36
   2   0   6  398.06   50.83
   2   0  -6  431.63   21.40
  -2   0  -6  435.51   19.28
  -2   0   6  511.37   37.38
  -2   0   6  409.79   30.67
  -2   0  -6  471.90   58.96
  -2   0  -6  482.35   58.53
  -3   0   6    4.95    5.06
   3   0   6    1.76    9.13
   3   0  -6    7.00    2.53
  -3   0  -6    1.28    2.13
  -3   0   6    0.59    4.73
  -3   0  -6   -3.41   10.74
  -3   0  -6    8.25    6.78
  -3   0   6    2.75    3.77
   4   0  -6   -0.62    3.99
  -4   0   6    5.28    6.23
  -4   0  -6   -1.36    9.49
  -4   0   6    0.51    6.89
   4   0   6    1.61    3.59
  -4   0  -6   -0.48    6.05
   4   0   6    0.70    6.05
  -4   0   6    2.46    3.74
   5   0  -6    0.92    4.36
  -5   0   6   -1.36    4.43
   5   0   6   -2.60    3.92
  -5   0  -6   -7.11   10.22
  -5   0   6   -2.09    4.62
  -5   0  -6    1.72    9.97
   5   0   6   -5.17    7.22
  -5   0   6    1.83    6.74
  -6   0   6    2.02    6.19
  -6   0  -6    1.76    6.49
   6   0  -6    2.09    4.21
  -6   0   6    1.83    5.39
  -6   0  -6    4.32    6.71
  -7   0   6   -3.19    3.85
  -7   0  -6   -2.57    5.53
   7   0  -6    4.43    4.29
  -7   0   6   -4.03    8.36
  -7   0  -6   -4.65   11.07
  -8   0   6   15.25    5.57
  -8   0  -6    5.31   11.69
   8   0  -6   12.13    4.03
  -8   0   6    5.09    6.78
  -8   0  -6    8.76    9.49
  -9   0   6    7.18    5.39
   9   0  -6    3.92    3.88
  -9   0   6    1.72   10.33
  -9   0  -6    8.17   13.49
 -10   0   6  131.31   15.32
  10   0  -6  129.03   11.54
 -10   0  -6  114.38   23.31
  11   0  -6   -0.37    5.79
 -11   0  -6    0.66    7.77
  12   0  -6   48.85    8.80
  12   0   6   38.96   17.92
 -12   0  -6   42.25   19.13
  13   0  -6    1.50    4.36
 -13   0  -6    4.69   19.09
  14   0  -6    2.82    8.43
 -14   0  -6   18.14   26.17
  15   0  -6    5.06    5.64
 -15   0  -6   16.56   18.69
  16   0  -6   10.70    7.07
 -16   0  -6   26.28   22.39
 -17   0  -6   -3.59   18.76
   0  -1   6    6.60    5.13
   0  -1  -6    2.46    2.02
   0   1   6    3.96    8.61
   0   1  -6    3.44    2.05
   0   1   6    3.85    3.26
   0   1   6    6.89    8.83
   0   1   6   -4.14    6.71
   1  -1   6    3.77   10.52
  -1  -1  -6    9.93    2.64
   1   1  -6   16.01    3.85
  -1   1   6   10.70    6.74
  -1   1   6   16.27    7.11
  -1   1   6   11.69    3.92
   1   1  -6   13.16    5.57
  -1   1   6    9.20    8.10
   1   1   6   10.77    5.61
   1  -1  -6   10.55    2.82
   1   1   6   14.11   10.63
  -1  -1   6   12.20    5.64
  -1   1  -6   15.39    3.48
  -1  -1   6    3.66    8.72
  -1   1  -6   10.30   12.61
  -1  -1   6   14.22    3.63
  -2   1   6   70.62   14.22
   2  -1   6   75.46   18.07
  -2  -1  -6   71.86    6.67
   2   1  -6   78.31    7.99
  -2   1   6   77.80   11.62
  -2   1   6   75.31   17.00
   2   1  -6   67.25    8.94
  -2  -1  -6   70.77   23.53
  -2  -1  -6   80.48   14.70
   2   1   6   94.22   11.84
   2   1   6   87.51   13.78
   2  -1  -6   65.78    5.83
  -2   1  -6   71.13    4.29
  -2  -1   6   90.63   15.03
  -2   1  -6   86.34   12.09
  -2   1  -6   70.66   22.94
  -2  -1   6   68.42   11.18
  -3  -1  -6   -2.35    2.42
   3   1  -6    4.40    3.66
  -3   1   6    5.39    7.18
  -3   1   6   -6.67    8.06
  -3   1   6    3.96    3.88
   3   1  -6    5.94    2.31
  -3  -1  -6    3.85   11.69
  -3  -1  -6    5.31    6.82
   3  -1   6   -6.30    6.34
  -3  -1   6    8.06    3.26
   3   1   6    3.92    6.19
   3  -1  -6    3.19    2.60
  -3  -1   6   -3.15    6.52
  -3   1  -6   -1.21    9.09
  -3   1  -6    7.04    7.04
   4   1  -6    3.88    4.14
  -4   1   6   13.05    5.31
   4   1  -6    1.61    2.31
  -4  -1  -6   -6.08   10.66
  -4   1   6    4.14    3.92
  -4  -1  -6    8.39   10.85
   4  -1   6    6.93    8.06
  -4  -1   6   11.91    3.96
   4  -1  -6    4.03    2.79
  -4   1  -6    7.04   10.11
  -4   1  -6    7.44    7.59
   4   1   6    3.77   11.87
   5   1  -6   56.80    8.47
  -5  -1  -6   46.10   12.09
  -5   1   6   53.39   17.19
  -5  -1  -6   54.68   13.27
  -5   1   6   35.66   11.73
  -5  -1   6   80.11   12.83
  -5   1  -6   39.51   19.17
   5  -1  -6   58.85    8.87
  -5  -1   6   59.92   11.58
  -5   1  -6   42.84   19.90
   5   1   6   49.03   21.80
  -6   1   6    3.08    7.33
  -6  -1  -6   -2.38    6.41
   6   1  -6    7.77    4.76
  -6   1   6    9.27    7.11
  -6  -1  -6    0.33    6.85
  -6   1   6    8.25    7.04
  -6  -1   6    2.64    6.49
  -6   1  -6   -1.32   11.32
   6  -1  -6    6.78    5.17
  -6  -1   6    9.82    6.60
  -6   1  -6   10.81    4.21
  -6   1  -6    0.92    7.77
  -7   1   6    2.31    8.10
  -7  -1  -6    5.09   11.43
   7   1  -6   13.93    5.68
  -7   1   6    8.80   13.19
  -7  -1  -6    5.42    7.95
  -7   1   6    2.97    5.42
  -7   1  -6    0.26    8.06
  -7  -1   6   13.60    7.37
   7  -1  -6   10.22    3.99
   7   1   6   15.36    8.61
  -7   1  -6   12.39    4.95
  -7  -1   6   14.48    5.94
  -7   1  -6    1.87    9.75
  -8  -1  -6    6.74    7.88
   8   1  -6   10.74    4.10
  -8   1   6    4.73    8.58
  -8  -1  -6    4.58   14.70
  -8   1   6    8.98    6.01
  -8  -1   6    9.60    5.50
   8  -1  -6   12.53    4.51
   8   1   6   23.75    9.93
  -8   1  -6   17.33    5.42
  -8  -1   6    5.28   10.19
  -8   1  -6    4.98    9.78
  -9  -1  -6  244.87   45.55
   9   1  -6  306.84   20.16
  -9  -1  -6  253.01   37.09
  -9   1   6  294.16   25.62
  -9  -1   6  278.33   23.27
   9  -1  -6  311.87   21.33
   9   1   6  290.98   37.38
  -9   1  -6  216.07   53.47
  -9  -1   6  252.83   27.82
  10   1  -6    7.99    4.58
 -10  -1  -6    5.06   15.68
 -10   1   6    7.55    6.34
 -10  -1   6    9.13    5.83
  10  -1  -6   11.14    7.92
  10   1   6   10.44    5.75
 -10   1  -6    7.00   10.33
 -10  -1   6    2.35   10.22
  11   1  -6   61.35   13.16
 -11  -1  -6   47.16   27.49
  11  -1  -6   58.60    8.91
 -11   1  -6   40.75   19.17
  12   1  -6   -1.94    6.56
 -12  -1  -6   12.50    9.60
  12  -1  -6   -3.15    4.18
 -12   1  -6   -8.39   18.32
  13   1  -6   65.34    9.56
 -13  -1  -6   59.15   24.22
  13  -1  -6   61.42   15.65
 -13   1  -6   68.46   47.68
  14   1  -6   29.98    7.70
  14  -1   6   30.20   16.49
 -14  -1  -6   55.23   19.86
  14  -1   6    7.59   14.66
  14  -1  -6   29.21    8.17
 -14   1  -6    9.24   26.50
 -14   1  -6   55.92   31.55
 -15  -1  -6   35.33   26.72
  15  -1   6    0.88    7.95
  15  -1  -6   17.33    6.78
 -15   1  -6   28.14   22.79
 -15   1  -6   13.27   27.74
 -16  -1  -6   20.34   27.19
  16  -1   6    1.54    7.81
  16  -1  -6    2.20   10.99
 -16   1  -6   56.66   22.35
 -16   1  -6   17.04   17.48
 -17  -1  -6   39.69   43.72
  17  -1   6   27.16   17.44
 -17   1  -6   45.22   30.16
 -17   1  -6   27.60   25.95
   0   2   6  163.19   20.30
   0  -2   6  167.62   23.09
   0  -2  -6  145.78   11.62
   0   2  -6  142.30   14.51
   0  -2   6  178.58   17.70
  -1   2   6   74.50   17.22
   1  -2   6   72.16   15.54
  -1  -2  -6   63.14    8.03
   1   2  -6   78.39   10.22
  -1  -2   6   83.66    6.93
  -1  -2   6   63.99    9.56
  -1   2  -6   69.04   10.59
   1  -2  -6   64.39    8.10
   1   2   6   75.75   13.08
   1   2   6   52.41    9.78
  -1   2  -6   65.30   19.57
   2   2  -6  134.79   13.16
  -2  -2  -6  125.63   10.70
   2   2  -6  147.21    8.28
  -2   2   6  171.51   16.67
  -2   2   6  146.00   17.77
  -2  -2  -6  175.43   30.05
  -2  -2  -6  152.67   21.80
   2  -2   6  134.60   18.07
  -2  -2   6  159.05   15.36
   2   2   6  140.87   14.95
   2   2   6  164.65   20.71
   2  -2  -6  141.16    9.34
  -2  -2   6  133.47   12.24
  -2  -2   6  127.64   19.68
  -2   2  -6  145.16   15.90
  -2   2  -6  151.83   29.24
   3   2  -6    8.69    2.68
  -3   2   6    9.56    3.11
   3   2  -6    6.74    4.25
  -3   2   6    4.54    9.56
  -3  -2  -6    5.31    7.70
  -3   2   6    6.89    5.35
  -3  -2  -6    5.39   12.46
   3  -2   6    4.10    7.40
   3   2   6   -0.95    8.61
  -3  -2   6    8.91    3.55
   3   2   6    8.61   15.72
   3  -2  -6    4.76    3.26
  -3  -2   6    2.20    6.41
  -3  -2   6    5.06    6.85
   3   2   6   14.99    6.19
  -3   2  -6   12.28    6.45
  -3   2  -6   11.84    7.59
   4   2  -6   22.87    5.31
  -4   2   6   21.04    6.34
   4  -2   6   12.97    8.21
  -4   2   6   17.59   11.87
   4   2  -6   15.61    3.11
  -4  -2  -6   29.83    9.05
  -4  -2  -6    7.55   14.48
  -4   2   6   25.84    6.74
   4  -2   6    8.87    4.65
  -4  -2   6   27.56    4.98
   4   2   6   22.21   10.55
   4   2   6   10.88    9.45
   4  -2  -6   15.03    4.07
  -4  -2   6   20.08    7.99
  -4  -2   6   14.00    5.02
  -4   2  -6    9.45   11.47
  -4   2  -6   24.41    9.60
  -5   2   6    1.94   10.52
   5   2  -6    9.05    5.31
  -5  -2  -6    4.91   12.35
   5  -2   6    6.93    8.32
   5   2  -6    7.95    4.58
  -5   2   6   21.95    7.66
  -5  -2  -6   23.60    8.43
   5  -2   6   10.81    4.62
  -5  -2   6   15.61    7.59
   5  -2  -6   12.35    5.97
  -5   2  -6   13.78   11.84
  -5  -2   6   12.79    7.51
  -5  -2   6   13.27    4.43
  -5   2  -6    8.76   14.18
   5   2   6   13.01    9.34
  -6   2   6   -5.90    9.09
   6   2  -6    2.71    4.73
   6  -2   6    5.50    6.38
  -6  -2  -6    0.55   10.22
   6  -2   6   -0.22    4.18
   6   2  -6    4.03    2.13
  -6   2   6   10.22   10.66
  -6  -2  -6    7.22   10.63
   6  -2   6   -0.55    4.10
  -6   2  -6    3.85   10.74
  -6  -2   6   10.99    6.96
   6  -2  -6    0.37    5.39
  -6   2  -6    6.45    4.47
  -6  -2   6    7.70    6.45
  -6   2  -6   11.95   12.83
   6   2   6    0.84   14.88
  -7  -2  -6   45.92   12.39
   7   2  -6   50.10    5.97
   7  -2   6   48.85   13.30
   7  -2   6   26.72   13.05
  -7   2   6   46.43   12.61
  -7  -2  -6   51.45   13.05
  -7  -2   6   43.28   12.28
   7  -2  -6   55.48    7.22
  -7   2  -6   69.56    8.83
  -7  -2   6   44.38   13.08
  -7   2  -6   60.98   17.70
   7   2   6   59.15   27.12
  -8  -2  -6   12.42   14.04
   8   2  -6   18.21    4.25
   8  -2   6   34.85   14.44
   8  -2   6    1.43    9.89
  -8   2   6   22.21   14.44
  -8  -2  -6   23.97   14.33
  -8  -2   6    8.17    9.02
   8  -2  -6   18.07    5.20
  -8   2  -6   14.07    6.01
  -8  -2   6   10.85    6.45
  -8   2  -6   18.62   20.16
  -9  -2  -6    1.50    8.03
   9   2  -6    7.11    3.88
   9  -2   6    3.77    5.86
  -9  -2  -6    0.92    8.91
  -9  -2   6   10.77    8.06
   9  -2  -6   10.99    7.44
  -9  -2   6    3.01    8.54
  -9   2  -6   13.60   10.85
 -10  -2  -6  149.08   34.15
  10   2  -6  121.63   11.73
  10  -2   6   99.09   25.87
 -10  -2  -6  133.17   24.48
 -10  -2   6  136.66   23.09
  10  -2  -6  140.32   20.30
 -10   2  -6  143.58   14.37
 -10   2  -6  142.04   27.08
 -10  -2   6  141.09   16.12
  11   2  -6  107.60   10.99
 -11  -2  -6   80.37   34.89
  11  -2  -6  100.93   13.16
 -11   2  -6  120.06   14.29
 -11   2  -6   82.49   39.91
 -11  -2   6   99.72   19.02
 -12  -2  -6   91.10   34.41
  12  -2   6   69.59   25.21
  12  -2  -6  101.33   18.54
 -12   2  -6   88.28   48.92
 -12   2  -6  123.10   46.39
 -13  -2  -6   20.89   15.90
  13  -2   6   17.99    9.60
  13  -2  -6   39.18   11.87
 -13   2  -6   38.30   24.70
 -13   2  -6   22.46   22.17
 -14  -2  -6    2.02   13.60
  14  -2   6    8.72   11.69
  14  -2  -6    6.74    6.23
 -14   2  -6   19.02   21.59
 -14   2  -6   28.33   16.78
 -15  -2  -6   14.00   21.15
  15  -2   6   30.78   12.42
  15  -2  -6   58.75   15.61
 -15   2  -6   26.83   33.53
 -15   2  -6   51.38   25.43
  16  -2   6   -7.18   10.96
 -16  -2  -6   29.28   14.55
  16  -2   6   -3.11   12.24
  16  -2  -6    1.17    6.16
 -16   2  -6   -3.81   20.34
 -16   2  -6   17.44   15.94
 -17  -2  -6   -8.39   18.40
  17  -2   6   23.23   10.33
  17  -2  -6    4.51    8.14
 -17   2  -6   48.34   24.66
 -17   2  -6   28.77   20.85
   0  -3   6    3.04    4.29
   0   3   6    1.06    6.67
   0  -3  -6    1.76    3.37
   0   3   6    3.44    5.64
   0  -3   6   -0.22    3.44
   0   3   6   -2.75    2.90
   0  -3   6   -3.37    6.01
   1  -3   6   22.39    6.49
  -1  -3  -6   29.32    5.79
   1  -3   6   18.18   12.94
  -1   3   6   39.76    5.06
  -1   3   6   32.03    7.95
   1   3  -6   34.52    8.14
   1  -3   6   23.75    6.96
   1  -3   6   26.09   11.51
  -1  -3   6   43.76    5.75
   1   3   6   43.21   12.02
  -1  -3   6   33.24    7.40
   1  -3  -6   25.03    6.27
   1   3   6   40.93    8.10
  -1   3  -6   38.96    8.91
  -1  -3   6   22.98    4.58
  -2  -3  -6  108.88   11.21
   2  -3   6  122.66   22.43
  -2   3   6  121.34   12.39
   2   3  -6  117.53   13.38
  -2   3   6  120.13   14.11
  -2  -3  -6  143.66   20.45
   2  -3   6  124.31   10.88
   2  -3   6  116.24   16.89
  -2  -3   6  128.96   13.74
  -2  -3   6  137.94   13.93
   2  -3  -6  116.35    8.94
   2   3   6  113.86   14.66
  -2   3  -6  114.92   16.38
   2   3   6  140.03   15.54
  -2   3  -6  137.21   23.64
  -3  -3  -6    9.56    4.03
   3  -3   6    8.36    9.60
  -3   3   6    0.33    7.59
  -3  -3  -6   15.32    9.02
   3   3  -6   10.99    4.95
  -3  -3  -6   20.38   13.67
  -3   3   6    8.32    9.31
   3  -3   6   11.62    4.65
   3   3   6   12.86    6.74
  -3  -3   6   18.25    3.88
   3  -3  -6    8.50    2.53
   3   3   6   18.14    9.02
   3  -3  -6   15.21    3.66
  -3  -3   6   14.40    7.48
   3   3   6   14.44    6.96
  -3   3  -6   15.36    7.29
  -3  -3   6    5.35    4.84
  -3   3  -6    2.68    7.40
   4  -3   6   13.08   10.48
   4   3  -6   14.00    3.22
  -4   3   6   20.34   13.08
  -4  -3  -6   29.94   14.77
  -4  -3  -6   24.70    9.16
  -4   3   6   25.32   10.52
   4  -3   6   18.98    6.30
   4   3   6   19.61   12.13
  -4  -3   6   14.00    4.84
   4   3   6   28.25   10.04
   4  -3  -6   18.91    4.14
  -4  -3   6   22.46    8.39
  -4   3  -6   21.91    8.58
  -4  -3   6   12.97    4.80
  -4   3  -6   12.75    8.80
  -5   3   6   32.40    9.64
  -5   3   6   17.04    4.18
   5  -3   6   13.30    7.40
   5   3  -6   18.80    3.59
  -5  -3  -6   37.93   14.81
  -5   3   6   24.00   10.22
  -5  -3  -6   25.43   15.14
   5  -3   6   12.20    6.12
   5   3   6   22.43    8.87
  -5  -3   6   21.84    5.68
   5  -3  -6   19.75    5.64
   5  -3  -6   24.33    7.22
  -5  -3   6   24.92    5.79
  -5   3  -6   22.17    6.19
  -5   3  -6   23.71   15.17
   5   3   6   19.64   17.52
  -6  -3  -6  169.49   22.76
   6  -3   6  156.92   30.49
  -6   3   6  196.46   32.84
  -6  -3  -6  176.38   22.72
  -6  -3   6  203.10   16.34
   6  -3  -6  150.47   14.55
   6  -3  -6  152.82   18.47
  -6  -3   6  162.97   20.05
  -6  -3   6  139.48   14.48
  -6   3  -6  171.25   15.21
  -6   3  -6  166.45   39.10
   6   3   6  166.93   24.55
  -7  -3  -6    7.00   13.56
   7  -3   6    5.57   13.19
  -7   3   6   15.43    8.80
  -7  -3  -6   20.96   13.78
   7  -3   6    3.33    8.80
  -7  -3   6   19.68    8.17
   7  -3  -6    5.31    3.81
   7  -3  -6   16.56    5.02
  -7  -3   6    8.10    4.43
   7   3   6   12.94    5.17
  -7  -3   6   11.58    7.33
  -7   3  -6   21.22    5.72
  -7   3  -6    7.66   12.53
   7   3   6   29.68   11.54
  -8  -3  -6  128.59   20.01
   8  -3   6  107.56   29.50
   8  -3   6   98.91   18.03
  -8   3   6  143.11   30.82
  -8  -3  -6  132.85   18.51
  -8  -3   6  115.47   18.95
   8  -3  -6  111.85    9.89
   8  -3  -6  124.42   11.73
   8   3   6  111.77   11.65
  -8   3  -6  125.37   19.79
  -8  -3   6  105.36   11.62
  -8   3  -6  130.50   44.78
  -9  -3  -6   18.84   16.49
   9  -3   6   36.43   10.48
   9  -3   6   18.73   13.93
  -9  -3  -6   20.45   15.39
   9  -3   6   17.15    7.55
  -9  -3   6   19.68    6.85
   9  -3  -6   15.76    9.97
   9   3   6   20.82    6.05
  -9   3  -6   23.42    6.78
  -9  -3   6   15.36    9.34
  -9   3  -6   10.08   15.25
 -10  -3  -6   25.91   12.24
  10  -3   6   32.87   11.73
  10  -3   6   13.74   16.49
 -10  -3  -6   31.63   19.17
  10  -3  -6   24.55    7.55
 -10   3  -6   34.70    7.99
 -10   3  -6   29.98   16.71
 -11  -3  -6   21.84   13.63
  11  -3   6   21.95   10.63
 -11  -3  -6   33.53   13.96
  11  -3  -6   30.93    7.59
 -11   3  -6   33.94   13.89
 -11   3  -6   22.10   29.57
 -11   3  -6   35.25   19.39
 -12  -3  -6    3.52   12.09
  12  -3   6   -5.64    8.87
 -12  -3  -6    3.77    8.50
  12  -3  -6   -3.04    6.96
 -12   3  -6   11.62   11.98
 -12   3  -6   -1.83    4.87
 -12   3  -6    5.13   11.62
  13  -3   6    1.50    7.92
 -13  -3  -6   11.18   17.33
  13  -3  -6    1.14    5.64
 -13   3  -6   12.72   18.40
 -13   3  -6    8.47    6.05
 -13   3  -6    2.60   16.27
 -14  -3  -6  118.81   40.71
  14  -3  -6   95.83   22.61
 -14   3  -6  129.07   50.13
 -14   3  -6   92.68   63.80
 -15  -3  -6   48.89   20.19
  15  -3   6   -1.03    8.61
  15  -3  -6    6.63    6.45
 -15   3  -6  -19.75   34.37
 -15   3  -6    5.35   29.06
  16  -3   6   33.24   23.09
 -16  -3  -6   25.58   17.11
  16  -3   6   22.10   16.86
  16  -3  -6    5.13    7.92
 -16   3  -6   29.46   39.51
 -16   3  -6   29.61   29.83
  17  -3   6    9.42   12.13
 -17  -3  -6    3.74   14.37
  17  -3   6    9.02    9.82
  17  -3  -6   -0.73   10.15
 -17   3  -6   14.77   29.68
   0  -4   6    3.74    5.61
   0  -4  -6   10.92    5.35
   0   4   6   17.70    8.98
   0   4   6   22.17    7.59
   0   4  -6   20.30    7.04
   0  -4   6    9.09    6.78
   1  -4   6   33.50    4.47
  -1  -4  -6   42.47    6.78
   1   4  -6   39.43    9.82
  -1   4   6   36.54   13.89
   1   4   6   38.77   10.30
  -1  -4   6   41.56    5.97
  -1   4  -6   30.34   10.08
   1  -4  -6   33.94    8.25
  -1  -4   6   28.99    7.81
  -2  -4  -6    7.81    3.26
   2  -4   6    4.25   11.69
   2   4  -6   12.17    5.94
  -2   4   6   17.74    9.93
  -2  -4  -6   21.77    8.94
   2  -4   6    0.33    5.13
   2   4   6    8.32   11.03
  -2  -4   6    3.66    5.64
  -2  -4   6    6.45    7.22
   2  -4  -6   12.35    3.96
  -2   4  -6   14.04    7.33
  -2  -4   6    8.72    3.85
  -2   4  -6    6.93    6.82
  -3   4   6   77.43   13.01
   3  -4   6   37.01   18.95
  -3   4   6   58.23    8.83
   3   4  -6   43.13    9.24
  -3  -4  -6   46.36   22.57
  -3  -4  -6   62.89   14.37
  -3   4   6   54.05   11.98
   3  -4   6   58.31   10.63
  -3  -4   6   44.09   11.69
  -3  -4   6   50.90    9.24
   3   4   6   56.73   14.22
   3  -4  -6   60.25    7.51
  -3   4  -6   61.24    8.94
   3   4   6   55.89   12.57
  -3  -4   6   46.07    6.74
  -3   4  -6   66.00   12.13
   3  -4  -6   35.69    8.50
  -4   4   6   67.58   20.96
  -4  -4  -6   54.97    4.91
   4  -4   6   44.93   12.97
  -4   4   6   61.60    6.63
   4   4  -6   54.16    5.86
  -4   4   6   67.87   24.11
  -4  -4  -6   60.94   15.83
  -4  -4  -6   80.04   21.26
   4  -4   6   87.04   11.98
   4   4   6   78.57   13.52
   4  -4  -6   52.37    9.02
   4   4   6   69.37   23.75
  -4  -4   6   70.44    7.15
  -4  -4   6   57.83    8.25
   4  -4  -6   61.16   11.95
  -4   4  -6   67.28    9.49
  -4   4  -6   72.56   13.96
  -5   4   6    6.67   10.26
   5  -4   6    2.35    6.41
   5   4  -6    2.49    2.68
  -5  -4  -6    5.09    7.18
  -5   4   6    5.02    7.62
  -5  -4  -6    2.53    6.96
   5  -4   6    0.15    4.07
   5   4   6    9.60   10.70
   5  -4  -6    2.64    2.93
   5   4   6   -2.20   11.25
  -5  -4   6    1.14    3.59
   5  -4  -6    3.70    5.64
  -5  -4   6    1.50    2.93
  -5   4  -6    4.80    4.65
  -5   4  -6   -2.09    9.75
  -5  -4   6    3.55    3.11
  -6  -4  -6    6.52   10.81
   6  -4   6    5.28    9.89
   6   4  -6    2.05    3.81
  -6   4   6    3.59   11.07
  -6  -4  -6    5.90   10.81
   6  -4   6   13.27    8.50
   6   4   6    7.66    7.11
   6  -4  -6    5.24    4.87
  -6  -4   6    1.50    4.10
   6  -4  -6    4.10    3.77
  -6   4  -6   -3.33    7.88
  -6  -4   6   -1.91    3.15
  -6   4  -6    1.83   11.32
   6   4   6   -2.86    8.06
  -7  -4  -6  110.97   21.66
   7  -4   6   84.10   30.16
  -7   4   6  128.04   21.18
  -7  -4  -6  123.28   18.54
   7  -4  -6  119.07   11.43
  -7  -4   6  125.96   12.28
  -7   4  -6  129.80   20.45
   7  -4  -6  125.44   12.64
  -7   4  -6  118.04   27.38
   7   4   6  132.30   26.53
  -8  -4  -6    5.17   11.07
   8  -4   6    3.55    7.99
  -8   4   6   -8.39   12.46
  -8  -4  -6    5.64   11.40
   8  -4   6    2.71    4.73
   8  -4  -6    3.66    3.30
  -8  -4   6    0.00    4.36
   8  -4  -6    6.30    7.15
  -8   4  -6    8.06    4.91
  -8  -4   6    0.66    5.61
  -8   4  -6    6.78   17.88
   8   4   6   11.91   14.92
  -9  -4  -6    0.18    6.85
   9  -4   6   -0.70    7.07
  -9  -4  -6    1.54    6.71
  -9  -4   6    2.97    4.18
   9  -4  -6    4.07    4.84
   9  -4  -6   -3.11    4.51
  -9   4  -6    2.42    4.73
  -9   4  -6    0.40   11.29
  -9  -4   6    1.61    5.39
 -10  -4  -6   51.09   14.37
  10  -4   6   31.22   21.40
  10  -4   6   21.07   22.24
 -10  -4  -6   46.25   13.27
  10   4  -6   14.33   18.76
  10  -4  -6   47.42    6.89
  10  -4  -6   53.36    8.87
 -10   4  -6   40.97   14.22
 -10   4  -6   25.65   33.68
 -10  -4   6   23.78   10.92
 -11  -4  -6   64.28   26.86
  11  -4   6   74.94   17.63
  11  -4   6   40.71   17.30
 -11  -4  -6   51.93   24.99
  11   4  -6   49.33   15.46
  11  -4  -6   58.42    8.14
  11  -4  -6   66.07   15.76
 -11   4  -6   45.08   42.99
 -11   4  -6   56.07   25.84
 -12  -4  -6  108.29   23.82
  12  -4   6  112.91   21.80
  12  -4   6   62.41   28.14
 -12  -4  -6   98.03   22.68
  12   4  -6   64.17   31.11
  12  -4  -6   92.57   13.52
 -12   4  -6  109.28   14.84
 -12   4  -6   75.09   35.62
 -12   4  -6   75.02   53.83
 -13  -4  -6   29.98   14.11
  13  -4   6    8.87   10.96
 -13  -4  -6    3.92   14.11
  13  -4  -6   22.83   11.87
 -13   4  -6   25.87   23.89
 -13   4  -6   36.28   12.64
 -13  -4   6   10.37    9.78
 -13   4  -6   15.17   34.56
 -14  -4  -6   26.17   16.89
  14  -4   6    3.26   20.01
 -14  -4  -6   43.24   16.27
  14  -4  -6   24.88    8.83
 -14   4  -6  -12.13   32.69
 -14   4  -6   32.03    8.98
 -14   4  -6   13.34   36.90
 -15  -4  -6   41.15   20.60
  15  -4   6   23.27   15.10
 -15  -4  -6   39.87   21.29
 -15   4  -6  105.25   58.96
 -15   4  -6   58.82   41.15
 -16  -4  -6    6.85   18.62
  16  -4   6   -4.80    8.65
 -16  -4  -6   -0.88   12.09
  16  -4  -6    0.77    5.86
 -16   4  -6   -6.82   29.32
 -16   4  -6  -10.00   19.28
  17  -4   6   38.11   19.57
  17  -4   6   10.08   16.23
 -17  -4  -6   14.66   23.56
  17  -4  -6    4.21    7.07
 -17   4  -6    8.87   31.96
 -17   4  -6   -2.09   22.13
   0  -5   6   -2.02    3.55
   0  -5  -6    0.51    4.54
   0   5  -6    0.33    3.52
   0   5   6   -8.28    9.34
   0   5   6    0.37    1.76
  -1  -5  -6   23.01    8.39
   1  -5   6   26.13   13.34
   1   5  -6   24.15   10.00
  -1   5   6   42.88   10.11
  -1  -5   6   27.63    4.98
   1  -5  -6   22.35    5.83
   1   5   6   28.36   16.12
  -1   5  -6   26.31    6.93
   1  -5  -6   23.67    6.93
  -2  -5  -6    4.29    3.26
   2  -5   6    0.66   12.06
   2   5  -6    1.32    6.05
   2  -5   6    1.28    5.39
  -2   5   6    1.87   10.92
   2   5   6   -1.91    6.96
  -2  -5   6   12.28    5.72
   2  -5  -6    5.46    4.07
   2   5   6    2.05    7.04
  -2   5  -6    1.65    4.80
  -2   5  -6    3.01    7.11
   2  -5  -6    3.77    2.90
  -3  -5  -6   40.71    6.30
   3  -5   6    1.10   19.94
   3   5  -6   43.24    6.71
  -3   5   6   37.16   12.02
  -3  -5  -6   50.24   14.95
  -3  -5  -6   54.16   21.04
  -3   5   6   63.07   12.53
  -3  -5   6   50.94    8.61
   3  -5  -6   49.69   12.24
   3   5   6   49.73   14.00
  -3   5  -6   42.03    8.94
   3   5   6   53.98   13.08
  -3   5  -6   29.32   14.29
   3  -5  -6   30.12    8.83
  -4   5   6   41.12   13.12
  -4  -5  -6   36.17    5.17
   4  -5   6    2.02   20.63
   4   5  -6   34.78    5.64
  -4   5   6   34.92   20.08
  -4  -5  -6   50.32   14.04
  -4  -5  -6   47.53   12.97
   4  -5   6   48.12   11.47
  -4  -5   6   44.97    8.98
   4   5   6   41.34   20.74
   4  -5  -6   41.23   11.03
   4   5   6   38.19   17.63
  -4   5  -6   38.52   14.44
  -4  -5   6   24.15   10.81
   4  -5  -6   33.35    9.13
  -5   5   6   19.79   13.71
  -5  -5  -6    4.62    3.01
   5  -5   6    1.28    8.61
  -5   5   6    6.23    4.58
   5   5  -6    7.07    3.74
  -5   5   6   11.36    8.94
  -5  -5  -6   12.72   13.52
  -5  -5  -6   13.19    8.50
   5  -5   6   15.14   11.21
   5   5   6    7.84    7.73
   5   5   6   10.08    8.65
  -5  -5   6   14.04    4.29
   5  -5  -6    7.04    5.02
  -5   5  -6   12.61    9.82
  -5  -5   6    5.97    7.88
  -5   5  -6    5.31   11.43
   5  -5  -6    3.52    4.21
   6  -5   6  157.84   28.29
  -6  -5  -6  175.10   25.87
  -6   5   6  213.91   38.88
  -6  -5  -6  194.60   24.85
   6  -5   6  236.26   32.47
  -6   5  -6  160.00   27.01
  -6  -5   6  185.47   16.42
   6  -5  -6  186.72   17.30
  -6   5  -6  187.12   28.95
  -6  -5   6  138.60   20.05
   6   5   6  206.87   29.06
   6  -5  -6  171.80   21.80
   6   5   6  165.06   26.09
  -7  -5  -6   -2.53   12.90
   7  -5   6    6.78   14.04
   7   5  -6    5.17    4.47
  -7   5   6   18.80    9.31
  -7  -5  -6   23.12   12.53
   7   5   6   10.30   13.60
   7  -5  -6    4.07    4.73
  -7  -5   6   10.22    5.28
   7  -5  -6   16.12    8.17
   7   5   6    7.48    7.99
  -7   5  -6   14.95    6.19
  -7   5  -6    5.31   11.76
  -7  -5   6    5.02    4.47
   7   5   6   26.79   18.62
  -8  -5  -6   87.18   16.16
   8  -5   6   53.06   26.94
  -8  -5  -6   85.02   14.88
   8  -5  -6   47.79   12.57
  -8  -5   6   72.38   14.26
   8  -5  -6   69.12   10.30
  -8   5  -6   74.06   11.91
  -8   5  -6   82.68   39.87
  -8  -5   6   53.87    9.49
  -9  -5  -6   16.09   16.49
   9  -5   6   13.63   12.64
  -9  -5  -6   27.45   15.17
   9  -5  -6   16.49    5.24
   9  -5  -6   20.93   10.55
  -9   5  -6   17.22   17.99
  -9  -5   6    0.77    8.47
  -9   5  -6   21.88   10.52
 -10  -5  -6   13.05    8.98
  10  -5   6   14.81   13.16
 -10  -5  -6    9.82    7.81
  10  -5  -6    3.04    4.32
  10  -5  -6    7.04    6.01
 -10   5  -6    2.24    5.86
 -10   5  -6   16.67   22.57
 -10  -5   6    6.85    7.11
 -11  -5  -6    4.54    7.33
  11  -5   6   -0.48   11.14
  11   5  -6   -3.59    9.93
  11  -5  -6    3.88    5.35
  11  -5  -6   -3.26    4.43
 -11   5  -6    6.19   21.37
 -11  -5   6    4.58    3.99
  12  -5   6   -5.72   11.80
  12  -5   6   -0.95    7.59
 -12  -5  -6   -4.40    7.22
  12   5  -6   -2.35    7.07
  12  -5  -6    5.06    3.63
  12  -5  -6   -6.19    7.55
 -12   5  -6    6.12    8.17
 -12   5  -6  -14.70   15.28
 -12  -5   6   -2.49    4.21
 -13  -5  -6   25.84   22.83
  13  -5   6   -4.62   12.79
  13  -5   6   13.93   20.63
 -13  -5  -6   25.18   20.16
  13   5  -6   14.44   18.84
 -13   5  -6   29.98    8.69
  13  -5  -6   27.89    8.36
 -13   5  -6   -1.32   25.40
 -14  -5  -6   57.32   27.71
  14  -5   6   35.84   11.54
 -14  -5  -6   69.15   25.95
  14   5  -6   -1.14   22.21
  14  -5  -6    0.66   15.87
 -14   5  -6   42.84   15.43
 -14   5  -6   12.13   33.24
 -14   5  -6   12.75   25.65
  15  -5   6    3.30   14.04
 -15  -5  -6   29.50   20.89
  15   5  -6   29.10   10.92
  15  -5  -6    5.35    7.40
 -15   5  -6   60.47   37.42
 -15   5  -6   -6.34   18.47
 -15   5  -6    6.52    7.04
 -16  -5  -6   82.02   21.22
  16  -5   6   18.18   12.90
 -16  -5  -6   31.33   19.64
  16   5  -6   27.56   14.33
 -16   5  -6   54.97   49.62
 -16   5  -6   27.52   21.37
   0   6  -6    0.11    4.25
   0  -6   6    2.38    4.18
   0  -6  -6    4.51    4.36
   0   6   6   -8.87   10.81
   0  -6  -6   -0.29    3.70
  -1  -6  -6    9.13    7.55
   1   6  -6   12.06    5.24
  -1   6   6    9.20    8.25
  -1  -6   6    1.39    3.37
   1  -6  -6    4.47    5.61
   1   6   6   12.17    7.84
  -1   6  -6    7.84    5.39
   1  -6  -6    3.41    6.89
  -2  -6  -6    0.18    6.12
  -2   6   6    0.18    1.69
   2   6  -6    1.65    3.99
  -2   6   6    8.91    7.40
   2   6   6    3.92    6.63
  -2  -6   6    5.42    3.01
   2  -6  -6    0.44    7.73
   2   6   6   -3.37    7.00
  -2   6  -6    0.95    4.62
  -2  -6   6    0.04    4.65
   2  -6  -6    0.11    3.44
  -3  -6  -6   71.39   11.07
  -3   6   6  106.79   16.60
  -3  -6  -6  107.05   18.65
  -3   6   6   83.01   27.01
   3  -6   6   90.85   16.67
   3   6   6   56.66   24.63
  -3  -6   6   79.05    8.76
   3  -6  -6   81.28   15.76
   3   6   6   99.90   19.64
  -3   6  -6   74.58   19.17
  -3  -6   6   71.83   12.06
   3  -6  -6   56.88   14.29
  -4   6   6   71.57   16.23
   4   6  -6   39.84    7.15
  -4   6   6   53.25   23.42
  -4  -6  -6   51.97   22.10
  -4  -6  -6   72.08   13.78
  -4  -6   6   46.69   10.63
   4  -6  -6   53.03    8.87
   4   6   6   66.00   23.67
  -4   6  -6   36.21   16.05
   4   6   6   55.63   14.29
  -4  -6   6   52.66    9.45
   4  -6  -6   37.75    7.40
  -5  -6  -6    0.18    3.70
   5  -6   6    2.97   10.88
   5   6  -6    5.90    6.27
  -5   6   6    7.29    8.83
  -5  -6  -6    0.84    8.54
  -5  -6  -6    5.24    7.51
   5   6   6   15.98    7.99
   5   6   6   -0.40    9.09
  -5  -6   6    9.78    6.74
   5  -6  -6   10.63    8.03
  -5   6  -6    7.66    5.94
  -5  -6   6    0.66    5.31
   5  -6  -6    4.65    6.60
   6  -6   6   10.15   16.56
  -6  -6  -6   28.51   18.84
  -6   6   6   26.97   19.42
  -6  -6  -6   48.52   16.53
   6   6   6   21.15   18.21
  -6  -6   6   28.62   10.88
   6  -6  -6   23.01   11.98
  -6   6  -6   28.77    8.61
  -6   6  -6   20.08    9.45
  -6  -6   6   19.39   10.37
   6   6   6   40.02   14.33
   6  -6  -6   21.40   10.70
   7  -6   6   22.06   14.33
  -7  -6  -6   67.17   16.01
  -7  -6  -6   69.30   13.93
   7  -6  -6   62.12   10.77
  -7   6  -6   72.30   17.37
  -7   6  -6   55.41   24.33
  -7  -6   6   29.57   13.56
   7  -6  -6   47.57    8.54
   7   6   6   54.93   16.45
   8  -6   6    1.39    7.26
  -8  -6  -6    6.27   13.08
  -8  -6  -6   -9.49   11.47
   8  -6  -6    1.03    6.19
   8  -6  -6    4.14    8.69
  -8   6  -6    1.43    9.86
  -8  -6   6    5.24    6.85
  -8   6  -6    5.53    8.61
  -9  -6  -6   14.81   11.36
   9  -6   6   16.67   14.99
  -9  -6  -6   19.24    9.78
   9  -6  -6   11.32    5.64
   9  -6  -6   18.51    7.18
  -9   6  -6   22.87    7.92
  -9   6  -6    3.77   24.11
  -9  -6   6   13.52    7.00
 -10  -6  -6    9.09    9.67
  10  -6   6    3.26    8.98
 -10  -6  -6    4.03    8.14
  10  -6  -6    2.79    5.75
 -10   6  -6    3.59   10.04
 -10   6  -6   17.33   13.74
 -10  -6   6    6.27    5.50
 -11  -6  -6    5.75   15.61
  11  -6   6    1.98   12.13
 -11  -6  -6   -1.28   13.23
  11  -6  -6    5.94    4.73
  11  -6  -6    1.39    9.27
 -11   6  -6    4.03    6.45
 -11   6  -6    0.15   26.97
 -12  -6  -6   31.92   23.34
  12  -6   6   23.38   18.84
 -12  -6  -6   40.13   19.72
  12   6  -6   17.33   20.05
  12  -6  -6   25.47    9.27
 -12   6  -6   24.26    9.53
 -12   6  -6   37.67   29.79
  13  -6   6   15.61   13.63
  13  -6   6    1.14    7.95
 -13  -6  -6   11.95    9.49
  13   6  -6    5.28    8.91
  13  -6  -6    0.66    4.69
  13  -6  -6   -1.14   10.08
 -13   6  -6    9.02    9.31
 -13   6  -6  -17.66   21.26
  14  -6   6    1.91    9.93
  14  -6   6    4.32   11.76
 -14  -6  -6   -8.76   10.88
  14   6  -6   13.38    9.56
  14  -6  -6    7.88    5.97
  14  -6  -6    5.39    6.93
 -14   6  -6   -2.49    6.74
 -14   6  -6    9.20   24.41
 -15  -6  -6    8.69   12.13
  15  -6   6   -4.07    7.40
 -15  -6  -6   14.37   10.66
  15   6  -6   -1.98   12.75
 -15   6  -6    0.44    9.60
  15  -6  -6   -0.99   10.77
 -15   6  -6   63.88   37.42
 -16  -6  -6    2.20   12.68
 -16  -6  -6    5.06   10.85
  16   6  -6   17.55   13.19
  16  -6  -6   -0.88    6.74
   0  -7  -6   -0.15    5.50
   0  -7   6    1.91    3.92
   0   7  -6   -0.22    7.07
  -1  -7  -6    0.59    5.57
   1   7  -6    4.73    7.11
   1  -7  -6   -0.81    8.83
  -1  -7   6    2.31    4.21
   1   7   6   12.53    7.66
  -1   7  -6   -3.15    7.99
  -1  -7   6    0.70    5.57
   1  -7  -6   -2.46    6.89
   2  -7   6    2.38   12.39
   2   7  -6   24.44   10.52
  -2   7   6   19.24   11.10
   2   7   6   39.91   17.26
   2  -7  -6   26.09    8.32
  -2  -7   6   15.14    4.84
  -2   7  -6   13.34    7.66
   2  -7  -6   12.53    6.78
  -3  -7  -6    0.59    9.60
   3  -7   6    2.13   13.60
   3   7  -6    6.60    7.81
  -3   7   6    4.36    8.21
  -3   7   6   12.13   14.77
   3  -7   6    0.37    7.51
   3   7   6   -0.37    8.54
   3  -7  -6    5.28    6.23
  -3  -7   6    5.90    4.14
   3   7   6   10.22    9.75
  -3   7  -6    7.18    6.01
  -3  -7   6    5.39    5.72
   3  -7  -6    4.69    7.18
  -4   7   6   56.69   16.23
   4  -7   6    0.70   21.69
   4   7  -6   18.14   11.07
  -4  -7  -6   52.66   15.03
   4  -7  -6   46.50   15.54
  -4   7  -6   41.26    9.64
   4   7   6   46.65   14.00
  -4  -7   6   50.72   15.54
   4  -7  -6   24.77    8.28
  -5   7   6   22.35   18.10
  -5  -7  -6    0.44    9.16
   5  -7   6   -0.62    9.97
   5   7  -6   13.56    7.77
  -5  -7  -6   17.19   16.86
   5  -7  -6    8.17    6.56
  -5   7  -6   16.86   10.92
   5   7   6    3.81   16.56
  -5  -7   6   13.34   11.14
   5  -7  -6   16.71    8.28
   6  -7   6   53.03   18.58
   6   7  -6   61.82   10.11
  -6  -7  -6  102.87   20.85
  -6  -7  -6  101.66   17.63
   6  -7  -6  101.44   13.23
  -6   7  -6   98.76   21.15
  -6  -7   6   76.89   22.57
   6  -7  -6   87.55   10.77
   7  -7   6   -1.80    9.60
   7   7  -6   -2.86    3.04
  -7  -7  -6   -0.04   11.95
  -7  -7  -6    4.36    9.97
   7  -7  -6    1.61    7.62
  -7   7  -6    6.96    5.09
  -7  -7   6    2.09    4.62
   7  -7  -6   -4.10    5.64
   8  -7   6    9.49    9.82
  -8  -7  -6   30.34   11.40
  -8  -7  -6   24.00   10.26
   8  -7  -6    0.88    7.44
  -8   7  -6   18.73    7.66
  -8  -7   6    6.89    7.18
   8  -7  -6    9.89    5.64
   9  -7   6   25.51   12.72
  -9  -7  -6   48.67   16.09
  -9  -7  -6   40.60   13.49
   9  -7  -6   30.97   15.98
  -9   7  -6   16.60   14.62
  -9  -7   6   27.19   15.50
 -10  -7  -6    1.43   13.71
  10  -7   6   -5.39   11.98
  10  -7  -6    0.81    4.25
  10  -7  -6    5.57    4.95
 -10   7  -6   -2.93    6.23
 -10   7  -6    3.19    9.09
 -10  -7   6    1.25    3.08
 -11  -7  -6   20.34   10.88
  11  -7   6    5.72    9.78
  11  -7  -6   13.23    6.45
 -11   7  -6    2.24    7.37
 -11   7  -6  -12.68   19.68
 -12  -7  -6    0.07   12.83
  12  -7   6    8.03    9.71
 -12  -7  -6   11.58   10.33
  12  -7  -6    7.73    6.23
  12  -7  -6   20.74   11.95
 -12   7  -6    7.70   11.95
 -12   7  -6    2.05   26.90
 -13  -7  -6   49.07   18.87
  13  -7   6   23.67   22.02
 -13  -7  -6   29.39   16.12
  13  -7  -6   42.77   11.40
 -13   7  -6   28.95   10.96
 -13   7  -6   25.43   27.63
  14  -7   6  -12.42   14.70
 -14  -7  -6   23.49   19.13
  14  -7  -6    3.41   10.92
 -14   7  -6   -2.05   10.11
 -14   7  -6   10.22   17.00
 -15  -7  -6    1.76   21.37
  15  -7   6    2.38    9.56
  15  -7   6    4.03   13.16
 -15  -7  -6   -1.80   17.33
  15   7  -6   11.87    8.98
  15  -7  -6    7.59    6.78
  15  -7  -6   -2.38    7.40
 -15   7  -6    7.66    6.63
 -15   7  -6   -1.47   17.59
   0  -8  -6    0.70    8.03
   0   8  -6   13.56    6.63
  -1  -8  -6   -0.40   16.67
   1   8  -6   32.80    8.47
   1  -8  -6   41.26   10.11
  -1  -8   6   21.29    4.98
  -1   8  -6   20.52    8.61
   1   8   6   49.73   13.93
  -1  -8   6    3.77   10.77
  -2  -8  -6    0.88   10.33
   2  -8   6    0.11    9.56
   2   8  -6    0.04    4.84
   2  -8   6    1.28    6.34
   2  -8  -6    6.78    9.34
  -2   8  -6    4.21    4.91
  -2  -8   6   -2.38    5.97
   2  -8  -6    1.06    7.99
  -3  -8  -6    0.04    9.82
   3  -8   6    2.16   18.36
   3   8  -6   15.32    7.00
   3  -8   6    2.27   15.98
   3  -8  -6   27.49   13.16
  -3   8  -6   12.35   12.02
  -3  -8   6   30.23    8.87
   3  -8  -6   17.96    8.06
  -4  -8  -6   -1.14    6.96
   4  -8   6   -1.25    7.81
   4   8  -6   -3.52    4.62
   4  -8   6    2.49    6.93
   4  -8  -6   -1.10    5.90
  -4   8  -6   -5.83    8.54
  -4  -8   6    9.05    9.42
   4  -8  -6    3.08    7.44
  -5  -8  -6    0.73    8.10
   5  -8   6    0.33    9.86
   5   8  -6   13.34    5.42
  -5  -8  -6   21.26   10.96
   5  -8  -6   10.04   12.57
  -5   8  -6    9.16    7.15
  -5  -8   6   11.47   11.98
   5  -8  -6    8.47    5.46
  -6  -8  -6   -0.07   10.33
   6  -8   6    8.76   18.87
   6   8  -6   10.48    5.31
  -6  -8  -6    1.76   16.89
  -6  -8  -6   27.38   15.03
   6  -8  -6   11.54    7.22
  -6   8  -6    7.48    6.63
  -6  -8   6    2.13    7.92
   6  -8  -6    6.12    7.66
   7  -8   6   10.77    8.91
   7   8  -6    0.77    6.23
  -7  -8  -6   13.63   10.59
  -7  -8  -6    9.45    9.02
   7  -8  -6    5.79    6.82
  -7   8  -6    5.24   10.33
   7  -8  -6    1.06    5.02
   8  -8   6   12.46    8.69
  -8  -8  -6    5.79   16.09
  -8  -8  -6    8.58   13.93
   8  -8  -6    3.19   10.70
  -8   8  -6    2.46    6.41
   8  -8  -6   -2.86    8.21
   9  -8   6    5.75   17.26
  -9  -8  -6   25.29   21.04
  -9  -8  -6   24.33   17.55
   9  -8  -6    9.20    8.69
  -9   8  -6   17.70    8.47
   9  -8  -6   17.66    7.00
  10  -8   6    6.30    9.82
 -10  -8  -6    4.29   12.02
 -10  -8  -6    4.91    9.64
  10  -8  -6    9.05   11.65
 -10   8  -6    6.96   11.07
  11  -8   6    2.42   12.02
 -11  -8  -6   20.67   13.89
 -11  -8  -6   26.72   11.40
  11  -8  -6    7.04    6.71
 -11   8  -6    8.14    8.50
  12  -8   6   23.53   16.78
 -12  -8  -6    8.36   20.56
 -12  -8  -6    0.95   17.08
  12  -8  -6   11.47    7.51
 -12   8  -6   -0.51    8.17
 -13  -8  -6   -7.51   21.00
  13  -8   6    2.49    9.97
 -13  -8  -6   11.07   16.93
  13  -8  -6    3.99    7.26
  13  -8  -6   28.51   12.13
 -13   8  -6    5.86    7.51
 -14  -8  -6   23.31   15.50
  14  -8   6    0.59   16.89
 -14  -8  -6   33.46   12.31
  14  -8  -6    1.87    9.16
   0  -9  -6    3.88   12.39
   0   9  -6    0.77    9.02
  -1  -9  -6    0.44   10.96
   1   9  -6   13.01   12.13
   1  -9  -6   17.44   10.11
  -1   9  -6   15.03    7.73
  -2  -9  -6    1.91   14.73
   2   9  -6   32.62   15.72
   2  -9  -6   46.07   13.19
  -2   9  -6   35.84   10.22
  -3  -9  -6    1.36   10.15
   3   9  -6   -0.55   11.18
   3  -9  -6    6.08   14.04
  -3   9  -6   11.40    6.74
   3  -9  -6    6.30    7.44
  -4  -9  -6    2.31   24.66
   4  -9   6    2.20   16.71
   4   9  -6   54.42   16.78
   4  -9  -6   52.95   20.12
  -4   9  -6   33.64   15.28
   4  -9  -6   50.06   11.98
  -5  -9  -6    1.39   14.33
   5  -9   6    1.80    9.49
   5   9  -6    8.17    9.38
   5  -9  -6    3.55    7.92
  -5   9  -6    1.72    9.89
   5  -9  -6    5.09    8.65
  -6  -9  -6    2.60   18.91
   6  -9   6   -0.44   22.90
   6   9  -6   31.59    9.60
   6  -9  -6   37.89   19.20
  -6   9  -6   31.85   10.04
   6  -9  -6   30.64    9.13
   7  -9   6   -5.83    9.16
   7   9  -6    6.67    4.95
   7  -9  -6    0.11    7.22
  -7   9  -6    5.57    6.30
   7  -9  -6    1.76    8.36
   8  -9   6    6.27   12.86
  -8  -9  -6   -3.74   10.96
  -8  -9  -6   -6.23   13.49
   8  -9  -6    0.84    6.89
  -8   9  -6    7.88    9.53
   8  -9  -6    2.57    5.39
   9  -9   6   -4.47   14.29
  -9  -9  -6  -10.30   10.81
   9  -9  -6   -6.41   11.07
  -9   9  -6   -2.49    6.56
   9  -9  -6    8.14    9.20
  10  -9   6    3.66    9.53
 -10  -9  -6  -15.43   18.47
 -10   9  -6   -3.92    7.29
  10  -9  -6   -2.60    6.27
  11  -9   6    9.02   17.37
 -11  -9  -6  -14.18   21.18
 -11  -9  -6   17.63   16.75
  11  -9  -6   16.64   14.59
 -11   9  -6    5.28   12.86
  12  -9   6    7.55   10.88
 -12  -9  -6  -10.66   13.01
 -12  -9  -6    7.26    9.56
  12  -9  -6    7.99    7.40
  12  -9  -6   10.44    8.03
 -12   9  -6   -2.24    7.81
  13  -9   6   19.90   11.58
 -13  -9  -6  -14.66   16.20
 -13  -9  -6   17.33   11.84
  13  -9  -6    9.13   15.54
 -13   9  -6   15.68   13.82
   0 -10  -6   34.81   17.66
  -1 -10  -6    0.22   11.54
   1 -10  -6   -1.14   18.14
  -1  10  -6   12.97   10.55
  -2 -10  -6   -0.07   21.99
   2 -10  -6   32.80   14.18
  -2  10  -6   15.87   13.93
  -3 -10  -6    0.37   25.25
   3 -10  -6   19.24   14.07
  -3  10  -6   28.99    9.02
  -4 -10  -6    0.04   20.08
   4 -10   6    0.00   10.92
   4 -10  -6    4.84    7.66
  -5 -10  -6   -1.28   10.52
   5 -10   6    0.73   14.92
   5 -10  -6   16.64    8.72
  -5  10  -6   -2.86    5.75
   5 -10  -6   -0.18   11.29
  -6 -10  -6    0.66   10.15
   6 -10   6   -4.62    9.78
   6 -10  -6   -4.29    8.91
   6 -10  -6    7.48    6.38
  -7 -10  -6   -0.88   10.88
   7 -10   6    8.50   10.11
   7  10  -6    4.80    9.89
  -7 -10  -6    3.99   11.87
   7 -10  -6   -5.50   13.63
  -7  10  -6   -0.40    7.00
   7 -10  -6   17.41   11.03
   8 -10   6   -6.12   14.92
   8  10  -6   -3.11    5.13
  -8 -10  -6   13.45   11.32
   8 -10  -6    4.43    8.50
  -8  10  -6    6.16    6.67
   8 -10  -6    5.75    6.45
   9 -10   6   15.39    9.16
   9 -10  -6   -1.03   12.83
  -9  10  -6   -4.51   10.85
   9 -10  -6    0.11   10.37
  10 -10   6    2.90   10.88
 -10 -10  -6   20.52   14.11
 -10 -10  -6   -8.65   17.30
  10 -10  -6    8.36   10.33
 -10  10  -6   10.81    8.98
  10 -10  -6    9.64    8.80
  11 -10   6   -5.39   15.17
 -11 -10  -6   -9.20   12.46
 -11 -10  -6    5.13    9.38
 -11  10  -6    9.53    7.40
  11 -10  -6   24.33   12.35
   0 -11  -6  -10.88   15.90
  -1 -11  -6   -1.76   16.38
   1 -11  -6   38.55   24.81
  -2 -11  -6   21.51   34.89
   2 -11  -6   50.72   31.22
  -3 -11  -6    7.92   30.09
   3 -11  -6   46.76   15.76
  -3  11  -6   -5.75   13.49
  -4 -11  -6   44.82   18.36
   4 -11  -6   10.37   15.65
  -4  11  -6    5.39    8.80
   4 -11  -6   22.17   11.47
   5 -11   6   20.41   20.60
   5 -11  -6   13.85   21.40
  -5  11  -6   10.55    7.81
   5 -11  -6    8.10   10.77
  -6 -11  -6   -3.15   16.27
   6 -11   6    5.17   12.46
   6 -11  -6   15.65   13.01
  -6  11  -6    3.66   12.06
   6 -11  -6   23.56   14.33
  -7 -11  -6  -10.92   14.07
   7 -11   6   21.29   11.03
   7 -11  -6   30.16   18.54
  -7  11  -6   -1.61   12.20
   7 -11  -6    1.54    9.31
   8 -11   6    3.96   15.90
   8  11  -6    0.66    8.87
   8 -11  -6    2.93    9.86
  -8  11  -6    6.19    7.26
   8 -11  -6   -1.21   12.39
   9 -11   6    6.16   10.81
  -9 -11  -6   29.17   12.97
   9 -11  -6   -6.16   10.15
  -9  11  -6   -7.26   11.69
   9 -11  -6    6.56    8.58
 -10 -11  -6    4.98   13.67
   0 -12  -6    0.07   12.13
  -1 -12  -6   34.52   32.87
   1 -12  -6   18.10   20.74
  -2 -12  -6   54.20   32.80
   2 -12  -6   -2.31   29.50
  -3 -12  -6    7.95   11.76
  -3  12  -6    9.38   10.30
   4 -12  -6   12.61   14.00
  -4  12  -6    1.39    7.55
   4 -12  -6   35.80   16.53
  -5 -12  -6    0.26   12.02
   5 -12   6    0.07   11.25
  -5  12  -6   -1.25    6.52
   5 -12  -6    4.62    9.31
  -6 -12  -6    2.24   10.74
   6 -12  -6   -7.51   12.42
  -6  12  -6   -4.54    7.55
   6 -12  -6   -6.67   14.15
  -7 -12  -6    9.13    9.75
   7 -12   6    4.87   11.62
   7 -12  -6  -11.07   12.61
  -7  12  -6    6.60   12.17
   7 -12  -6    9.20   10.00
   0 -13  -6   11.51   15.03
  -1 -13  -6   -0.84   23.64
  -2 -13  -6   20.05   21.26
  -3 -13  -6   29.83   18.32
   3 -13  -6    0.73   16.38
   0   0   7   21.62    7.22
   0   0  -7    1.80    2.35
   1   0   7   12.13    9.86
  -1   0   7   19.79   15.50
   1   0  -7   19.46    5.57
  -1   0   7   42.22    9.49
  -2   0   7    4.03    5.86
   2   0  -7    1.54    4.14
  -2   0   7    4.36    6.01
   2   0   7   -1.98   11.84
   3   0  -7   27.71    6.38
  -3   0   7   31.55   14.92
  -3   0   7   37.89   10.66
  -3   0  -7   34.26   14.26
   3   0   7   27.27   13.01
   4   0  -7    2.90    3.74
  -4   0   7   -3.55    5.31
  -4   0  -7    3.74   11.65
   4   0   7   -6.38    9.09
   5   0  -7   12.50    5.79
  -5   0   7    8.28   10.88
  -5   0  -7   12.28   10.99
   5   0   7    7.37   16.01
   6   0  -7    4.29    4.51
  -6   0   7   -3.88    5.31
  -6   0  -7   -2.57    8.50
  -6   0  -7    5.68   12.75
   7   0  -7   13.93    6.74
  -7   0  -7   10.11   17.63
  -7   0   7    8.76   11.51
  -7   0  -7   15.65   11.62
   8   0  -7    2.90    3.70
  -8   0  -7   -2.27   13.67
  -8   0   7    0.81    6.05
  -8   0  -7   -1.47   14.00
  -9   0  -7   26.75   16.42
   9   0  -7   64.97    8.43
   9   0   7   72.23   18.98
  -9   0  -7   37.27   18.40
 -10   0  -7   -5.02    7.51
  10   0  -7    0.00    3.81
  10   0   7   12.46    8.91
 -10   0  -7   -3.52    8.72
 -11   0  -7    0.88   20.27
  11   0  -7   19.13    9.97
 -11   0  -7   11.98   21.40
 -12   0  -7   -0.15   12.28
  12   0  -7    4.65    7.88
 -12   0  -7    5.61   21.33
 -13   0  -7   28.07   13.63
  13   0  -7   -0.70    5.50
 -13   0  -7    0.00   16.31
 -14   0  -7    7.84   21.95
  14   0  -7   -5.24    6.08
 -14   0  -7   -9.02   19.90
 -15   0  -7   52.73   37.71
 -15   0  -7   28.69   33.94
   0  -1   7  699.37   60.21
   0   1   7  763.58   66.62
   0  -1  -7  604.97   40.31
   1  -1   7   12.90   14.48
  -1   1   7   22.61   10.44
   1   1  -7   28.14    3.66
   1   1   7   32.32   16.75
  -1  -1   7   13.34    8.80
   1  -1  -7   21.04    6.12
  -2   1   7  194.60   32.47
   2   1  -7  138.16   12.97
   2  -1   7  165.79   21.77
   2   1   7  135.48   21.26
  -2  -1   7  152.67   27.71
   2  -1  -7  144.24   14.40
   3   1  -7    3.85    4.43
  -3   1   7    6.67    6.96
  -3  -1  -7    1.61   13.63
   3  -1   7    8.91    8.17
   3  -1  -7    0.29    4.29
  -3  -1   7    1.91    5.09
   3   1   7    1.61    7.37
  -3   1  -7    4.14    8.61
   3   1   7    6.63   12.09
   4   1  -7   70.33    9.38
  -4   1   7   58.56   21.40
  -4  -1  -7   68.57   29.61
  -4  -1  -7   77.58   19.06
   4  -1   7   89.09   27.63
   4  -1  -7   71.53   10.55
  -4  -1   7   83.63   17.22
   4   1   7   87.11   17.00
  -4  -1   7   66.00   21.77
  -4   1  -7   93.23   29.87
   4   1   7   67.47   17.63
  -4  -1   7   64.94   14.59
   5   1  -7    3.59    4.95
  -5   1   7    2.02    7.00
  -5  -1  -7    3.01    9.86
  -5  -1  -7    0.07    8.94
   5  -1  -7    6.78    5.50
  -5  -1   7    1.69    5.17
   5   1   7    9.78    8.28
  -5  -1   7    3.15    6.27
  -5   1  -7    9.13    9.31
   5   1   7    4.69    9.67
  -5  -1   7    6.08    4.95
   6   1  -7   47.86    8.98
  -6   1   7   48.26   19.46
  -6  -1  -7   35.91   17.92
  -6  -1  -7   47.53   16.12
   6  -1  -7   53.43    9.60
  -6  -1   7   41.08   15.21
  -6   1  -7   28.44   26.75
  -6  -1   7   64.39   10.08
   7   1  -7    4.40    4.54
  -7   1   7    1.58    6.08
  -7  -1  -7   -9.42   12.64
  -7  -1  -7   -7.33    7.37
   7  -1  -7    0.07    3.08
  -7   1  -7    0.73    8.65
   8   1  -7   -0.29    5.46
  -8  -1  -7    2.86    8.25
  -8  -1  -7    2.05    9.09
   8  -1  -7    3.92    3.88
  -8  -1   7    6.71    8.87
  -8   1  -7    2.60   16.31
   9   1  -7    6.52    3.99
  -9  -1  -7    4.84   13.63
  -9  -1  -7   -0.99   14.95
   9  -1  -7    5.72    4.29
  -9  -1   7   -1.80    6.16
  -9   1  -7   11.76   10.48
 -10  -1  -7   27.74   14.26
  10   1  -7   28.07    6.89
 -10  -1  -7   31.19   15.14
 -10   1  -7   14.88   21.55
  10  -1  -7   31.11   11.40
 -10   1  -7   44.64   16.31
 -11  -1  -7   11.14   11.14
  11   1  -7    6.01    4.95
 -11  -1  -7    3.70   11.54
 -11   1  -7    9.27   10.99
  11  -1  -7    6.52    8.61
 -11   1  -7  -14.62   20.89
 -12  -1  -7   12.39   26.13
  12  -1   7   46.76   19.42
 -12  -1  -7   36.94   30.34
 -12   1  -7   20.96   20.60
  12  -1  -7   46.36    8.87
 -12   1  -7   11.03   23.67
 -13  -1  -7  -11.10   14.26
 -13  -1  -7    8.72   28.51
 -13   1  -7   37.89   26.53
  13  -1  -7   13.01    7.04
 -13   1  -7   19.24   20.34
 -14  -1  -7   -0.55   15.21
 -14  -1  -7    6.93   18.51
  14  -1  -7    6.16   10.11
 -14   1  -7    9.71   20.63
 -15  -1  -7    0.55   15.14
 -15  -1  -7   -6.23   18.80
  15  -1  -7    6.74    6.56
 -15   1  -7   -3.96   23.16
   0   2   7    1.87    4.91
   0  -2  -7    2.79    3.96
   0   2   7    2.02    4.40
   0   2  -7    6.45    5.68
   0  -2   7    2.31    9.16
  -1  -2  -7    1.39    3.92
   1   2  -7    5.17    3.77
  -1   2   7    3.41    8.76
   1  -2   7   14.48    6.74
   1   2   7   14.29    9.13
  -1  -2   7    6.05    6.27
   1   2   7    3.48    8.76
   1  -2  -7    5.20    4.87
   1   2   7   12.64    5.06
  -2   2   7  180.08   21.15
   2   2  -7  115.44   10.11
   2  -2   7  152.12   21.84
   2   2   7  148.13   33.72
   2   2   7  110.67   24.48
  -2  -2   7  144.02   24.55
   2  -2  -7  120.02   12.94
   2   2   7  146.81   13.52
  -2  -2   7  137.43   17.48
  -3   2   7   51.27   21.69
   3   2  -7   51.71    5.61
   3  -2   7   10.88   21.55
   3   2   7   56.95   14.77
  -3  -2   7   58.31   10.55
   3  -2  -7   45.00    9.16
   3   2   7   57.98    8.98
  -3   2  -7   45.44   15.61
  -3  -2   7   65.05    8.65
  -4   2   7    6.82    5.64
  -4  -2  -7   -4.47    8.10
  -4  -2  -7    0.44    7.59
   4  -2  -7   -1.17    4.51
  -4  -2   7    2.64    4.10
  -4  -2   7    1.25    5.83
  -5   2   7   29.10   17.63
  -5  -2  -7   17.44   15.61
  -5  -2  -7   31.70   21.18
  -5  -2   7   36.13   11.32
   5  -2  -7   28.88    8.54
  -5  -2   7   15.28   12.28
  -5   2  -7   44.64    7.70
  -5   2  -7   30.64   15.25
  -6  -2  -7   75.46   32.95
  -6  -2  -7   81.43   19.39
  -6  -2   7   98.32   11.98
   6  -2  -7   77.14    8.94
  -6  -2   7   74.98   12.09
  -6   2  -7   83.12   11.76
  -6   2  -7   71.79   32.54
  -7  -2  -7   -5.75    9.64
  -7  -2  -7   12.02   14.70
   7  -2  -7    8.10    4.47
  -7  -2   7    0.81    8.72
  -7   2  -7   10.59    5.79
  -7   2  -7    5.39   11.43
  -8  -2  -7   20.71   20.12
  -8  -2  -7   29.21   14.04
   8  -2  -7   34.67    7.07
  -8  -2   7   25.43    7.77
  -8   2  -7   35.77    8.28
  -8   2  -7   49.55   26.24
  -9  -2  -7    2.16    7.11
  -9  -2  -7   -1.47    8.36
   9  -2  -7   -4.54    6.82
  -9  -2   7    3.37    6.67
  -9   2  -7   -9.97   10.70
 -10  -2  -7   -3.88   15.06
 -10  -2  -7   21.84   18.18
  10  -2  -7    9.78    9.05
 -10   2  -7   17.63   22.10
 -11  -2  -7   16.53   10.85
 -11  -2  -7   12.46   12.31
  11  -2  -7    9.09    6.19
 -11   2  -7   10.52   25.58
 -12  -2  -7   14.37    9.20
 -12  -2  -7    0.55   10.48
  12  -2  -7   -2.02    5.17
 -12   2  -7   -8.21   13.34
 -13  -2  -7   -3.37   18.43
 -13  -2  -7    3.33   12.42
  13  -2  -7    0.95    9.31
 -13   2  -7   11.80   18.47
 -14  -2  -7   59.88   38.30
 -14  -2  -7   67.25   42.69
  14  -2  -7   51.75   11.98
 -14   2  -7   11.40   41.01
 -15  -2  -7   17.00   25.73
 -15  -2  -7   -7.15   29.79
  15  -2  -7    6.01    7.07
 -15   2  -7    3.88   40.38
   0   3  -7  234.98   18.43
   0  -3  -7  198.15   19.13
   0  -3   7  268.70   27.85
   0   3   7  248.54   27.23
   0  -3   7  288.15   40.35
  -1  -3  -7   23.64    6.41
   1  -3   7   38.26    9.97
  -1   3   7   34.85   10.19
   1   3  -7   28.29    6.08
  -1   3   7   28.77   14.48
   1  -3   7   25.10   10.92
   1   3   7   57.72   13.96
   1  -3  -7   25.07    7.88
  -1  -3   7   42.33    9.67
  -1   3  -7   34.34    6.34
  -1  -3   7   35.62    9.02
  -1  -3   7   23.56    5.79
  -2   3   7   24.74    9.05
  -2   3   7   28.18   12.35
   2  -3   7   21.18   10.52
  -2   3   7   31.00    5.97
   2   3  -7   26.28    5.31
  -2  -3   7   15.94    8.94
   2   3   7   23.67   14.99
  -2  -3   7   30.64   11.14
   2   3   7   44.16   20.27
   2  -3  -7   29.21    7.29
  -2  -3   7   34.74    8.39
  -2   3  -7   34.15    6.71
   3  -3   7    7.95    8.43
  -3   3   7   10.04    6.82
  -3   3   7   16.05   13.71
  -3   3   7    4.25   10.44
  -3  -3   7   12.79    5.02
   3   3   7    7.66    8.06
  -3  -3   7    5.31    8.80
   3  -3  -7   12.39    6.23
  -3  -3   7   11.87    5.79
  -3   3  -7    7.84    5.42
  -3   3  -7   20.74   14.77
   4  -3   7    9.53    9.13
  -4   3   7    3.08    7.11
   4   3  -7    5.97    5.72
  -4  -3  -7   16.31   11.65
  -4  -3  -7   15.21   10.85
  -4  -3   7   17.55    5.42
  -4  -3   7    4.98    5.53
   4  -3  -7   14.48    6.52
  -4  -3   7   10.04   10.15
  -4   3  -7   12.64    5.64
  -4   3  -7   14.07   16.42
   5  -3   7   17.26   10.74
   5   3  -7   11.84    3.63
  -5  -3  -7   15.54   13.16
  -5   3   7    9.31    6.67
  -5  -3  -7   15.50   11.65
  -5  -3   7   15.39    9.45
   5  -3  -7   21.26    4.98
  -5   3  -7   16.93    6.78
  -5   3  -7   24.22   12.94
   6  -3   7   11.36    9.31
  -6  -3  -7   11.58   14.81
  -6  -3  -7    5.72    9.89
  -6  -3   7   14.59    8.98
   6  -3  -7    9.42    4.91
  -6   3  -7    8.28    6.71
  -6   3  -7   14.40   16.09
   7  -3   7    1.06   11.10
  -7  -3  -7   -6.52    6.96
  -7  -3  -7   -0.33    7.48
   7  -3  -7    1.47    3.74
  -7   3  -7    4.47    7.59
  -8  -3  -7    4.36   12.97
  -8  -3  -7   17.48   13.71
   8  -3  -7    2.68    7.92
  -8   3  -7   -0.40    9.16
  -8   3  -7   10.55   17.88
  -9  -3  -7   14.33   11.98
  -9  -3  -7   24.04   13.38
   9  -3  -7   22.35   11.43
  -9   3  -7   33.06    8.61
  -9   3  -7   19.50   18.36
 -10  -3  -7   15.98   12.79
 -10  -3  -7   37.86   14.11
  10  -3  -7   32.03    7.88
 -10   3  -7   17.85    9.05
 -10   3  -7   18.25   30.56
 -11  -3  -7   18.98   22.17
 -11  -3  -7   25.25   23.09
  11  -3  -7   26.97    8.32
 -11   3  -7   21.51   35.95
 -12  -3  -7   55.67   18.25
 -12  -3  -7   39.40   19.06
  12  -3  -7   42.11   16.53
 -12   3  -7   31.70   27.85
 -13  -3  -7   42.66   21.77
 -13  -3  -7   36.72   22.43
  13  -3  -7   49.84   11.43
 -13   3  -7   48.26   33.72
 -14  -3  -7    6.01   15.21
 -14  -3  -7   10.19   15.61
  14  -3  -7   10.99    7.81
 -14   3  -7   -4.14   40.64
   0  -4  -7   -3.85    4.25
   0   4  -7    2.49    3.48
   0   4   7   -5.13    9.64
  -1   4   7   -3.85    6.49
  -1  -4  -7   -0.29    4.10
   1   4  -7    3.99    3.37
   1  -4  -7    7.18    5.06
  -1   4  -7    0.66    3.96
   1   4   7   -3.99    6.71
  -2   4   7  188.95   33.94
   2   4  -7  132.77   12.28
  -2  -4   7  150.88   19.02
   2   4   7  172.02   22.32
   2  -4  -7  155.97   17.00
  -2   4  -7  153.48   15.14
  -3   4   7   10.19    7.18
   3   4  -7   -1.10    4.95
  -3  -4   7    8.06    6.08
   3   4   7    2.57   10.37
   3  -4  -7   -0.26    5.46
  -3   4  -7    3.59    4.73
   4   4  -7   11.76    6.05
  -4   4   7    7.77    4.29
  -4   4   7   11.65   12.42
  -4  -4  -7    1.91    9.97
  -4  -4   7   12.09    5.39
   4   4   7   12.17    8.47
   4  -4  -7   10.92    4.73
  -4  -4   7    2.75   11.21
  -4   4  -7   13.52    6.12
  -4   4  -7   13.74    9.05
   5   4  -7    0.00    2.79
  -5   4   7    2.46    6.71
  -5  -4  -7   -1.87   12.09
  -5  -4  -7    4.07    8.43
  -5  -4   7    0.59    4.43
   5  -4  -7    2.42    4.10
  -5  -4   7    1.91    5.31
  -5   4  -7    6.71    8.36
  -5   4  -7   15.21    7.73
   6  -4   7  170.55   40.46
  -6  -4  -7  158.13   28.33
  -6  -4  -7  197.23   40.90
  -6   4   7  167.48   27.67
   6  -4  -7  174.07   17.00
  -6   4  -7  167.77   26.97
  -6   4  -7  195.84   43.76
   7  -4   7    6.19   10.08
  -7  -4  -7    0.81   14.73
  -7  -4  -7   22.54   10.00
  -7   4   7    0.62   14.51
   7  -4  -7    2.71    9.09
  -7   4  -7   12.35    6.89
  -7   4  -7    8.32   11.84
  -8   4   7   30.82   27.71
   8  -4   7   53.50   17.11
  -8  -4  -7   42.29   17.22
  -8  -4  -7   50.83   17.04
   8  -4  -7   69.70   10.55
  -8   4  -7   70.84   12.02
  -8   4  -7   36.17   37.89
   9  -4   7    3.19   10.77
  -9  -4  -7   14.37   15.57
  -9  -4  -7    2.27   15.50
   9  -4  -7   13.85    6.19
  -9   4  -7    1.83    7.33
  -9   4  -7   14.07   15.50
 -10  -4  -7   -5.50    8.47
 -10  -4  -7   -3.41    8.47
  10  -4  -7   12.68    8.47
 -10   4  -7    3.55    8.94
 -10   4  -7   -0.70   20.49
 -11  -4  -7    3.11   11.32
 -11  -4  -7    2.02   11.43
  11  -4  -7    1.50   10.96
 -11   4  -7   16.42    7.59
 -11   4  -7   10.52   29.65
 -12  -4  -7  -10.04   17.22
  12  -4  -7    7.95    6.41
 -12   4  -7    3.01    6.49
 -12   4  -7   -6.34   18.80
 -13  -4  -7   72.85   29.50
 -13  -4  -7   10.48   29.46
  13  -4  -7   21.22   16.05
 -13   4  -7   24.92   32.18
 -14  -4  -7   46.39   30.56
 -14  -4  -7   13.19   30.20
  14  -4  -7   27.05   10.41
 -14   4  -7   40.49   50.83
   0   5   7    9.27    8.10
   0  -5  -7    7.26    6.93
   0   5  -7    3.55    7.84
  -1   5   7   -4.87   10.37
   1   5  -7    5.94    6.12
   1  -5  -7    0.81    4.69
  -1   5  -7   -1.61    6.89
   1   5   7   -0.40    6.93
  -2  -5  -7    4.32    4.87
  -2   5   7   16.27    7.40
  -2  -5   7    0.55    3.55
   2  -5  -7    4.98    3.70
  -2   5  -7    2.31    8.25
   2   5   7   -5.68   11.69
   3   5  -7    6.41    6.01
  -3   5   7    8.47   14.18
  -3  -5   7    9.31    7.55
   3   5   7    5.13    9.05
   3  -5  -7   11.91    4.87
  -3   5  -7    8.39    9.53
   4   5  -7    1.47    3.44
  -4   5   7    1.94    8.14
  -4  -5   7    2.05    7.04
   4  -5  -7    8.87    4.54
  -4   5  -7    0.15    8.87
  -5  -5  -7   13.82   12.53
  -5  -5  -7   21.51   19.24
  -5   5   7   27.16   19.13
  -5  -5   7   24.70    6.78
   5  -5  -7   22.94   11.14
  -5   5  -7   21.07    8.58
  -6  -5  -7    4.29   14.84
  -6  -5  -7    2.38    9.38
  -6   5   7    5.42   10.41
   6  -5  -7    5.75    8.83
  -6   5  -7   10.19    6.52
  -6   5  -7    7.51    8.76
  -7  -5  -7    5.72    9.64
  -7  -5  -7   11.58   14.33
   7  -5  -7    7.66    5.94
  -7   5  -7    1.87    6.60
  -7   5  -7    7.07    8.94
  -8  -5  -7   14.15   12.94
  -8  -5  -7    1.69    7.70
   8  -5  -7   -0.26    3.52
   8  -5  -7    5.94    5.53
  -8   5  -7   -5.53    9.45
  -8   5  -7    6.71   14.99
  -9  -5  -7    3.08    9.86
  -9  -5  -7    9.24    9.38
   9  -5  -7    7.81    9.53
  -9   5  -7   -0.37    6.56
  -9   5  -7    6.08   11.98
  10  -5   7   -4.14   12.83
 -10  -5  -7   -0.92   12.17
 -10  -5  -7   19.61   18.54
  10  -5  -7   17.30    7.59
 -10   5  -7   13.16    8.28
 -10   5  -7    6.12   16.64
  11  -5   7    3.63   15.10
 -11  -5  -7    0.51   15.32
 -11  -5  -7    0.51   15.14
  11  -5  -7    1.65    6.27
 -11   5  -7   10.63   25.43
 -12  -5  -7   45.88   19.06
 -12  -5  -7   27.67   17.37
  12  -5  -7   33.02   17.99
 -12   5  -7   31.63   18.84
 -12   5  -7   25.47   28.84
 -13  -5  -7   25.76   17.81
 -13  -5  -7   25.18   15.57
  13  -5  -7   13.38    9.60
 -13   5  -7   19.72   10.04
 -13   5  -7   27.49   27.41
   0  -6  -7    0.07    4.10
   0   6  -7   -2.53    4.95
  -1  -6  -7   10.66    6.45
   1   6  -7    4.40    5.28
   1  -6  -7    2.13    4.91
  -1   6  -7    5.42    5.97
  -2  -6  -7   19.75    9.38
   2   6  -7   21.80    7.26
   2  -6  -7   39.40    7.66
  -2   6  -7   30.49    9.34
  -3  -6  -7    5.68    6.41
   3   6  -7   12.20    5.20
  -3  -6   7   13.23    5.39
   3  -6  -7   21.95   10.48
  -3   6  -7    8.36    7.48
   4   6  -7   21.62    6.05
  -4  -6   7   22.21    7.29
   4  -6  -7   20.30   11.80
  -4   6  -7   27.63    9.24
   5   6  -7    0.81    5.61
  -5  -6  -7   -0.77    9.38
   5  -6  -7    6.74    5.64
  -5   6  -7    5.64    6.56
  -6  -6  -7  135.45   26.61
  -6  -6  -7  139.88   37.67
   6  -6  -7  135.96   17.04
  -6   6  -7  110.42   28.07
  -7  -6  -7   13.56    8.14
  -7  -6  -7    3.99    7.37
   7  -6  -7   -2.05    3.63
  -7   6  -7    6.63    8.36
   8  -6   7    5.64    9.82
  -8  -6  -7    6.93   11.58
  -8  -6  -7   13.67   16.89
   8  -6  -7   24.81   11.21
  -8   6  -7    5.94    7.73
   9  -6   7   -9.78   14.70
  -9  -6  -7   16.64   18.76
  -9  -6  -7    1.06   17.66
   9  -6  -7    8.47    7.88
  -9   6  -7   23.34    8.36
  10  -6   7   32.76   17.88
  10  -6   7   -2.57   14.15
 -10  -6  -7   -3.41   11.87
 -10  -6  -7    7.62   11.03
  10  -6  -7   -0.73    5.50
  10  -6  -7   14.07    7.55
 -10   6  -7   29.06   11.84
  11  -6   7   -7.66   10.11
  11  -6   7   11.54    7.92
 -11  -6  -7    7.18   10.22
 -11  -6  -7    8.83    9.38
  11  -6  -7    1.94   10.44
 -11   6  -7   -4.65    6.78
  12  -6   7    2.02   10.59
 -12  -6  -7  -16.23   17.37
  12  -6  -7    7.59    7.18
 -12   6  -7    3.41    7.66
 -12   6  -7   10.55   20.19
   0  -7  -7   12.79    6.45
   0   7  -7   19.46    7.81
   0  -7   7    1.17    7.44
  -1  -7  -7    4.54    5.57
   1   7  -7   11.65    6.23
   1  -7  -7    8.65    8.94
  -1   7  -7   -4.25    7.00
  -2  -7  -7    1.50    4.10
   2  -7   7    0.55   11.73
   2   7  -7    1.69    4.98
   2  -7  -7   -7.73    8.17
  -2   7  -7    5.94    9.24
  -3  -7  -7    4.98    3.85
   3  -7   7    0.66   13.19
   3   7  -7    7.81    7.66
   3  -7   7    0.88    6.05
  -3  -7   7    0.18    5.75
   3  -7  -7   -4.10    6.45
  -3   7  -7   13.52   10.33
   4  -7   7    3.77    9.97
   4   7  -7   13.34    9.56
   4  -7   7    0.55    7.07
   4  -7  -7   19.42    7.70
  -4   7  -7   19.31   12.64
   5  -7   7    6.34   14.33
   5   7  -7    2.42    7.29
   5  -7  -7   12.50    7.33
  -5   7  -7    7.33    7.88
   6  -7   7    6.08   12.94
   6   7  -7    0.84    3.52
  -6  -7  -7   -4.98    9.45
   6  -7  -7   10.22    9.09
  -6   7  -7    3.81    6.34
   7  -7   7    5.64   10.77
  -7  -7  -7   33.31   11.69
  -7  -7  -7   11.36   17.55
   7  -7  -7   11.40    9.24
   7  -7  -7   -1.06    7.92
  -7   7  -7   12.20    8.14
   8  -7   7   -0.44   14.33
  -8  -7  -7   -6.49   14.99
  -8  -7  -7   -0.95    8.98
   8  -7  -7    2.71    7.37
  -8   7  -7    1.28   11.10
   9  -7   7   11.58   10.59
  -9  -7  -7    3.44   10.81
   9  -7  -7    0.77    5.50
   9  -7  -7    3.04   11.36
  -9   7  -7    8.76    7.40
  10  -7   7    6.01    9.02
 -10  -7  -7   -9.78   17.11
 -10  -7  -7   14.26   15.68
  10  -7  -7   14.37    7.11
  11  -7   7   -2.27   16.60
 -11  -7  -7   36.50   18.95
 -11  -7  -7   11.47   11.43
  11  -7  -7   -0.04    5.28
  11  -7  -7    5.83    8.03
 -11   7  -7   21.95   12.28
 -12  -7  -7   -1.94   12.17
   0  -8  -7    2.71    8.65
   0   8  -7   -1.61    6.01
  -1  -8  -7    0.44   10.04
   1   8  -7    0.04    6.49
   1  -8  -7   -5.57    6.49
  -1   8  -7   -1.54    6.93
  -2  -8  -7   -5.31    9.97
   2   8  -7    6.16    6.49
   2  -8  -7    1.80    7.18
  -2   8  -7    5.28    7.15
  -3  -8  -7    8.14    9.16
   3  -8   7   -0.37   10.15
   3   8  -7    4.21    6.49
   3  -8  -7   -5.06   11.98
  -3   8  -7    9.53    7.40
   4  -8   7   18.91   26.13
   4   8  -7   40.06   12.20
   4  -8  -7   64.13   21.37
  -4   8  -7   64.76   14.00
   5  -8   7    5.94   10.22
   5   8  -7    3.04    5.83
   5  -8  -7    7.99    7.92
  -5   8  -7   15.10   12.86
   6  -8   7   14.81   15.21
   6   8  -7   20.23   11.40
   6  -8  -7   54.02   12.24
  -6   8  -7   37.56   17.59
   6  -8  -7   20.27   14.18
   7  -8   7    8.03   15.87
  -7  -8  -7    7.92   11.58
   7  -8  -7    8.43    6.12
   7  -8  -7    3.11   13.05
  -7   8  -7    2.49    8.25
   8  -8   7   15.98    9.42
  -8  -8  -7   -3.37   10.33
   8  -8  -7   -0.44    5.46
   8  -8  -7   -2.09    7.11
  -8   8  -7    3.81    7.07
   9  -8   7  -10.81   11.29
  -9  -8  -7    5.90   18.65
  -9  -8  -7   22.17   17.48
   9  -8  -7    1.54    7.84
   9  -8  -7   10.52    7.59
  -9   8  -7   -3.85   12.09
  10  -8   7    5.28   20.85
 -10  -8  -7   11.21   14.26
 -10  -8  -7   -9.42   12.90
  10  -8  -7   16.27    6.23
 -10   8  -7    4.62    8.50
   0  -9  -7   29.39   21.69
   0   9  -7   29.46   17.81
  -1  -9  -7   29.57   10.99
   1   9  -7    3.85   15.54
   1  -9  -7    9.64   18.32
  -1   9  -7    4.43   15.14
  -2  -9  -7    9.82    9.53
   2   9  -7    0.11   12.61
   2  -9  -7   15.79    9.20
  -2   9  -7  -11.36   13.23
  -3  -9  -7   -1.14    7.84
   3  -9   7    5.46   11.80
   3   9  -7    4.10   11.91
   3  -9  -7   11.21    8.83
  -3   9  -7    9.97    8.28
  -4  -9  -7    4.18    6.05
   4  -9   7    7.62   15.76
   4   9  -7   -2.53   10.88
  -4   9  -7   -1.80    7.44
   5  -9   7    2.71   10.88
   5   9  -7   16.75   10.33
  -5   9  -7   -3.99    7.77
   5  -9  -7    6.05    9.89
   6  -9   7    7.70   17.30
   6   9  -7   12.97    6.19
   6  -9  -7   -9.24    9.71
  -6   9  -7   15.68    8.50
   6  -9  -7   -0.04    7.00
   7  -9   7    6.56   13.60
   7  -9  -7    6.19   10.63
  -7   9  -7    6.16   14.18
   7  -9  -7   23.16   11.03
   8  -9   7    1.21   10.92
   8  -9  -7   -1.69    5.72
   8  -9  -7   23.27   13.85
  -8   9  -7    3.85    7.15
   9  -9   7    9.86   15.68
   9  -9  -7    0.66    5.35
   9  -9  -7   -3.85    7.66
  -9   9  -7    8.83    6.96
   0 -10  -7    5.53   11.76
   1  10  -7   13.74   10.08
  -1  10  -7   15.68    8.69
  -2 -10  -7   19.57   17.26
   2  10  -7   16.60   11.07
   2 -10  -7    8.58   21.69
  -2  10  -7   -2.75   14.92
  -3 -10  -7    7.11   15.79
   3 -10   7   19.20   22.43
   3  10  -7    4.43   10.26
   3 -10  -7   24.44   18.14
  -3  10  -7    1.72   13.67
  -4 -10  -7   41.37   17.77
   4 -10   7   11.43   30.09
   4  10  -7   33.90   13.85
   4 -10  -7   27.45   16.12
  -4  10  -7   26.13   18.84
   4 -10  -7   30.01   11.51
   5 -10   7   -8.50   11.14
   5  10  -7   11.80   10.37
   5 -10  -7   -4.29    9.56
  -5  10  -7    2.57    7.11
   5 -10  -7   -4.95    6.08
   6 -10   7   11.58   19.61
   6 -10  -7    6.67   16.16
  -6  10  -7   14.00    8.06
   6 -10  -7    0.29   10.70
   0  11  -7   14.11    8.61
  -1 -11  -7   -5.02   18.91
   1  11  -7   -0.59    9.27
   1 -11  -7   30.12   13.45
  -1  11  -7   -2.09    8.03
  -2 -11  -7   16.67   15.90
   2  11  -7    1.25    8.61
   2 -11  -7   -3.33   12.28
  -2  11  -7   -1.58    6.74
  -3 -11  -7   16.86   24.81
   3 -11  -7   54.38   30.38
   3   0  -8   -1.72    2.53
   4   0  -8    0.81    4.21
   5   0  -8    0.92    4.58
   6   0  -8   39.91    9.05
  -6   0  -8   71.72   21.66
   7   0  -8    3.59    3.55
  -7   0  -8   -3.04   19.86
   8   0  -8   13.56    4.91
  -8   0  -8    3.52   16.71
   9   0  -8    0.44    3.81
  -9   0  -8    7.11   12.53
  10   0  -8    9.86    5.94
 -10   0  -8   10.99   25.80
  11   0  -8    1.25    4.29
 -11   0  -8  -17.19   18.29
  -1  -1   8   48.08   13.52
   2  -1  -8    7.26    2.97
  -2  -1   8    3.85    8.98
   3  -1  -8   60.83    6.78
   5  -1  -8   13.74    4.47
  -6  -1  -8   23.27   13.74
   6  -1  -8    8.14    4.36
  -6   1  -8   22.72   14.95
  -7  -1  -8  -10.48   11.51
   7  -1  -8   -2.86    3.92
  -7   1  -8   10.00   20.27
   8  -1   8   40.86   16.31
  -8  -1  -8   27.67   25.73
   8  -1  -8   19.39    6.63
  -8   1  -8    8.14   18.65
  -9  -1  -8   -0.48   13.71
   9  -1  -8    9.64    5.72
  -9   1  -8   14.07   17.66
 -10  -1  -8    3.59   13.52
  10  -1  -8    4.95    9.34
 -10   1  -8   24.33   25.51
 -11  -1  -8    2.20    9.71
 -11  -1  -8    1.39   17.81
  11  -1  -8   -1.69    7.40
 -11   1  -8    3.92   13.74
   2  -2  -8   17.22    3.92
   3  -2  -8   41.30    5.75
  -3  -2   8   37.49   19.83
   4  -2  -8    2.49    3.15
  -4  -2   8   -1.98    6.41
   5  -2  -8    5.90    3.77
  -6  -2  -8   11.98   20.96
   6  -2  -8   13.23    4.84
  -6   2  -8   16.23   14.70
  -7  -2  -8    7.33   13.41
   7  -2  -8   12.75    5.02
  -7   2  -8    0.33   27.41
  -8  -2  -8    2.46   14.95
  -8  -2  -8   13.85   22.72
   8  -2  -8   14.73    9.49
  -8   2  -8   25.95   18.10
  -9  -2  -8   26.35   14.84
  -9  -2  -8    8.87   14.95
   9  -2  -8   11.58   10.96
  -9   2  -8   18.14   21.99
 -10  -2  -8   22.83   17.81
 -10  -2  -8    2.53   14.00
  10  -2  -8    7.99   10.15
 -11  -2  -8    6.05   12.13
 -11  -2  -8   -1.58   23.05
  11  -2  -8    6.71    6.38
 -11   2  -8   24.85   19.79
   0   3  -8    1.10    3.70
   1  -3  -8    9.16    3.66
  -1   3  -8   22.21    5.64
   2  -3  -8   14.66    4.47
  -2   3  -8   27.16    6.82
   3  -3  -8   49.88    7.51
  -3   3  -8   72.63   10.48
   4  -3  -8    8.76    4.84
  -4   3  -8   14.00    6.67
   5  -3  -8    4.58    4.14
   6  -3  -8   15.39    8.72
  -6   3  -8   11.98   15.03
  -7  -3  -8   -3.37   14.04
  -7  -3  -8   14.26   13.34
   7  -3  -8   21.15    9.97
  -7   3  -8   -1.39   24.48
  -8  -3  -8   24.04   37.71
  -8  -3  -8   62.59   24.99
   8  -3  -8   94.40   18.29
  -8   3  -8   78.53   32.25
  -9  -3  -8    2.86   11.47
  -9  -3  -8    5.72   20.60
   9  -3  -8   10.33    6.74
  -9   3  -8   15.21   17.00
 -10  -3  -8    7.40   19.83
 -10  -3  -8    8.39   15.21
  10  -3  -8   14.81    7.26
 -10   3  -8    4.32   31.11
   0   4  -8    5.24    7.22
   1   4  -8    3.01    6.45
   1  -4  -8    5.79    3.33
  -1   4  -8   -2.02    7.99
   2   4  -8    1.69    3.48
   2  -4  -8   -0.55    3.11
  -2   4  -8   -0.73    7.18
   3   4  -8   51.86    7.62
   3  -4  -8   57.94    8.61
  -3   4  -8   67.58   17.15
   4  -4  -8    6.38    7.26
  -4   4  -8   10.44   10.44
   5  -4  -8   -3.81    7.99
  -5   4  -8   13.38    7.00
   6  -4  -8    6.41    8.47
  -6   4  -8    2.93    6.93
  -6   4  -8    7.81   14.95
  -7  -4  -8   27.19   18.18
  -7  -4  -8   16.49   27.49
   7  -4  -8   36.10    9.86
  -7   4  -8   43.17   12.02
  -7   4  -8   25.73   17.55
  -8  -4  -8   35.91   22.02
  -8  -4  -8   31.96   17.08
   8  -4  -8   31.41    9.34
  -8   4  -8   21.33   11.18
  -8   4  -8   32.36   23.97
  -9  -4  -8   22.83   15.25
  -9  -4  -8   35.33   17.66
   9  -4  -8   28.18    9.75
  -9   4  -8   14.48   18.47
 -10  -4  -8   54.79   18.76
 -10  -4  -8   36.24   34.15
  10  -4  -8   22.24   18.21
 -10   4  -8   92.61   38.11
   0  -5   8   10.52    7.11
   1  -5   8    6.82    8.06
   1   5  -8   -1.58    4.14
   1  -5  -8    4.47    5.20
  -1  -5   8   -3.11    6.78
  -1   5  -8    0.73    4.95
   2  -5   8    1.54    8.03
   2   5  -8   -1.91    3.63
   2  -5  -8    6.56    5.79
  -2  -5   8    5.31    5.94
  -2   5  -8   -3.70    5.06
   3  -5   8   -1.65    9.60
   3   5  -8   -2.90    5.94
  -3  -5   8    9.97   10.44
  -3   5  -8    4.98    5.79
   4  -5   8    9.97   10.00
   4   5  -8   -1.36    5.17
   4  -5  -8    3.52    7.04
  -4   5  -8    1.06    6.05
   5  -5   8   -5.39    9.93
   5  -5  -8   -0.07    4.87
  -5   5  -8    0.84    6.12
   6  -5   8    8.28   21.69
   6  -5  -8    9.38    7.62
  -6   5  -8   24.55   14.22
   7  -5  -8   10.41    7.70
  -7   5  -8    4.62   13.67
  -8  -5  -8   45.92   19.06
  -8  -5  -8   40.20   30.64
   8  -5  -8   36.72   20.01
  -8   5  -8   49.69   20.71
  -9  -5  -8   22.24   19.35
  -9  -5  -8   17.41   12.94
   9  -5  -8    1.47    7.88
  -9   5  -8   12.46    9.20
   0  -6  -8   13.71    4.73
   0   6  -8   -3.04   11.47
   1   6  -8    4.18    8.50
   1  -6  -8    1.54    4.32
  -1   6  -8    6.67    9.89
   2   6  -8    0.62    7.95
   2  -6  -8    7.11    5.79
  -2  -6   8   20.30   13.30
  -2   6  -8   11.65   11.32
   3   6  -8   42.91   13.34
   3  -6  -8   51.09   10.48
  -3  -6   8   51.97   15.87
  -3   6  -8   40.68   19.53
   4   6  -8    1.17    3.55
   4  -6  -8    3.04    5.50
  -4   6  -8   -1.94    9.86
   5  -6   8   20.71   14.62
   5  -6  -8   12.79   12.83
  -5   6  -8    3.33   14.18
  -6   6  -8   11.18    7.66
   7  -6   8   48.63   23.45
   7  -6  -8   53.98   16.05
  -7   6  -8   76.45   16.45
   8  -6   8   11.43   13.74
   0  -7  -8    1.58    4.14
   0   7  -8   -1.06    6.05
   1   7  -8    6.63    6.38
   1  -7  -8   -1.65    4.84
  -1   7  -8   10.11    7.22
   2   7  -8   20.96    8.25
   2  -7  -8   12.09   12.42
  -2   7  -8   27.01   10.00
   3   7  -8   10.48    5.53
  -3   7  -8    6.89    8.47
   4   7  -8   23.97   10.11
   4  -7  -8   70.95   18.54
  -4   7  -8   24.63   12.17
   5  -7  -8   14.29    9.27
  -5   7  -8    5.46    9.09
   6  -7  -8   13.67    9.89
  -6   7  -8    6.30   15.14
   0  -8  -8    0.88    7.95
   0   8  -8    6.49   12.20
  -1  -8  -8    0.29    7.77
   1   8  -8   -5.86   13.01
   1  -8  -8   11.95    6.82
  -1   8  -8   24.96   13.96
   2   8  -8    1.58    8.98
   2  -8  -8    2.02    6.23
  -2   8  -8   -6.96   10.11
   3   8  -8   11.95   13.60
   3  -8  -8   40.93   12.90
  -3   8  -8   31.99   18.73
   0  -2   9   10.59   15.43
   1  -2   9   -3.52   13.85
   2  -2   9    4.76   10.41

_computing_structure_solution     'SHELXT 2014/4 (Sheldrick, 2014)'
_computing_structure_solution     'SHELXT 2014/4 (Sheldrick, 2014)'
_computing_structure_solution     'SHELXT 2014/4 (Sheldrick, 2014)'
_computing_structure_solution     'SHELXT 2014/4 (Sheldrick, 2014)'
;
_shelx_hkl_checksum              34477
_shelx_fab_file
;
0 0 2 11.4469 -3.9754
0 0 4 -1.9915 -2.9055
0 0 6 5.8990 14.5913
0 1 5 12.2617 1.2027
0 1 7 4.0911 -8.4258
0 2 2 -12.9292 6.6104
0 2 4 -13.5473 -2.0814
0 2 6 1.7399 -3.0884
0 3 1 -66.3482 -7.8816
0 3 3 -47.1464 -0.8342
0 3 5 -8.3427 1.8682
0 3 7 0.2001 1.9021
0 4 0 24.7108 1.9167
0 4 2 -37.4300 0.9540
0 4 4 2.3699 -1.2579
0 4 6 -5.0679 1.2294
0 5 1 13.4184 2.9243
0 5 3 15.6572 1.4787
0 5 5 14.4408 -0.8801
0 5 7 -3.4362 -2.9647
0 6 0 -49.9328 -2.9400
0 6 2 3.9679 -1.8821
0 6 4 11.6990 0.4374
0 6 6 -4.0260 0.5527
0 7 1 -20.7430 -0.2500
0 7 3 -9.6872 0.1413
0 7 5 -21.3364 -0.2899
0 7 7 5.9483 0.7291
0 8 0 34.5443 2.9607
0 8 2 -7.8407 -0.4606
0 8 4 -3.5903 1.3002
0 8 6 -4.9645 -1.4087
0 9 1 17.9716 -1.1723
0 9 3 2.3502 0.5486
0 9 5 2.3373 -0.7470
0 10 0 -2.0039 2.5280
0 10 2 -3.6236 -2.3239
0 10 4 5.9650 1.1502
0 10 6 4.9196 -0.8597
0 11 1 6.7035 0.3764
0 11 3 -6.9216 1.5469
0 11 5 6.7240 -1.1239
0 12 2 3.2190 -2.1684
0 12 4 -2.8876 1.2930
0 13 1 8.0343 -0.4765
0 13 3 0.6639 0.4939
0 14 0 -9.6124 1.7976
1 0 3 -47.8439 -0.2784
1 0 5 -8.6502 1.3337
1 0 7 -3.0873 0.4734
1 1 3 -15.7077 4.6055
1 1 4 -1.6837 -1.8734
1 1 5 -3.1874 1.5714
1 1 6 -3.3920 0.1988
1 1 7 -3.6771 -1.7956
1 1 8 -0.7997 -1.8829
1 2 1 -69.7675 -5.9090
1 2 2 -32.5372 -1.9158
1 2 3 9.7720 -2.4384
1 2 4 -1.9059 -5.2654
1 2 5 -1.3613 -1.6617
1 2 6 -1.5161 2.0624
1 2 7 1.4066 -1.3057
1 3 1 -19.0961 1.5833
1 3 2 -26.0215 -1.4903
1 3 3 -2.4773 1.1855
1 3 4 19.7747 -1.8086
1 3 5 0.7722 0.8554
1 3 6 0.4207 -0.0790
1 3 7 1.4832 -1.4548
1 3 8 -4.3711 1.4176
1 4 1 -21.4570 1.7047
1 4 2 4.4683 -1.1543
1 4 3 18.8517 2.3800
1 4 4 1.1741 -0.9744
1 4 5 4.0120 2.3095
1 4 6 2.2657 0.5404
1 4 7 1.7214 -0.3524
1 5 1 0.1779 0.5362
1 5 2 -20.5148 -0.0212
1 5 3 1.6250 0.6768
1 5 4 21.0783 1.3832
1 5 5 3.1796 -1.0923
1 5 6 3.2231 -0.4127
1 5 7 4.9011 -1.5726
1 6 1 -9.3458 1.1410
1 6 2 -5.7661 0.1178
1 6 3 0.9339 -3.6577
1 6 4 9.2779 -3.1053
1 6 5 -0.0167 -0.5918
1 6 6 4.6414 0.4385
1 6 7 1.8258 0.2350
1 7 1 3.4463 -2.0876
1 7 2 -2.4751 0.7157
1 7 3 13.0001 3.2539
1 7 4 -7.2028 0.0312
1 7 5 2.8415 0.1733
1 7 6 4.8116 -0.6654
1 7 7 -3.1954 -0.1681
1 8 1 -3.6412 0.4934
1 8 2 9.9843 -0.8704
1 8 3 -1.3938 1.7876
1 8 4 -1.4488 -2.2795
1 8 5 -4.4000 1.3668
1 8 6 1.9858 0.4607
1 8 7 0.6775 0.1184
1 9 1 -7.4491 -2.7870
1 9 2 -2.9204 0.1341
1 9 3 -6.6289 0.9266
1 9 4 -4.5178 -1.5508
1 9 5 -7.1444 -1.0747
1 9 6 -4.7682 0.9410
1 10 1 3.9038 -0.4658
1 10 2 -7.0888 0.1024
1 10 3 -0.4791 1.8133
1 10 4 -3.0215 -0.4035
1 10 5 -0.6344 -1.3965
1 10 6 0.5096 0.6331
1 11 1 8.1595 -0.8079
1 11 2 2.9460 1.9719
1 11 3 1.7080 0.1465
1 11 4 -4.6488 0.1837
1 11 5 5.7101 0.0946
1 12 1 1.2858 -3.0893
1 12 2 -0.4374 -1.0306
1 12 3 -1.5682 1.0278
1 12 4 4.7872 -1.0842
1 12 5 -3.2351 -0.8569
1 13 1 -7.2032 1.3840
1 13 2 -2.3547 0.5167
1 13 3 -2.0436 0.6320
1 13 4 2.1034 -1.5311
1 14 1 -13.0175 -0.6942
1 14 3 12.4497 1.8373
1 15 2 -9.9119 -0.5146
2 0 2 12.5313 -1.0112
2 0 4 -1.3512 -3.9900
2 0 6 -6.0678 5.6619
2 1 2 -6.6178 3.7719
2 1 4 5.3690 -2.0119
2 1 5 -9.9279 0.1767
2 1 6 0.5262 -0.8115
2 1 7 -2.0638 -5.0815
2 1 8 1.4871 0.5652
2 2 1 -26.6067 -1.2446
2 2 2 7.3442 0.2469
2 2 3 1.7732 0.6294
2 2 4 10.9721 0.3350
2 2 5 2.2949 -0.2363
2 2 6 -1.1535 -5.4771
2 2 7 1.9900 2.6794
2 2 8 3.5741 -1.9990
2 3 0 58.3266 6.9877
2 3 1 25.6899 -3.1611
2 3 2 1.7320 3.1275
2 3 3 14.0226 0.2510
2 3 4 10.7119 -1.3558
2 3 5 0.2339 -1.5037
2 3 6 4.4739 -0.0144
2 3 7 -0.2067 4.0849
2 4 0 -4.6596 0.3528
2 4 1 14.6409 2.4411
2 4 2 4.4185 0.0314
2 4 3 19.2192 -1.9489
2 4 4 -5.9746 1.9349
2 4 5 9.4247 2.7485
2 4 6 5.8957 -0.4404
2 4 7 -3.4139 -1.2716
2 5 0 -50.5441 5.1363
2 5 1 -8.3966 1.3411
2 5 2 21.6570 2.5252
2 5 3 -1.0285 1.7944
2 5 4 -1.9210 0.3610
2 5 5 1.2476 -1.3815
2 5 6 2.0367 -1.0590
2 5 7 5.0681 -1.6863
2 6 0 24.4318 3.8671
2 6 1 -5.3385 -1.2253
2 6 2 11.6860 -0.2898
2 6 3 5.8348 0.3748
2 6 4 -4.6986 0.9985
2 6 5 -3.7417 1.9657
2 6 6 3.7952 -0.2794
2 6 7 -3.3914 1.4159
2 7 0 22.6615 0.3251
2 7 1 22.5255 0.4264
2 7 2 5.0115 2.0392
2 7 3 2.9408 -0.9122
2 7 4 3.0072 -0.5052
2 7 5 6.1724 2.9086
2 7 6 0.5326 -0.8528
2 7 7 -4.5434 -0.0650
2 8 0 -7.8946 1.2112
2 8 1 -0.1281 -0.5294
2 8 2 4.1714 1.1549
2 8 3 5.7609 0.4376
2 8 4 1.0110 0.2720
2 8 5 0.6735 0.3994
2 8 6 -0.7567 -0.5872
2 9 0 -27.0539 -1.0586
2 9 1 -12.6851 0.8276
2 9 2 1.8877 2.1408
2 9 3 2.8252 -0.3700
2 9 4 -5.7192 -0.0823
2 9 5 -2.3623 0.5958
2 9 6 14.1478 0.4888
2 10 0 -2.5671 -1.2477
2 10 1 -8.2328 -0.0590
2 10 2 2.9673 1.1782
2 10 3 -0.3940 -0.5469
2 10 4 -8.1861 -1.0848
2 10 5 10.7497 1.3413
2 10 6 -0.8587 3.0323
2 11 0 10.4449 -0.1810
2 11 1 -2.9775 0.2908
2 11 2 -7.2492 0.3827
2 11 3 -2.9870 -0.9784
2 11 4 10.5278 0.0554
2 11 5 0.3811 0.3668
2 12 0 -17.5394 0.0363
2 12 1 0.4030 -0.8459
2 12 2 -0.4967 1.6507
2 12 3 0.9875 -0.5228
2 12 4 -3.4275 -1.4076
2 12 5 -4.5890 0.5984
2 13 0 -6.1667 1.2764
2 13 1 -5.5193 -0.4215
2 13 2 -2.1218 0.6228
2 13 3 4.8391 -0.0717
2 13 4 -7.5427 -0.2893
2 14 0 -1.9784 -0.4002
2 14 1 -14.5209 0.3532
2 14 2 7.6713 0.1844
2 14 3 -0.4956 -0.8380
2 15 0 -11.6449 -0.7850
3 0 1 -54.3519 0.8845
3 0 3 -3.6474 12.1644
3 0 5 -3.5193 4.5921
3 0 7 -3.6446 3.1377
3 1 1 31.9871 0.3721
3 1 2 -8.7443 -0.1160
3 1 3 14.8511 -5.9958
3 1 4 -8.8930 -4.2467
3 1 5 -3.7016 -2.3794
3 1 6 -1.2253 0.6057
3 1 7 4.2257 -0.8368
3 1 8 -3.5544 -2.9935
3 2 1 43.9647 10.1884
3 2 2 46.6726 -1.5299
3 2 3 -4.7425 -6.4281
3 2 4 -4.3949 0.6682
3 2 5 5.5042 -1.0026
3 2 6 1.2308 -2.9552
3 2 7 -1.5911 -2.0957
3 2 8 -0.4369 -3.0403
3 3 1 32.2384 1.1542
3 3 2 51.5225 -0.1616
3 3 3 3.7447 -0.0590
3 3 4 1.5413 4.0072
3 3 5 -4.4147 0.2516
3 3 6 7.2127 -1.9653
3 3 7 -3.1694 1.4122
3 4 1 22.0236 -2.9253
3 4 2 9.4569 -0.6293
3 4 3 9.6564 -0.7700
3 4 4 -8.2337 0.2760
3 4 5 9.0996 -0.2277
3 4 6 -6.0211 0.9751
3 4 7 2.7200 -1.0215
3 5 1 5.4830 -0.8637
3 5 2 9.8473 -0.5778
3 5 3 -1.8008 -2.2334
3 5 4 -9.7515 -1.2645
3 5 5 -0.1329 -1.2447
3 5 6 -3.1695 0.2734
3 5 7 -4.9275 1.1419
3 6 1 13.3289 -3.3063
3 6 2 -0.6985 1.0697
3 6 3 -7.2195 2.0486
3 6 4 -2.3912 1.6405
3 6 5 -14.1720 -0.1254
3 6 6 -2.2193 0.8042
3 6 7 0.6260 0.5551
3 7 1 -5.8002 0.5064
3 7 2 5.1799 -2.4544
3 7 3 -11.6468 0.5440
3 7 4 -10.0502 -0.6262
3 7 5 -2.0070 0.6125
3 7 6 -5.7644 1.3181
3 7 7 -4.6602 1.4719
3 8 1 -10.7305 -0.8646
3 8 2 -6.3952 -0.9750
3 8 3 -6.0968 -0.4043
3 8 4 -4.2984 0.1173
3 8 5 1.8947 -0.5135
3 8 6 -6.2562 -0.3078
3 9 1 5.2223 1.0094
3 9 2 -7.5853 0.8064
3 9 3 -2.1891 -0.1454
3 9 4 4.6758 1.6371
3 9 5 3.1486 -0.2353
3 9 6 4.1150 -0.2817
3 10 1 -2.4830 0.2743
3 10 2 2.6586 0.1588
3 10 3 6.8367 -0.3006
3 10 4 -0.6924 1.3632
3 10 5 3.7355 -0.1994
3 10 6 -4.8443 -0.2454
3 11 1 -4.7548 -1.0124
3 11 2 -1.9601 0.9135
3 11 3 1.9092 -1.8140
3 11 4 10.4469 -0.7589
3 11 5 -7.9036 -0.1428
3 12 1 -0.9079 1.9184
3 12 2 4.6067 -0.4218
3 12 3 -7.6975 -0.1710
3 12 4 -3.3588 0.1855
3 12 5 13.8765 0.8928
3 13 1 1.5637 1.1234
3 13 2 5.7576 -0.9197
3 13 3 1.9197 -0.0207
3 13 4 -6.1384 1.1059
3 14 1 14.3776 -0.5490
3 14 2 4.1429 -0.8623
3 14 3 2.4086 -0.8084
3 15 2 7.8887 0.2680
4 0 0 24.7676 9.6276
4 0 2 -36.2720 -2.4490
4 0 4 14.9774 5.3769
4 0 6 1.4852 -3.8009
4 0 8 -1.4238 -2.2917
4 1 0 2.6410 3.9230
4 1 1 3.9136 -3.4628
4 1 2 -16.5256 -0.2404
4 1 3 -17.0261 2.3228
4 1 4 -3.7808 0.6051
4 1 5 6.4218 -3.8505
4 1 6 1.4611 -1.1835
4 1 7 -0.5987 4.1927
4 2 0 13.9673 5.6734
4 2 1 -17.8135 -2.1860
4 2 2 6.0593 -1.0012
4 2 3 -3.9216 -0.6654
4 2 4 -7.6282 -1.1496
4 2 5 -5.5968 2.2960
4 2 6 0.5403 0.5249
4 2 7 2.4370 0.1139
4 3 0 -43.8277 0.3010
4 3 2 8.5444 -0.3232
4 3 3 -3.2719 0.0093
4 3 4 -4.7078 0.1007
4 3 5 5.3692 2.7501
4 3 6 -4.1964 2.1255
4 3 7 -2.7105 -2.2876
4 4 0 -15.2515 -1.7521
4 4 1 -2.5586 3.5285
4 4 2 17.9132 1.6182
4 4 3 -2.6763 1.3904
4 4 4 4.5508 -0.0432
4 4 5 -1.3249 -1.2973
4 4 6 1.3842 1.5060
4 4 7 -1.0688 -1.5507
4 5 0 45.5657 3.2611
4 5 1 -6.0786 -0.7230
4 5 2 -23.2396 -1.5972
4 5 3 7.4129 0.2717
4 5 4 2.8411 0.6603
4 5 5 -8.6648 -0.3091
4 5 6 -3.4967 0.4265
4 5 7 -1.4855 0.7087
4 6 0 11.0584 -2.2315
4 6 1 12.2443 -2.2423
4 6 2 -7.8336 -0.2386
4 6 3 -18.8318 0.4167
4 6 4 -2.6109 -0.4947
4 6 5 -2.0126 0.1397
4 6 6 -10.0720 0.3668
4 6 7 -0.7352 2.3135
4 7 0 3.6122 -3.0553
4 7 1 -2.2151 -1.4241
4 7 2 -5.2315 0.7258
4 7 3 -0.2305 -0.3542
4 7 4 -6.5088 -0.4888
4 7 5 -0.6333 0.0493
4 7 6 -7.3296 -0.5292
4 7 7 -2.9775 0.1791
4 8 0 -28.2960 -1.6626
4 8 1 3.1203 0.5548
4 8 2 2.4082 -0.5464
4 8 3 -7.3256 -0.2588
4 8 4 8.7650 -0.2872
4 8 5 1.4940 -0.3512
4 8 6 6.7337 -0.3381
4 9 0 2.9845 -1.9933
4 9 1 -5.1230 -0.3784
4 9 2 -2.1289 -0.3532
4 9 3 -0.3858 -0.2563
4 9 4 -1.1523 -0.5241
4 9 5 4.6783 -0.2321
4 9 6 3.0257 0.6183
4 10 0 19.6219 -0.5218
4 10 1 -1.2331 -0.3955
4 10 2 -8.2955 -1.1394
4 10 3 -6.6028 0.4450
4 10 4 1.2554 -0.0482
4 10 5 -6.7527 0.2460
4 10 6 -6.1481 0.0770
4 11 0 -0.2626 1.1512
4 11 1 2.7181 -0.9104
4 11 2 -2.4741 -0.0539
4 11 3 -1.7074 -0.1258
4 11 4 -3.3816 0.5196
4 11 5 0.5968 -0.8857
4 12 0 -6.2249 -0.5849
4 12 1 2.1402 -0.4068
4 12 2 -2.4303 -0.0577
4 12 3 11.2198 0.9389
4 12 4 4.5723 -0.4940
4 12 5 3.6390 -0.3969
4 13 0 -2.8047 1.6347
4 13 1 3.3380 0.4304
4 13 2 20.1665 0.0731
4 13 3 -5.4203 -0.7352
4 13 4 12.5668 0.7895
4 14 0 11.9765 -2.1270
4 14 1 9.9323 0.5668
4 14 2 4.0813 -0.1505
4 14 3 8.9903 0.7163
4 15 0 2.7927 0.9624
4 15 1 5.9738 -0.0324
4 15 2 -3.6988 -0.1843
5 0 1 72.4490 1.4516
5 0 3 19.8485 -2.6295
5 0 5 -6.0204 2.1478
5 0 7 4.2755 0.8626
5 1 1 -1.7842 -2.9871
5 1 2 32.2284 -2.2365
5 1 3 -2.0207 -4.6118
5 1 4 0.7734 1.2213
5 1 5 -4.5356 -2.6339
5 1 6 1.1211 -1.6449
5 1 7 3.1365 -0.5830
5 2 1 -12.0366 0.8458
5 2 2 -19.8590 -2.0417
5 2 3 4.4341 2.6101
5 2 4 15.6409 1.1474
5 2 5 -1.8037 -0.4863
5 2 6 1.1311 -2.1816
5 2 7 1.7526 1.2044
5 3 1 -33.4701 -4.6102
5 3 2 -17.4815 -0.9363
5 3 3 12.6307 3.6132
5 3 4 2.7537 -0.7153
5 3 5 15.9798 1.0676
5 3 6 -6.0755 0.6885
5 3 7 -2.1425 0.5257
5 4 1 -5.9057 -3.3845
5 4 2 -11.1211 1.4124
5 4 3 -6.8949 -0.6779
5 4 4 12.6071 -0.7141
5 4 5 0.0656 -2.0293
5 4 6 1.7185 1.9837
5 4 7 -3.1945 -0.2068
5 5 1 -1.6085 -0.0880
5 5 2 -8.0106 1.5426
5 5 3 -9.6073 -1.6755
5 5 4 4.1305 -0.1277
5 5 5 -2.6750 0.4042
5 5 6 3.8144 -0.6244
5 5 7 -0.9268 0.7097
5 6 1 -5.0534 0.2865
5 6 2 -5.6643 0.6407
5 6 3 4.3645 0.1921
5 6 4 -5.6201 2.2938
5 6 5 5.8887 0.3496
5 6 6 -3.4407 -0.6742
5 6 7 -0.6586 0.3650
5 7 1 9.4587 3.3286
5 7 2 -6.4635 -0.8791
5 7 3 0.2894 -0.2820
5 7 4 1.8415 -0.2733
5 7 5 0.2449 1.3106
5 7 6 1.8582 -0.9096
5 7 7 1.9352 0.1462
5 8 1 5.8753 1.2376
5 8 2 10.6811 1.4553
5 8 3 -8.2744 -0.6033
5 8 4 -2.0996 -0.0117
5 8 5 -1.8037 0.6272
5 8 6 7.1752 -1.2470
5 9 1 1.7589 1.8985
5 9 2 1.8926 -0.0413
5 9 3 4.3753 0.6226
5 9 4 -1.4616 1.1083
5 9 5 -4.3287 0.7511
5 9 6 0.0846 -0.3367
5 10 1 -3.9899 0.3300
5 10 2 2.4443 1.0140
5 10 3 3.8225 -0.8572
5 10 4 3.3368 -0.0061
5 10 5 3.0369 0.1901
5 10 6 -0.9147 0.6807
5 11 1 3.6822 -1.8492
5 11 2 -1.9350 0.3714
5 11 3 4.4484 0.2033
5 11 4 0.7968 -0.3508
5 11 5 5.4852 -0.5753
5 12 1 2.9344 1.6124
5 12 2 -2.1243 -0.7473
5 12 3 -7.4769 0.2074
5 12 4 0.4771 0.3731
5 13 1 -1.5252 -1.8769
5 13 2 -9.6042 -0.3614
5 13 3 -3.5690 0.0326
5 13 4 -3.6656 0.4620
5 14 1 -5.2490 -0.4828
5 14 2 6.7120 -0.4274
5 14 3 8.9897 -0.1013
5 15 1 5.8661 -0.4227
6 0 0 20.6549 13.1609
6 0 2 -4.9336 9.1257
6 0 4 -21.6106 1.0791
6 0 6 8.6491 -4.3411
6 1 0 59.1362 2.7331
6 1 1 19.1084 -3.7997
6 1 2 2.6746 -0.9487
6 1 3 -5.9271 -1.7274
6 1 4 -2.4344 1.2002
6 1 5 -2.2960 0.1561
6 1 6 0.1744 -2.2733
6 1 7 2.4634 2.4512
6 2 0 29.5361 -1.5252
6 2 1 39.4706 -3.3107
6 2 2 11.7298 -5.2516
6 2 3 -14.4940 -0.4528
6 2 4 9.6630 -0.2711
6 2 5 4.3939 2.6511
6 2 6 -4.1849 3.4695
6 2 7 1.5676 -0.1161
6 3 0 21.1705 -8.8693
6 3 1 7.9350 -0.1819
6 3 2 -7.9691 -4.0283
6 3 3 4.4277 1.1357
6 3 4 -1.5679 1.6347
6 3 5 1.8552 0.2963
6 3 6 2.8295 0.6376
6 3 7 2.7747 -0.5183
6 4 0 16.1661 -2.8090
6 4 1 2.6856 -1.4052
6 4 2 -13.9946 -1.7478
6 4 3 -4.1497 0.9056
6 4 4 -5.2359 0.5141
6 4 5 -2.3765 -3.2476
6 4 6 -1.0609 -0.3689
6 4 7 -2.1267 0.9449
6 5 0 15.7492 -3.5888
6 5 1 -1.5853 -4.0883
6 5 2 13.0560 0.0047
6 5 3 -8.3812 -1.2342
6 5 4 -8.4273 -0.5533
6 5 5 -4.9888 -0.2540
6 5 6 -0.4565 0.7811
6 5 7 1.3929 1.3756
6 6 0 -10.8971 -5.9272
6 6 1 -4.5049 -2.7212
6 6 2 -7.2656 0.9522
6 6 3 14.7666 -1.0552
6 6 4 1.0635 -0.5239
6 6 5 -7.6203 0.5999
6 6 6 2.3334 0.0344
6 6 7 5.5789 -0.2305
6 7 0 -43.4831 -1.2769
6 7 1 -9.9605 -0.0862
6 7 2 1.0910 -0.3396
6 7 3 -5.0352 0.8457
6 7 4 9.6425 -0.3782
6 7 5 4.3215 -0.8366
6 7 6 -3.6287 -0.8726
6 8 0 5.5270 1.4739
6 8 1 -5.9414 0.7830
6 8 2 -6.1085 -0.1324
6 8 3 4.2918 0.2600
6 8 4 -3.7536 -0.2000
6 8 5 4.5262 -1.0496
6 8 6 0.2503 0.4429
6 9 0 27.2915 -0.9046
6 9 1 -0.2412 1.9094
6 9 2 1.2159 -1.6880
6 9 3 0.4068 0.4204
6 9 4 0.3703 0.0620
6 9 5 -0.1462 0.3604
6 9 6 2.4000 0.3967
6 10 0 -8.9301 3.9774
6 10 1 4.4019 0.3935
6 10 2 4.0711 -0.7523
6 10 3 -0.1601 -0.5082
6 10 4 2.5481 1.0981
6 10 5 -3.3237 -1.1522
6 11 0 -5.5192 0.7474
6 11 1 -1.2018 1.6238
6 11 2 -1.6479 -0.0859
6 11 3 9.0768 0.0185
6 11 4 0.9017 0.0675
6 11 5 1.3746 -0.2365
6 12 0 4.7229 1.7523
6 12 1 0.0266 0.4955
6 12 2 3.8347 0.8474
6 12 3 -5.3984 -0.3130
6 12 4 6.7121 -0.0465
6 13 0 -3.3802 -0.4491
6 13 1 2.5053 0.4607
6 13 2 -7.7337 0.0955
6 13 3 -1.7898 -0.1144
6 13 4 -6.5518 -0.3468
6 14 0 4.5762 -0.4450
6 14 1 -2.8325 0.1774
6 14 2 -9.2775 0.1728
6 15 0 13.6538 -0.1059
6 15 1 -4.3127 -0.6431
7 0 1 -16.9852 -3.3639
7 0 3 3.9727 -12.4801
7 0 5 1.0088 -5.9503
7 0 7 -4.6027 -1.5250
7 1 1 -2.0031 0.2175
7 1 2 -14.2268 3.8560
7 1 3 -4.2930 -0.5494
7 1 4 4.3665 5.7114
7 1 5 6.6662 -0.2418
7 1 6 0.5871 0.9540
7 1 7 -0.4863 -0.1980
7 2 1 -26.7548 -1.6458
7 2 2 14.2250 -0.0064
7 2 3 -8.3408 7.4164
7 2 4 -4.7507 -1.7868
7 2 5 0.5412 4.5043
7 2 6 0.7010 0.9284
7 2 7 0.0350 1.6414
7 3 1 25.1997 -1.4909
7 3 2 -28.6488 -1.8619
7 3 3 -6.8558 -0.0877
7 3 4 -3.3680 -4.1257
7 3 5 -8.8579 2.2429
7 3 6 -3.6535 0.8223
7 3 7 0.1259 -1.8527
7 4 1 -11.9416 1.9308
7 4 2 -1.7911 -1.1898
7 4 3 -11.2907 -1.4119
7 4 4 -19.4821 1.4741
7 4 5 -1.2286 -0.8233
7 4 6 4.7322 -0.6774
7 4 7 -3.2550 -0.4927
7 5 1 -16.1208 0.7388
7 5 2 0.3556 2.2570
7 5 3 3.0771 1.2590
7 5 4 -0.6632 2.1142
7 5 5 -9.1206 -1.0408
7 5 6 1.6661 -0.3049
7 5 7 13.1168 -0.9325
7 6 1 0.0838 1.9186
7 6 2 -0.0727 0.7227
7 6 3 6.7797 -0.3020
7 6 4 7.3246 -1.0825
7 6 5 -2.8762 -0.4788
7 6 6 -2.2399 0.9888
7 6 7 2.8449 0.1960
7 7 1 -11.0206 0.0902
7 7 2 8.2939 1.1873
7 7 3 5.0229 2.1067
7 7 4 -0.7038 -0.9171
7 7 5 3.7396 -0.4788
7 7 6 1.1361 -0.0463
7 8 1 8.8911 -0.3625
7 8 2 -14.2953 2.2994
7 8 3 5.1307 1.5277
7 8 4 7.8031 -0.5864
7 8 5 2.9412 0.4505
7 8 6 1.8770 0.1899
7 9 1 -7.5288 2.0593
7 9 2 10.6589 -0.6362
7 9 3 -1.6001 0.6537
7 9 4 -0.6870 -1.6662
7 9 5 7.1047 0.4487
7 9 6 -3.3394 0.2503
7 10 1 -1.9258 -1.8479
7 10 2 -0.9462 0.6037
7 10 3 6.8240 -0.0087
7 10 4 2.6976 -0.2202
7 10 5 -8.8584 -0.6040
7 11 1 0.0503 0.5916
7 11 2 4.4883 -0.8052
7 11 3 -0.0607 0.5546
7 11 4 2.8685 0.8303
7 11 5 -0.6067 -0.4708
7 12 1 2.5421 -0.8406
7 12 2 -4.5454 -0.6147
7 12 3 7.8441 -1.1016
7 12 4 0.7130 -0.1024
7 13 1 -1.1909 -1.9228
7 13 2 0.5181 0.1726
7 13 3 -5.2581 -0.3778
7 14 1 -7.5205 0.7708
7 14 2 -1.1576 -0.6722
8 0 0 -19.8856 0.5956
8 0 2 4.2334 6.7077
8 0 4 2.8529 -3.1782
8 0 6 5.0335 -1.0007
8 1 0 -12.7689 -0.9787
8 1 1 -16.8132 -2.8568
8 1 2 29.9559 2.0846
8 1 3 6.8434 -3.5114
8 1 4 -1.5956 -1.5183
8 1 5 -3.0705 3.5174
8 1 6 -3.2988 -1.9022
8 1 7 0.0145 -0.1944
8 2 0 -41.9793 -6.0377
8 2 1 5.5490 -3.5379
8 2 2 -2.1896 -2.6919
8 2 3 15.6119 2.0506
8 2 4 -2.4632 0.7203
8 2 5 -2.4192 0.5281
8 2 6 -5.9552 1.8075
8 2 7 -3.3705 1.3613
8 3 0 -6.5461 -7.0137
8 3 1 -24.8981 -0.7323
8 3 2 -1.3861 -0.1435
8 3 3 7.9518 0.5177
8 3 4 4.9973 -0.6248
8 3 5 -0.7881 -1.3674
8 3 6 -0.6237 -0.4059
8 3 7 -3.8126 0.3990
8 4 0 -4.4295 -0.9188
8 4 1 -25.5531 0.9706
8 4 2 0.7033 -0.9745
8 4 3 11.1554 -1.2736
8 4 4 4.4872 -0.3284
8 4 5 -2.6199 -0.1967
8 4 6 2.4438 -1.2322
8 4 7 -1.0156 -0.6384
8 5 0 -53.4543 2.8759
8 5 1 9.4410 -1.3810
8 5 2 9.0648 1.7630
8 5 3 -3.0887 -1.1641
8 5 4 7.1043 0.3045
8 5 5 -0.2354 0.6709
8 5 6 -0.8057 0.2992
8 5 7 -0.5641 -0.1124
8 6 0 -6.4342 -0.7563
8 6 1 -2.1206 2.8569
8 6 2 4.0769 1.3021
8 6 3 4.7814 -0.3739
8 6 4 -0.8350 0.3297
8 6 5 14.0977 0.7484
8 6 6 -3.1431 -0.8223
8 7 0 33.1129 6.8529
8 7 1 -1.0315 0.8340
8 7 2 -8.1278 -0.1154
8 7 3 1.7695 0.6029
8 7 4 4.5974 0.5373
8 7 5 7.3589 -0.4966
8 7 6 8.6413 -0.7329
8 8 0 16.1442 2.4413
8 8 1 -0.2618 0.9723
8 8 2 4.9354 0.6281
8 8 3 -6.5139 0.3527
8 8 4 -6.0786 0.5297
8 8 5 -5.1162 0.6165
8 8 6 3.5992 -0.6099
8 9 0 -25.1971 2.9078
8 9 1 10.5321 0.9275
8 9 2 5.7424 0.0891
8 9 3 1.2061 0.4787
8 9 4 -8.2982 -0.1847
8 9 5 -14.2405 0.4273
8 10 0 -4.4237 2.3992
8 10 1 3.6964 0.5779
8 10 2 5.4855 0.8583
8 10 3 3.6557 -0.8682
8 10 4 -0.8074 -0.0050
8 10 5 6.0309 -0.2305
8 11 0 18.8686 -1.6079
8 11 1 2.3381 1.7520
8 11 2 -0.8410 0.8676
8 11 3 -5.9662 -0.3519
8 11 4 2.7338 -0.4396
8 12 0 -0.3651 1.7408
8 12 1 -1.4599 -0.9800
8 12 2 -1.1732 0.4368
8 12 3 1.5237 -0.3235
8 12 4 -4.5364 0.3129
8 13 0 -8.1571 -3.0512
8 13 1 -6.1836 -0.1560
8 13 2 3.8021 0.0611
8 13 3 4.9168 0.6328
8 14 0 -6.4719 0.7934
8 14 1 -2.5427 -1.2860
8 14 2 4.7029 -0.0976
9 0 1 -4.2868 -8.9439
9 0 3 -8.1043 -7.2318
9 0 5 8.3364 -9.5853
9 0 7 10.0341 -2.2959
9 1 1 -7.3995 1.9002
9 1 2 6.0278 6.0684
9 1 3 2.6619 3.0025
9 1 4 2.9589 3.4214
9 1 5 -2.6118 1.4181
9 1 6 3.3504 4.0000
9 1 7 -4.0112 0.9264
9 2 1 20.1337 0.1723
9 2 2 -4.4184 0.5956
9 2 3 11.5837 5.3916
9 2 4 1.2380 -1.3193
9 2 5 1.2941 4.7249
9 2 6 -3.7571 0.5180
9 2 7 -5.3753 1.6428
9 3 1 -3.8005 0.6198
9 3 2 17.3662 -1.5268
9 3 3 -1.3866 -1.4651
9 3 4 -6.8695 -2.4921
9 3 5 2.6065 -0.9391
9 3 6 1.2969 -0.4450
9 3 7 -2.8785 -0.8532
9 4 1 4.4269 3.7601
9 4 2 -6.2030 -0.2063
9 4 3 -10.7232 -0.7901
9 4 4 7.2439 1.3246
9 4 5 -2.1855 -0.7624
9 4 6 -4.9057 -1.1093
9 4 7 5.7864 0.2306
9 5 1 3.6615 1.0867
9 5 2 0.4071 3.4253
9 5 3 1.2385 0.8662
9 5 4 -4.4359 2.6571
9 5 5 2.5580 -0.4023
9 5 6 -2.3228 1.5732
9 6 1 5.1072 2.1240
9 6 2 14.8510 -0.1249
9 6 3 7.0600 0.0261
9 6 4 -2.6861 -1.5803
9 6 5 -2.9004 0.3818
9 6 6 3.2169 0.5244
9 7 1 20.5079 -1.1774
9 7 2 4.4508 0.2191
9 7 3 -4.8890 -1.5866
9 7 4 0.6630 0.7843
9 7 5 1.8453 -0.5407
9 7 6 1.7667 -0.5309
9 8 1 -1.7305 0.3911
9 8 2 7.0381 -0.4796
9 8 3 -3.2082 0.3949
9 8 4 -11.9234 0.3263
9 8 5 -2.8468 0.3878
9 8 6 2.6404 0.3987
9 9 1 4.3725 -0.6260
9 9 2 -6.3953 -1.7847
9 9 3 2.6800 -0.0620
9 9 4 2.2657 -0.5265
9 9 5 -4.6822 -0.1638
9 10 1 1.1368 -2.9617
9 10 2 3.2833 -1.1726
9 10 3 -1.2765 0.1030
9 10 4 6.4177 -0.1728
9 10 5 2.9425 -1.1699
9 11 1 -1.0683 1.0115
9 11 2 -1.4687 -1.1182
9 11 3 -3.9123 -0.0351
9 11 4 0.6671 0.1476
9 12 1 0.0365 -1.7524
9 12 2 3.5249 0.5290
9 12 3 -10.9172 -0.9562
9 12 4 -10.7330 0.7696
9 13 1 4.7617 -0.1905
9 13 2 -8.5198 -0.2921
9 13 3 7.9304 -0.4127
9 14 1 0.5807 0.9986
10 0 0 13.4323 -9.1379
10 0 2 8.2843 -8.5489
10 0 4 10.5712 0.4494
10 0 6 -2.1067 0.4847
10 1 0 -7.7646 -0.0468
10 1 1 9.7541 -1.7322
10 1 2 -13.4331 0.5637
10 1 3 -7.5392 1.7644
10 1 4 -3.3681 -0.5968
10 1 5 4.4569 -0.3311
10 1 6 -6.8695 -0.4481
10 1 7 -2.2893 0.9584
10 2 0 10.7242 2.7820
10 2 1 -7.4691 -0.4530
10 2 2 -12.0609 4.7981
10 2 3 -13.9705 1.5551
10 2 4 -6.5646 0.3707
10 2 5 -2.1439 0.4828
10 2 6 0.5956 -0.6193
10 2 7 0.0940 1.8680
10 3 0 7.8788 -1.0836
10 3 1 0.8244 3.6762
10 3 2 -12.0731 2.1841
10 3 3 -1.7801 -0.7236
10 3 4 -6.1609 -1.6222
10 3 5 -1.0169 -0.5221
10 3 6 4.6573 0.0550
10 3 7 3.4092 -2.0780
10 4 0 -9.6826 3.2266
10 4 1 4.8318 2.7725
10 4 2 10.8766 0.1604
10 4 3 -14.9473 -0.9450
10 4 4 5.3458 -1.3007
10 4 5 0.7428 1.5729
10 4 6 2.4714 -0.0323
10 5 0 17.8905 4.8660
10 5 1 2.9171 2.2270
10 5 2 -10.1132 0.7465
10 5 3 3.9796 1.1426
10 5 4 -9.0318 1.2998
10 5 5 1.2355 0.3510
10 5 6 1.3513 1.3324
10 6 0 12.5858 3.7077
10 6 1 6.0733 2.7922
10 6 2 -4.3362 -0.7894
10 6 3 -8.4275 1.2381
10 6 4 -0.3245 0.2830
10 6 5 0.7033 0.0795
10 6 6 2.2163 0.3158
10 7 0 0.9723 4.0395
10 7 1 -0.6571 -0.0381
10 7 2 3.1912 1.1905
10 7 3 -1.4723 -0.9046
10 7 4 0.8205 -0.1375
10 7 5 0.9985 -0.4718
10 7 6 -3.5253 -0.1131
10 8 0 -6.9107 -1.1846
10 8 1 -0.3331 1.3083
10 8 2 3.2173 0.4538
10 8 3 3.3812 -0.1302
10 8 4 2.7500 -0.5059
10 8 5 -1.9859 1.4038
10 9 0 1.0481 2.1402
10 9 1 6.5229 -1.2065
10 9 2 -2.5131 0.9750
10 9 3 1.3673 -0.3867
10 9 4 5.0290 -0.3199
10 9 5 5.8546 0.6677
10 10 0 6.9292 -4.3899
10 10 1 2.0461 0.5505
10 10 2 -4.5198 -0.6216
10 10 3 0.7476 0.2795
10 10 4 2.5850 -1.0084
10 10 5 5.3894 -0.6032
10 11 0 -1.0267 -0.8222
10 11 1 -12.2887 -1.3462
10 11 2 3.7175 -0.4348
10 11 3 0.5668 0.4813
10 11 4 -4.6518 0.2832
10 12 0 -0.6062 -1.9696
10 12 1 -6.1714 -1.1474
10 12 2 -3.2492 -0.4858
10 12 3 -2.6275 0.2383
10 13 0 -1.1951 -2.1963
10 13 1 10.2696 -1.3297
10 13 2 -5.6531 -0.2585
11 0 1 3.8944 -1.0102
11 0 3 1.3930 -0.8060
11 0 5 -8.8612 -0.4884
11 0 7 -4.3388 -0.8150
11 1 1 0.5319 0.8398
11 1 2 -4.6010 0.4546
11 1 3 -6.0324 4.3598
11 1 4 -2.7796 0.8596
11 1 5 0.7067 1.7651
11 1 6 -4.1654 -0.1920
11 2 1 3.4319 0.0240
11 2 2 -4.2593 0.2230
11 2 3 -1.6775 0.8740
11 2 4 -3.1379 0.3395
11 2 5 -1.2553 0.5619
11 2 6 5.2486 -1.5470
11 3 1 -5.5603 1.9783
11 3 2 13.5146 -0.2137
11 3 3 0.1103 -1.1242
11 3 4 3.4870 0.1933
11 3 5 0.5613 -2.5835
11 3 6 1.6009 -0.2041
11 4 1 6.1265 0.4003
11 4 2 5.0568 2.0423
11 4 3 12.4286 0.4928
11 4 4 -0.6602 -0.5556
11 4 5 -0.9153 0.2899
11 4 6 0.3806 0.7477
11 5 1 14.1209 0.3179
11 5 2 -6.4193 0.9183
11 5 3 1.8786 -0.3524
11 5 4 8.0052 0.5900
11 5 5 0.6568 1.8569
11 5 6 1.7134 -0.0854
11 6 1 -3.3585 0.0688
11 6 2 0.1155 -2.5801
11 6 3 -3.1028 0.1439
11 6 4 5.1162 0.4586
11 6 5 4.6872 0.5774
11 6 6 2.0853 -1.2769
11 7 1 -17.4106 -3.1548
11 7 2 -6.7304 -0.2993
11 7 3 0.1324 -2.2426
11 7 4 1.3753 0.0778
11 7 5 1.8313 -0.5199
11 8 1 -8.3452 -0.2135
11 8 2 -9.2435 -2.4356
11 8 3 -3.0369 -0.3976
11 8 4 3.2280 0.6402
11 8 5 10.7647 -0.1183
11 9 1 -1.6650 -3.4406
11 9 2 -4.5410 -0.7868
11 9 3 4.6472 0.2346
11 9 4 0.8974 0.2274
11 9 5 1.7207 -0.2251
11 10 1 -3.2211 -0.2594
11 10 2 0.1853 -0.6486
11 10 3 -5.8799 -0.2529
11 10 4 7.7387 -0.5139
11 11 1 -6.4936 0.8598
11 11 2 -2.3534 0.2369
11 11 3 -0.5955 -1.2510
11 11 4 -7.2533 0.1340
11 12 1 2.4418 0.2676
11 12 2 -5.8055 0.5739
11 12 3 7.9454 -0.6857
11 13 1 5.1453 2.2954
12 0 0 13.5980 -10.5361
12 0 2 10.0265 -8.0884
12 0 4 -0.8449 0.8379
12 0 6 -3.2427 0.9098
12 1 0 10.4672 0.3605
12 1 1 9.5011 -0.4375
12 1 2 -3.8789 -1.3630
12 1 3 7.9887 2.2427
12 1 4 10.1155 0.4763
12 1 5 -4.0996 -0.0469
12 1 6 -2.5525 1.0385
12 2 0 12.6793 5.8551
12 2 1 1.9462 0.0674
12 2 2 3.3208 6.1268
12 2 3 10.2220 -1.3620
12 2 4 -1.4674 0.6974
12 2 5 1.7683 0.9324
12 2 6 -1.7624 0.3475
12 3 0 -15.5365 1.4348
12 3 1 -0.0473 4.7415
12 3 2 13.8221 -1.5967
12 3 3 -2.9993 -0.1302
12 3 4 5.9669 1.0447
12 3 5 -1.4592 -0.3586
12 3 6 1.0076 -1.3643
12 4 0 -1.0198 3.9487
12 4 1 -2.0385 -1.6023
12 4 2 -8.5518 0.2990
12 4 3 13.0020 1.0407
12 4 4 -4.7016 -0.3657
12 4 5 -1.0267 -1.9304
12 4 6 1.8838 0.6114
12 5 0 6.9788 -4.1835
12 5 1 -2.9574 2.3123
12 5 2 4.4176 -1.1646
12 5 3 -1.6495 1.2277
12 5 4 1.7223 -0.8909
12 5 5 3.5139 -0.0446
12 5 6 -3.7513 0.4318
12 6 0 4.8178 4.0464
12 6 1 4.7147 -1.7980
12 6 2 2.0619 -0.7667
12 6 3 -0.7793 -0.6172
12 6 4 3.3989 0.4660
12 6 5 -4.6911 -0.5191
12 6 6 2.3229 -0.5330
12 7 0 -0.2398 -3.8861
12 7 1 0.3017 -0.7380
12 7 2 0.5339 -0.4737
12 7 3 0.2062 -0.8664
12 7 4 -0.3213 -0.6787
12 7 5 3.1292 -0.2798
12 8 0 -3.7941 -2.1556
12 8 1 3.8929 -1.0329
12 8 2 -4.5739 -0.6306
12 8 3 -2.4779 -0.6196
12 8 4 0.4934 0.1505
12 8 5 0.9658 0.1526
12 9 0 6.0329 -1.9031
12 9 1 -2.6301 -1.7806
12 9 2 -3.8878 -0.6486
12 9 3 -0.4506 -0.8731
12 9 4 -2.9082 0.5480
12 10 0 1.8834 -4.8764
12 10 1 -4.7567 -0.3525
12 10 2 -1.4771 -1.0850
12 10 3 3.4341 0.8485
12 10 4 -2.1128 -0.8911
12 11 0 -8.6286 0.4393
12 11 1 -5.8084 -2.2877
12 11 2 5.4368 -0.2545
12 11 3 1.4776 0.4479
12 12 0 -15.5334 -2.8350
12 12 1 3.9521 0.3842
12 12 2 4.7567 0.0395
12 13 0 3.5235 1.3289
13 0 1 -9.8439 7.7662
13 0 3 0.4942 4.8707
13 0 5 7.4408 7.7151
13 1 1 -4.4679 0.4647
13 1 2 -7.9888 -5.2445
13 1 3 -1.2598 3.6333
13 1 4 2.7254 -1.7236
13 1 5 0.5906 1.7780
13 1 6 -0.4254 -4.5525
13 2 1 -11.2761 -0.3734
13 2 2 -9.4250 0.5797
13 2 3 -6.0575 -4.4043
13 2 4 3.0173 -0.5500
13 2 5 1.5072 -3.7211
13 2 6 -3.0735 0.3774
13 3 1 -4.3735 1.1199
13 3 2 -3.1967 1.2006
13 3 3 -1.0542 -1.0888
13 3 4 -3.2901 1.6467
13 3 5 -0.0209 -0.8130
13 3 6 -1.2391 1.1935
13 4 1 -0.4787 -3.0812
13 4 2 1.9623 0.6182
13 4 3 -1.9882 1.1616
13 4 4 -2.9376 0.8538
13 4 5 -0.5374 0.6077
13 4 6 3.9573 -1.0955
13 5 1 -3.7464 0.7919
13 5 2 4.7521 -2.6863
13 5 3 1.4134 0.5042
13 5 4 -2.2584 -2.1620
13 5 5 1.6079 1.5593
13 6 1 -2.0726 -1.4466
13 6 2 -2.8748 -0.7231
13 6 3 4.0174 0.2546
13 6 4 1.7029 -0.9942
13 6 5 -0.0279 -0.3567
13 7 1 3.3078 -1.6201
13 7 2 1.3682 0.4039
13 7 3 0.9766 -0.1182
13 7 4 -2.4633 -0.3716
13 7 5 -10.3800 -0.9948
13 8 1 6.9223 -0.1525
13 8 2 1.0471 -0.5866
13 8 3 -6.2145 -0.8731
13 8 4 -6.1723 0.1845
13 9 1 1.4046 -0.7956
13 9 2 5.4813 1.2818
13 9 3 -3.2912 -0.5596
13 9 4 -3.2861 -0.5756
13 10 1 0.7112 2.5640
13 10 2 3.1567 -0.5232
13 10 3 7.8870 -0.5099
13 11 1 4.8981 0.3964
13 11 2 6.1924 -0.0011
13 11 3 -3.7137 0.1404
13 12 1 2.2554 0.7947
14 0 0 -2.7493 -1.8471
14 0 2 -11.1983 4.8349
14 0 4 -3.9794 -3.1732
14 0 6 5.6930 -1.5007
14 1 0 -13.0101 0.2844
14 1 1 -6.8689 -2.4874
14 1 2 -0.1854 -0.2188
14 1 3 -5.4757 -2.1785
14 1 4 1.6708 0.4286
14 1 5 2.5968 2.0653
14 1 6 0.3295 2.1991
14 2 0 -16.8487 -2.1308
14 2 1 -1.0341 1.9306
14 2 2 0.8543 -0.5582
14 2 3 -2.1662 -2.0737
14 2 4 4.6367 0.5615
14 2 5 3.5587 -0.0472
14 2 6 1.2631 0.1005
14 3 0 9.6936 4.9908
14 3 1 -1.7912 0.8721
14 3 2 -0.8544 -1.1651
14 3 3 -3.7192 1.2072
14 3 4 1.7513 1.7691
14 3 5 1.5937 -1.9037
14 4 0 3.2781 -0.7197
14 4 1 5.7172 -2.8259
14 4 2 -2.7474 -1.2208
14 4 3 1.0762 1.6162
14 4 4 -0.9980 0.2025
14 4 5 3.1252 -1.3562
14 5 0 5.0163 -4.0551
14 5 1 -0.0344 -1.0750
14 5 2 3.3989 -0.6451
14 5 3 3.6662 -1.0869
14 5 4 -4.6024 -1.0093
14 5 5 -4.8665 1.5058
14 6 0 -9.7446 -0.0635
14 6 1 -3.3254 -2.7772
14 6 2 5.3006 1.2302
14 6 3 -1.5045 -0.9421
14 6 4 0.3939 0.3166
14 6 5 -0.4400 -0.2333
14 7 0 -11.1262 -5.2230
14 7 1 -0.8379 0.2775
14 7 2 -3.7819 -0.5473
14 7 3 -0.7299 0.7749
14 7 4 6.9164 -0.2738
14 7 5 -6.0276 0.5722
14 8 0 -3.5286 0.6379
14 8 1 -2.0085 -1.9050
14 8 2 1.1043 -0.1222
14 8 3 4.4634 0.3024
14 8 4 -1.9169 -0.1174
14 9 0 -0.0983 -2.0134
14 9 1 -1.8401 0.7565
14 9 2 7.4372 -0.4757
14 9 3 -1.0307 0.3847
14 9 4 -9.6750 0.8174
14 10 0 2.7433 1.4584
14 10 1 -3.7325 -0.1812
14 10 2 3.1543 0.4838
14 10 3 -4.1449 -0.3881
14 11 0 -4.8264 1.1348
14 11 1 13.5820 0.6319
14 11 2 -7.8124 0.4776
15 0 1 9.9423 3.9894
15 0 3 -0.0427 9.8240
15 0 5 -7.4461 4.2538
15 1 1 1.4281 0.4468
15 1 2 6.3972 -3.8078
15 1 3 7.9033 0.5640
15 1 4 -5.2112 -4.4930
15 1 5 -0.1518 0.2842
15 2 1 4.8031 0.8239
15 2 2 6.0393 0.7418
15 2 3 0.4962 -6.4275
15 2 4 0.0949 -1.9562
15 2 5 0.3653 -3.1532
15 3 1 8.1670 -1.3696
15 3 2 -4.9719 1.3867
15 3 3 -0.8729 -0.3395
15 3 4 4.1251 2.6841
15 3 5 -0.0095 1.0993
15 4 1 -4.2328 -1.7256
15 4 2 5.9536 -1.5691
15 4 3 1.8665 0.2546
15 4 4 -2.8474 2.1453
15 4 5 0.4479 0.4897
15 5 1 0.8250 1.0301
15 5 2 -3.9391 -2.9748
15 5 3 -1.7992 0.9117
15 5 4 4.3039 -2.6188
15 5 5 -5.9531 -0.3447
15 6 1 1.2907 -1.7598
15 6 2 -2.0177 1.1511
15 6 3 -1.2965 -0.1745
15 6 4 1.3228 -0.7347
15 7 1 3.7304 1.4806
15 7 2 -0.1114 -0.6391
15 7 3 3.3822 0.8983
15 7 4 0.3856 0.1263
15 8 1 -2.2369 -0.6341
15 8 2 2.2370 1.7239
15 8 3 4.5977 -0.6241
15 8 4 7.5074 -0.6219
15 9 1 -9.9546 1.6444
15 9 2 -5.4466 1.3354
15 9 3 -1.4761 0.5021
15 10 1 -0.8754 1.4508
15 10 2 -2.9790 0.3841
15 11 1 14.5942 0.5958
16 0 0 -6.8863 7.9084
16 0 2 6.9143 7.6729
16 0 4 0.1787 -0.6425
16 1 0 0.1998 -1.1947
16 1 1 -8.1153 -3.9096
16 1 2 -1.8767 1.0066
16 1 3 6.2842 -2.2333
16 1 4 -7.1246 -0.6368
16 1 5 -5.2503 0.3593
16 2 0 -5.5157 -3.4057
16 2 1 -5.8779 3.7002
16 2 2 -3.0065 -5.0912
16 2 3 -2.4246 0.5107
16 2 4 -1.1452 0.1815
16 2 5 -4.7475 -2.9529
16 3 0 -3.1753 6.0350
16 3 1 6.4501 -0.0972
16 3 2 -4.1565 3.0776
16 3 3 2.4726 0.2242
16 3 4 -1.9515 -1.2396
16 3 5 7.0159 -0.1686
16 4 0 9.3145 -2.6186
16 4 1 0.3989 1.4946
16 4 2 6.9081 -1.0581
16 4 3 -5.6879 -0.6643
16 4 4 8.5116 -0.4466
16 4 5 6.6343 2.3489
16 5 0 -2.2021 3.9302
16 5 1 2.6208 -2.4887
16 5 2 -5.7310 0.2056
16 5 3 4.2860 -1.7290
16 5 4 3.2731 0.3796
16 6 0 8.6923 -2.9806
16 6 1 -3.4940 1.2091
16 6 2 -2.5631 2.0535
16 6 3 -2.2829 0.7387
16 6 4 -9.7588 -0.6120
16 7 0 3.1301 0.4739
16 7 1 0.1026 0.2844
16 7 2 0.2416 -0.2444
16 7 3 -2.3849 0.9702
16 7 4 -7.8613 0.9798
16 8 0 -1.2674 1.2092
16 8 1 0.4801 1.0313
16 8 2 -2.8448 -0.0910
16 8 3 1.6770 -0.1275
16 9 0 -0.8346 0.5444
16 9 1 -3.2677 1.2265
16 9 2 -5.5448 1.1278
16 10 0 -4.7197 3.3614
16 10 1 -2.2851 -0.7628
17 0 1 -6.7023 -1.3930
17 0 3 5.8781 4.4540
17 1 1 6.9735 -0.6974
17 1 2 0.8214 0.7613
17 1 3 4.4319 -2.5604
17 1 4 1.3252 -3.7637
17 2 1 2.8519 -0.5196
17 2 2 0.1236 -1.2540
17 2 3 -0.7216 -2.3288
17 2 4 -3.5120 -0.1479
17 3 1 -0.3894 -2.8713
17 3 2 2.4414 1.2582
17 3 3 -1.2565 1.0732
17 3 4 -3.1855 1.0724
17 4 1 0.3585 1.8863
17 4 2 2.7731 0.3345
17 4 3 -3.9225 -0.4905
17 4 4 5.2743 -1.3618
17 5 1 -5.5437 0.1490
17 5 2 3.5195 -0.6220
17 5 3 -1.6467 -1.6456
17 5 4 -6.5355 0.1776
17 6 1 5.0544 -0.2850
17 6 2 -6.7719 0.9134
17 6 3 2.7961 0.2254
17 7 1 -5.1181 1.0250
17 7 2 4.8107 -0.1484
17 7 3 -2.0354 0.7812
17 8 1 0.0096 -0.0290
17 8 2 -1.0355 0.3958
17 9 1 5.5688 1.4128
18 0 0 13.1349 7.4044
18 0 2 1.1913 0.3244
18 0 4 -5.6799 2.7066
18 1 0 1.0549 -2.6938
18 1 1 5.6185 -1.5361
18 1 2 1.3429 -0.8546
18 1 3 -3.8178 0.9891
18 1 4 -4.5073 -0.1825
18 2 0 5.7057 2.3901
18 2 1 -1.5375 1.8783
18 2 2 -1.4282 -2.8552
18 2 3 -1.2682 1.6902
18 2 4 7.1324 -1.2574
18 3 0 -6.6519 0.0114
18 3 1 5.6927 -0.0337
18 3 2 1.5047 1.8615
18 3 3 -3.7576 0.7541
18 3 4 -0.1605 -0.2720
18 4 0 -5.6504 -1.6605
18 4 1 0.6540 -0.0816
18 4 2 2.7755 0.8594
18 4 3 -1.5308 -0.8356
18 5 0 3.0946 0.5278
18 5 1 -8.0364 -1.3269
18 5 2 1.2453 0.3067
18 5 3 -6.8471 -0.2433
18 6 0 1.0083 -1.9026
18 6 1 4.0030 2.2501
18 6 2 -8.9014 -0.2530
18 6 3 8.3388 0.7537
18 7 0 2.5567 2.1655
18 7 1 3.7299 0.0476
18 7 2 8.1873 -0.2093
18 8 0 -5.7236 -0.8448
18 8 1 6.6724 0.9495
19 0 1 3.3736 0.0543
19 0 3 -5.1726 -5.3570
19 1 1 -1.8611 -1.0066
19 1 2 -0.5376 0.3853
19 1 3 3.1579 -2.5724
19 2 1 -0.4901 -3.2725
19 2 2 -4.5676 -1.9847
19 2 3 -1.2000 3.7520
19 3 1 -2.1690 -0.6256
19 3 2 -4.0008 0.5567
19 3 3 -1.0111 1.4575
19 4 1 -2.2197 1.2078
19 4 2 0.5840 0.7991
19 4 3 6.9511 -0.0463
19 5 1 -3.6103 -1.2335
19 5 2 -0.7734 0.0540
19 6 1 -2.2681 2.3651
19 6 2 -6.9040 -0.2876
19 7 1 11.6370 0.1292
20 0 0 0.1058 -1.8596
20 0 2 1.9283 -2.6047
20 1 0 2.1928 -1.8342
20 1 1 -3.4853 2.4486
20 1 2 1.8065 -2.9598
20 2 0 -4.4327 1.8310
20 2 1 3.7673 -0.0286
20 2 2 -5.7681 1.3363
20 3 0 11.4739 -3.2961
20 3 1 -1.7836 -1.1008
20 3 2 -4.6192 -1.5831
20 4 0 -1.3572 -0.2008
20 4 1 -0.6805 -4.4768
20 4 2 2.3169 0.6232
20 5 0 -5.3006 -5.0870
20 5 1 -0.8123 1.4025
21 0 1 -0.1963 1.0176
21 1 1 5.1111 -0.9423
21 2 1 0.4003 -1.5352
0 0 0 0.0 0.0
;
_shelx_fab_checksum              3467
_olex2_diffrn_ambient_temperature_device 293
_olex2_submission_original_sample_id MUF-15
_olex2_submission_special_instructions 'No special instructions were received'
loop_
_space_group_symop_operation_xyz
'x, y, z'
'-x+1/2, -y, z'
'-x+1/2, y+1/2, -z+1/2'
'x, -y+1/2, -z+1/2'
'-x, -y, -z'
'x-1/2, y, -z'
'x-1/2, -y-1/2, z-1/2'
'-x, y-1/2, z-1/2'
loop_
_atom_site_label
_atom_site_type_symbol
_atom_site_fract_x
_atom_site_fract_y
_atom_site_fract_z
_atom_site_U_iso_or_equiv
_atom_site_adp_type
_atom_site_occupancy
_atom_site_site_symmetry_order
_atom_site_calc_flag
_atom_site_refinement_flags_posn
_atom_site_refinement_flags_adp
_atom_site_refinement_flags_occupancy
_atom_site_disorder_assembly
_atom_site_disorder_group
Co3 Co 0.54342(10) 0.53604(18) 0.0780(3) 0.0889(19) Uani 1 1 d . . . . .
Co2 Co 0.58949(10) 0.4098(2) 0.9405(3) 0.107(2) Uani 1 1 d . . . . .
Co1 Co 0.63210(11) 0.4532(2) 1.2180(3) 0.116(2) Uani 1 1 d . . . . .
O9 O 0.5247(5) 0.5152(7) 0.8957(13) 0.106(5) Uani 1 1 d . U . . .
O8 O 0.4928(5) 0.3819(8) 0.9546(12) 0.101(5) Uani 1 1 d . U . . .
O1 O 0.5761(4) 0.4453(7) 1.1021(10) 0.099(5) Uani 1 1 d . . . . .
O5 O 0.8973(5) 0.4277(7) 1.0086(11) 0.094(5) Uani 1 1 d . U . . .
O11 O 0.5445(4) 0.5592(8) 0.2582(13) 0.106(5) Uani 1 1 d . U . . .
O6 O 0.5802(5) 0.4677(8) 0.7993(12) 0.110(5) Uani 1 1 d . U . . .
O3 O 0.6572(4) 0.3872(8) 0.9168(12) 0.126(6) Uani 1 1 d . U . . .
O10 O 0.5910(5) 0.4927(8) 0.3555(12) 0.108(5) Uani 1 1 d . U . . .
O4 O 0.8479(5) 0.4587(8) 1.1496(14) 0.113(5) Uani 1 1 d . U . . .
O2 O 0.6802(5) 0.4086(9) 1.1060(15) 0.153(7) Uani 1 1 d . U . . .
C10 C 0.5423(4) 0.5459(7) 0.6932(12) 0.083(6) Uani 1 1 d . U . . .
C12 C 0.5560(4) 0.5234(6) 0.5794(15) 0.102(7) Uani 1 1 d G U . . .
H12 H 0.5708 0.4844 0.5729 0.123 Uiso 1 1 calc R . . . .
C15 C 0.5475(4) 0.5593(8) 0.4752(11) 0.094(6) Uani 1 1 d G U . . .
C14 C 0.5254(5) 0.6176(7) 0.4848(12) 0.118(7) Uani 1 1 d G U . . .
H14 H 0.5198 0.6415 0.4151 0.142 Uiso 1 1 calc R . . . .
C13 C 0.5118(5) 0.6401(6) 0.5986(15) 0.133(9) Uani 1 1 d G U . . .
H13 H 0.4970 0.6791 0.6051 0.159 Uiso 1 1 calc R . . . .
C11 C 0.5202(5) 0.6043(8) 0.7028(11) 0.120(8) Uani 1 1 d G U . . .
H11 H 0.5111 0.6193 0.7790 0.144 Uiso 1 1 calc R . . . .
O7 O 0.5581(5) 0.3321(8) 0.8958(13) 0.140(6) Uani 1 1 d . U . . .
C20 C 0.4387(7) 0.2899(11) 0.8251(18) 0.104(8) Uani 1 1 d . U . . .
H20 H 0.4218 0.3154 0.8783 0.125 Uiso 1 1 calc R . . . .
C19 C 0.5100(10) 0.2500 0.7500 0.089(9) Uani 1 2 d S TU P . .
H19 H 0.5424 0.2500 0.7500 0.107 Uiso 1 2 calc RS T P . .
C9 C 0.5485(9) 0.5122(14) 0.804(3) 0.104(7) Uani 1 1 d . U . . .
C4 C 0.7462(5) 0.3493(9) 0.8501(15) 0.189(14) Uani 1 1 d . U . . .
H4 H 0.7219 0.3322 0.8046 0.227 Uiso 1 1 calc R . . . .
C2 C 0.7367(4) 0.3838(8) 0.9552(14) 0.101(7) Uani 1 1 d G U . . .
C3 C 0.7730(5) 0.4093(7) 1.0233(11) 0.107(7) Uani 1 1 d G U . . .
H3 H 0.7666 0.4325 1.0937 0.128 Uiso 1 1 calc R . . . .
C7 C 0.8188(4) 0.4002(8) 0.9863(13) 0.100(7) Uani 1 1 d G U . . .
C6 C 0.8283(4) 0.3657(10) 0.8811(15) 0.188(14) Uani 1 1 d G U . . .
H6 H 0.8590 0.3596 0.8563 0.226 Uiso 1 1 calc R . . . .
C5 C 0.7920(6) 0.3402(11) 0.8130(14) 0.25(2) Uani 1 1 d G U . . .
H5 H 0.7984 0.3171 0.7427 0.298 Uiso 1 1 calc R . . . .
C18 C 0.4862(8) 0.2931(12) 0.823(2) 0.106(7) Uani 1 1 d . U . . .
C8 C 0.8591(10) 0.4303(13) 1.054(3) 0.098(8) Uani 1 1 d . U . . .
C16 C 0.5622(10) 0.5354(14) 0.355(3) 0.106(8) Uani 1 1 d . U . . .
C1 C 0.6881(9) 0.3988(10) 1.000(3) 0.089(7) Uani 1 1 d . U . . .
O12 O 0.6868(6) 0.4554(8) 1.3435(15) 0.039(9) Uiso 0.492(18) 1 d . . . A 1
H12A H 0.7064 0.4180 1.3844 0.059 Uiso 0.492(18) 1 d GR . . A 1
H12B H 0.7018 0.4954 1.3882 0.059 Uiso 0.492(18) 1 d GR . . A 1
C21 C 0.4166(11) 0.2500 0.7500 0.110(12) Uani 1 2 d S TU P . .
H21 H 0.3842 0.2500 0.7500 0.132 Uiso 1 2 calc RS T P . .
C17 C 0.5117(12) 0.3404(15) 0.900(2) 0.112(9) Uani 1 1 d . U . . .
H1 H 0.5581 0.4080 1.1422 0.27(17) Uiso 1 1 d . . . . .
O12A O 0.6144(6) 0.3612(10) 1.2833(17) 0.059(9) Uiso 0.508(18) 1 d . U . A 2
H12C H 0.6016 0.3250 1.2333 0.089 Uiso 0.508(18) 1 d GR . . A 2
H12D H 0.6135 0.3432 1.3702 0.089 Uiso 0.508(18) 1 d GR . . A 2
loop_
_atom_site_aniso_label
_atom_site_aniso_U_11
_atom_site_aniso_U_22
_atom_site_aniso_U_33
_atom_site_aniso_U_23
_atom_site_aniso_U_13
_atom_site_aniso_U_12
Co3 0.055(3) 0.151(4) 0.062(3) -0.011(2) -0.0044(19) 0.003(2)
Co2 0.064(3) 0.162(5) 0.094(4) -0.027(3) 0.002(2) -0.003(2)
Co1 0.083(3) 0.193(5) 0.073(3) -0.004(3) 0.003(2) 0.013(2)
O9 0.090(10) 0.159(13) 0.070(10) 0.002(9) 0.046(8) 0.025(9)
O8 0.101(12) 0.121(13) 0.081(10) -0.005(10) 0.009(8) 0.015(9)
O1 0.099(11) 0.153(14) 0.043(9) 0.026(9) 0.002(8) -0.032(11)
O5 0.061(9) 0.163(14) 0.056(9) 0.005(8) 0.009(8) 0.012(8)
O11 0.089(11) 0.166(14) 0.064(10) -0.010(8) 0.014(8) 0.001(8)
O6 0.077(10) 0.173(13) 0.080(10) -0.021(9) 0.015(8) 0.013(8)
O3 0.043(9) 0.235(18) 0.101(10) -0.042(10) 0.005(7) 0.008(9)
O10 0.097(11) 0.163(13) 0.064(9) -0.009(9) 0.018(8) 0.007(9)
O4 0.096(10) 0.174(15) 0.069(10) 0.001(9) 0.027(8) 0.002(9)
O2 0.069(10) 0.29(2) 0.099(10) -0.045(11) 0.010(9) 0.008(11)
C10 0.038(12) 0.146(14) 0.066(9) -0.023(8) 0.020(8) -0.019(9)
C12 0.093(15) 0.146(14) 0.068(10) -0.021(8) 0.024(9) -0.008(10)
C15 0.071(14) 0.139(14) 0.071(9) -0.020(8) 0.017(8) -0.032(10)
C14 0.120(17) 0.151(14) 0.083(11) -0.020(9) 0.032(10) -0.005(11)
C13 0.145(19) 0.175(15) 0.078(12) -0.015(10) 0.031(12) 0.027(13)
C11 0.120(17) 0.164(15) 0.076(12) -0.025(9) 0.024(10) 0.016(11)
O7 0.083(11) 0.166(16) 0.172(13) -0.052(12) -0.002(9) -0.003(9)
C20 0.073(13) 0.14(2) 0.102(17) -0.019(14) 0.011(10) -0.003(9)
C19 0.069(17) 0.116(19) 0.082(18) -0.008(15) 0.000 0.000
C9 0.070(15) 0.171(15) 0.070(11) -0.016(9) 0.029(9) 0.006(10)
C4 0.053(11) 0.33(3) 0.186(17) -0.13(2) 0.015(10) 0.014(12)
C2 0.053(9) 0.147(18) 0.103(13) -0.010(12) 0.014(8) 0.011(8)
C3 0.055(9) 0.156(19) 0.110(13) -0.013(13) 0.018(8) 0.005(9)
C7 0.060(9) 0.152(17) 0.088(12) -0.006(11) 0.016(8) 0.015(9)
C6 0.049(12) 0.35(3) 0.169(18) -0.13(2) 0.024(10) 0.000(12)
C5 0.047(11) 0.45(4) 0.24(2) -0.21(3) 0.017(11) 0.003(13)
C18 0.069(12) 0.134(15) 0.115(16) -0.032(13) 0.006(9) 0.001(9)
C8 0.065(10) 0.156(18) 0.072(13) 0.008(11) 0.017(8) 0.008(9)
C16 0.094(17) 0.156(16) 0.067(10) -0.017(9) 0.012(9) 0.002(11)
C1 0.049(10) 0.123(18) 0.096(12) -0.014(12) 0.006(8) 0.005(9)
C21 0.068(18) 0.14(3) 0.12(2) -0.024(18) 0.000 0.000
C17 0.080(12) 0.136(16) 0.119(18) -0.037(13) 0.002(10) -0.001(10)
loop_
_atom_type_symbol
_atom_type_description
_atom_type_scat_dispersion_real
_atom_type_scat_dispersion_imag
_atom_type_scat_source
C C 0.0181 0.0091 'International Tables Vol C Tables 4.2.6.8 and 6.1.1.4'
Co Co -2.3653 3.6143 'International Tables Vol C Tables 4.2.6.8 and 6.1.1.4'
H H 0.0000 0.0000 'International Tables Vol C Tables 4.2.6.8 and 6.1.1.4'
O O 0.0492 0.0322 'International Tables Vol C Tables 4.2.6.8 and 6.1.1.4'
loop_
_geom_angle_atom_site_label_1
_geom_angle_atom_site_label_2
_geom_angle_atom_site_label_3
_geom_angle
_geom_angle_site_symmetry_1
_geom_angle_site_symmetry_3
O9 Co3 O9 78.5(6) 1_554 5_666
O9 Co3 O1 92.4(5) 1_554 1_554
O8 Co3 O9 83.3(6) 5_666 1_554
O8 Co3 O9 89.4(6) 5_666 5_666
O8 Co3 O1 174.3(6) 5_666 1_554
O1 Co3 O9 86.2(5) 1_554 5_666
O5 Co3 O9 86.5(5) 2_664 1_554
O5 Co3 O9 164.5(5) 2_664 5_666
O5 Co3 O8 92.4(6) 2_664 5_666
O5 Co3 O1 90.9(5) 2_664 1_554
O5 Co3 O11 105.1(5) 2_664 .
O11 Co3 O9 90.3(5) . 5_666
O11 Co3 O9 166.1(5) . 1_554
O11 Co3 O8 88.5(6) . 5_666
O11 Co3 O1 95.1(6) . 1_554
O1 Co2 O6 116.1(6) . .
O1 Co2 O3 113.3(6) . .
O6 Co2 O3 100.1(6) . .
O7 Co2 O1 117.4(6) . .
O7 Co2 O6 105.2(6) . .
O7 Co2 O3 102.5(7) . .
O1 Co1 O10 92.1(5) . 1_556
O1 Co1 O4 93.8(6) . 2_665
O1 Co1 O2 96.8(6) . .
O1 Co1 O12 175.5(7) . .
O1 Co1 O12A 86.9(7) . .
O10 Co1 O4 93.3(6) 1_556 2_665
O10 Co1 O12 86.7(6) 1_556 .
O10 Co1 O12A 89.3(7) 1_556 .
O4 Co1 O12 90.6(7) 2_665 .
O4 Co1 O12A 177.3(7) 2_665 .
O2 Co1 O10 170.1(6) . 1_556
O2 Co1 O4 90.6(7) . 2_665
O2 Co1 O12 84.2(6) . .
O2 Co1 O12A 86.7(7) . .
Co3 O9 Co3 101.5(6) 1_556 5_666
C9 O9 Co3 124.6(14) . 5_666
C9 O9 Co3 130.3(15) . 1_556
C17 O8 Co3 140.0(17) . 5_666
Co3 O1 H1 120.7(10) 1_556 .
Co2 O1 Co3 108.4(6) . 1_556
Co2 O1 Co1 115.8(7) . .
Co2 O1 H1 100.9(9) . .
Co1 O1 Co3 110.1(6) . 1_556
Co1 O1 H1 100.9(8) . .
C8 O5 Co3 126.5(18) . 2_666
C16 O11 Co3 135.7(19) . .
C9 O6 Co2 120.3(17) . .
C1 O3 Co2 121.8(14) . .
C16 O10 Co1 132(2) . 1_554
C8 O4 Co1 131.3(17) . 2_665
C1 O2 Co1 140.9(18) . .
C12 C10 C11 120.0 . .
C12 C10 C9 124.0(18) . .
C11 C10 C9 116.0(18) . .
C10 C12 H12 120.0 . .
C10 C12 C15 120.0 . .
C15 C12 H12 120.0 . .
C12 C15 C16 119.9(19) . .
C14 C15 C12 120.0 . .
C14 C15 C16 120.1(19) . .
C15 C14 H14 120.0 . .
C15 C14 C13 120.0 . .
C13 C14 H14 120.0 . .
C14 C13 H13 120.0 . .
C11 C13 C14 120.0 . .
C11 C13 H13 120.0 . .
C10 C11 H11 120.0 . .
C13 C11 C10 120.0 . .
C13 C11 H11 120.0 . .
C17 O7 Co2 110.0(17) . .
C18 C20 H20 120.1 . .
C21 C20 H20 120.1 . .
C21 C20 C18 120(3) . .
C18 C19 H19 119.4 4_556 .
C18 C19 H19 119.4 . .
C18 C19 C18 121(3) . 4_556
O9 C9 O6 118(3) . .
O9 C9 C10 127(3) . .
O6 C9 C10 114(2) . .
C2 C4 H4 120.0 . .
C2 C4 C5 120.0 . .
C5 C4 H4 120.0 . .
C4 C2 C3 120.0 . .
C4 C2 C1 123.9(16) . .
C3 C2 C1 116.1(16) . .
C2 C3 H3 120.0 . .
C2 C3 C7 120.0 . .
C7 C3 H3 120.0 . .
C3 C7 C8 121.4(17) . .
C6 C7 C3 120.0 . .
C6 C7 C8 118.5(17) . .
C7 C6 H6 120.0 . .
C5 C6 C7 120.0 . .
C5 C6 H6 120.0 . .
C4 C5 H5 120.0 . .
C6 C5 C4 120.0 . .
C6 C5 H5 120.0 . .
C20 C18 C19 118(3) . .
C20 C18 C17 121(3) . .
C19 C18 C17 121(3) . .
O5 C8 O4 127(3) . .
O5 C8 C7 118(3) . .
O4 C8 C7 115(2) . .
O11 C16 C15 120(3) . .
O10 C16 O11 124(3) . .
O10 C16 C15 116(3) . .
O3 C1 C2 112(2) . .
O2 C1 O3 126(2) . .
O2 C1 C2 121(2) . .
Co1 O12 H12A 131.1 . .
Co1 O12 H12B 128.5 . .
H12A O12 H12B 100.3 . .
C20 C21 C20 123(3) 4_556 .
C20 C21 H21 118.4 4_556 .
C20 C21 H21 118.4 . .
O8 C17 O7 125(3) . .
O8 C17 C18 123(3) . .
O7 C17 C18 112(3) . .
Co1 O12A H12C 126.5 . .
Co1 O12A H12D 131.0 . .
H12C O12A H12D 102.2 . .
loop_
_geom_bond_atom_site_label_1
_geom_bond_atom_site_label_2
_geom_bond_distance
_geom_bond_site_symmetry_2
Co3 O9 2.254(15) 5_666
Co3 O9 2.113(15) 1_554
Co3 O8 2.052(17) 5_666
Co3 O1 2.150(15) 1_554
Co3 O5 2.016(15) 2_664
Co3 O11 2.033(15) .
Co2 O1 1.959(13) .
Co2 O6 1.990(16) .
Co2 O3 2.019(13) .
Co2 O7 1.935(16) .
Co1 O1 2.056(12) .
Co1 O10 2.086(15) 1_556
Co1 O4 2.086(18) 2_665
Co1 O2 2.073(17) .
Co1 O12 2.086(18) .
Co1 O12A 2.13(2) .
O9 Co3 2.254(15) 5_666
O9 Co3 2.113(15) 1_556
O9 C9 1.22(2) .
O8 Co3 2.052(17) 5_666
O8 C17 1.19(3) .
O1 Co3 2.150(15) 1_556
O1 H1 1.040(14) .
O5 Co3 2.016(15) 2_666
O5 C8 1.21(2) .
O11 C16 1.28(3) .
O6 C9 1.31(3) .
O3 C1 1.29(2) .
O10 Co1 2.086(15) 1_554
O10 C16 1.22(3) .
O4 Co1 2.086(18) 2_665
O4 C8 1.25(2) .
O2 C1 1.20(2) .
C10 C12 1.3900 .
C10 C11 1.3900 .
C10 C9 1.42(3) .
C12 H12 0.9300 .
C12 C15 1.3900 .
C15 C14 1.3900 .
C15 C16 1.47(3) .
C14 H14 0.9300 .
C14 C13 1.3900 .
C13 H13 0.9300 .
C13 C11 1.3900 .
C11 H11 0.9300 .
O7 C17 1.34(3) .
C20 H20 0.9300 .
C20 C18 1.37(3) .
C20 C21 1.34(2) .
C19 H19 0.9300 .
C19 C18 1.39(2) 4_556
C19 C18 1.39(2) .
C4 H4 0.9300 .
C4 C2 1.3900 .
C4 C5 1.3900 .
C2 C3 1.3900 .
C2 C1 1.51(2) .
C3 H3 0.9300 .
C3 C7 1.3900 .
C7 C6 1.3900 .
C7 C8 1.51(3) .
C6 H6 0.9300 .
C6 C5 1.3900 .
C5 H5 0.9300 .
C18 C17 1.50(3) .
O12 H12A 1.0697 .
O12 H12B 1.0671 .
C21 C20 1.34(2) 4_556
C21 H21 0.9300 .
O12A H12C 1.0100 .
O12A H12D 1.0247 .
loop_
_smtbx_masks_void_nr
_smtbx_masks_void_average_x
_smtbx_masks_void_average_y
_smtbx_masks_void_average_z
_smtbx_masks_void_volume
_smtbx_masks_void_count_electrons
_smtbx_masks_void_content
1 -0.916 -0.459 -0.483 2653.6 581.7 '4 CH3OH'
