#------------------------------------------------------------------------------
#$Date: 2019-11-25 07:03:28 +0200 (Mon, 25 Nov 2019) $
#$Revision: 240304 $
#$URL: file:///home/coder/svn-repositories/cod/cif/4/12/96/4129624.cif $
#------------------------------------------------------------------------------
#
# This file is available in the Crystallography Open Database (COD),
# http://www.crystallography.net/
#
# All data on this site have been placed in the public domain by the
# contributors.
#
data_4129624
loop_
_publ_author_name
'Deria, Pravas'
'G\'omez-Gualdr\'on, Diego A'
'Bury, Wojciech'
'Schaef, Herbert T.'
'Wang, Timothy C.'
'Thallapally, Praveen K.'
'Sarjeant, Amy A.'
'Snurr, Randall Q.'
'Hupp, Joseph T.'
'Farha, Omar K.'
_publ_section_title
;
 Ultraporous, Water Stable, and Breathing Zirconium-Based Metal-Organic
 Frameworks with ftw Topology.
;
_journal_issue                   40
_journal_name_full               'Journal of the American Chemical Society'
_journal_page_first              13183
_journal_page_last               13190
_journal_paper_doi               10.1021/jacs.5b08860
_journal_volume                  137
_journal_year                    2015
_chemical_formula_moiety         'C312 H210 O32 Zr6'
_chemical_formula_sum            'C312 H210 O32 Zr6'
_chemical_formula_weight         5018.11
_space_group_crystal_system      cubic
_space_group_IT_number           221
_space_group_name_Hall           '-P 4 2 3'
_space_group_name_H-M_alt        'P m -3 m'
_atom_sites_solution_hydrogens   mixed
_audit_creation_date             2014-02-14
_audit_creation_method
;
Olex2 1.2
(compiled 2014.02.11 svn.r2872 for OlexSys, GUI svn.r4767)
;
_cell_angle_alpha                90
_cell_angle_beta                 90
_cell_angle_gamma                90
_cell_formula_units_Z            1
_cell_length_a                   30.1088(11)
_cell_length_b                   30.1088(11)
_cell_length_c                   30.1088(11)
_cell_measurement_reflns_used    9794
_cell_measurement_temperature    250(2)
_cell_measurement_theta_max      67.501
_cell_measurement_theta_min      3.282
_cell_volume                     27294.8(17)
_computing_cell_refinement       'SAINT V7.23A (Bruker, 2005)'
_computing_data_collection       'APEX2 V2.1-4 (Bruker, 2007)'
_computing_data_reduction        'Bruker SAINT'
_computing_molecular_graphics    'Olex2 (Dolomanov et al., 2009)'
_computing_publication_material  'Olex2 (Dolomanov et al., 2009)'
_computing_structure_refinement  'ShelXL (Sheldrick, 2008)'
_computing_structure_solution    'ShelXS (Sheldrick, 2008)'
_diffrn_ambient_temperature      250(2)
_diffrn_detector_area_resol_mean 8
_diffrn_measured_fraction_theta_full 1.000
_diffrn_measured_fraction_theta_max 0.996
_diffrn_measurement_device_type  'Bruker Kappa APEX CCD area detector'
_diffrn_measurement_method       '\w and \f scans'
_diffrn_radiation_monochromator  'MX optics'
_diffrn_radiation_type           CuK\a
_diffrn_radiation_wavelength     1.54178
_diffrn_reflns_av_R_equivalents  0.0540
_diffrn_reflns_av_unetI/netI     0.0098
_diffrn_reflns_Laue_measured_fraction_full 1.000
_diffrn_reflns_Laue_measured_fraction_max 0.996
_diffrn_reflns_limit_h_max       32
_diffrn_reflns_limit_h_min       -35
_diffrn_reflns_limit_k_max       36
_diffrn_reflns_limit_k_min       -36
_diffrn_reflns_limit_l_max       36
_diffrn_reflns_limit_l_min       -36
_diffrn_reflns_number            314615
_diffrn_reflns_point_group_measured_fraction_full 1.000
_diffrn_reflns_point_group_measured_fraction_max 0.996
_diffrn_reflns_theta_full        67.679
_diffrn_reflns_theta_max         68.305
_diffrn_reflns_theta_min         1.467
_diffrn_source                   microsource
_exptl_absorpt_coefficient_mu    0.585
_exptl_absorpt_correction_T_max  0.6953
_exptl_absorpt_correction_T_min  0.6359
_exptl_absorpt_correction_type   multi-scan
_exptl_absorpt_process_details
;
SADABS-2012/1 (Bruker,2012) was used for absorption correction.
wR2(int) was 0.1019 before and 0.0623 after correction.
The Ratio of minimum to maximum transmission is 0.9146.
The \l/2 correction factor is 0.0015.
;
_exptl_crystal_colour            yellow
_exptl_crystal_colour_primary    yellow
_exptl_crystal_density_diffrn    0.305
_exptl_crystal_description       block
_exptl_crystal_F_000             2578
_exptl_crystal_size_max          0.284
_exptl_crystal_size_mid          0.256
_exptl_crystal_size_min          0.234
_refine_diff_density_max         0.561
_refine_diff_density_min         -1.549
_refine_diff_density_rms         0.093
_refine_ls_extinction_method     none
_refine_ls_goodness_of_fit_ref   1.155
_refine_ls_hydrogen_treatment    constr
_refine_ls_matrix_type           full
_refine_ls_number_parameters     320
_refine_ls_number_reflns         4807
_refine_ls_number_restraints     8985
_refine_ls_restrained_S_all      0.827
_refine_ls_R_factor_all          0.0756
_refine_ls_R_factor_gt           0.0700
_refine_ls_shift/su_max          0.001
_refine_ls_shift/su_mean         0.000
_refine_ls_structure_factor_coef Fsqd
_refine_ls_weighting_details
'w=1/[\s^2^(Fo^2^)+(0.1567P)^2^+6.6084P] where P=(Fo^2^+2Fc^2^)/3'
_refine_ls_weighting_scheme      calc
_refine_ls_wR_factor_gt          0.2200
_refine_ls_wR_factor_ref         0.2291
_reflns_Friedel_coverage         0.000
_reflns_number_gt                4318
_reflns_number_total             4807
_reflns_threshold_expression     'I > 2\s(I)'
_cod_data_source_file            ja5b08860_si_002.cif
_cod_data_source_block           n3257_a
_cod_original_cell_volume        27295(3)
_cod_database_code               4129624
_shelxl_version_number           2013-4
_shelx_space_group_comment
;
The symmetry employed for this shelxl refinement is uniquely defined
by the following loop, which should always be used as a source of
symmetry information in preference to the above space-group names.
They are only intended as comments.
;
_olex2_refinement_description
;
1. Fixed Uiso
 At 1.2 times of:
  All C(H) groups
 At 1.5 times of:
  All C(H,H,H) groups
2. Restrained distances
 C221-C222 = C122-C121 = C422-C421 = C322-C321
 2.154 with sigma of 0.001
 C402-C101_$1
 1.542 with sigma of 0.02
 C202-C101_$2
 1.542 with sigma of 0.02
 C101_$3-C302
 1.542 with sigma of 0.02
 C101-C102 \\sim C105-C108 \\sim C1-C117 \\sim C205-C208 \\sim C3-C217 \\sim
C417-C10 \\sim C405-C408
 \\sim C305-C308 \\sim C317-C8 \\sim C402-C101_$1 \\sim C202-C101_$2 \\sim
C101_$3-C302
 with sigma of 0.02
 C120-C119 \\sim C120-C112 \\sim C122-C120 \\sim C121-C120 \\sim C220-C219
\\sim C220-C212 \\sim C222-
 C220 \\sim C221-C220 \\sim C320-C319 \\sim C320-C312 \\sim C321-C320 \\sim
C322-C320 \\sim C420-C419 -
 C422-C420 \\sim C421-C420 \\sim C420-C412
 with sigma of 0.02
 C121-C122 \\sim C221-C222 \\sim C321-C322 \\sim C422-C421
 with sigma of 0.02
 C107-C102 \\sim C107-C106 \\sim C106-C105 \\sim C105-C104 \\sim C104-C103
\\sim C103-C102 \\sim C109-
 C108 \\sim C110-C109 \\sim C111-C110 \\sim C112-C111 \\sim C113-C112 \\sim
C113-C108 \\sim C115-C114 -
 C116-C115 \\sim C117-C116 \\sim C118-C117 \\sim C119-C118 \\sim C119-C114
\\sim C203-C202 \\sim C204-
 C203 \\sim C205-C204 \\sim C206-C205 \\sim C207-C206 \\sim C207-C202 \\sim
C213-C208 \\sim C213-C212 -
 C212-C211 \\sim C211-C210 \\sim C210-C209 \\sim C209-C208 \\sim C219-C214
\\sim C219-C218 \\sim C218-
 C217 \\sim C217-C216 \\sim C216-C215 \\sim C215-C214 \\sim C307-C302 \\sim
C307-C306 \\sim C306-C305 -
 C305-C304 \\sim C304-C303 \\sim C303-C302 \\sim C309-C308 \\sim C310-C309
\\sim C311-C310 \\sim C312-
 C311 \\sim C313-C312 \\sim C313-C308 \\sim C315-C314 \\sim C316-C315 \\sim
C317-C316 \\sim C318-C317 -
 C319-C318 \\sim C319-C314 \\sim C407-C402 \\sim C403-C402 \\sim C404-C403
\\sim C405-C404 \\sim C406-
 C405 \\sim C407-C406 \\sim C413-C408 \\sim C413-C412 \\sim C412-C411 \\sim
C411-C410 \\sim C410-C409 -
 C409-C408 \\sim C419-C414 \\sim C419-C418 \\sim C418-C417 \\sim C417-C416
\\sim C416-C415 \\sim C415-
 C414 \\sim C2-C1 \\sim C3-C2 \\sim C4-C3 \\sim C5-C4 \\sim C6-C5 \\sim C7-C6
\\sim C8-C7 \\sim C9-C8 \\sim C9-C10
 \\sim C11-C10 \\sim C12-C11 \\sim C13-C12 \\sim C14-C13 \\sim C14-C1 \\sim
C15-C14 \\sim C4-C15 \\sim C16-C15
 \\sim C7-C16 \\sim C16-C11
 with sigma of 0.02
 C102-C105 \\sim C107-C104 \\sim C106-C103 \\sim C108-C111 \\sim C109-C112
\\sim C110-C113 \\sim C114-
 C117 \\sim C115-C118 \\sim C116-C119 \\sim C202-C205 \\sim C203-C206 \\sim
C207-C204 \\sim C208-C211 -
 C213-C210 \\sim C209-C212 \\sim C214-C217 \\sim C219-C216 \\sim C218-C215
\\sim C302-C305 \\sim C307-
 C304 \\sim C306-C303 \\sim C308-C311 \\sim C309-C312 \\sim C310-C313 \\sim
C314-C317 \\sim C315-C318 -
 C316-C319 \\sim C402-C405 \\sim C403-C406 \\sim C404-C407 \\sim C408-C411
\\sim C413-C410 \\sim C412-
 C409 \\sim C414-C417 \\sim C419-C416 \\sim C418-C415
 with sigma of 0.02
 C1-C4 \\sim C2-C15 \\sim C3-C14 \\sim C10-C7 \\sim C9-C16 \\sim C8-C11 \\sim
C12-C15 \\sim C13-C16 \\sim C11-
 C14 \\sim C15-C6 \\sim C16-C5 \\sim C7-C4
 with sigma of 0.02
 C114-C111 \\sim C214-C211 \\sim C314-C311 \\sim C414-C411
 with sigma of 0.02
 C102-C106 \\sim C107-C105 \\sim C108-C110 \\sim C109-C111 \\sim C114-C116
\\sim C115-C117 \\sim C202-
 C204 \\sim C203-C205 \\sim C208-C212 \\sim C213-C211 \\sim C214-C218 \\sim
C219-C217 \\sim C302-C306 -
 C307-C305 \\sim C308-C310 \\sim C309-C311 \\sim C314-C316 \\sim C315-C317
\\sim C402-C404 \\sim C403-
 C405 \\sim C408-C412 \\sim C413-C411 \\sim C414-C418 \\sim C419-C417 \\sim
C102-C104 \\sim C103-C105 -
 C108-C112 \\sim C113-C111 \\sim C114-C118 \\sim C119-C117 \\sim C202-C206
\\sim C207-C205 \\sim C208-
 C210 \\sim C209-C211 \\sim C214-C216 \\sim C215-C217 \\sim C302-C304 \\sim
C303-C305 \\sim C308-C312 -
 C313-C311 \\sim C314-C318 \\sim C319-C317 \\sim C402-C406 \\sim C407-C405
\\sim C408-C410 \\sim C409-
 C411 \\sim C414-C416 \\sim C415-C417 \\sim C107-C103 \\sim C106-C104 \\sim
C109-C113 \\sim C110-C112 -
 C115-C119 \\sim C116-C118 \\sim C207-C203 \\sim C206-C204 \\sim C209-C213
\\sim C210-C212 \\sim C215-
 C219 \\sim C216-C218 \\sim C303-C307 \\sim C304-C306 \\sim C313-C309 \\sim
C312-C310 \\sim C319-C315 -
 C318-C316 \\sim C403-C407 \\sim C404-C406 \\sim C413-C409 \\sim C412-C410
\\sim C419-C415 \\sim C418-
 C416
 with sigma of 0.02
 C1-C3 \\sim C2-C4 \\sim C5-C7 \\sim C6-C16 \\sim C8-C10 \\sim C9-C11 \\sim
C12-C14 \\sim C13-C15
 with sigma of 0.02
 C121-C112 \\sim C122-C119 \\sim C222-C212 \\sim C221-C219 \\sim C321-C312
\\sim C322-C319 \\sim C421-
 C412 \\sim C422-C419 \\sim C121-C119 \\sim C122-C112 \\sim C222-C219 \\sim
C221-C212 \\sim C321-C319 -
 C322-C312 \\sim C421-C419 \\sim C422-C412
 with sigma of 0.02
 C112-C114 \\sim C111-C119 \\sim C212-C214 \\sim C211-C219 \\sim C312-C314
\\sim C311-C319 \\sim C412-
 C414 \\sim C411-C419 \\sim C112-C119 \\sim C120-C114 \\sim C212-C219 \\sim
C220-C214 \\sim C312-C319 -
 C320-C314 \\sim C412-C419 \\sim C420-C414 \\sim C120-C111 \\sim C220-C211
\\sim C320-C311 \\sim C420-
 C411
 with sigma of 0.02
 C101-C103 \\sim C101-C107 \\sim C101_$1-C403 \\sim C101_$1-C407 \\sim
C101_$2-C203 \\sim C101_$2-
 C207 \\sim C101_$3-C303 \\sim C101_$3-C307
 with sigma of 0.02
 C104-C108 \\sim C106-C108 \\sim C204-C208 \\sim C206-C208 \\sim C304-C308
\\sim C306-C308 \\sim C404-
 C408 \\sim C406-C408
 with sigma of 0.02
3. Restrained planarity
 C14, C15, C13, C12, C11, C16, C7, C10, C9, C8, C3, C2, C1, C4, C6, C5, C117,
 C217, C317, C417
 with sigma of 0.01
 C108, C105, C106, C107, C102, C103, C104, C101
 with sigma of 0.1
 C116, C115, C114, C119, C118, C111, C112, C113, C108, C109, C110, C120, C117,
 C1, C105
 with sigma of 0.1
 C205, C206, C207, C202, C203, C204, C208
 with sigma of 0.1
 C3, C217, C216, C215, C214, C219, C218, C211, C212, C213, C208, C209, C210,
 C220, C205
 with sigma of 0.1
 C105, C106, C107, C102, C103, C104, C101, C108
 with sigma of 0.1
 C305, C304, C303, C302, C307, C306, C308
 with sigma of 0.1
 C317, C318, C319, C314, C315, C316, C311, C310, C309, C308, C313, C312, C320,
 C305, C8
 with sigma of 0.1
 C405, C404, C403, C402, C407, C406, C408
 with sigma of 0.1
 C410, C417, C418, C419, C414, C415, C416, C411, C409, C408, C413, C412, C420,
 C405, C10
 with sigma of 0.1
 C208, C205, C206, C207, C202, C203, C204
 with sigma of 0.1
4. Uiso/Uaniso restraints and constraints
Uanis(C3) = Uanis(C2) = Uanis(C1) = Uanis(C14) = Uanis(C15) = Uanis(C4) =
Uanis(C13) = Uanis(C12) = Uanis(C11) = Uanis(C16) = Uanis(C7) = Uanis(C6) =
Uanis(C5) = Uanis(C10) = Uanis(C9) = Uanis(C8) = Uanis(C217) = Uanis(C117) =
Uanis(C417) = Uanis(C317) = Uanis(C216) = Uanis(C215) = Uanis(C214) =
Uanis(C219) = Uanis(C218) = Uanis(C318) = Uanis(C319) = Uanis(C314) =
Uanis(C315) = Uanis(C316) = Uanis(C116) = Uanis(C115) = Uanis(C114) =
Uanis(C119) = Uanis(C118) = Uanis(C418) = Uanis(C419) = Uanis(C414) =
Uanis(C415) = Uanis(C416) = Uanis(C211) = Uanis(C311) = Uanis(C111) =
Uanis(C411) = Uanis(C212) = Uanis(C213) = Uanis(C208) = Uanis(C209) =
Uanis(C210) = Uanis(C112) = Uanis(C113) = Uanis(C108) = Uanis(C109) =
Uanis(C110) = Uanis(C310) = Uanis(C309) = Uanis(C308) = Uanis(C313) =
Uanis(C312) = Uanis(C410) = Uanis(C409) = Uanis(C408) = Uanis(C413) =
Uanis(C412) = Uanis(C205) = Uanis(C105) = Uanis(C305) = Uanis(C405) =
Uanis(C206) = Uanis(C207) = Uanis(C202) = Uanis(C203) = Uanis(C204) =
Uanis(C304) = Uanis(C303) = Uanis(C302) = Uanis(C307) = Uanis(C306) =
Uanis(C106) = Uanis(C107) = Uanis(C102) = Uanis(C103) = Uanis(C104) =
Uanis(C404) = Uanis(C403) = Uanis(C402) = Uanis(C407) = Uanis(C406) =
Uanis(C220) = Uanis(C320) = Uanis(C120) = Uanis(C420) = Uanis(C101) =
Uanis(C421) = Uanis(C422) = Uanis(C121) = Uanis(C122) = Uanis(C222) =
Uanis(C221) = Uanis(C321) = Uanis(C322)
5. Rigid body (RIGU) restrains
 All non-hydrogen atoms
 with sigma for 1-2 distances of 0.004 and sigma for 1-3 distances of 0.004
6. Others
 Fixed Sof: C1(0.0625) C2(0.0625) H2(0.0625) C3(0.0625) C4(0.0625) C5(0.0625)
 H5(0.0625) C6(0.0625) H6(0.0625) C7(0.0625) C8(0.0625) C9(0.0625) H9(0.0625)
 C10(0.0625) C11(0.0625) C12(0.0625) H12(0.0625) C13(0.0625) H13(0.0625)
 C14(0.0625) C15(0.0625) C16(0.0625) C102(0.0625) C103(0.0625) H103(0.0625)
 C104(0.0625) H104(0.0625) C105(0.0625) C106(0.0625) H106(0.0625) C107(0.0625)
 H107(0.0625) C108(0.0625) C109(0.0625) H109(0.0625) C110(0.0625) H110(0.0625)
 C111(0.0625) C112(0.0625) C113(0.0625) H113(0.0625) C114(0.0625) C115(0.0625)
 H115(0.0625) C116(0.0625) H116(0.0625) C117(0.0625) C118(0.0625) H118(0.0625)
 C119(0.0625) C120(0.0625) C121(0.0625) H12A(0.0625) H12B(0.0625) H12C(0.0625)
 C122(0.0625) H12D(0.0625) H12E(0.0625) H12F(0.0625) C202(0.0625) C203(0.0625)
 H203(0.0625) C204(0.0625) H204(0.0625) C205(0.0625) C206(0.0625) H206(0.0625)
 C207(0.0625) H207(0.0625) C208(0.0625) C209(0.0625) H209(0.0625) C210(0.0625)
 H210(0.0625) C211(0.0625) C212(0.0625) C213(0.0625) H213(0.0625) C214(0.0625)
 C215(0.0625) H215(0.0625) C216(0.0625) H216(0.0625) C217(0.0625) C218(0.0625)
 H218(0.0625) C219(0.0625) C220(0.0625) C221(0.0625) H22A(0.0625) H22B(0.0625)
 H22C(0.0625) C222(0.0625) H22D(0.0625) H22E(0.0625) H22F(0.0625) C302(0.0625)
 C303(0.0625) H303(0.0625) C304(0.0625) H304(0.0625) C305(0.0625) C306(0.0625)
 H306(0.0625) C307(0.0625) H307(0.0625) C308(0.0625) C309(0.0625) H309(0.0625)
 C310(0.0625) H310(0.0625) C311(0.0625) C312(0.0625) C313(0.0625) H313(0.0625)
 C314(0.0625) C315(0.0625) H315(0.0625) C316(0.0625) H316(0.0625) C317(0.0625)
 C318(0.0625) H318(0.0625) C319(0.0625) C320(0.0625) C321(0.0625) H32A(0.0625)
 H32B(0.0625) H32C(0.0625) C322(0.0625) H32D(0.0625) H32E(0.0625) H32F(0.0625)
 C402(0.0625) C403(0.0625) H403(0.0625) C404(0.0625) H404(0.0625) C405(0.0625)
 C406(0.0625) H406(0.0625) C407(0.0625) H407(0.0625) C408(0.0625) C409(0.0625)
 H409(0.0625) C410(0.0625) H410(0.0625) C411(0.0625) C412(0.0625) C413(0.0625)
 H413(0.0625) C414(0.0625) C415(0.0625) H415(0.0625) C416(0.0625) H416(0.0625)
 C417(0.0625) C418(0.0625) H418(0.0625) C419(0.0625) C420(0.0625) C421(0.0625)
 H42A(0.0625) H42B(0.0625) H42C(0.0625) C422(0.0625) H42D(0.0625) H42E(0.0625)
 H42F(0.0625)
7.a Riding coordinates:
 C222(H22D,H22E,H22F)
7.b Me refined with riding coordinates:
 C121(H12A,H12B,H12C), C122(H12D,H12E,H12F), C221(H22A,H22B,H22C), C321(H32A,
 H32B,H32C), C322(H32D,H32E,H32F), C421(H42A,H42B,H42C), C422(H42D,H42E,H42F)
7.c Aromatic/amide H refined with riding coordinates:
 C2(H2), C5(H5), C6(H6), C9(H9), C12(H12), C13(H13), C103(H103), C104(H104),
 C106(H106), C107(H107), C109(H109), C110(H110), C113(H113), C115(H115),
 C116(H116), C118(H118), C203(H203), C204(H204), C206(H206), C207(H207),
 C209(H209), C210(H210), C213(H213), C215(H215), C216(H216), C218(H218),
 C303(H303), C304(H304), C306(H306), C307(H307), C309(H309), C310(H310),
 C313(H313), C315(H315), C316(H316), C318(H318), C403(H403), C404(H404),
 C406(H406), C407(H407), C409(H409), C410(H410), C413(H413), C415(H415),
 C416(H416), C418(H418)
;
_smtbx_masks_special_details
;
The solvent masking procedure as implemented in Olex2 was used to remove the
electronic contribution of solvent molecules from the refinement.  As the exact
solvent content is not known, only the atoms used in the refinement model are
reported in the formula here.


Total solvent accessible volume / cell = 18469.9 Ang^3^ [67.7%]
Total electron count / cell = 1887.8
;
_shelx_res_file
;
TITL n3257 in Pm-3m
CELL 1.54178 30.1088 30.1088 30.1088 90 90 90
ZERR 1 0.0011 0.0011 0.0011 0 0 0
LATT 1
SYMM -X,-Y,+Z
SYMM -X,+Y,-Z
SYMM +X,-Y,-Z
SYMM +Z,+X,+Y
SYMM +Z,-X,-Y
SYMM -Z,-X,+Y
SYMM -Z,+X,-Y
SYMM +Y,+Z,+X
SYMM -Y,+Z,-X
SYMM +Y,-Z,-X
SYMM -Y,-Z,+X
SYMM +Y,+X,-Z
SYMM -Y,-X,-Z
SYMM +Y,-X,+Z
SYMM -Y,+X,+Z
SYMM +X,+Z,-Y
SYMM -X,+Z,+Y
SYMM -X,-Z,-Y
SYMM +X,-Z,+Y
SYMM +Z,+Y,-X
SYMM +Z,-Y,+X
SYMM -Z,+Y,+X
SYMM -Z,-Y,-X

SFAC C H O Zr
UNIT 312 210 32.00016 6
EQIV $1 +X,+Y,1-Z
EQIV $2 +X,1-Y,+Z
EQIV $3 +X,1-Y,1-Z
EQIV $4 2-X,+Y,+Z
DFIX 2.154 0.001 C221 C222 C122 C121 C422 C421 C322 C321
DFIX 1.542 C402 C101_$1
DFIX 1.542 C202 C101_$2
DFIX 1.542 C101_$3 C302
SADI C101 C102 C105 C108 C1 C117 C205 C208 C3 C217 C417 C10 C405 C408 C305 =
 C308 C317 C8 C402 C101_$1 C202 C101_$2 C101_$3 C302
SADI C120 C119 C120 C112 C122 C120 C121 C120 C220 C219 C220 C212 C222 C220 =
 C221 C220 C320 C319 C320 C312 C321 C320 C322 C320 C420 C419 C422 C420 C421 =
 C420 C420 C412
SADI C121 C122 C221 C222 C321 C322 C422 C421
SADI C107 C102 C107 C106 C106 C105 C105 C104 C104 C103 C103 C102 C109 C108 =
 C110 C109 C111 C110 C112 C111 C113 C112 C113 C108 C115 C114 C116 C115 C117 =
 C116 C118 C117 C119 C118 C119 C114 C203 C202 C204 C203 C205 C204 C206 C205 =
 C207 C206 C207 C202 C213 C208 C213 C212 C212 C211 C211 C210 C210 C209 C209 =
 C208 C219 C214 C219 C218 C218 C217 C217 C216 C216 C215 C215 C214 C307 C302 =
 C307 C306 C306 C305 C305 C304 C304 C303 C303 C302 C309 C308 C310 C309 C311 =
 C310 C312 C311 C313 C312 C313 C308 C315 C314 C316 C315 C317 C316 C318 C317 =
 C319 C318 C319 C314 C407 C402 C403 C402 C404 C403 C405 C404 C406 C405 C407 =
 C406 C413 C408 C413 C412 C412 C411 C411 C410 C410 C409 C409 C408 C419 C414 =
 C419 C418 C418 C417 C417 C416 C416 C415 C415 C414 C2 C1 C3 C2 C4 C3 C5 C4 C6 =
 C5 C7 C6 C8 C7 C9 C8 C9 C10 C11 C10 C12 C11 C13 C12 C14 C13 C14 C1 C15 C14 =
 C4 C15 C16 C15 C7 C16 C16 C11
SADI C102 C105 C107 C104 C106 C103 C108 C111 C109 C112 C110 C113 C114 C117 =
 C115 C118 C116 C119 C202 C205 C203 C206 C207 C204 C208 C211 C213 C210 C209 =
 C212 C214 C217 C219 C216 C218 C215 C302 C305 C307 C304 C306 C303 C308 C311 =
 C309 C312 C310 C313 C314 C317 C315 C318 C316 C319 C402 C405 C403 C406 C404 =
 C407 C408 C411 C413 C410 C412 C409 C414 C417 C419 C416 C418 C415
SADI C1 C4 C2 C15 C3 C14 C10 C7 C9 C16 C8 C11 C12 C15 C13 C16 C11 C14 C15 C6 =
 C16 C5 C7 C4
SADI C114 C111 C214 C211 C314 C311 C414 C411
SADI C102 C106 C107 C105 C108 C110 C109 C111 C114 C116 C115 C117 C202 C204 =
 C203 C205 C208 C212 C213 C211 C214 C218 C219 C217 C302 C306 C307 C305 C308 =
 C310 C309 C311 C314 C316 C315 C317 C402 C404 C403 C405 C408 C412 C413 C411 =
 C414 C418 C419 C417 C102 C104 C103 C105 C108 C112 C113 C111 C114 C118 C119 =
 C117 C202 C206 C207 C205 C208 C210 C209 C211 C214 C216 C215 C217 C302 C304 =
 C303 C305 C308 C312 C313 C311 C314 C318 C319 C317 C402 C406 C407 C405 C408 =
 C410 C409 C411 C414 C416 C415 C417 C107 C103 C106 C104 C109 C113 C110 C112 =
 C115 C119 C116 C118 C207 C203 C206 C204 C209 C213 C210 C212 C215 C219 C216 =
 C218 C303 C307 C304 C306 C313 C309 C312 C310 C319 C315 C318 C316 C403 C407 =
 C404 C406 C413 C409 C412 C410 C419 C415 C418 C416
SADI C1 C3 C2 C4 C5 C7 C6 C16 C8 C10 C9 C11 C12 C14 C13 C15
SADI C121 C112 C122 C119 C222 C212 C221 C219 C321 C312 C322 C319 C421 C412 =
 C422 C419 C121 C119 C122 C112 C222 C219 C221 C212 C321 C319 C322 C312 C421 =
 C419 C422 C412
SADI C112 C114 C111 C119 C212 C214 C211 C219 C312 C314 C311 C319 C412 C414 =
 C411 C419 C112 C119 C120 C114 C212 C219 C220 C214 C312 C319 C320 C314 C412 =
 C419 C420 C414 C120 C111 C220 C211 C320 C311 C420 C411
SADI C101 C103 C101 C107 C101_$1 C403 C101_$1 C407 C101_$2 C203 C101_$2 C207 =
 C101_$3 C303 C101_$3 C307
SADI C104 C108 C106 C108 C204 C208 C206 C208 C304 C308 C306 C308 C404 C408 =
 C406 C408
FLAT 0.01 C14 C15 C13 C12 C11 C16 C7 C10 C9 C8 C3 C2 C1 C4 C6 C5 C117 C217 =
 C317 C417
FLAT C108 C105 C106 C107 C102 C103 C104 C101
FLAT C116 C115 C114 C119 C118 C111 C112 C113 C108 C109 C110 C120 C117 C1 C105
FLAT C205 C206 C207 C202 C203 C204 C208
FLAT C3 C217 C216 C215 C214 C219 C218 C211 C212 C213 C208 C209 C210 C220 C205
FLAT C105 C106 C107 C102 C103 C104 C101 C108
FLAT C305 C304 C303 C302 C307 C306 C308
FLAT C317 C318 C319 C314 C315 C316 C311 C310 C309 C308 C313 C312 C320 C305 C8
FLAT C405 C404 C403 C402 C407 C406 C408
FLAT C410 C417 C418 C419 C414 C415 C416 C411 C409 C408 C413 C412 C420 C405 C10
FLAT C208 C205 C206 C207 C202 C203 C204
RIGU
EADP C3 C2 C1 C14 C15 C4 C13 C12 C11 C16 C7 C6 C5 C10 C9 C8 C217 C117 C417 =
 C317 C216 C215 C214 C219 C218 C318 C319 C314 C315 C316 C116 C115 C114 C119 =
 C118 C418 C419 C414 C415 C416 C211 C311 C111 C411 C212 C213 C208 C209 C210 =
 C112 C113 C108 C109 C110 C310 C309 C308 C313 C312 C410 C409 C408 C413 C412 =
 C205 C105 C305 C405 C206 C207 C202 C203 C204 C304 C303 C302 C307 C306 C106 =
 C107 C102 C103 C104 C404 C403 C402 C407 C406 C220 C320 C120 C420 C101 C421 =
 C422 C121 C122 C222 C221 C321 C322

L.S. 10
PLAN  20
TEMP -23(2)
BIND C222 C220
FREE C222 C220_$4
REM Solution 1 R1 0.801 Rweak 0.070, Alpha = 0.0228 in Pm-3m
BOND $H
WPDB -2
CONF
fmap 2
ACTA
REM <HKL>Y:/Amy/n3257/n3257_a-mask.hkl</HKL>

WGHT    0.156700    6.608400
FVAR       0.25794
ZR1   4    1.000000    0.917901    1.000000    10.12500    0.03915    0.02664 =
         0.03915    0.00000    0.00000    0.00000
O1    3    1.000000    0.881420    0.935358    10.50000    0.07969    0.05235 =
         0.05755   -0.01810    0.00000    0.00000
O2    3    1.040927    0.959073    1.040927    10.16667    0.07511    0.07511 =
         0.07511   -0.03974    0.03974   -0.03974
PART -1
C1    1    1.047709    0.539135    0.591526    10.06250    0.21839    0.04697 =
         0.05672   -0.01600    0.00834    0.00592
C2    1    1.055524    0.499115    0.614628    10.06250    0.21839    0.04697 =
         0.05672   -0.01600    0.00834    0.00592
AFIX  43
H2    2    1.063413    0.499711    0.644829    10.06250   -1.20000
AFIX   0
C3    1    1.051436    0.458223    0.592167    10.06250    0.21839    0.04697 =
         0.05672   -0.01600    0.00834    0.00592
C4    1    1.039616    0.457249    0.546661    10.06250    0.21839    0.04697 =
         0.05672   -0.01600    0.00834    0.00592
C5    1    1.035285    0.416573    0.523845    10.06250    0.21839    0.04697 =
         0.05672   -0.01600    0.00834    0.00592
AFIX  43
H5    2    1.040503    0.389746    0.538938    10.06250   -1.20000
AFIX   0
C6    1    1.023323    0.415773    0.479061    10.06250    0.21839    0.04697 =
         0.05672   -0.01600    0.00834    0.00592
AFIX  43
H6    2    1.020502    0.388405    0.464304    10.06250   -1.20000
AFIX   0
C7    1    1.015405    0.455735    0.455663    10.06250    0.21839    0.04697 =
         0.05672   -0.01600    0.00834    0.00592
C8    1    1.003519    0.454552    0.410361    10.06250    0.21839    0.04697 =
         0.05672   -0.01600    0.00834    0.00592
C9    1    0.995370    0.493777    0.386800    10.06250    0.21839    0.04697 =
         0.05672   -0.01600    0.00834    0.00592
AFIX  43
H9    2    0.987308    0.492318    0.356674    10.06250   -1.20000
AFIX   0
C10   1    0.999108    0.535198    0.407665    10.06250    0.21839    0.04697 =
         0.05672   -0.01600    0.00834    0.00592
C11   1    1.011347    0.536977    0.453949    10.06250    0.21839    0.04697 =
         0.05672   -0.01600    0.00834    0.00592
C12   1    1.015699    0.577653    0.477332    10.06250    0.21839    0.04697 =
         0.05672   -0.01600    0.00834    0.00592
AFIX  43
H12   2    1.010461    0.604501    0.462283    10.06250   -1.20000
AFIX   0
C13   1    1.027601    0.578794    0.522260    10.06250    0.21839    0.04697 =
         0.05672   -0.01600    0.00834    0.00592
AFIX  43
H13   2    1.030301    0.606229    0.536913    10.06250   -1.20000
AFIX   0
C14   1    1.035596    0.538854    0.545752    10.06250    0.21839    0.04697 =
         0.05672   -0.01600    0.00834    0.00592
C15   1    1.031571    0.497688    0.523722    10.06250    0.21839    0.04697 =
         0.05672   -0.01600    0.00834    0.00592
C16   1    1.019277    0.496919    0.477534    10.06250    0.21839    0.04697 =
         0.05672   -0.01600    0.00834    0.00592
PART 0
C101  1    1.000000    0.895520    0.895520    10.25000    0.21839    0.04697 =
         0.05672   -0.01600    0.00834    0.00592
PART -1
C102  1    1.010867    0.857080    0.864867    10.06250    0.21839    0.04697 =
         0.05672   -0.01600    0.00834    0.00592
C103  1    1.012393    0.813246    0.880443    10.06250    0.21839    0.04697 =
         0.05672   -0.01600    0.00834    0.00592
AFIX  43
H103  2    1.003949    0.806776    0.909794    10.06250   -1.20000
AFIX   0
C104  1    1.026609    0.778895    0.852025    10.06250    0.21839    0.04697 =
         0.05672   -0.01600    0.00834    0.00592
AFIX  43
H104  2    1.029486    0.749818    0.863023    10.06250   -1.20000
AFIX   0
C105  1    1.036443    0.787850    0.807596    10.06250    0.21839    0.04697 =
         0.05672   -0.01600    0.00834    0.00592
C106  1    1.035794    0.832230    0.792280    10.06250    0.21839    0.04697 =
         0.05672   -0.01600    0.00834    0.00592
AFIX  43
H106  2    1.043548    0.838588    0.762714    10.06250   -1.20000
AFIX   0
C107  1    1.023663    0.866712    0.820934    10.06250    0.21839    0.04697 =
         0.05672   -0.01600    0.00834    0.00592
AFIX  43
H107  2    1.024051    0.896267    0.810882    10.06250   -1.20000
AFIX   0
C108  1    1.049420    0.750583    0.775675    10.06250    0.21839    0.04697 =
         0.05672   -0.01600    0.00834    0.00592
C109  1    1.082366    0.759638    0.743623    10.06250    0.21839    0.04697 =
         0.05672   -0.01600    0.00834    0.00592
AFIX  43
H109  2    1.097239    0.787088    0.743834    10.06250   -1.20000
AFIX   0
C110  1    1.092885    0.727768    0.711545    10.06250    0.21839    0.04697 =
         0.05672   -0.01600    0.00834    0.00592
AFIX  43
H110  2    1.118346    0.731137    0.693796    10.06250   -1.20000
AFIX   0
C111  1    1.064991    0.690478    0.705992    10.06250    0.21839    0.04697 =
         0.05672   -0.01600    0.00834    0.00592
C112  1    1.029421    0.683148    0.735228    10.06250    0.21839    0.04697 =
         0.05672   -0.01600    0.00834    0.00592
C113  1    1.020587    0.714230    0.768753    10.06250    0.21839    0.04697 =
         0.05672   -0.01600    0.00834    0.00592
AFIX  43
H113  2    0.995300    0.710854    0.786749    10.06250   -1.20000
AFIX   0
C114  1    1.066392    0.653618    0.674835    10.06250    0.21839    0.04697 =
         0.05672   -0.01600    0.00834    0.00592
C115  1    1.094126    0.644754    0.638576    10.06250    0.21839    0.04697 =
         0.05672   -0.01600    0.00834    0.00592
AFIX  43
H115  2    1.116847    0.664801    0.631056    10.06250   -1.20000
AFIX   0
C116  1    1.088009    0.605784    0.613326    10.06250    0.21839    0.04697 =
         0.05672   -0.01600    0.00834    0.00592
AFIX  43
H116  2    1.105947    0.600343    0.588359    10.06250   -1.20000
AFIX   0
C117  1    1.055104    0.575164    0.625545    10.06250    0.21839    0.04697 =
         0.05672   -0.01600    0.00834    0.00592
C118  1    1.029123    0.582833    0.663565    10.06250    0.21839    0.04697 =
         0.05672   -0.01600    0.00834    0.00592
AFIX  43
H118  2    1.010384    0.560468    0.674673    10.06250   -1.20000
AFIX   0
C119  1    1.031515    0.624515    0.684853    10.06250    0.21839    0.04697 =
         0.05672   -0.01600    0.00834    0.00592
C120  1    1.011561    0.638462    0.726886    10.06250    0.21839    0.04697 =
         0.05672   -0.01600    0.00834    0.00592
C121  1    1.018964    0.606801    0.764092    10.06250    0.21839    0.04697 =
         0.05672   -0.01600    0.00834    0.00592
AFIX  33
H12A  2    1.019743    0.576715    0.752597    10.06250   -1.50000
H12B  2    0.994990    0.609523    0.785441    10.06250   -1.50000
H12C  2    1.046986    0.613522    0.778498    10.06250   -1.50000
AFIX   0
C122  1    0.963122    0.634211    0.728761    10.06250    0.21839    0.04697 =
         0.05672   -0.01600    0.00834    0.00592
AFIX  33
H12D  2    0.949600    0.662927    0.723241    10.06250   -1.50000
H12E  2    0.954389    0.623655    0.757919    10.06250   -1.50000
H12F  2    0.953307    0.613237    0.706363    10.06250   -1.50000
AFIX   0
C202  1    0.999802    0.133864    0.853881    10.06250    0.21839    0.04697 =
         0.05672   -0.01600    0.00834    0.00592
C203  1    0.987972    0.178712    0.860255    10.06250    0.21839    0.04697 =
         0.05672   -0.01600    0.00834    0.00592
AFIX  43
H203  2    0.969437    0.186676    0.884082    10.06250   -1.20000
AFIX   0
C204  1    1.003718    0.211401    0.831245    10.06250    0.21839    0.04697 =
         0.05672   -0.01600    0.00834    0.00592
AFIX  43
H204  2    0.998197    0.241555    0.837158    10.06250   -1.20000
AFIX   0
C205  1    1.027932    0.198978    0.793053    10.06250    0.21839    0.04697 =
         0.05672   -0.01600    0.00834    0.00592
C206  1    1.039051    0.154387    0.786232    10.06250    0.21839    0.04697 =
         0.05672   -0.01600    0.00834    0.00592
AFIX  43
H206  2    1.056010    0.146163    0.761343    10.06250   -1.20000
AFIX   0
C207  1    1.024847    0.121822    0.816633    10.06250    0.21839    0.04697 =
         0.05672   -0.01600    0.00834    0.00592
AFIX  43
H207  2    1.032221    0.091859    0.811888    10.06250   -1.20000
AFIX   0
C208  1    1.042538    0.235100    0.760434    10.06250    0.21839    0.04697 =
         0.05672   -0.01600    0.00834    0.00592
C209  1    1.075567    0.225757    0.728580    10.06250    0.21839    0.04697 =
         0.05672   -0.01600    0.00834    0.00592
AFIX  43
H209  2    1.090326    0.198248    0.728964    10.06250   -1.20000
AFIX   0
C210  1    1.086346    0.257531    0.696367    10.06250    0.21839    0.04697 =
         0.05672   -0.01600    0.00834    0.00592
AFIX  43
H210  2    1.109398    0.252007    0.676050    10.06250   -1.20000
AFIX   0
C211  1    1.062630    0.297694    0.694475    10.06250    0.21839    0.04697 =
         0.05672   -0.01600    0.00834    0.00592
C212  1    1.026324    0.305030    0.722697    10.06250    0.21839    0.04697 =
         0.05672   -0.01600    0.00834    0.00592
C213  1    1.016014    0.273400    0.755334    10.06250    0.21839    0.04697 =
         0.05672   -0.01600    0.00834    0.00592
AFIX  43
H213  2    0.991297    0.277749    0.773905    10.06250   -1.20000
AFIX   0
C214  1    1.062803    0.332434    0.661009    10.06250    0.21839    0.04697 =
         0.05672   -0.01600    0.00834    0.00592
C215  1    1.093057    0.340865    0.626577    10.06250    0.21839    0.04697 =
         0.05672   -0.01600    0.00834    0.00592
AFIX  43
H215  2    1.114791    0.319645    0.619362    10.06250   -1.20000
AFIX   0
C216  1    1.090879    0.381106    0.602818    10.06250    0.21839    0.04697 =
         0.05672   -0.01600    0.00834    0.00592
AFIX  43
H216  2    1.110518    0.386348    0.579121    10.06250   -1.20000
AFIX   0
C217  1    1.059306    0.413413    0.614586    10.06250    0.21839    0.04697 =
         0.05672   -0.01600    0.00834    0.00592
C218  1    1.030138    0.405476    0.650249    10.06250    0.21839    0.04697 =
         0.05672   -0.01600    0.00834    0.00592
AFIX  43
H218  2    1.007501    0.425945    0.656832    10.06250   -1.20000
AFIX   0
C219  1    1.035004    0.366696    0.676069    10.06250    0.21839    0.04697 =
         0.05672   -0.01600    0.00834    0.00592
C220  1    1.007463    0.348960    0.712172    10.06250    0.21839    0.04697 =
         0.05672   -0.01600    0.00834    0.00592
C221  1    0.959488    0.348387    0.701909    10.06250    0.21839    0.04697 =
         0.05672   -0.01600    0.00834    0.00592
AFIX  33
H22A  2    0.955344    0.348027    0.669962    10.06250   -1.50000
H22B  2    0.945551    0.374681    0.714250    10.06250   -1.50000
H22C  2    0.946067    0.322077    0.714776    10.06250   -1.50000
AFIX   0
C222  1    1.002245    0.378980    0.750428    10.06250    0.21839    0.04697 =
         0.05672   -0.01600    0.00834    0.00592
AFIX   3
H22D  2    0.991395    0.361860    0.775538    10.06250   -1.50000
H22E  2    0.980565    0.401810    0.743078    10.06250   -1.50000
H22F  2    1.030195    0.392770    0.757998    10.06250   -1.50000
AFIX   0
C302  1    1.005244    0.139887    0.139798    10.06250    0.21839    0.04697 =
         0.05672   -0.01600    0.00834    0.00592
C303  1    0.989905    0.183016    0.130547    10.06250    0.21839    0.04697 =
         0.05672   -0.01600    0.00834    0.00592
AFIX  43
H303  2    0.985154    0.191900    0.100997    10.06250   -1.20000
AFIX   0
C304  1    0.981727    0.212663    0.165307    10.06250    0.21839    0.04697 =
         0.05672   -0.01600    0.00834    0.00592
AFIX  43
H304  2    0.970764    0.241253    0.159216    10.06250   -1.20000
AFIX   0
C305  1    0.989960    0.199601    0.209628    10.06250    0.21839    0.04697 =
         0.05672   -0.01600    0.00834    0.00592
C306  1    1.008298    0.157764    0.218401    10.06250    0.21839    0.04697 =
         0.05672   -0.01600    0.00834    0.00592
AFIX  43
H306  2    1.016909    0.150266    0.247458    10.06250   -1.20000
AFIX   0
C307  1    1.013806    0.127070    0.183821    10.06250    0.21839    0.04697 =
         0.05672   -0.01600    0.00834    0.00592
AFIX  43
H307  2    1.023213    0.097968    0.190090    10.06250   -1.20000
AFIX   0
C308  1    0.981358    0.232161    0.247053    10.06250    0.21839    0.04697 =
         0.05672   -0.01600    0.00834    0.00592
C309  1    0.952469    0.224847    0.283052    10.06250    0.21839    0.04697 =
         0.05672   -0.01600    0.00834    0.00592
AFIX  43
H309  2    0.935140    0.198905    0.284253    10.06250   -1.20000
AFIX   0
C310  1    0.949674    0.256469    0.317123    10.06250    0.21839    0.04697 =
         0.05672   -0.01600    0.00834    0.00592
AFIX  43
H310  2    0.928953    0.252868    0.340195    10.06250   -1.20000
AFIX   0
C311  1    0.978080    0.293691    0.316625    10.06250    0.21839    0.04697 =
         0.05672   -0.01600    0.00834    0.00592
C312  1    1.006408    0.300730    0.280347    10.06250    0.21839    0.04697 =
         0.05672   -0.01600    0.00834    0.00592
C313  1    1.010666    0.268399    0.247595    10.06250    0.21839    0.04697 =
         0.05672   -0.01600    0.00834    0.00592
AFIX  43
H313  2    1.033044    0.270819    0.225960    10.06250   -1.20000
AFIX   0
C314  1    0.980767    0.331615    0.345109    10.06250    0.21839    0.04697 =
         0.05672   -0.01600    0.00834    0.00592
C315  1    0.959052    0.341409    0.384935    10.06250    0.21839    0.04697 =
         0.05672   -0.01600    0.00834    0.00592
AFIX  43
H315  2    0.937160    0.322088    0.395986    10.06250   -1.20000
AFIX   0
C316  1    0.970065    0.380361    0.408514    10.06250    0.21839    0.04697 =
         0.05672   -0.01600    0.00834    0.00592
AFIX  43
H316  2    0.957975    0.385812    0.436778    10.06250   -1.20000
AFIX   0
C317  1    0.999534    0.410932    0.388879    10.06250    0.21839    0.04697 =
         0.05672   -0.01600    0.00834    0.00592
C318  1    1.021007    0.401237    0.349325    10.06250    0.21839    0.04697 =
         0.05672   -0.01600    0.00834    0.00592
AFIX  43
H318  2    1.041926    0.421225    0.337596    10.06250   -1.20000
AFIX   0
C319  1    1.011548    0.361812    0.326955    10.06250    0.21839    0.04697 =
         0.05672   -0.01600    0.00834    0.00592
C320  1    1.032067    0.341094    0.287950    10.06250    0.21839    0.04697 =
         0.05672   -0.01600    0.00834    0.00592
C321  1    1.080484    0.333997    0.292544    10.06250    0.21839    0.04697 =
         0.05672   -0.01600    0.00834    0.00592
AFIX  33
H32A  2    1.087048    0.302582    0.289734    10.06250   -1.50000
H32B  2    1.090176    0.344451    0.321435    10.06250   -1.50000
H32C  2    1.095965    0.350308    0.269474    10.06250   -1.50000
AFIX   0
C322  1    1.037036    0.370395    0.248891    10.06250    0.21839    0.04697 =
         0.05672   -0.01600    0.00834    0.00592
AFIX  33
H32D  2    1.037055    0.401153    0.258473    10.06250   -1.50000
H32E  2    1.012503    0.365486    0.228593    10.06250   -1.50000
H32F  2    1.064810    0.363779    0.233967    10.06250   -1.50000
AFIX   0
C402  1    0.990569    0.858270    0.136776    10.06250    0.21839    0.04697 =
         0.05672   -0.01600    0.00834    0.00592
C403  1    0.991245    0.813740    0.123184    10.06250    0.21839    0.04697 =
         0.05672   -0.01600    0.00834    0.00592
AFIX  43
H403  2    0.995182    0.806593    0.093048    10.06250   -1.20000
AFIX   0
C404  1    0.986003    0.779810    0.154866    10.06250    0.21839    0.04697 =
         0.05672   -0.01600    0.00834    0.00592
AFIX  43
H404  2    0.987827    0.749900    0.146106    10.06250   -1.20000
AFIX   0
C405  1    0.978095    0.790468    0.199305    10.06250    0.21839    0.04697 =
         0.05672   -0.01600    0.00834    0.00592
C406  1    0.972350    0.835394    0.211892    10.06250    0.21839    0.04697 =
         0.05672   -0.01600    0.00834    0.00592
AFIX  43
H406  2    0.962355    0.842527    0.240596    10.06250   -1.20000
AFIX   0
C407  1    0.981648    0.869075    0.181327    10.06250    0.21839    0.04697 =
         0.05672   -0.01600    0.00834    0.00592
AFIX  43
H407  2    0.981936    0.898903    0.190540    10.06250   -1.20000
AFIX   0
C408  1    0.976115    0.754699    0.234806    10.06250    0.21839    0.04697 =
         0.05672   -0.01600    0.00834    0.00592
C409  1    0.944279    0.760316    0.268336    10.06250    0.21839    0.04697 =
         0.05672   -0.01600    0.00834    0.00592
AFIX  43
H409  2    0.925574    0.785313    0.268128    10.06250   -1.20000
AFIX   0
C410  1    0.940422    0.728591    0.302134    10.06250    0.21839    0.04697 =
         0.05672   -0.01600    0.00834    0.00592
AFIX  43
H410  2    0.919086    0.732210    0.324636    10.06250   -1.20000
AFIX   0
C411  1    0.968546    0.691314    0.302318    10.06250    0.21839    0.04697 =
         0.05672   -0.01600    0.00834    0.00592
C412  1    0.999710    0.685177    0.268193    10.06250    0.21839    0.04697 =
         0.05672   -0.01600    0.00834    0.00592
C413  1    1.003863    0.717143    0.234816    10.06250    0.21839    0.04697 =
         0.05672   -0.01600    0.00834    0.00592
AFIX  43
H413  2    1.025233    0.713538    0.212343    10.06250   -1.20000
AFIX   0
C414  1    0.971370    0.654178    0.331997    10.06250    0.21839    0.04697 =
         0.05672   -0.01600    0.00834    0.00592
C415  1    0.947180    0.644523    0.370122    10.06250    0.21839    0.04697 =
         0.05672   -0.01600    0.00834    0.00592
AFIX  43
H415  2    0.924624    0.663908    0.379617    10.06250   -1.20000
AFIX   0
C416  1    0.956427    0.605828    0.394450    10.06250    0.21839    0.04697 =
         0.05672   -0.01600    0.00834    0.00592
AFIX  43
H416  2    0.940261    0.599485    0.420395    10.06250   -1.20000
AFIX   0
C417  1    0.989952    0.576458    0.379998    10.06250    0.21839    0.04697 =
         0.05672   -0.01600    0.00834    0.00592
C418  1    1.014034    0.586353    0.341349    10.06250    0.21839    0.04697 =
         0.05672   -0.01600    0.00834    0.00592
AFIX  43
H418  2    1.036344    0.566864    0.331494    10.06250   -1.20000
AFIX   0
C419  1    1.004883    0.625381    0.317290    10.06250    0.21839    0.04697 =
         0.05672   -0.01600    0.00834    0.00592
C420  1    1.023790    0.643788    0.276463    10.06250    0.21839    0.04697 =
         0.05672   -0.01600    0.00834    0.00592
C421  1    1.072573    0.648597    0.276877    10.06250    0.21839    0.04697 =
         0.05672   -0.01600    0.00834    0.00592
AFIX  33
H42A  2    1.083107    0.648596    0.307322    10.06250   -1.50000
H42B  2    1.080750    0.676340    0.262685    10.06250   -1.50000
H42C  2    1.085923    0.624016    0.260894    10.06250   -1.50000
AFIX   0
C422  1    1.024373    0.612281    0.238461    10.06250    0.21839    0.04697 =
         0.05672   -0.01600    0.00834    0.00592
AFIX  33
H42D  2    1.012833    0.583750    0.247988    10.06250   -1.50000
H42E  2    1.054617    0.608671    0.227967    10.06250   -1.50000
H42F  2    1.006047    0.623861    0.214629    10.06250   -1.50000
AFIX   0
HKLF 4

REM  n3257 in Pm-3m
REM R1 =  0.0700 for    4318 Fo > 4sig(Fo)  and  0.0756 for all    4807 data
REM    320 parameters refined using   8985 restraints

END

WGHT      0.1567      6.6084

REM Highest difference peak  0.561,  deepest hole -1.549,  1-sigma level  0.093
Q1    1   1.0672  0.4566  0.5434  10.50000  0.05    0.56
Q2    1   1.0625  0.5000  0.5247  10.50000  0.05    0.47
Q3    1   1.0000  0.5000  0.4726  10.25000  0.05    0.46
Q4    1   1.0655  0.5196  0.5804  11.00000  0.05    0.44
Q5    1   1.0325  0.5000  0.6148  10.50000  0.05    0.36
Q6    1   1.0000  0.8582  0.9573  10.50000  0.05    0.33
Q7    1   1.0916  0.5000  0.6155  10.50000  0.05    0.32
Q8    1   1.0000  0.5836  0.5000  10.25000  0.05    0.32
Q9    1   1.0000  0.5425  0.4575  10.25000  0.05    0.31
Q10   1   1.0298  0.4920  0.5480  11.00000  0.05    0.24
Q11   1   1.0340  0.5964  0.5404  11.00000  0.05    0.24
Q12   1   1.1246  0.3919  0.5564  11.00000  0.05    0.23
Q13   1   1.0817  0.5000  0.6540  10.50000  0.05    0.22
Q14   1   0.9287  0.5833  0.4323  11.00000  0.05    0.20
Q15   1   1.1203  0.4077  0.5666  11.00000  0.05    0.20
Q16   1   1.1306  0.3866  0.5672  11.00000  0.05    0.20
Q17   1   1.0654  0.5899  0.2328  11.00000  0.05    0.20
Q18   1   1.0711  0.5934  0.2419  11.00000  0.05    0.20
Q19   1   1.1386  0.7410  0.6834  11.00000  0.05    0.20
Q20   1   0.9359  0.6083  0.3917  10.50000  0.05    0.19
;
_shelx_res_checksum              55186
_shelx_hkl_file
;
   0   1   014376.28    0.02
   0   1   1  123.95  162.33
   0   2   019791.49  131.66
   0   2   1 1828.85   10.38
   0   2   2 2753.75   23.52
   0   3   027964.43   56.56
   0   3   1   20.62    5.20
   0   3   2  195.05    2.73
   0   3   3 1112.98   21.77
   0   4   0 6021.22   32.51
   0   4   1    2.59    1.34
   0   4   2   54.55    0.10
   0   4   3  415.65    1.08
   0   4   4  210.25    5.59
   0   5   0 4441.46   12.41
   0   5   1  494.69    0.77
   0   5   2  127.95    1.10
   0   5   3 1656.81    1.50
   0   5   4  426.53    0.98
   0   5   5   86.72    2.31
   0   6   0 1210.19   73.66
   0   6   1 1007.69   11.98
   0   6   2    5.82    0.99
   0   6   3  721.88    5.08
   0   6   4  776.01    6.86
   0   6   5  404.95    2.31
   0   6   6  215.24    1.73
   0   7   0 2031.38   47.11
   0   7   1 1507.61    8.79
   0   7   2   17.88    0.89
   0   7   3  360.35    4.51
   0   7   4  186.93    0.83
   0   7   5  407.00    1.43
   0   7   6  277.56    1.15
   0   7   7  449.41    4.22
   0   8   0 5093.86   44.92
   0   8   1 2479.70   12.93
   0   8   2  318.13    2.61
   0   8   3    2.67    0.44
   0   8   4   45.02    0.32
   0   8   5   31.87    0.80
   0   8   6  411.23    1.81
   0   8   7  128.44    0.57
   0   8   8    0.03    0.70
   0   9   0 2588.96   24.27
   0   9   1 2407.01   12.97
   0   9   2  511.36    2.43
   0   9   3   21.39    0.23
   0   9   4   61.09    0.77
   0   9   5   12.95    0.43
   0   9   6   15.97    0.33
   0   9   7   21.90    0.39
   0   9   8    0.43    0.34
   0   9   9   26.37    1.72
   0  10   0 3789.66   33.48
   0  10   1 2571.32   12.19
   0  10   2  867.14    4.62
   0  10   3   70.02    0.78
   0  10   4    2.40    0.20
   0  10   5    7.57    0.45
   0  10   6    4.56    0.18
   0  10   7   20.43    0.21
   0  10   8  297.41    1.74
   0  10   9  378.10    3.11
   0  10  10 1537.06   14.18
   0  11   0 1249.07    9.60
   0  11   1 1330.70    5.72
   0  11   2  558.87    2.91
   0  11   3   72.16    0.87
   0  11   4    3.95    0.20
   0  11   5   37.36    0.53
   0  11   6    3.40    0.38
   0  11   7  154.37    1.19
   0  11   8  334.74    2.10
   0  11   9 1759.91   11.15
   0  11  10 1597.76    9.59
   0  11  11 1187.80    9.69
   0  12   0 1116.32   11.76
   0  12   1  904.84    4.66
   0  12   2  540.78    2.38
   0  12   3  226.63    1.63
   0  12   4    8.04    0.29
   0  12   5    3.98    0.20
   0  12   6    9.03    0.31
   0  12   7   68.84    0.70
   0  12   8 1397.22    7.86
   0  12   9 1019.88    6.75
   0  12  10 1012.94    6.94
   0  12  11 1176.77    7.41
   0  12  12  944.41    7.90
   0  13   0 2023.68   18.80
   0  13   1 1141.48    5.27
   0  13   2  724.11    3.09
   0  13   3  138.91    1.02
   0  13   4  131.15    0.98
   0  13   5   22.10    0.68
   0  13   6    1.42    0.23
   0  13   7  580.35    3.53
   0  13   8  641.31    3.49
   0  13   9  626.36    4.06
   0  13  10  843.83    5.51
   0  13  11  932.07    6.15
   0  13  12 1060.22    7.08
   0  13  13  855.46    8.90
   0  14   0 1172.36   13.50
   0  14   1 1308.25    6.99
   0  14   2  296.76    1.69
   0  14   3  140.00    1.14
   0  14   4   12.59    0.53
   0  14   5    3.25    0.27
   0  14   6  239.74    1.85
   0  14   7  166.05    1.36
   0  14   8  324.97    2.14
   0  14   9  551.91    3.32
   0  14  10  768.71    4.54
   0  14  11  900.76    6.15
   0  14  12  842.44    5.61
   0  14  13  661.21    5.14
   0  14  14  648.26    6.82
   0  15   0 2261.20   23.68
   0  15   1 1183.29    7.25
   0  15   2  936.10    5.78
   0  15   3  127.02    1.00
   0  15   4    1.08    0.28
   0  15   5    6.27    0.53
   0  15   6   18.22    0.69
   0  15   7   60.57    0.94
   0  15   8  136.00    1.20
   0  15   9  482.72    3.01
   0  15  10  485.72    3.12
   0  15  11  515.13    3.70
   0  15  12  587.06    3.96
   0  15  13  525.85    3.73
   0  15  14  381.98    2.86
   0  15  15  331.17    3.10
   0  16   0  700.93    9.20
   0  16   1  907.15    5.82
   0  16   2  241.70    1.84
   0  16   3   44.68    0.57
   0  16   4   22.69    0.39
   0  16   5  150.62    1.03
   0  16   6   56.18    0.71
   0  16   7    7.08    0.34
   0  16   8   85.54    0.97
   0  16   9  119.93    1.10
   0  16  10  300.47    2.24
   0  16  11  294.87    2.27
   0  16  12  324.71    2.44
   0  16  13  258.86    1.86
   0  16  14  208.10    1.53
   0  16  15  219.53    1.47
   0  16  16  239.46    2.45
   0  17   0 1097.01   13.77
   0  17   1  665.09    4.03
   0  17   2  364.36    2.74
   0  17   3   87.05    0.84
   0  17   4   13.12    0.45
   0  17   5  196.57    1.55
   0  17   6  148.87    1.32
   0  17   7    9.40    0.45
   0  17   8    0.80    0.37
   0  17   9   27.26    0.53
   0  17  10   94.91    0.99
   0  17  11  198.43    1.55
   0  17  12  146.43    1.21
   0  17  13  118.53    1.03
   0  17  14  122.69    1.09
   0  17  15  121.45    1.21
   0  17  16   41.82    0.76
   0  17  17   15.39    0.91
   0  18   0  312.10    6.63
   0  18   1  321.67    2.84
   0  18   2  115.99    1.29
   0  18   3    0.38    0.36
   0  18   4  107.86    1.07
   0  18   5  150.24    1.36
   0  18   6  229.93    1.80
   0  18   7  158.10    1.40
   0  18   8   29.14    0.54
   0  18   9    6.11    0.43
   0  18  10   39.09    0.67
   0  18  11   66.05    0.98
   0  18  12   90.68    1.02
   0  18  13   91.03    0.98
   0  18  14   39.24    0.71
   0  18  15   18.06    0.53
   0  18  16    0.52    0.37
   0  18  17    1.89    0.38
   0  18  18    3.15    0.92
   0  19   0  144.92    4.46
   0  19   1  194.95    2.06
   0  19   2   52.22    0.85
   0  19   3    2.40    0.39
   0  19   4   41.43    0.86
   0  19   5  136.71    1.56
   0  19   6  151.18    1.35
   0  19   7  161.24    1.35
   0  19   8   54.88    0.66
   0  19   9    0.01    0.30
   0  19  10   32.80    0.60
   0  19  11   45.72    0.72
   0  19  12   61.29    1.07
   0  19  13   27.83    0.67
   0  19  14   49.33    0.81
   0  19  15    0.06    0.42
   0  19  16    0.01    0.39
   0  19  17   18.53    0.62
   0  19  18   15.98    0.74
   0  19  19    1.27    0.74
   0  20   0  239.67    4.58
   0  20   1  181.23    1.67
   0  20   2   79.80    0.97
   0  20   3    2.12    0.37
   0  20   4   22.72    0.54
   0  20   5   97.26    1.09
   0  20   6  148.95    1.26
   0  20   7   56.21    0.77
   0  20   8   18.68    0.40
   0  20   9    1.82    0.39
   0  20  10   32.45    0.75
   0  20  11   75.94    1.13
   0  20  12   10.16    0.51
   0  20  13   85.99    1.20
   0  20  14    8.79    0.54
   0  20  15   17.18    0.58
   0  20  16    9.07    0.57
   0  20  17   12.12    0.60
   0  20  18    1.98    0.55
   0  20  19    4.14    0.56
   0  20  20    0.22    0.80
   0  21   0  322.17    4.26
   0  21   1  260.58    1.88
   0  21   2  135.10    1.19
   0  21   3   42.16    0.66
   0  21   4    2.84    0.40
   0  21   5   14.93    0.50
   0  21   6   33.21    0.71
   0  21   7    6.14    0.39
   0  21   8   18.84    0.50
   0  21   9   23.13    0.63
   0  21  10   54.09    1.09
   0  21  11   15.74    0.56
   0  21  12  181.33    1.69
   0  21  13   41.51    0.77
   0  21  14   78.81    1.09
   0  21  15    6.21    0.54
   0  21  16    4.65    0.49
   0  21  17    0.09    0.47
   0  21  18    3.01    0.59
   0  21  19    4.67    0.58
   0  21  20    0.08    0.62
   0  21  21   24.75    1.42
   0  22   0  677.17    8.11
   0  22   1  421.38    3.27
   0  22   2  337.91    2.29
   0  22   3  134.40    1.26
   0  22   4   33.75    0.83
   0  22   5    0.31    0.39
   0  22   6   11.56    0.53
   0  22   7   18.54    0.61
   0  22   8   38.81    0.71
   0  22   9   51.31    0.84
   0  22  10   17.59    0.57
   0  22  11  223.03    1.87
   0  22  12  108.04    1.49
   0  22  13  229.80    2.00
   0  22  14   68.13    1.05
   0  22  15   66.29    1.04
   0  22  16   17.85    0.63
   0  22  17    6.50    0.55
   0  22  18    0.21    0.54
   0  22  19    0.08    0.58
   0  22  20   15.00    0.79
   0  22  21   41.15    1.11
   0  22  22   94.42    2.75
   0  23   0  487.40    6.54
   0  23   1  563.44    3.93
   0  23   2  264.56    2.26
   0  23   3  155.59    1.90
   0  23   4   53.13    1.10
   0  23   5   27.44    0.92
   0  23   6   26.10    0.70
   0  23   7   52.50    0.87
   0  23   8   16.16    0.60
   0  23   9   16.79    0.59
   0  23  10  188.42    1.77
   0  23  11  160.16    1.63
   0  23  12  353.90    2.69
   0  23  13  208.73    1.91
   0  23  14  225.51    2.03
   0  23  15   82.01    1.24
   0  23  16   69.87    1.11
   0  23  17   14.72    0.67
   0  23  18    6.02    0.66
   0  23  19   15.27    0.76
   0  23  20   38.76    0.98
   0  23  21   72.16    1.27
   0  23  22  114.63    1.59
   0  23  23  122.42    2.86
   0  24   0 1003.97   13.90
   0  24   1  644.43    4.15
   0  24   2  657.26    4.26
   0  24   3  292.46    2.46
   0  24   4  219.57    2.02
   0  24   5  144.25    1.61
   0  24   6   83.11    1.37
   0  24   7    8.01    0.58
   0  24   8    7.39    0.53
   0  24   9  110.48    1.27
   0  24  10  135.20    1.51
   0  24  11  278.77    2.43
   0  24  12  319.05    2.38
   0  24  13  315.32    2.47
   0  24  14  195.18    1.84
   0  24  15  185.99    1.90
   0  24  16   50.80    1.05
   0  24  17   36.86    0.94
   0  24  18   24.40    0.85
   0  24  19   29.20    0.91
   0  24  20   51.97    1.09
   0  24  21   74.64    1.26
   0  24  22   92.63    1.56
   0  24  23  145.36    2.52
   0  24  24  151.43    3.66
   0  25   0  452.48    6.06
   0  25   1  606.25    3.84
   0  25   2  311.56    2.40
   0  25   3  291.83    2.44
   0  25   4  188.06    1.85
   0  25   5  104.77    1.39
   0  25   6   16.70    0.68
   0  25   7    2.20    0.53
   0  25   8   50.75    0.93
   0  25   9  112.03    1.31
   0  25  10  179.73    1.72
   0  25  11  308.35    2.37
   0  25  12  274.91    2.27
   0  25  13  244.23    2.23
   0  25  14  280.77    2.40
   0  25  15  112.82    1.51
   0  25  16   78.72    1.26
   0  25  17   35.29    0.94
   0  25  18   34.69    0.92
   0  25  19   28.18    0.87
   0  25  20   34.03    0.91
   0  25  21   53.92    1.10
   0  25  22   94.07    1.65
   0  25  23  113.49    2.50
   0  25  24  127.14    2.46
   0  25  25  125.12    4.39
   0  26   0  776.26   10.34
   0  26   1  502.72    3.38
   0  26   2  476.11    3.40
   0  26   3  269.85    2.36
   0  26   4  146.35    1.70
   0  26   5   20.59    0.77
   0  26   6    0.31    0.52
   0  26   7   10.65    0.69
   0  26   8   37.80    0.91
   0  26   9   63.96    1.04
   0  26  10  190.10    1.88
   0  26  11  162.52    1.74
   0  26  12  186.95    1.98
   0  26  13  245.81    2.26
   0  26  14  127.14    1.95
   0  26  15  106.09    1.92
   0  26  16   48.36    1.03
   0  26  17   28.11    0.90
   0  26  18   15.97    0.74
   0  26  19    8.64    0.66
   0  26  20   15.81    0.77
   0  26  21   33.26    0.92
   0  26  22   52.53    1.09
   0  26  23   76.04    2.15
   0  26  24   99.13    3.36
   0  26  25   91.90    4.17
   0  27   0  196.90    3.83
   0  27   1  296.87    2.30
   0  27   2  168.45    1.72
   0  27   3   64.82    1.08
   0  27   4    1.86    0.56
   0  27   5    7.29    0.58
   0  27   6    0.34    0.53
   0  27   7    5.39    0.59
   0  27   8    7.68    0.66
   0  27   9   81.39    1.26
   0  27  10   69.66    1.08
   0  27  11  104.19    1.43
   0  27  12  150.22    1.85
   0  27  13   97.52    1.61
   0  27  14   84.96    1.61
   0  27  15   46.47    1.25
   0  27  16   18.40    0.81
   0  27  17    4.69    0.66
   0  27  18    0.26    0.57
   0  27  19    1.08    0.61
   0  27  20    2.14    0.65
   0  27  21    7.80    0.71
   0  27  22   26.07    0.95
   0  27  23   51.71    2.16
   0  27  24   64.49    5.10
   0  28   0  178.36    3.58
   0  28   1  180.33    1.77
   0  28   2   98.17    1.44
   0  28   3   11.93    0.63
   0  28   4    2.77    0.56
   0  28   5    1.85    0.53
   0  28   6    0.51    0.53
   0  28   7    0.11    0.55
   0  28   8   22.17    0.76
   0  28   9   14.52    0.69
   0  28  10   41.48    0.87
   0  28  11   69.36    1.15
   0  28  12   45.59    0.94
   0  28  13   49.75    1.21
   0  28  14   18.44    0.79
   0  28  15    7.86    0.69
   0  28  16    0.59    0.64
   0  28  17    2.60    0.64
   0  28  18    2.03    0.60
   0  28  19    2.35    0.72
   0  28  20    0.40    0.62
   0  28  21    1.29    0.77
   0  28  22   12.69    1.03
   0  28  23   21.14    3.50
   0  29   0  221.39    3.92
   0  29   1   92.91    1.98
   0  29   2   44.32    0.87
   0  29   3    5.89    0.55
   0  29   4    0.90    0.54
   0  29   5   11.23    0.63
   0  29   6   18.56    0.68
   0  29   7    1.42    0.56
   0  29   8    0.04    0.52
   0  29   9    2.18    0.58
   0  29  10   20.81    0.69
   0  29  11   18.50    0.66
   0  29  12   26.90    0.74
   0  29  13    7.45    0.63
   0  29  14    1.20    0.61
   0  29  15    0.04    0.60
   0  29  16    4.02    0.65
   0  29  17    7.87    0.67
   0  29  18   20.35    0.79
   0  29  19   11.43    0.71
   0  29  20    3.19    0.76
   0  29  21    0.00    1.36
   0  30   0   32.96    2.00
   0  30   1   25.46    0.76
   0  30   2    0.03    0.52
   0  30   3    0.05    0.53
   0  30   4   23.05    0.74
   0  30   5   49.32    0.96
   0  30   6   42.07    0.90
   0  30   7   22.58    0.75
   0  30   8   10.68    0.63
   0  30   9    1.50    0.54
   0  30  10    5.89    0.56
   0  30  11   11.82    0.62
   0  30  12    4.73    0.56
   0  30  13    1.73    0.55
   0  30  14    0.11    0.56
   0  30  15    1.27    0.59
   0  30  16    7.00    0.67
   0  30  17   18.30    0.79
   0  30  18   22.12    0.81
   0  30  19   16.72    1.20
   0  30  20    5.25    2.57
   0  31   0   26.35    1.45
   0  31   1   10.96    0.63
   0  31   2    8.40    0.58
   0  31   3    4.61    0.63
   0  31   4   15.18    0.72
   0  31   5   27.29    0.79
   0  31   6   31.69    0.82
   0  31   7   27.01    0.74
   0  31   8    3.40    0.54
   0  31   9    0.00    0.49
   0  31  10    5.04    0.57
   0  31  11    5.16    0.70
   0  31  12    3.15    0.58
   0  31  13    0.80    0.53
   0  31  14    0.15    0.55
   0  31  15    0.49    0.57
   0  31  16    6.03    0.65
   0  31  17    8.24    0.92
   0  31  18   11.13    1.31
   0  32   0   32.44    1.66
   0  32   1   35.19    0.84
   0  32   2    8.80    0.61
   0  32   3    0.06    0.52
   0  32   4    3.80    0.56
   0  32   5    4.92    0.59
   0  32   6    8.11    0.60
   0  32   7    3.22    0.55
   0  32   8    0.38    0.48
   0  32   9    4.02    0.53
   0  32  10    6.16    0.53
   0  32  11   15.60    0.61
   0  32  12   17.74    0.67
   0  32  13    6.22    0.58
   0  32  14    3.45    0.62
   0  32  15    0.08    0.64
   0  32  16    0.02    0.88
   0  33   0   96.31    4.21
   0  33   1   75.30    1.73
   0  33   2   33.89    0.81
   0  33   3    9.55    0.60
   0  33   4    1.40    0.50
   0  33   5    0.07    0.50
   0  33   6    0.44    0.49
   0  33   7    0.01    0.46
   0  33   8    0.18    0.48
   0  33   9    7.03    0.53
   0  33  10   14.44    0.62
   0  33  11   37.09    0.86
   0  33  12   26.65    0.80
   0  33  13   36.70    1.51
   0  33  14   18.00    1.23
   0  34   0  111.45    3.61
   0  34   1   91.51    2.04
   0  34   2   64.22    1.11
   0  34   3   27.88    0.73
   0  34   4   14.26    0.58
   0  34   5    1.19    0.48
   0  34   6    1.07    0.46
   0  34   7    0.63    0.44
   0  34   8   11.94    0.60
   0  34   9   13.05    0.68
   0  34  10   39.82    1.13
   0  34  11   45.88    1.65
   0  34  12   64.03    4.15
   0  35   0   95.14    3.16
   0  35   1   95.93    2.15
   0  35   2   77.63    1.57
   0  35   3   47.34    1.22
   0  35   4   18.43    0.63
   0  35   5    9.84    0.60
   0  35   6    3.40    0.58
   0  35   7   11.48    0.78
   0  35   8   13.33    1.13
   0  35   9   43.18    3.40
   0  36   0  120.46    7.43
   0  36   1  104.62    2.32
   0  36   2   85.33    2.02
   0  36   3   53.06    1.65
   0  36   4   29.71    4.70
   1   2   1 4900.46   18.11
   1   2   2 3770.37   14.87
   1   3   1 1570.47    9.73
   1   3   2  606.09    1.12
   1   3   3 1191.75    3.20
   1   4   1 1376.88    3.43
   1   4   2  111.04    0.26
   1   4   3  125.58    0.18
   1   4   4  644.54    3.37
   1   5   1  602.49    4.29
   1   5   2    0.36    0.17
   1   5   3  673.63    2.59
   1   5   4  659.93    1.43
   1   5   5   60.23    0.19
   1   6   1 1106.25    5.91
   1   6   2    1.65    0.93
   1   6   3   98.91    1.42
   1   6   4  983.62    4.09
   1   6   5  370.39    1.62
   1   6   6  201.25    1.47
   1   7   1  695.57    3.52
   1   7   2   34.88    0.63
   1   7   3   87.80    0.54
   1   7   4  244.96    0.76
   1   7   5  452.72    1.65
   1   7   6  289.09    0.94
   1   7   7  711.73    4.11
   1   8   1  611.03    3.46
   1   8   2  107.24    1.00
   1   8   3    1.41    0.13
   1   8   4   82.09    0.46
   1   8   5   66.39    0.20
   1   8   6  315.94    1.38
   1   8   7  221.02    0.73
   1   8   8   18.06    0.22
   1   9   1 1928.07   10.34
   1   9   2  747.43    2.55
   1   9   3   28.45    0.19
   1   9   4   71.31    0.53
   1   9   5   82.18    0.40
   1   9   6   12.47    0.26
   1   9   7    2.30    0.14
   1   9   8    5.17    0.14
   1   9   9   62.02    0.93
   1  10   1 1738.49    7.98
   1  10   2  815.44    3.14
   1  10   3   89.06    0.39
   1  10   4    1.44    0.12
   1  10   5   18.19    0.30
   1  10   6   24.63    0.14
   1  10   7    8.27    0.14
   1  10   8  170.43    0.96
   1  10   9  437.82    2.15
   1  10  10 1473.03    9.44
   1  11   1 1471.05    6.46
   1  11   2  793.91    3.39
   1  11   3  255.07    1.02
   1  11   4   22.73    0.26
   1  11   5    8.81    0.16
   1  11   6    3.47    0.17
   1  11   7  176.80    0.56
   1  11   8  234.51    1.05
   1  11   9 1720.53    7.20
   1  11  10 1436.23    6.18
   1  11  11  911.14    5.45
   1  12   1  730.67    3.72
   1  12   2  411.76    1.66
   1  12   3  274.93    1.05
   1  12   4    7.98    0.18
   1  12   5    3.45    0.15
   1  12   6    4.77    0.19
   1  12   7   55.17    0.39
   1  12   8 1148.11    4.65
   1  12   9 1049.91    4.51
   1  12  10 1043.50    4.42
   1  12  11 1072.78    4.54
   1  12  12  922.61    5.60
   1  13   1  579.16    2.58
   1  13   2  296.46    1.21
   1  13   3   55.71    0.37
   1  13   4   52.29    0.43
   1  13   5   18.34    0.28
   1  13   6    5.52    0.18
   1  13   7  503.17    2.13
   1  13   8  552.37    2.43
   1  13   9  653.81    3.07
   1  13  10  878.55    3.95
   1  13  11  909.76    4.04
   1  13  12 1022.74    4.80
   1  13  13  867.81    6.15
   1  14   1 1519.85    7.36
   1  14   2  353.83    1.37
   1  14   3  159.03    0.86
   1  14   4   10.40    0.37
   1  14   5    0.35    0.19
   1  14   6  175.47    1.06
   1  14   7  102.31    0.64
   1  14   8  233.22    1.14
   1  14   9  431.10    1.93
   1  14  10  641.51    2.86
   1  14  11  755.49    3.53
   1  14  12  683.65    3.33
   1  14  13  597.25    3.22
   1  14  14  561.52    4.27
   1  15   1  582.38    3.58
   1  15   2  462.36    2.01
   1  15   3    5.15    0.24
   1  15   4   49.96    0.40
   1  15   5    0.28    0.22
   1  15   6    0.88    0.25
   1  15   7   14.83    0.31
   1  15   8   92.69    0.59
   1  15   9  375.36    1.74
   1  15  10  394.24    1.83
   1  15  11  468.61    2.18
   1  15  12  470.11    2.38
   1  15  13  426.24    2.15
   1  15  14  313.10    1.61
   1  15  15  254.46    1.76
   1  16   1 1179.08    6.87
   1  16   2  421.13    1.65
   1  16   3   71.80    0.53
   1  16   4    5.38    0.22
   1  16   5   89.33    0.60
   1  16   6   51.28    0.61
   1  16   7    0.29    0.24
   1  16   8   60.30    0.70
   1  16   9   68.74    0.62
   1  16  10  225.55    1.28
   1  16  11  264.34    1.39
   1  16  12  249.59    1.39
   1  16  13  201.52    1.08
   1  16  14  166.65    0.87
   1  16  15  156.06    0.86
   1  16  16  171.08    1.44
   1  17   1  296.83    2.16
   1  17   2  151.54    0.90
   1  17   3    3.35    0.23
   1  17   4   77.32    0.67
   1  17   5  309.33    1.59
   1  17   6  218.98    1.32
   1  17   7   36.91    0.48
   1  17   8    0.86    0.24
   1  17   9    9.30    0.33
   1  17  10   57.95    0.62
   1  17  11  149.21    1.00
   1  17  12  103.56    0.76
   1  17  13   80.93    0.74
   1  17  14   89.39    0.65
   1  17  15   84.45    0.71
   1  17  16   22.07    0.40
   1  17  17    6.92    0.44
   1  18   1  228.58    2.36
   1  18   2   89.65    0.75
   1  18   3    0.03    0.26
   1  18   4  104.21    0.78
   1  18   5  162.66    1.01
   1  18   6  220.87    1.36
   1  18   7  179.27    1.10
   1  18   8   35.62    0.44
   1  18   9    2.22    0.25
   1  18  10   18.78    0.34
   1  18  11   42.83    0.58
   1  18  12   73.22    0.65
   1  18  13   61.42    0.60
   1  18  14   25.10    0.43
   1  18  15    6.71    0.33
   1  18  16    1.07    0.28
   1  18  17    0.28    0.29
   1  18  18   11.37    0.68
   1  19   1  151.27    1.85
   1  19   2   36.81    0.51
   1  19   3    3.78    0.30
   1  19   4   52.03    0.60
   1  19   5  184.38    1.11
   1  19   6  182.29    1.08
   1  19   7  195.46    1.04
   1  19   8   67.74    0.54
   1  19   9    0.36    0.20
   1  19  10   22.31    0.38
   1  19  11   31.79    0.48
   1  19  12   52.35    0.56
   1  19  13   15.99    0.41
   1  19  14   32.77    0.48
   1  19  15    1.74    0.30
   1  19  16    1.94    0.31
   1  19  17   33.63    0.54
   1  19  18   27.42    0.54
   1  19  19    0.29    0.53
   1  20   1  105.52    1.23
   1  20   2   39.05    0.49
   1  20   3    0.11    0.25
   1  20   4   24.04    0.41
   1  20   5  106.44    0.79
   1  20   6  147.20    0.86
   1  20   7   59.51    0.58
   1  20   8   22.95    0.30
   1  20   9    2.70    0.26
   1  20  10   24.80    0.43
   1  20  11   58.15    0.63
   1  20  12    9.38    0.34
   1  20  13   72.76    0.71
   1  20  14    7.04    0.34
   1  20  15   10.70    0.36
   1  20  16   16.14    0.46
   1  20  17   20.87    0.47
   1  20  18    5.30    0.41
   1  20  19   11.42    0.48
   1  20  20    2.61    0.58
   1  21   1  234.47    2.00
   1  21   2  103.62    0.75
   1  21   3   30.23    0.44
   1  21   4    3.36    0.28
   1  21   5   19.85    0.36
   1  21   6   41.18    0.51
   1  21   7   11.09    0.30
   1  21   8   11.35    0.32
   1  21   9   21.39    0.40
   1  21  10   43.27    0.55
   1  21  11   10.48    0.36
   1  21  12  154.45    1.09
   1  21  13   32.02    0.52
   1  21  14   64.30    0.69
   1  21  15    1.98    0.35
   1  21  16    1.26    0.31
   1  21  17    1.16    0.33
   1  21  18    6.34    0.43
   1  21  19    8.52    0.45
   1  21  20    0.16    0.41
   1  21  21   22.64    0.86
   1  22   1  310.89    2.04
   1  22   2  215.16    1.19
   1  22   3   66.45    0.72
   1  22   4   11.46    0.38
   1  22   5    1.96    0.29
   1  22   6    2.44    0.30
   1  22   7    7.97    0.35
   1  22   8   24.89    0.42
   1  22   9   39.70    0.57
   1  22  10   14.54    0.40
   1  22  11  201.80    1.26
   1  22  12   89.82    0.89
   1  22  13  213.28    1.34
   1  22  14   60.08    0.70
   1  22  15   63.12    0.72
   1  22  16   15.59    0.45
   1  22  17    2.44    0.39
   1  22  18    0.88    0.38
   1  22  19    0.12    0.41
   1  22  20    9.66    0.52
   1  22  21   37.96    0.70
   1  22  22   89.71    1.43
   1  23   1  771.22    4.84
   1  23   2  383.18    2.06
   1  23   3  246.96    1.46
   1  23   4  110.10    0.93
   1  23   5   66.27    0.75
   1  23   6   44.96    0.61
   1  23   7   62.70    0.76
   1  23   8   15.96    0.43
   1  23   9   11.33    0.39
   1  23  10  174.05    1.15
   1  23  11  144.66    1.04
   1  23  12  307.82    1.73
   1  23  13  184.72    1.25
   1  23  14  194.53    1.38
   1  23  15   74.12    0.78
   1  23  16   58.36    0.75
   1  23  17    7.75    0.44
   1  23  18    3.30    0.46
   1  23  19   11.92    0.50
   1  23  20   29.55    0.65
   1  23  21   64.53    0.87
   1  23  22  106.90    1.14
   1  23  23  112.97    1.76
   1  24   1  406.74    2.80
   1  24   2  411.33    2.10
   1  24   3  178.70    1.24
   1  24   4  129.78    1.09
   1  24   5  102.19    1.01
   1  24   6   56.55    0.69
   1  24   7    5.80    0.38
   1  24   8    7.49    0.37
   1  24   9   96.44    0.86
   1  24  10  146.71    1.09
   1  24  11  280.93    1.60
   1  24  12  302.14    1.64
   1  24  13  304.64    1.74
   1  24  14  172.90    1.25
   1  24  15  172.36    1.23
   1  24  16   44.61    0.69
   1  24  17   27.69    0.64
   1  24  18   17.60    0.56
   1  24  19   27.00    0.61
   1  24  20   44.65    0.72
   1  24  21   69.79    0.84
   1  24  22   91.01    1.01
   1  24  23  139.05    1.63
   1  24  24  144.62    2.56
   1  25   1  711.98    4.42
   1  25   2  375.50    1.98
   1  25   3  367.04    1.92
   1  25   4  191.18    1.37
   1  25   5  103.10    1.07
   1  25   6    8.80    0.45
   1  25   7    0.26    0.37
   1  25   8   34.95    0.56
   1  25   9   78.76    0.81
   1  25  10  163.98    1.11
   1  25  11  280.04    1.64
   1  25  12  263.29    1.64
   1  25  13  234.09    1.53
   1  25  14  254.14    1.61
   1  25  15  100.41    1.06
   1  25  16   70.96    0.93
   1  25  17   29.85    0.63
   1  25  18   26.32    0.60
   1  25  19   24.84    0.56
   1  25  20   28.27    0.62
   1  25  21   48.10    0.74
   1  25  22   87.08    1.08
   1  25  23  106.51    1.42
   1  25  24  120.06    1.53
   1  25  25  124.41    3.64
   1  26   1  252.77    2.18
   1  26   2  270.10    1.62
   1  26   3  167.31    1.18
   1  26   4   76.49    0.89
   1  26   5    8.30    0.45
   1  26   6    0.52    0.37
   1  26   7    8.30    0.44
   1  26   8   35.43    0.60
   1  26   9   59.66    0.72
   1  26  10  180.78    1.34
   1  26  11  152.06    1.23
   1  26  12  186.73    1.34
   1  26  13  233.00    1.50
   1  26  14  120.03    1.24
   1  26  15   91.16    1.28
   1  26  16   41.83    0.69
   1  26  17   24.65    0.56
   1  26  18   10.37    0.49
   1  26  19    5.92    0.46
   1  26  20   12.07    0.51
   1  26  21   28.42    0.60
   1  26  22   47.80    0.85
   1  26  23   70.26    1.26
   1  26  24   86.69    2.46
   1  26  25   87.72    2.90
   1  27   1  371.43    2.83
   1  27   2  242.72    1.49
   1  27   3  110.45    1.17
   1  27   4   10.12    0.46
   1  27   5    0.54    0.37
   1  27   6    2.85    0.40
   1  27   7    9.64    0.45
   1  27   8   10.33    0.46
   1  27   9   79.23    1.02
   1  27  10   57.22    0.74
   1  27  11   88.99    0.96
   1  27  12  135.78    1.27
   1  27  13   81.75    1.08
   1  27  14   76.22    1.14
   1  27  15   29.53    0.64
   1  27  16   10.79    0.51
   1  27  17    2.23    0.44
   1  27  18    0.07    0.41
   1  27  19    0.21    0.43
   1  27  20    1.12    0.45
   1  27  21    5.98    0.49
   1  27  22   23.35    0.68
   1  27  23   46.57    1.68
   1  27  24   52.58    3.46
   1  28   1  182.24    1.80
   1  28   2  104.93    1.18
   1  28   3    8.74    0.45
   1  28   4    3.61    0.40
   1  28   5    4.21    0.39
   1  28   6    2.88    0.40
   1  28   7    0.63    0.39
   1  28   8   13.07    0.57
   1  28   9    8.82    0.44
   1  28  10   24.06    0.53
   1  28  11   53.89    0.72
   1  28  12   34.20    0.60
   1  28  13   37.57    0.68
   1  28  14   17.14    0.53
   1  28  15    2.61    0.44
   1  28  16    0.04    0.43
   1  28  17    4.58    0.46
   1  28  18    3.74    0.45
   1  28  19    5.41    0.46
   1  28  20    1.78    0.45
   1  28  21    0.34    0.47
   1  28  22    9.40    0.74
   1  28  23   18.79    2.43
   1  29   1   30.77    0.79
   1  29   2    8.69    0.41
   1  29   3    3.33    0.39
   1  29   4   14.48    0.48
   1  29   5   36.01    0.59
   1  29   6   37.34    0.62
   1  29   7    8.16    0.45
   1  29   8    1.43    0.38
   1  29   9    0.37    0.38
   1  29  10   10.09    0.45
   1  29  11   13.05    0.44
   1  29  12   16.81    0.50
   1  29  13    3.63    0.42
   1  29  14    0.90    0.40
   1  29  15    1.19    0.44
   1  29  16    7.58    0.50
   1  29  17   13.24    0.52
   1  29  18   24.05    0.59
   1  29  19   16.38    0.59
   1  29  20    5.44    0.58
   1  29  21    0.09    0.86
   1  30   1   29.40    0.78
   1  30   2    0.16    0.37
   1  30   3    0.25    0.37
   1  30   4   18.32    0.51
   1  30   5   48.54    0.67
   1  30   6   39.32    0.61
   1  30   7   25.29    0.52
   1  30   8   11.00    0.44
   1  30   9    0.18    0.38
   1  30  10    2.42    0.38
   1  30  11    7.85    0.41
   1  30  12    1.37    0.38
   1  30  13    0.27    0.38
   1  30  14    0.68    0.41
   1  30  15    3.61    0.45
   1  30  16   11.17    0.52
   1  30  17   28.65    0.60
   1  30  18   26.37    0.60
   1  30  19   22.59    0.92
   1  30  20    9.17    2.16
   1  31   1    4.01    0.56
   1  31   2    2.66    0.40
   1  31   3   10.60    0.46
   1  31   4   20.53    0.53
   1  31   5   36.70    0.59
   1  31   6   36.03    0.61
   1  31   7   31.15    0.55
   1  31   8    2.93    0.40
   1  31   9    0.33    0.34
   1  31  10    5.13    0.38
   1  31  11    5.24    0.40
   1  31  12    2.56    0.38
   1  31  13    0.39    0.38
   1  31  14    0.02    0.38
   1  31  15    1.47    0.42
   1  31  16    9.20    0.47
   1  31  17   15.50    0.63
   1  31  18   14.53    1.18
   1  32   1   32.28    0.78
   1  32   2    6.34    0.41
   1  32   3    0.01    0.38
   1  32   4    7.78    0.43
   1  32   5   11.90    0.45
   1  32   6   16.85    0.46
   1  32   7    9.80    0.41
   1  32   8    2.18    0.37
   1  32   9    0.08    0.34
   1  32  10    2.89    0.37
   1  32  11    8.53    0.41
   1  32  12   13.97    0.45
   1  32  13    4.43    0.40
   1  32  14    1.90    0.40
   1  32  15    0.02    0.46
   1  32  16    0.11    0.67
   1  33   1   49.71    1.03
   1  33   2   19.34    0.49
   1  33   3    6.25    0.39
   1  33   4    0.05    0.35
   1  33   5    0.80    0.36
   1  33   6    1.74    0.36
   1  33   7    0.22    0.35
   1  33   8    0.05    0.32
   1  33   9    3.31    0.35
   1  33  10   11.78    0.42
   1  33  11   25.50    0.54
   1  33  12   23.04    0.61
   1  33  13   29.03    0.79
   1  33  14   13.17    0.91
   1  34   1   71.31    1.79
   1  34   2   49.58    0.70
   1  34   3   24.76    0.48
   1  34   4    9.36    0.40
   1  34   5    0.73    0.33
   1  34   6    0.18    0.32
   1  34   7    0.25    0.33
   1  34   8    9.08    0.40
   1  34   9    9.91    0.44
   1  34  10   35.83    0.92
   1  34  11   36.53    1.18
   1  34  12   59.68    2.50
   1  35   1  103.46    1.65
   1  35   2   80.63    1.12
   1  35   3   52.01    0.70
   1  35   4   18.42    0.46
   1  35   5   11.61    0.44
   1  35   6    2.44    0.41
   1  35   7   11.50    0.55
   1  35   8   10.78    0.78
   1  35   9   41.95    2.17
   1  36   1  104.59    2.04
   1  36   2   79.81    1.33
   1  36   3   49.86    1.35
   1  36   4   26.47    3.07
   2   2   226540.06   60.99
   2   3   2  266.42    4.29
   2   3   3  648.66    2.73
   2   4   2  496.13    1.63
   2   4   3    1.54    0.87
   2   4   4   21.95    0.89
   2   5   2  100.49    2.20
   2   5   3  645.86    3.86
   2   5   4  232.41    1.14
   2   5   5  710.92    4.07
   2   6   2    5.64    3.12
   2   6   3  136.83    1.46
   2   6   4  408.48    2.00
   2   6   5  807.37    4.19
   2   6   6  403.65    2.58
   2   7   2    9.42    1.99
   2   7   3   32.26    0.31
   2   7   4   40.52    0.13
   2   7   5  601.71    2.83
   2   7   6  368.96    1.71
   2   7   7  691.38    5.99
   2   8   2   26.55    0.21
   2   8   3    0.69    0.35
   2   8   4   61.19    0.22
   2   8   5  199.54    0.76
   2   8   6  649.94    2.31
   2   8   7  385.29    1.87
   2   8   8  127.62    0.97
   2   9   2  501.99    1.11
   2   9   3   71.64    0.29
   2   9   4   32.89    0.39
   2   9   5   47.73    0.35
   2   9   6   44.72    0.38
   2   9   7    4.63    0.21
   2   9   8   57.67    0.33
   2   9   9   12.43    0.54
   2  10   2  581.65    2.72
   2  10   3  125.39    0.43
   2  10   4    0.55    0.12
   2  10   5   10.89    0.33
   2  10   6    4.66    0.13
   2  10   7    4.39    0.35
   2  10   8   74.73    0.42
   2  10   9  324.43    1.41
   2  10  10 1063.73    6.15
   2  11   2  707.30    3.76
   2  11   3  350.68    1.04
   2  11   4   52.45    0.35
   2  11   5    0.92    0.14
   2  11   6    0.63    0.16
   2  11   7   85.37    0.36
   2  11   8  165.37    0.75
   2  11   9 1398.15    5.43
   2  11  10 1151.34    4.75
   2  11  11  821.01    4.14
   2  12   2  411.93    1.79
   2  12   3  355.03    1.04
   2  12   4   50.81    0.29
   2  12   5   11.24    0.20
   2  12   6   23.15    0.29
   2  12   7   41.11    0.43
   2  12   8  969.11    4.08
   2  12   9  956.44    4.08
   2  12  10  875.45    3.90
   2  12  11  976.90    3.93
   2  12  12  820.66    4.94
   2  13   2  191.63    1.20
   2  13   3   28.00    0.27
   2  13   4   42.93    0.37
   2  13   5   17.02    0.27
   2  13   6    4.53    0.20
   2  13   7  259.64    1.22
   2  13   8  351.32    1.63
   2  13   9  533.72    2.39
   2  13  10  650.23    3.06
   2  13  11  740.58    3.31
   2  13  12  799.91    3.78
   2  13  13  660.95    4.85
   2  14   2   13.88    0.27
   2  14   3    1.04    0.17
   2  14   4   20.02    0.23
   2  14   5   20.60    0.27
   2  14   6   49.47    0.42
   2  14   7   10.31    0.24
   2  14   8   80.40    0.58
   2  14   9  270.08    1.27
   2  14  10  447.74    2.21
   2  14  11  533.54    2.54
   2  14  12  518.36    2.55
   2  14  13  449.30    2.49
   2  14  14  351.73    2.64
   2  15   2  351.45    2.04
   2  15   3    0.35    0.18
   2  15   4   56.91    0.47
   2  15   5    0.77    0.19
   2  15   6    5.02    0.23
   2  15   7    6.16    0.25
   2  15   8    5.33    0.26
   2  15   9  159.92    0.98
   2  15  10  169.67    1.03
   2  15  11  243.27    1.34
   2  15  12  276.79    1.52
   2  15  13  226.73    1.29
   2  15  14  155.98    0.90
   2  15  15  120.38    0.98
   2  16   2   52.01    0.49
   2  16   3   13.24    0.28
   2  16   4  111.69    0.73
   2  16   5  243.47    1.27
   2  16   6  174.11    1.13
   2  16   7   39.66    0.51
   2  16   8    0.35    0.22
   2  16   9    7.20    0.29
   2  16  10   94.90    0.79
   2  16  11  115.60    0.90
   2  16  12  105.13    0.78
   2  16  13   89.60    0.62
   2  16  14   59.09    0.55
   2  16  15   50.21    0.46
   2  16  16   61.80    0.88
   2  17   2   37.50    0.72
   2  17   3    9.01    0.25
   2  17   4  131.39    0.83
   2  17   5  363.43    1.76
   2  17   6  311.98    1.72
   2  17   7   87.22    0.80
   2  17   8   25.91    0.46
   2  17   9    1.15    0.27
   2  17  10   17.50    0.37
   2  17  11   48.07    0.61
   2  17  12   35.52    0.43
   2  17  13   31.69    0.39
   2  17  14   17.50    0.35
   2  17  15   16.61    0.38
   2  17  16    0.25    0.28
   2  17  17    6.80    0.52
   2  18   2    4.64    0.40
   2  18   3   27.36    0.51
   2  18   4  196.64    1.19
   2  18   5  265.57    1.46
   2  18   6  345.97    1.89
   2  18   7  292.73    1.63
   2  18   8  102.01    0.72
   2  18   9    6.71    0.27
   2  18  10    0.13    0.22
   2  18  11    6.42    0.27
   2  18  12   26.51    0.38
   2  18  13   21.51    0.37
   2  18  14    1.68    0.27
   2  18  15    1.11    0.29
   2  18  16   19.78    0.43
   2  18  17   19.51    0.46
   2  18  18   58.52    1.34
   2  19   2    0.40    0.38
   2  19   3   35.58    0.53
   2  19   4  114.37    0.84
   2  19   5  251.28    1.34
   2  19   6  271.78    1.30
   2  19   7  269.16    1.31
   2  19   8  108.79    0.70
   2  19   9   11.15    0.28
   2  19  10    4.21    0.24
   2  19  11    8.52    0.29
   2  19  12   16.63    0.35
   2  19  13    2.10    0.29
   2  19  14    3.77    0.31
   2  19  15   17.72    0.41
   2  19  16   23.68    0.44
   2  19  17   91.45    0.92
   2  19  18   70.02    0.73
   2  19  19   11.00    0.60
   2  20   2    6.24    0.41
   2  20   3    4.25    0.32
   2  20   4   45.72    0.49
   2  20   5  118.64    0.81
   2  20   6  181.71    0.97
   2  20   7   81.77    0.62
   2  20   8   32.75    0.40
   2  20   9    0.14    0.23
   2  20  10   11.84    0.32
   2  20  11   28.82    0.45
   2  20  12    1.68    0.29
   2  20  13   32.62    0.49
   2  20  14    0.11    0.30
   2  20  15    0.24    0.31
   2  20  16   57.43    0.66
   2  20  17   58.32    0.68
   2  20  18   32.55    0.56
   2  20  19   39.49    0.62
   2  20  20   17.92    0.79
   2  21   2   40.29    0.65
   2  21   3    5.94    0.27
   2  21   4   18.71    0.35
   2  21   5   34.07    0.44
   2  21   6   74.22    0.64
   2  21   7   29.13    0.38
   2  21   8    2.09    0.27
   2  21   9    6.80    0.32
   2  21  10   22.07    0.42
   2  21  11    4.73    0.32
   2  21  12  104.61    0.87
   2  21  13   17.93    0.42
   2  21  14   40.30    0.53
   2  21  15    0.10    0.35
   2  21  16    1.00    0.36
   2  21  17   11.19    0.46
   2  21  18   32.77    0.58
   2  21  19   25.41    0.59
   2  21  20    4.44    0.46
   2  21  21    8.74    0.74
   2  22   2  189.82    1.43
   2  22   3   54.84    0.60
   2  22   4    8.12    0.32
   2  22   5    0.82    0.28
   2  22   6    0.39    0.28
   2  22   7    3.09    0.32
   2  22   8   11.94    0.35
   2  22   9   18.99    0.39
   2  22  10    7.70    0.33
   2  22  11  147.96    1.03
   2  22  12   57.52    0.73
   2  22  13  142.31    1.13
   2  22  14   30.08    0.57
   2  22  15   34.05    0.60
   2  22  16    4.20    0.37
   2  22  17    0.22    0.36
   2  22  18    9.53    0.44
   2  22  19    2.57    0.45
   2  22  20    4.03    0.43
   2  22  21   26.71    0.61
   2  22  22   68.65    1.29
   2  23   2  202.76    1.74
   2  23   3  106.33    1.00
   2  23   4   49.12    0.71
   2  23   5   30.86    0.58
   2  23   6   21.17    0.46
   2  23   7   37.48    0.51
   2  23   8    4.88    0.35
   2  23   9    6.02    0.35
   2  23  10  133.57    0.97
   2  23  11  125.36    0.94
   2  23  12  259.97    1.55
   2  23  13  137.02    1.09
   2  23  14  155.12    1.19
   2  23  15   51.86    0.68
   2  23  16   32.23    0.56
   2  23  17    1.22    0.43
   2  23  18    0.12    0.44
   2  23  19    2.68    0.45
   2  23  20   18.43    0.57
   2  23  21   50.78    0.78
   2  23  22   89.31    1.09
   2  23  23  110.91    2.07
   2  24   2  448.54    2.94
   2  24   3  192.48    1.25
   2  24   4  155.51    1.11
   2  24   5   97.31    0.91
   2  24   6   46.97    0.61
   2  24   7    3.40    0.35
   2  24   8    1.85    0.34
   2  24   9   64.27    0.68
   2  24  10  113.30    0.94
   2  24  11  251.21    1.45
   2  24  12  255.54    1.48
   2  24  13  258.41    1.57
   2  24  14  146.22    1.13
   2  24  15  135.79    1.20
   2  24  16   31.65    0.62
   2  24  17   16.59    0.53
   2  24  18    7.65    0.49
   2  24  19   14.37    0.51
   2  24  20   31.48    0.63
   2  24  21   52.90    0.78
   2  24  22   69.57    0.92
   2  24  23  123.93    1.44
   2  24  24  126.91    2.34
   2  25   2  183.70    1.69
   2  25   3  191.05    1.26
   2  25   4  113.06    0.94
   2  25   5   41.72    0.65
   2  25   6    0.82    0.37
   2  25   7    0.98    0.37
   2  25   8   16.01    0.49
   2  25   9   59.45    0.71
   2  25  10  136.97    1.10
   2  25  11  250.92    1.57
   2  25  12  239.16    1.52
   2  25  13  203.96    1.41
   2  25  14  204.08    1.46
   2  25  15   73.70    0.89
   2  25  16   47.07    0.71
   2  25  17   15.83    0.54
   2  25  18   13.22    0.51
   2  25  19   10.52    0.48
   2  25  20   17.62    0.53
   2  25  21   36.52    0.66
   2  25  22   62.33    0.88
   2  25  23   87.69    1.31
   2  25  24  101.65    1.48
   2  25  25   96.99    2.58
   2  26   2  277.95    2.36
   2  26   3  168.09    1.21
   2  26   4   96.44    0.96
   2  26   5    9.03    0.44
   2  26   6    0.02    0.37
   2  26   7    6.49    0.43
   2  26   8   26.70    0.53
   2  26   9   52.63    0.67
   2  26  10  139.15    1.28
   2  26  11  127.95    1.11
   2  26  12  158.87    1.19
   2  26  13  186.25    1.30
   2  26  14   82.24    0.91
   2  26  15   57.86    0.77
   2  26  16   16.14    0.52
   2  26  17    7.20    0.48
   2  26  18    1.54    0.43
   2  26  19    0.23    0.42
   2  26  20    4.82    0.46
   2  26  21   20.07    0.54
   2  26  22   35.66    0.79
   2  26  23   57.81    1.09
   2  26  24   74.09    2.17
   2  26  25   70.79    2.71
   2  27   2  148.55    1.69
   2  27   3   57.89    0.75
   2  27   4    2.44    0.40
   2  27   5    3.47    0.40
   2  27   6    0.20    0.38
   2  27   7    1.98    0.39
   2  27   8    4.05    0.41
   2  27   9   48.69    0.72
   2  27  10   29.67    0.61
   2  27  11   51.70    0.74
   2  27  12   88.83    0.99
   2  27  13   51.88    0.73
   2  27  14   40.92    0.68
   2  27  15   13.55    0.49
   2  27  16    1.67    0.44
   2  27  17    0.00    0.43
   2  27  18    1.87    0.45
   2  27  19    0.66    0.42
   2  27  20    0.02    0.42
   2  27  21    1.91    0.44
   2  27  22   13.64    0.55
   2  27  23   28.55    1.34
   2  27  24   37.51    2.83
   2  28   2   44.52    0.93
   2  28   3    0.02    0.39
   2  28   4   19.55    0.49
   2  28   5   20.36    0.52
   2  28   6   20.82    0.51
   2  28   7   12.73    0.45
   2  28   8    0.42    0.39
   2  28   9    0.15    0.38
   2  28  10    4.88    0.42
   2  28  11   19.23    0.53
   2  28  12   14.30    0.49
   2  28  13   20.46    0.50
   2  28  14    4.65    0.44
   2  28  15    0.11    0.41
   2  28  16    5.68    0.45
   2  28  17   15.40    0.58
   2  28  18   14.40    0.55
   2  28  19   16.78    0.56
   2  28  20    8.05    0.49
   2  28  21    0.26    0.47
   2  28  22    4.35    0.71
   2  29   2    0.02    0.52
   2  29   3   17.84    0.47
   2  29   4   39.65    0.62
   2  29   5   57.35    0.75
   2  29   6   65.31    0.78
   2  29   7   23.21    0.54
   2  29   8    9.83    0.44
   2  29   9    1.65    0.39
   2  29  10    1.11    0.37
   2  29  11    1.06    0.38
   2  29  12    3.68    0.40
   2  29  13    0.14    0.39
   2  29  14    1.07    0.41
   2  29  15    9.65    0.48
   2  29  16   25.42    0.61
   2  29  17   30.74    0.68
   2  29  18   48.56    0.74
   2  29  19   33.61    0.68
   2  29  20   16.05    0.68
   2  29  21    2.80    0.93
   2  30   2   15.82    0.65
   2  30   3   20.22    0.51
   2  30   4   60.44    0.70
   2  30   5   79.92    0.87
   2  30   6   74.20    0.79
   2  30   7   45.19    0.64
   2  30   8   28.40    0.55
   2  30   9    1.34    0.38
   2  30  10    0.03    0.37
   2  30  11    0.58    0.37
   2  30  12    0.05    0.37
   2  30  13    0.30    0.40
   2  30  14    5.81    0.47
   2  30  15   12.70    0.54
   2  30  16   26.82    0.64
   2  30  17   48.88    0.79
   2  30  18   48.76    0.78
   2  30  19   36.52    1.26
   2  30  20   19.34    2.51
   2  31   2    0.99    0.53
   2  31   3   14.18    0.48
   2  31   4   29.55    0.56
   2  31   5   48.64    0.66
   2  31   6   57.48    0.71
   2  31   7   48.26    0.70
   2  31   8   18.65    0.49
   2  31   9    4.80    0.41
   2  31  10    0.02    0.36
   2  31  11    0.03    0.35
   2  31  12    0.02    0.36
   2  31  13    0.49    0.38
   2  31  14    2.72    0.41
   2  31  15    7.96    0.47
   2  31  16   21.48    0.59
   2  31  17   30.08    0.78
   2  31  18   31.66    1.71
   2  32   2    0.19    0.55
   2  32   3    6.01    0.41
   2  32   4   25.98    0.54
   2  32   5   33.14    0.57
   2  32   6   36.03    0.58
   2  32   7   21.85    0.51
   2  32   8   12.83    0.44
   2  32   9    0.86    0.35
   2  32  10    0.04    0.34
   2  32  11    1.29    0.36
   2  32  12    5.01    0.39
   2  32  13    0.60    0.39
   2  32  14    0.02    0.40
   2  32  15    1.06    0.48
   2  32  16    2.88    0.78
   2  33   2    4.67    0.56
   2  33   3    0.16    0.37
   2  33   4    2.24    0.37
   2  33   5    9.27    0.42
   2  33   6    8.84    0.41
   2  33   7    4.48    0.39
   2  33   8    3.21    0.34
   2  33   9    0.67    0.33
   2  33  10    2.87    0.36
   2  33  11   13.82    0.47
   2  33  12   14.93    0.50
   2  33  13   17.62    0.67
   2  33  14    5.59    0.90
   2  34   2   38.15    0.76
   2  34   3   16.14    0.44
   2  34   4    5.80    0.37
   2  34   5    0.04    0.34
   2  34   6    0.00    0.34
   2  34   7    0.23    0.33
   2  34   8    3.17    0.36
   2  34   9    6.02    0.41
   2  34  10   20.87    0.67
   2  34  11   24.31    1.01
   2  34  12   43.07    2.06
   2  35   2   68.98    1.35
   2  35   3   38.11    0.60
   2  35   4   13.66    0.42
   2  35   5    5.53    0.41
   2  35   6    1.01    0.41
   2  35   7    4.80    0.56
   2  35   8    5.80    0.75
   2  35   9   29.71    2.34
   2  36   2   66.94    1.89
   2  36   3   34.79    1.41
   3   3   3 8287.58   67.96
   3   4   3  671.49    4.82
   3   4   4    0.17    1.03
   3   5   3  283.48    3.12
   3   5   4  347.01    1.44
   3   5   5  708.12    4.38
   3   6   3   22.43    0.21
   3   6   4  528.28    1.24
   3   6   5  847.94    3.81
   3   6   6  907.06    7.10
   3   7   3    3.34    0.27
   3   7   4   75.69    0.19
   3   7   5  597.93    1.88
   3   7   6  662.27    3.16
   3   7   7  858.80    6.09
   3   8   3   12.72    0.23
   3   8   4   10.04    0.14
   3   8   5  139.59    0.51
   3   8   6  801.67    2.84
   3   8   7  439.66    2.00
   3   8   8  173.56    1.36
   3   9   3    8.50    0.18
   3   9   4   48.71    0.37
   3   9   5  101.08    0.33
   3   9   6  247.46    1.01
   3   9   7  114.75    0.60
   3   9   8  210.19    0.80
   3   9   9   38.01    0.53
   3  10   3   18.93    0.24
   3  10   4    0.30    0.12
   3  10   5   38.79    0.27
   3  10   6   24.06    0.24
   3  10   7  104.71    0.62
   3  10   8    2.45    0.17
   3  10   9  105.89    0.70
   3  10  10  580.02    3.49
   3  11   3  164.44    0.77
   3  11   4   71.29    0.34
   3  11   5    0.25    0.14
   3  11   6   11.86    0.24
   3  11   7   28.22    0.29
   3  11   8  101.54    0.64
   3  11   9  843.05    3.53
   3  11  10  839.40    3.38
   3  11  11  640.28    3.80
   3  12   3  313.51    1.69
   3  12   4  126.74    0.52
   3  12   5   24.47    0.29
   3  12   6   12.89    0.22
   3  12   7   28.59    0.35
   3  12   8  658.13    2.82
   3  12   9  558.22    2.56
   3  12  10  652.62    2.80
   3  12  11  742.89    3.22
   3  12  12  601.41    3.93
   3  13   3    4.23    0.24
   3  13   4   35.69    0.30
   3  13   5    4.68    0.20
   3  13   6    9.97    0.31
   3  13   7  126.83    0.73
   3  13   8  164.88    0.97
   3  13   9  242.10    1.53
   3  13  10  399.58    2.07
   3  13  11  500.35    2.43
   3  13  12  521.69    2.68
   3  13  13  441.14    3.41
   3  14   3    2.44    0.26
   3  14   4   17.24    0.26
   3  14   5   39.31    0.42
   3  14   6    2.98    0.20
   3  14   7    0.25    0.23
   3  14   8    8.35    0.26
   3  14   9   62.78    0.67
   3  14  10  220.06    1.35
   3  14  11  258.81    1.53
   3  14  12  292.43    1.67
   3  14  13  261.12    1.51
   3  14  14  140.82    1.38
   3  15   3  131.54    1.17
   3  15   4  291.61    1.42
   3  15   5  110.29    0.79
   3  15   6  107.81    0.72
   3  15   7   85.56    0.71
   3  15   8   21.69    0.42
   3  15   9   21.86    0.43
   3  15  10   36.27    0.49
   3  15  11  102.91    0.83
   3  15  12  136.55    0.95
   3  15  13   73.53    0.63
   3  15  14   43.00    0.44
   3  15  15   19.39    0.47
   3  16   3  101.45    0.97
   3  16   4  282.97    1.31
   3  16   5  449.46    2.13
   3  16   6  376.86    1.99
   3  16   7  180.60    1.17
   3  16   8   57.99    0.57
   3  16   9   24.65    0.44
   3  16  10    3.28    0.31
   3  16  11   18.28    0.41
   3  16  12   13.84    0.34
   3  16  13   12.39    0.26
   3  16  14    5.60    0.24
   3  16  15    0.04    0.22
   3  16  16    0.79    0.33
   3  17   3  111.73    1.01
   3  17   4  321.72    1.58
   3  17   5  567.13    2.74
   3  17   6  573.36    2.72
   3  17   7  285.16    1.62
   3  17   8  170.13    1.13
   3  17   9   59.73    0.67
   3  17  10    6.73    0.28
   3  17  11    0.08    0.22
   3  17  12    0.28    0.21
   3  17  13    0.24    0.22
   3  17  14    1.62    0.26
   3  17  15    4.99    0.30
   3  17  16   43.08    0.56
   3  17  17   60.49    1.07
   3  18   3  157.81    1.31
   3  18   4  350.48    1.71
   3  18   5  411.13    2.13
   3  18   6  505.57    2.54
   3  18   7  499.87    2.40
   3  18   8  243.31    1.29
   3  18   9   44.89    0.59
   3  18  10   22.79    0.35
   3  18  11    2.05    0.24
   3  18  12    0.43    0.23
   3  18  13    0.58    0.26
   3  18  14   11.13    0.35
   3  18  15   51.63    0.63
   3  18  16  101.68    0.83
   3  18  17   99.79    0.92
   3  18  18  178.76    2.35
   3  19   3  141.79    1.23
   3  19   4  199.79    1.17
   3  19   5  334.47    1.57
   3  19   6  349.13    1.64
   3  19   7  379.67    1.67
   3  19   8  195.10    0.97
   3  19   9   50.51    0.59
   3  19  10    2.82    0.24
   3  19  11    0.04    0.25
   3  19  12    0.18    0.27
   3  19  13    4.13    0.29
   3  19  14    4.40    0.32
   3  19  15   67.36    0.78
   3  19  16   96.32    0.81
   3  19  17  222.27    1.35
   3  19  18  160.70    1.13
   3  19  19   68.55    1.06
   3  20   3   56.29    0.73
   3  20   4  102.69    0.68
   3  20   5  216.22    1.00
   3  20   6  257.52    1.20
   3  20   7  164.92    0.87
   3  20   8   94.75    0.66
   3  20   9   13.09    0.34
   3  20  10    0.05    0.27
   3  20  11    2.95    0.28
   3  20  12    3.09    0.30
   3  20  13    2.20    0.30
   3  20  14    7.81    0.36
   3  20  15   10.57    0.40
   3  20  16  135.97    1.04
   3  20  17  130.02    1.02
   3  20  18   81.77    0.86
   3  20  19  104.94    0.99
   3  20  20   52.70    1.17
   3  21   3    0.01    0.36
   3  21   4   28.41    0.41
   3  21   5   68.17    0.52
   3  21   6   88.43    0.65
   3  21   7   53.13    0.51
   3  21   8    1.41    0.27
   3  21   9    0.05    0.26
   3  21  10    3.69    0.27
   3  21  11    0.17    0.29
   3  21  12   45.14    0.58
   3  21  13    2.63    0.33
   3  21  14    7.77    0.39
   3  21  15   13.82    0.46
   3  21  16   18.78    0.49
   3  21  17   51.24    0.67
   3  21  18   83.69    0.86
   3  21  19   67.22    0.91
   3  21  20   18.68    0.58
   3  21  21    0.58    0.59
   3  22   3   17.07    0.52
   3  22   4    0.02    0.28
   3  22   5   14.88    0.33
   3  22   6    0.92    0.28
   3  22   7    0.12    0.27
   3  22   8    2.32    0.27
   3  22   9    3.53    0.30
   3  22  10    2.77    0.28
   3  22  11   91.85    0.78
   3  22  12   41.54    0.55
   3  22  13   96.70    0.87
   3  22  14    8.72    0.44
   3  22  15   10.97    0.43
   3  22  16    0.23    0.37
   3  22  17   15.68    0.44
   3  22  18   32.88    0.58
   3  22  19   19.15    0.55
   3  22  20    0.07    0.41
   3  22  21   13.32    0.51
   3  22  22   51.08    1.08
   3  23   3   66.84    1.05
   3  23   4   18.65    0.44
   3  23   5    6.11    0.36
   3  23   6    4.97    0.34
   3  23   7    7.01    0.36
   3  23   8    0.39    0.31
   3  23   9    0.27    0.30
   3  23  10   75.49    0.70
   3  23  11   80.88    0.85
   3  23  12  208.28    1.33
   3  23  13   98.75    0.92
   3  23  14  107.64    1.00
   3  23  15   29.27    0.55
   3  23  16   12.40    0.43
   3  23  17    0.40    0.43
   3  23  18    1.92    0.43
   3  23  19    0.05    0.41
   3  23  20    7.14    0.47
   3  23  21   30.76    0.65
   3  23  22   68.45    0.90
   3  23  23   78.56    1.64
   3  24   3   96.40    1.26
   3  24   4   69.84    0.80
   3  24   5   49.39    0.60
   3  24   6   16.91    0.45
   3  24   7    0.25    0.33
   3  24   8    0.30    0.33
   3  24   9   34.26    0.55
   3  24  10   88.90    0.81
   3  24  11  203.92    1.36
   3  24  12  212.12    1.33
   3  24  13  221.50    1.37
   3  24  14  112.50    0.97
   3  24  15   77.50    0.86
   3  24  16   11.11    0.47
   3  24  17    2.07    0.43
   3  24  18    0.25    0.43
   3  24  19    2.60    0.44
   3  24  20   11.41    0.53
   3  24  21   30.34    0.66
   3  24  22   57.62    0.83
   3  24  23   91.96    1.34
   3  24  24   98.72    2.16
   3  25   3  232.65    1.93
   3  25   4  135.79    1.05
   3  25   5   69.26    0.68
   3  25   6    4.74    0.38
   3  25   7    0.07    0.36
   3  25   8   13.06    0.44
   3  25   9   45.49    0.62
   3  25  10  120.04    0.99
   3  25  11  192.72    1.32
   3  25  12  190.43    1.28
   3  25  13  163.21    1.28
   3  25  14  148.93    1.52
   3  25  15   36.84    0.64
   3  25  16   19.54    0.53
   3  25  17    1.56    0.42
   3  25  18    1.05    0.43
   3  25  19    0.68    0.41
   3  25  20    3.28    0.47
   3  25  21   18.13    0.57
   3  25  22   45.18    0.73
   3  25  23   63.42    0.85
   3  25  24   77.51    1.19
   3  25  25   67.36    1.98
   3  26   3   95.90    1.61
   3  26   4   43.49    0.64
   3  26   5    1.09    0.38
   3  26   6    6.02    0.42
   3  26   7    0.19    0.37
   3  26   8    3.32    0.41
   3  26   9   18.43    0.51
   3  26  10   77.44    0.95
   3  26  11   78.32    0.85
   3  26  12   96.49    1.16
   3  26  13  109.91    1.18
   3  26  14   46.83    0.75
   3  26  15   24.06    0.57
   3  26  16    3.49    0.40
   3  26  17    0.29    0.42
   3  26  18    0.31    0.41
   3  26  19    0.76    0.43
   3  26  20    0.19    0.43
   3  26  21    6.55    0.46
   3  26  22   19.49    0.58
   3  26  23   34.81    0.81
   3  26  24   46.48    1.22
   3  26  25   45.74    2.94
   3  27   3   12.21    0.67
   3  27   4    5.32    0.40
   3  27   5   24.22    0.54
   3  27   6   11.42    0.45
   3  27   7    5.25    0.42
   3  27   8    2.60    0.40
   3  27   9    6.81    0.44
   3  27  10    5.84    0.43
   3  27  11   21.51    0.52
   3  27  12   39.67    0.68
   3  27  13   18.77    0.54
   3  27  14   15.06    0.48
   3  27  15    0.82    0.40
   3  27  16    1.75    0.43
   3  27  17   10.56    0.50
   3  27  18   16.44    0.55
   3  27  19    8.74    0.51
   3  27  20    5.14    0.45
   3  27  21    0.16    0.42
   3  27  22    6.24    0.51
   3  27  23   18.49    0.86
   3  27  24   24.48    2.75
   3  28   3   25.53    0.72
   3  28   4   65.91    0.77
   3  28   5   72.80    0.77
   3  28   6   57.19    0.74
   3  28   7   35.23    0.60
   3  28   8    6.12    0.43
   3  28   9    5.91    0.42
   3  28  10    0.24    0.38
   3  28  11    3.63    0.41
   3  28  12    1.66    0.40
   3  28  13    2.19    0.41
   3  28  14    0.22    0.42
   3  28  15   10.30    0.48
   3  28  16   23.97    0.60
   3  28  17   42.28    0.73
   3  28  18   38.90    0.72
   3  28  19   38.55    0.70
   3  28  20   21.21    0.59
   3  28  21    4.33    0.54
   3  28  22    0.01    0.80
   3  29   3   52.20    0.96
   3  29   4   76.30    0.82
   3  29   5  115.63    0.99
   3  29   6  103.94    1.01
   3  29   7   59.86    0.74
   3  29   8   35.73    0.61
   3  29   9   16.39    0.48
   3  29  10    2.76    0.40
   3  29  11    0.73    0.38
   3  29  12    0.05    0.39
   3  29  13    3.36    0.42
   3  29  14   10.31    0.48
   3  29  15   32.45    0.65
   3  29  16   54.40    0.78
   3  29  17   63.03    0.93
   3  29  18   82.08    1.27
   3  29  19   61.88    0.97
   3  29  20   31.04    0.99
   3  29  21   10.87    1.18
   3  30   3   32.78    0.82
   3  30   4   76.91    0.82
   3  30   5  118.53    0.99
   3  30   6  106.77    0.98
   3  30   7   92.25    0.91
   3  30   8   64.70    0.76
   3  30   9   20.04    0.53
   3  30  10    8.78    0.44
   3  30  11    4.99    0.40
   3  30  12    6.84    0.45
   3  30  13    8.96    0.46
   3  30  14   23.26    0.61
   3  30  15   36.37    0.69
   3  30  16   55.50    0.78
   3  30  17   85.04    1.16
   3  30  18   81.13    1.26
   3  30  19   66.61    1.63
   3  30  20   35.31    2.90
   3  31   3   67.68    1.15
   3  31   4   80.33    0.92
   3  31   5  109.63    1.15
   3  31   6  104.69    1.11
   3  31   7   98.61    1.19
   3  31   8   45.88    0.70
   3  31   9   23.18    0.52
   3  31  10    6.06    0.41
   3  31  11    4.46    0.39
   3  31  12    4.69    0.40
   3  31  13    7.12    0.45
   3  31  14   12.45    0.51
   3  31  15   25.17    0.59
   3  31  16   42.81    0.74
   3  31  17   53.22    1.15
   3  31  18   53.44    4.53
   3  32   3   19.61    0.68
   3  32   4   43.81    0.62
   3  32   5   51.95    0.73
   3  32   6   56.04    0.70
   3  32   7   48.24    0.64
   3  32   8   26.58    0.54
   3  32   9   11.85    0.42
   3  32  10    3.61    0.37
   3  32  11    0.41    0.36
   3  32  12    0.06    0.35
   3  32  13    0.47    0.39
   3  32  14    2.51    0.43
   3  32  15    8.72    0.58
   3  32  16   14.68    1.59
   3  33   3    2.73    0.53
   3  33   4   11.94    0.44
   3  33   5   21.10    0.50
   3  33   6   23.74    0.51
   3  33   7   17.21    0.47
   3  33   8   10.87    0.42
   3  33   9    2.30    0.35
   3  33  10    0.03    0.33
   3  33  11    3.65    0.39
   3  33  12    3.20    0.46
   3  33  13    6.24    0.60
   3  33  14    0.76    0.96
   3  34   3    4.48    0.52
   3  34   4    0.00    0.34
   3  34   5    2.38    0.36
   3  34   6    3.73    0.36
   3  34   7    4.14    0.36
   3  34   8    0.08    0.35
   3  34   9    0.41    0.38
   3  34  10   11.44    0.56
   3  34  11   13.95    0.84
   3  34  12   22.97    2.31
   3  35   3   22.42    0.74
   3  35   4    3.49    0.38
   3  35   5    1.23    0.38
   3  35   6    0.29    0.44
   3  35   7    0.47    0.53
   3  35   8    0.76    0.71
   3  36   3   20.03    1.93
   4   4   4  115.83    0.62
   4   5   4  191.54    1.41
   4   5   5  266.31    1.34
   4   6   4  873.55    4.34
   4   6   5  756.28    1.97
   4   6   6  965.15    5.55
   4   7   4  173.92    1.37
   4   7   5  705.63    1.91
   4   7   6  775.92    3.17
   4   7   7 1288.95    6.40
   4   8   4   30.95    0.32
   4   8   5  239.19    0.84
   4   8   6  739.74    2.20
   4   8   7  712.55    2.23
   4   8   8  486.77    2.70
   4   9   4  195.09    1.48
   4   9   5  262.08    0.70
   4   9   6  392.98    1.42
   4   9   7  380.79    1.20
   4   9   8  555.52    1.93
   4   9   9  276.15    1.37
   4  10   4   45.56    0.23
   4  10   5  136.65    0.49
   4  10   6   87.08    0.40
   4  10   7  257.12    1.07
   4  10   8   34.33    0.40
   4  10   9   10.30    0.21
   4  10  10  255.45    1.41
   4  11   4    4.90    0.40
   4  11   5   22.73    0.19
   4  11   6   77.87    0.40
   4  11   7    0.08    0.16
   4  11   8    7.84    0.22
   4  11   9  325.81    1.48
   4  11  10  435.83    1.74
   4  11  11  327.71    2.04
   4  12   4    9.89    0.29
   4  12   5    2.45    0.18
   4  12   6   15.65    0.20
   4  12   7    0.44    0.19
   4  12   8  187.43    1.18
   4  12   9  174.76    1.20
   4  12  10  296.59    1.64
   4  12  11  402.12    1.98
   4  12  12  353.97    2.56
   4  13   4   39.46    0.82
   4  13   5    3.04    0.19
   4  13   6    6.01    0.25
   4  13   7   61.66    0.67
   4  13   8   51.30    0.56
   4  13   9  105.50    0.90
   4  13  10  173.52    1.22
   4  13  11  274.23    1.64
   4  13  12  289.00    1.68
   4  13  13  252.07    2.20
   4  14   4   29.91    0.74
   4  14   5   65.30    0.57
   4  14   6    3.57    0.28
   4  14   7    9.73    0.35
   4  14   8    4.83    0.26
   4  14   9    4.97    0.30
   4  14  10   71.97    0.82
   4  14  11  104.05    0.91
   4  14  12  162.96    1.09
   4  14  13  143.62    1.01
   4  14  14   45.35    0.77
   4  15   4  441.38    3.12
   4  15   5  295.92    1.56
   4  15   6  221.46    1.37
   4  15   7  224.73    1.24
   4  15   8  112.02    0.80
   4  15   9    5.89    0.26
   4  15  10    2.08    0.26
   4  15  11   22.37    0.46
   4  15  12   47.60    0.57
   4  15  13    7.32    0.30
   4  15  14    3.97    0.22
   4  15  15    0.07    0.30
   4  16   4  469.38    3.21
   4  16   5  730.62    3.34
   4  16   6  568.39    3.07
   4  16   7  417.67    2.11
   4  16   8  212.91    1.22
   4  16   9  155.36    1.03
   4  16  10   29.85    0.40
   4  16  11    2.14    0.25
   4  16  12    3.00    0.26
   4  16  13    3.31    0.24
   4  16  14    9.08    0.28
   4  16  15   25.07    0.43
   4  16  16   32.35    0.81
   4  17   4  589.43    4.06
   4  17   5  885.76    4.03
   4  17   6  879.75    4.14
   4  17   7  610.13    2.92
   4  17   8  409.53    2.21
   4  17   9  240.29    1.41
   4  17  10   72.50    0.65
   4  17  11   41.05    0.42
   4  17  12   18.62    0.33
   4  17  13   15.39    0.32
   4  17  14   43.54    0.51
   4  17  15   56.84    0.64
   4  17  16  160.01    1.14
   4  17  17  186.30    1.85
   4  18   4  597.08    3.64
   4  18   5  657.59    2.91
   4  18   6  741.43    3.36
   4  18   7  743.99    3.20
   4  18   8  435.82    2.06
   4  18   9  176.47    1.06
   4  18  10  104.29    0.72
   4  18  11   46.61    0.46
   4  18  12   15.85    0.30
   4  18  13   26.78    0.41
   4  18  14   64.96    0.64
   4  18  15  151.10    1.15
   4  18  16  207.85    1.30
   4  18  17  233.86    1.41
   4  18  18  364.58    2.99
   4  19   4  331.74    2.11
   4  19   5  449.46    1.96
   4  19   6  534.95    2.12
   4  19   7  523.16    2.15
   4  19   8  335.95    1.51
   4  19   9  168.93    0.91
   4  19  10   36.42    0.52
   4  19  11   18.90    0.38
   4  19  12   16.08    0.37
   4  19  13   27.93    0.47
   4  19  14   48.51    0.75
   4  19  15  156.06    1.05
   4  19  16  202.86    1.29
   4  19  17  384.78    2.03
   4  19  18  281.91    1.61
   4  19  19  152.94    1.76
   4  20   4  182.72    1.13
   4  20   5  267.75    1.12
   4  20   6  372.25    1.36
   4  20   7  235.77    1.12
   4  20   8  182.76    0.93
   4  20   9   57.75    0.59
   4  20  10   12.19    0.39
   4  20  11    3.85    0.31
   4  20  12   12.27    0.37
   4  20  13    3.19    0.32
   4  20  14   30.62    0.50
   4  20  15   60.86    0.62
   4  20  16  253.30    1.46
   4  20  17  230.97    1.42
   4  20  18  175.62    1.22
   4  20  19  191.95    1.40
   4  20  20  110.78    1.52
   4  21   4   95.00    0.93
   4  21   5  121.58    0.74
   4  21   6  168.64    0.89
   4  21   7   89.03    0.74
   4  21   8   24.69    0.44
   4  21   9   11.53    0.37
   4  21  10    2.68    0.31
   4  21  11    3.14    0.33
   4  21  12    9.94    0.38
   4  21  13    0.20    0.31
   4  21  14    0.05    0.33
   4  21  15   49.77    0.59
   4  21  16   53.66    0.67
   4  21  17  100.22    1.09
   4  21  18  156.63    1.27
   4  21  19  110.96    1.37
   4  21  20   42.62    0.74
   4  21  21    2.13    0.62
   4  22   4   16.37    0.51
   4  22   5   42.32    0.50
   4  22   6   23.65    0.40
   4  22   7   12.53    0.35
   4  22   8    7.01    0.32
   4  22   9    2.54    0.30
   4  22  10    1.32    0.29
   4  22  11   43.32    0.52
   4  22  12   25.92    0.53
   4  22  13   59.93    0.73
   4  22  14    1.98    0.37
   4  22  15    1.81    0.37
   4  22  16    7.80    0.43
   4  22  17   41.82    0.65
   4  22  18   65.90    0.84
   4  22  19   40.28    0.70
   4  22  20    5.99    0.46
   4  22  21    3.78    0.44
   4  22  22   27.49    0.89
   4  23   4    5.45    0.48
   4  23   5    1.40    0.31
   4  23   6    0.52    0.31
   4  23   7    0.30    0.31
   4  23   8    3.66    0.34
   4  23   9    0.05    0.30
   4  23  10   35.40    0.53
   4  23  11   72.92    0.76
   4  23  12  182.68    1.19
   4  23  13   74.27    0.78
   4  23  14   78.07    0.83
   4  23  15   14.04    0.49
   4  23  16    0.00    0.37
   4  23  17    9.36    0.46
   4  23  18   16.07    0.54
   4  23  19    6.53    0.47
   4  23  20    0.14    0.43
   4  23  21   12.47    0.54
   4  23  22   43.27    0.76
   4  23  23   59.95    1.15
   4  24   4   63.47    0.98
   4  24   5   41.18    0.55
   4  24   6   10.69    0.40
   4  24   7    2.01    0.34
   4  24   8    0.51    0.34
   4  24   9   17.93    0.44
   4  24  10   52.92    0.68
   4  24  11  163.11    1.16
   4  24  12  160.84    1.18
   4  24  13  162.35    1.18
   4  24  14   74.55    0.77
   4  24  15   39.71    0.58
   4  24  16    0.22    0.40
   4  24  17    0.57    0.41
   4  24  18    3.97    0.44
   4  24  19    0.55    0.42
   4  24  20    1.30    0.43
   4  24  21   12.53    0.54
   4  24  22   33.65    0.67
   4  24  23   63.62    0.85
   4  24  24   64.04    1.42
   4  25   4   82.44    1.30
   4  25   5   28.03    0.52
   4  25   6    0.02    0.36
   4  25   7    8.45    0.42
   4  25   8    0.27    0.35
   4  25   9   13.20    0.45
   4  25  10   63.49    0.74
   4  25  11  117.05    1.35
   4  25  12  130.98    1.08
   4  25  13  106.09    1.00
   4  25  14   76.64    1.01
   4  25  15   13.03    0.49
   4  25  16    1.65    0.38
   4  25  17    0.72    0.42
   4  25  18    1.46    0.44
   4  25  19    1.71    0.43
   4  25  20    0.06    0.43
   4  25  21    7.89    0.49
   4  25  22   22.19    0.61
   4  25  23   40.10    0.69
   4  25  24   47.91    0.84
   4  25  25   38.02    1.65
   4  26   4   17.28    0.66
   4  26   5    1.46    0.39
   4  26   6   17.77    0.53
   4  26   7   12.81    0.45
   4  26   8    2.82    0.39
   4  26   9    0.96    0.39
   4  26  10   25.86    0.56
   4  26  11   32.77    0.64
   4  26  12   53.64    0.74
   4  26  13   60.49    0.78
   4  26  14   17.22    0.55
   4  26  15    7.16    0.43
   4  26  16    0.94    0.39
   4  26  17    4.07    0.44
   4  26  18   11.84    0.52
   4  26  19   13.24    0.50
   4  26  20    3.24    0.45
   4  26  21    0.28    0.43
   4  26  22    6.64    0.48
   4  26  23   19.64    0.62
   4  26  24   26.61    1.05
   4  26  25   27.58    4.20
   4  27   4   55.41    0.95
   4  27   5   86.05    0.92
   4  27   6   61.88    0.77
   4  27   7   46.61    0.63
   4  27   8   27.66    0.53
   4  27   9    2.70    0.39
   4  27  10    0.04    0.38
   4  27  11    3.60    0.42
   4  27  12   13.91    0.51
   4  27  13    6.00    0.45
   4  27  14    0.91    0.39
   4  27  15    1.50    0.43
   4  27  16   14.36    0.51
   4  27  17   34.03    0.67
   4  27  18   39.90    0.71
   4  27  19   28.33    0.63
   4  27  20   18.05    0.55
   4  27  21    4.77    0.44
   4  27  22    0.69    0.47
   4  27  23    5.42    0.75
   4  28   4  118.07    1.56
   4  28   5  128.56    1.11
   4  28   6  111.48    1.04
   4  28   7   74.75    0.84
   4  28   8   34.57    0.60
   4  28   9   29.50    0.56
   4  28  10    8.04    0.46
   4  28  11    0.59    0.37
   4  28  12    0.66    0.39
   4  28  13    0.35    0.39
   4  28  14   10.60    0.46
   4  28  15   28.05    0.63
   4  28  16   50.75    0.80
   4  28  17   75.79    0.99
   4  28  18   67.69    0.95
   4  28  19   64.66    0.89
   4  28  20   38.55    0.73
   4  28  21   12.43    0.62
   4  28  22    1.95    0.80
   4  29   4  124.16    1.48
   4  29   5  158.90    1.23
   4  29   6  161.58    1.24
   4  29   7  112.17    1.08
   4  29   8   81.91    0.96
   4  29   9   52.92    0.71
   4  29  10   21.83    0.51
   4  29  11   11.61    0.48
   4  29  12    7.06    0.46
   4  29  13   17.76    0.52
   4  29  14   36.10    0.66
   4  29  15   60.30    0.82
   4  29  16   91.07    1.16
   4  29  17  104.98    1.30
   4  29  18  116.98    1.36
   4  29  19   86.87    1.45
   4  29  20   50.11    1.50
   4  29  21   23.31    1.42
   4  30   4  146.32    1.57
   4  30   5  164.45    1.22
   4  30   6  172.39    1.25
   4  30   7  143.83    1.24
   4  30   8  106.57    1.26
   4  30   9   50.66    0.71
   4  30  10   26.28    0.56
   4  30  11   15.63    0.51
   4  30  12   18.67    0.52
   4  30  13   25.29    0.57
   4  30  14   49.34    0.73
   4  30  15   61.39    0.81
   4  30  16   92.18    1.31
   4  30  17  126.00    1.35
   4  30  18  115.01    2.01
   4  30  19   87.66    3.36
   4  31   4  107.09    1.31
   4  31   5  125.11    1.09
   4  31   6  143.11    1.31
   4  31   7  129.56    1.24
   4  31   8   81.41    0.93
   4  31   9   51.50    0.72
   4  31  10   27.23    0.53
   4  31  11   15.20    0.47
   4  31  12   16.12    0.48
   4  31  13   23.33    0.57
   4  31  14   26.53    0.59
   4  31  15   45.45    0.87
   4  31  16   70.40    1.28
   4  31  17   77.99    2.02
   4  31  18   83.92    4.72
   4  32   4   84.57    1.62
   4  32   5   90.95    1.03
   4  32   6  103.84    1.42
   4  32   7   86.55    1.17
   4  32   8   56.75    0.90
   4  32   9   31.95    0.58
   4  32  10   16.12    0.45
   4  32  11    4.68    0.41
   4  32  12    2.26    0.39
   4  32  13    6.38    0.44
   4  32  14    8.65    0.50
   4  32  15   23.27    0.73
   4  32  16   34.45    3.42
   4  33   4   24.59    0.73
   4  33   5   41.00    0.74
   4  33   6   45.74    0.72
   4  33   7   35.29    0.58
   4  33   8   29.33    0.54
   4  33   9   10.56    0.40
   4  33  10    3.35    0.36
   4  33  11    0.00    0.37
   4  33  12    0.05    0.43
   4  33  13    0.27    0.54
   4  33  14    0.08    1.19
   4  34   4    2.38    0.51
   4  34   5   12.74    0.41
   4  34   6   15.02    0.43
   4  34   7   15.93    0.45
   4  34   8    5.33    0.38
   4  34   9    1.44    0.40
   4  34  10    1.36    0.52
   4  34  11    3.33    0.84
   4  35   4    0.11    0.51
   4  35   5    0.87    0.41
   4  35   6    3.61    0.51
   4  35   7    0.93    0.58
   4  35   8    0.36    0.90
   5   5   5  400.70    7.66
   5   6   5  649.00    4.84
   5   6   6  900.73    5.97
   5   7   5 1127.56    5.47
   5   7   6 1098.69    4.03
   5   7   7 1707.20    8.74
   5   8   5  610.39    2.88
   5   8   6 1095.58    3.37
   5   8   7 1235.62    4.12
   5   8   8 1407.73    6.15
   5   9   5  304.40    1.12
   5   9   6  436.65    1.67
   5   9   7  508.80    2.18
   5   9   8  874.26    3.33
   5   9   9  407.85    2.73
   5  10   5  345.12    1.28
   5  10   6  239.85    0.99
   5  10   7  514.35    2.47
   5  10   8  251.23    1.35
   5  10   9   23.35    0.41
   5  10  10    4.68    0.33
   5  11   5  241.97    0.78
   5  11   6  280.78    1.18
   5  11   7  114.74    0.78
   5  11   8   48.75    0.68
   5  11   9   45.76    0.32
   5  11  10   88.50    0.55
   5  11  11   87.45    1.42
   5  12   5   51.02    0.44
   5  12   6   53.84    0.47
   5  12   7   30.91    0.40
   5  12   8   44.35    0.44
   5  12   9   44.37    0.50
   5  12  10  102.24    0.76
   5  12  11  170.97    1.02
   5  12  12  186.75    1.64
   5  13   5    5.52    0.33
   5  13   6   24.93    0.42
   5  13   7    0.37    0.21
   5  13   8    1.98    0.26
   5  13   9   20.40    0.47
   5  13  10   59.05    0.67
   5  13  11  130.20    1.01
   5  13  12  175.85    1.13
   5  13  13  219.18    1.67
   5  14   5   55.23    0.93
   5  14   6   29.92    0.54
   5  14   7   37.37    0.46
   5  14   8   26.53    0.38
   5  14   9    4.96    0.25
   5  14  10   23.12    0.48
   5  14  11   25.80    0.54
   5  14  12   82.85    0.81
   5  14  13   99.29    0.79
   5  14  14   13.89    0.43
   5  15   5  171.23    2.04
   5  15   6  237.17    1.47
   5  15   7  255.36    1.45
   5  15   8  196.25    1.13
   5  15   9   67.42    0.58
   5  15  10   30.61    0.43
   5  15  11    0.48    0.28
   5  15  12   12.16    0.34
   5  15  13    0.09    0.23
   5  15  14    0.06    0.22
   5  15  15    9.06    0.45
   5  16   5  860.47    6.36
   5  16   6  840.75    4.16
   5  16   7  577.61    3.04
   5  16   8  411.14    2.14
   5  16   9  324.75    1.71
   5  16  10  100.90    0.78
   5  16  11   25.54    0.39
   5  16  12   26.49    0.39
   5  16  13   19.41    0.34
   5  16  14   27.33    0.45
   5  16  15   64.75    0.65
   5  16  16   93.59    1.68
   5  17   5 1105.17    7.03
   5  17   6 1161.86    5.13
   5  17   7  783.30    3.93
   5  17   8  638.59    3.11
   5  17   9  415.90    2.02
   5  17  10  182.22    0.99
   5  17  11  105.69    0.70
   5  17  12   56.97    0.61
   5  17  13   52.83    0.57
   5  17  14   87.21    0.75
   5  17  15  125.02    0.97
   5  17  16  273.67    1.52
   5  17  17  288.87    2.27
   5  18   5  880.95    5.15
   5  18   6  963.71    4.07
   5  18   7  938.04    4.04
   5  18   8  669.22    2.77
   5  18   9  339.26    1.68
   5  18  10  247.07    1.16
   5  18  11   94.48    0.76
   5  18  12   50.05    0.54
   5  18  13   68.93    0.72
   5  18  14  115.21    0.88
   5  18  15  258.45    1.57
   5  18  16  321.40    1.73
   5  18  17  359.94    1.86
   5  18  18  533.81    3.78
   5  19   5  692.52    3.49
   5  19   6  718.09    2.65
   5  19   7  732.83    2.65
   5  19   8  509.10    2.11
   5  19   9  313.57    1.44
   5  19  10  136.09    0.79
   5  19  11   56.54    0.61
   5  19  12   47.15    0.54
   5  19  13   57.32    0.60
   5  19  14   98.27    0.97
   5  19  15  211.28    1.32
   5  19  16  314.83    1.71
   5  19  17  509.66    2.49
   5  19  18  381.67    2.07
   5  19  19  253.27    2.17
   5  20   5  419.74    2.12
   5  20   6  452.07    1.76
   5  20   7  382.07    1.54
   5  20   8  266.52    1.33
   5  20   9  114.91    0.87
   5  20  10   54.97    0.60
   5  20  11   24.20    0.44
   5  20  12   23.20    0.44
   5  20  13   18.81    0.42
   5  20  14   50.69    0.57
   5  20  15  100.44    0.89
   5  20  16  338.46    1.77
   5  20  17  291.32    1.70
   5  20  18  239.23    1.56
   5  20  19  258.59    1.66
   5  20  20  145.92    1.82
   5  21   5  179.23    1.32
   5  21   6  198.30    1.11
   5  21   7  162.49    0.95
   5  21   8   64.34    0.65
   5  21   9   39.09    0.54
   5  21  10   16.12    0.41
   5  21  11    8.67    0.35
   5  21  12    1.47    0.29
   5  21  13    0.25    0.31
   5  21  14    3.04    0.32
   5  21  15   68.41    0.75
   5  21  16   82.87    0.78
   5  21  17  148.18    1.12
   5  21  18  214.76    1.51
   5  21  19  149.58    1.41
   5  21  20   59.29    0.87
   5  21  21    7.69    0.70
   5  22   5   65.14    0.89
   5  22   6   35.56    0.52
   5  22   7   34.74    0.46
   5  22   8   25.43    0.44
   5  22   9   16.01    0.38
   5  22  10    1.47    0.32
   5  22  11   19.69    0.41
   5  22  12   22.67    0.56
   5  22  13   48.02    0.67
   5  22  14    0.20    0.36
   5  22  15    0.03    0.36
   5  22  16   17.09    0.48
   5  22  17   83.03    0.85
   5  22  18  102.51    1.08
   5  22  19   68.74    1.09
   5  22  20   18.51    0.57
   5  22  21    0.14    0.41
   5  22  22   10.52    0.75
   5  23   5    0.28    0.44
   5  23   6    0.11    0.31
   5  23   7    1.05    0.32
   5  23   8   12.44    0.41
   5  23   9    2.43    0.32
   5  23  10   20.69    0.44
   5  23  11   52.46    0.62
   5  23  12  137.13    1.06
   5  23  13   58.16    0.68
   5  23  14   50.12    0.66
   5  23  15    3.86    0.40
   5  23  16    3.41    0.40
   5  23  17   32.32    0.60
   5  23  18   39.63    0.66
   5  23  19   21.09    0.56
   5  23  20    2.23    0.44
   5  23  21    2.60    0.44
   5  23  22   24.25    0.61
   5  23  23   38.06    1.01
   5  24   5   22.71    0.72
   5  24   6    0.50    0.35
   5  24   7    8.34    0.42
   5  24   8   10.86    0.41
   5  24   9    0.35    0.36
   5  24  10   27.01    0.52
   5  24  11  107.50    0.90
   5  24  12  102.46    1.03
   5  24  13  113.44    1.21
   5  24  14   44.89    0.63
   5  24  15   11.27    0.48
   5  24  16    0.76    0.41
   5  24  17   10.85    0.48
   5  24  18   15.45    0.53
   5  24  19    5.87    0.47
   5  24  20    0.35    0.42
   5  24  21    2.84    0.45
   5  24  22   17.18    0.56
   5  24  23   34.32    0.67
   5  24  24   34.22    0.97
   5  25   5    1.79    0.53
   5  25   6   16.58    0.47
   5  25   7   35.02    0.61
   5  25   8   16.91    0.46
   5  25   9    0.34    0.36
   5  25  10   20.92    0.51
   5  25  11   59.89    0.73
   5  25  12   76.67    0.82
   5  25  13   64.22    0.79
   5  25  14   39.55    0.67
   5  25  15    1.50    0.41
   5  25  16    0.21    0.40
   5  25  17   11.43    0.51
   5  25  18   13.19    0.51
   5  25  19   12.62    0.50
   5  25  20    2.60    0.44
   5  25  21    0.87    0.43
   5  25  22    8.71    0.52
   5  25  23   20.14    0.60
   5  25  24   28.02    0.70
   5  25  25   21.23    1.26
   5  26   5   29.76    0.88
   5  26   6   70.82    0.81
   5  26   7   54.41    0.69
   5  26   8   30.96    0.55
   5  26   9    3.36    0.40
   5  26  10    2.83    0.41
   5  26  11   15.11    0.50
   5  26  12   30.25    0.59
   5  26  13   28.71    0.60
   5  26  14    7.25    0.46
   5  26  15    0.04    0.40
   5  26  16    9.07    0.49
   5  26  17   18.67    0.56
   5  26  18   32.73    0.67
   5  26  19   27.52    0.61
   5  26  20    8.71    0.50
   5  26  21    0.75    0.44
   5  26  22    1.66    0.44
   5  26  23    6.26    0.54
   5  26  24   10.62    0.88
   5  27   5  105.56    1.79
   5  27   6   98.99    0.99
   5  27   7   85.14    0.85
   5  27   8   52.67    0.66
   5  27   9   14.33    0.48
   5  27  10    6.37    0.42
   5  27  11    0.04    0.39
   5  27  12    3.39    0.43
   5  27  13    0.61    0.43
   5  27  14    0.02    0.40
   5  27  15    8.69    0.50
   5  27  16   29.01    0.63
   5  27  17   54.47    0.81
   5  27  18   62.76    0.85
   5  27  19   46.27    0.77
   5  27  20   29.91    0.64
   5  27  21   11.74    0.53
   5  27  22    0.17    0.53
   5  27  23    0.25    0.73
   5  28   5  161.09    1.78
   5  28   6  160.39    1.28
   5  28   7  128.51    1.11
   5  28   8   77.45    0.85
   5  28   9   50.18    0.74
   5  28  10   25.46    0.58
   5  28  11    7.79    0.45
   5  28  12    5.00    0.43
   5  28  13    5.05    0.45
   5  28  14   15.93    0.52
   5  28  15   44.98    0.71
   5  28  16   72.82    0.95
   5  28  17   95.56    1.14
   5  28  18   97.91    1.20
   5  28  19   85.04    1.42
   5  28  20   51.82    1.06
   5  28  21   19.83    0.72
   5  28  22    5.92    0.99
   5  29   5  199.44    2.00
   5  29   6  196.49    1.42
   5  29   7  161.97    1.24
   5  29   8  120.57    1.06
   5  29   9   70.90    0.85
   5  29  10   37.38    0.64
   5  29  11   24.26    0.57
   5  29  12   16.81    0.52
   5  29  13   28.78    0.60
   5  29  14   42.72    0.70
   5  29  15   77.53    0.97
   5  29  16  110.66    1.31
   5  29  17  126.17    1.38
   5  29  18  141.63    1.47
   5  29  19  101.68    1.72
   5  29  20   61.88    1.84
   5  29  21   32.82    2.26
   5  30   5  195.10    1.90
   5  30   6  197.62    1.36
   5  30   7  181.74    1.36
   5  30   8  143.66    1.66
   5  30   9   76.57    0.94
   5  30  10   39.76    0.66
   5  30  11   30.68    0.61
   5  30  12   31.82    0.63
   5  30  13   37.55    0.65
   5  30  14   61.08    0.77
   5  30  15   79.04    1.14
   5  30  16  112.89    1.30
   5  30  17  148.19    1.96
   5  30  18  130.65    1.80
   5  30  19   99.22    4.90
   5  31   5  172.13    1.84
   5  31   6  181.17    1.30
   5  31   7  166.61    1.42
   5  31   8  119.39    1.44
   5  31   9   75.77    1.05
   5  31  10   40.60    0.64
   5  31  11   25.30    0.55
   5  31  12   26.66    0.55
   5  31  13   34.98    0.59
   5  31  14   42.57    0.67
   5  31  15   64.46    0.98
   5  31  16   89.22    1.66
   5  31  17  101.25    2.38
   5  31  18   97.27    7.60
   5  32   5  119.49    1.73
   5  32   6  128.74    1.46
   5  32   7  117.19    1.33
   5  32   8   83.37    1.06
   5  32   9   59.07    0.69
   5  32  10   32.18    0.55
   5  32  11   15.75    0.46
   5  32  12   10.72    0.47
   5  32  13   13.41    0.49
   5  32  14   21.00    0.65
   5  32  15   32.23    1.02
   5  32  16   44.89    5.00
   5  33   5   69.38    1.68
   5  33   6   77.08    1.21
   5  33   7   67.06    0.99
   5  33   8   50.82    0.85
   5  33   9   26.64    0.51
   5  33  10   11.21    0.43
   5  33  11    1.63    0.41
   5  33  12    0.37    0.40
   5  33  13    0.04    0.64
   5  33  14    2.68    3.40
   5  34   5   24.26    0.74
   5  34   6   32.04    0.55
   5  34   7   32.03    0.62
   5  34   8   14.32    0.48
   5  34   9    7.11    0.50
   5  34  10    0.22    0.48
   5  34  11    0.22    1.00
   5  35   5    3.20    0.67
   5  35   6   10.88    0.58
   5  35   7    6.65    0.70
   5  35   8    3.92    1.60
   6   6   6 1714.69   20.36
   6   7   6 1667.63    9.72
   6   7   7 2104.10   12.05
   6   8   6 1680.14    8.00
   6   8   7 1581.34    6.06
   6   8   8 1587.44    8.88
   6   9   6 1093.59    5.68
   6   9   7 1196.61    4.86
   6   9   8 1243.26    5.38
   6   9   9  954.28    5.87
   6  10   6  533.68    3.10
   6  10   7  870.54    4.13
   6  10   8  468.27    2.54
   6  10   9  188.55    1.26
   6  10  10   49.20    0.88
   6  11   6  506.29    3.22
   6  11   7  286.95    1.63
   6  11   8  143.14    0.93
   6  11   9    3.04    0.27
   6  11  10    5.09    0.22
   6  11  11   21.63    0.50
   6  12   6  129.57    1.23
   6  12   7   88.84    0.77
   6  12   8    0.35    0.23
   6  12   9    2.14    0.23
   6  12  10   28.50    0.43
   6  12  11   99.10    0.70
   6  12  12  145.49    1.40
   6  13   6   36.59    1.19
   6  13   7   12.10    0.34
   6  13   8    2.88    0.25
   6  13   9    6.60    0.31
   6  13  10   17.90    0.45
   6  13  11   95.80    0.82
   6  13  12  134.40    1.02
   6  13  13  176.35    1.69
   6  14   6   30.81    0.70
   6  14   7   59.88    0.58
   6  14   8   54.68    0.57
   6  14   9   17.38    0.34
   6  14  10    1.48    0.28
   6  14  11   21.87    0.38
   6  14  12   82.61    0.75
   6  14  13   91.76    0.77
   6  14  14   15.14    0.40
   6  15   6  229.25    2.17
   6  15   7  296.61    1.61
   6  15   8  235.49    1.36
   6  15   9  106.60    0.79
   6  15  10   69.36    0.71
   6  15  11    0.04    0.24
   6  15  12    6.65    0.28
   6  15  13    0.21    0.21
   6  15  14    0.16    0.23
   6  15  15   13.52    0.71
   6  16   6  753.12    5.64
   6  16   7  656.33    3.22
   6  16   8  481.71    2.48
   6  16   9  370.21    1.89
   6  16  10  151.76    0.94
   6  16  11   43.85    0.54
   6  16  12   32.26    0.42
   6  16  13   15.79    0.36
   6  16  14   37.60    0.52
   6  16  15   67.59    0.69
   6  16  16  120.65    1.54
   6  17   6 1163.35    8.02
   6  17   7  953.36    4.62
   6  17   8  761.48    3.59
   6  17   9  484.93    2.35
   6  17  10  238.93    1.14
   6  17  11  162.77    0.84
   6  17  12   70.32    0.68
   6  17  13   55.88    0.72
   6  17  14  107.28    0.83
   6  17  15  140.42    1.19
   6  17  16  304.17    1.73
   6  17  17  335.80    2.49
   6  18   6 1066.97    6.20
   6  18   7 1071.49    4.38
   6  18   8  822.28    3.07
   6  18   9  456.16    1.90
   6  18  10  293.09    1.35
   6  18  11  148.18    0.81
   6  18  12   72.84    0.69
   6  18  13   68.90    0.70
   6  18  14  135.82    0.93
   6  18  15  281.76    1.57
   6  18  16  325.01    1.77
   6  18  17  409.02    2.07
   6  18  18  566.81    4.08
   6  19   6  828.72    4.08
   6  19   7  804.22    3.01
   6  19   8  594.56    2.34
   6  19   9  373.42    1.58
   6  19  10  149.84    1.07
   6  19  11   78.26    0.68
   6  19  12   57.28    0.67
   6  19  13   59.27    0.60
   6  19  14  123.62    0.93
   6  19  15  224.47    1.29
   6  19  16  350.57    1.83
   6  19  17  546.72    2.64
   6  19  18  388.57    2.18
   6  19  19  270.19    2.52
   6  20   6  561.90    2.95
   6  20   7  464.56    1.88
   6  20   8  338.62    1.64
   6  20   9  176.24    1.09
   6  20  10   81.16    0.74
   6  20  11   36.58    0.49
   6  20  12   22.73    0.51
   6  20  13   22.72    0.41
   6  20  14   34.63    0.53
   6  20  15  100.58    0.89
   6  20  16  322.29    1.75
   6  20  17  300.44    1.72
   6  20  18  269.70    1.70
   6  20  19  267.29    1.77
   6  20  20  150.88    1.94
   6  21   6  257.94    1.77
   6  21   7  194.74    1.09
   6  21   8   98.98    0.77
   6  21   9   60.66    0.64
   6  21  10   22.19    0.43
   6  21  11    3.23    0.33
   6  21  12    0.79    0.31
   6  21  13    0.37    0.33
   6  21  14    0.52    0.36
   6  21  15   55.96    0.69
   6  21  16   79.81    0.81
   6  21  17  151.27    1.19
   6  21  18  239.27    1.59
   6  21  19  164.81    1.38
   6  21  20   66.63    1.03
   6  21  21   15.56    0.77
   6  22   6   25.28    0.65
   6  22   7   27.43    0.45
   6  22   8   23.14    0.45
   6  22   9   13.16    0.38
   6  22  10    0.32    0.30
   6  22  11   18.53    0.42
   6  22  12   25.35    0.51
   6  22  13   36.49    0.65
   6  22  14    0.51    0.29
   6  22  15    0.72    0.36
   6  22  16   26.12    0.57
   6  22  17   91.60    1.00
   6  22  18  117.97    1.38
   6  22  19   80.17    1.01
   6  22  20   21.23    0.59
   6  22  21    0.28    0.42
   6  22  22    4.84    0.62
   6  23   6    2.86    0.48
   6  23   7   12.88    0.40
   6  23   8   28.29    0.50
   6  23   9    8.52    0.37
   6  23  10    3.65    0.35
   6  23  11   33.62    0.53
   6  23  12   94.69    0.94
   6  23  13   42.49    0.59
   6  23  14   32.51    0.58
   6  23  15    0.64    0.38
   6  23  16   13.73    0.50
   6  23  17   41.16    0.71
   6  23  18   59.43    0.78
   6  23  19   34.77    0.63
   6  23  20    6.81    0.48
   6  23  21    0.03    0.42
   6  23  22   11.33    0.52
   6  23  23   17.82    0.80
   6  24   6   10.00    0.61
   6  24   7   48.40    0.66
   6  24   8   45.73    0.62
   6  24   9    7.00    0.41
   6  24  10    6.08    0.41
   6  24  11   57.32    0.70
   6  24  12   68.10    0.76
   6  24  13   84.72    0.92
   6  24  14   28.48    0.54
   6  24  15    2.93    0.42
   6  24  16    7.15    0.46
   6  24  17   22.54    0.60
   6  24  18   30.68    0.61
   6  24  19   15.82    0.52
   6  24  20    4.11    0.46
   6  24  21    0.37    0.43
   6  24  22    8.65    0.52
   6  24  23   17.17    0.57
   6  24  24   16.12    0.83
   6  25   6   59.31    1.05
   6  25   7   92.60    1.12
   6  25   8   58.75    0.66
   6  25   9   11.40    0.43
   6  25  10    5.60    0.42
   6  25  11   28.12    0.58
   6  25  12   53.58    0.69
   6  25  13   52.07    0.75
   6  25  14   25.12    0.58
   6  25  15    0.72    0.42
   6  25  16    3.49    0.44
   6  25  17   20.01    0.59
   6  25  18   22.49    0.58
   6  25  19   21.06    0.58
   6  25  20    7.70    0.47
   6  25  21    0.02    0.45
   6  25  22    2.47    0.48
   6  25  23    9.51    0.51
   6  25  24   11.79    0.62
   6  25  25    6.28    1.11
   6  26   6  110.74    1.80
   6  26   7  100.99    1.12
   6  26   8   61.39    0.71
   6  26   9   14.25    0.46
   6  26  10    0.02    0.37
   6  26  11    6.84    0.45
   6  26  12   19.31    0.56
   6  26  13   17.74    0.54
   6  26  14    4.29    0.45
   6  26  15    0.03    0.41
   6  26  16   16.56    0.54
   6  26  17   27.43    0.64
   6  26  18   39.84    0.70
   6  26  19   33.31    0.66
   6  26  20   15.66    0.54
   6  26  21    2.84    0.47
   6  26  22    0.02    0.45
   6  26  23    2.36    0.51
   6  26  24    3.90    0.89
   6  27   6  106.89    1.43
   6  27   7   98.39    0.95
   6  27   8   58.09    0.74
   6  27   9   26.69    0.56
   6  27  10    8.37    0.46
   6  27  11    0.01    0.40
   6  27  12    1.04    0.42
   6  27  13    0.23    0.42
   6  27  14    0.19    0.42
   6  27  15    8.78    0.51
   6  27  16   36.95    0.69
   6  27  17   66.19    0.89
   6  27  18   63.01    0.92
   6  27  19   49.56    0.81
   6  27  20   33.62    0.70
   6  27  21   12.23    0.61
   6  27  22    1.00    0.54
   6  27  23    0.02    0.93
   6  28   6  162.30    1.78
   6  28   7  125.21    1.13
   6  28   8   76.63    0.86
   6  28   9   54.06    0.74
   6  28  10   24.95    0.59
   6  28  11    6.01    0.46
   6  28  12    5.19    0.44
   6  28  13    5.11    0.47
   6  28  14   13.51    0.53
   6  28  15   40.40    0.73
   6  28  16   74.13    0.94
   6  28  17  100.42    1.31
   6  28  18  100.79    1.33
   6  28  19   85.38    1.27
   6  28  20   51.43    1.02
   6  28  21   20.57    0.77
   6  28  22    7.77    1.18
   6  29   6  198.55    2.03
   6  29   7  165.02    1.27
   6  29   8  117.65    1.12
   6  29   9   74.94    0.86
   6  29  10   36.99    0.66
   6  29  11   20.51    0.58
   6  29  12   17.67    0.53
   6  29  13   25.08    0.56
   6  29  14   38.86    0.68
   6  29  15   71.96    0.88
   6  29  16  103.73    1.21
   6  29  17  124.63    1.36
   6  29  18  134.54    1.46
   6  29  19   96.53    2.26
   6  29  20   57.40    1.53
   6  30   6  216.30    2.09
   6  30   7  196.92    1.47
   6  30   8  154.02    1.73
   6  30   9   90.14    1.09
   6  30  10   44.60    0.68
   6  30  11   33.74    0.62
   6  30  12   32.63    0.62
   6  30  13   33.59    0.64
   6  30  14   54.88    0.76
   6  30  15   74.47    1.19
   6  30  16  104.14    1.37
   6  30  17  133.96    1.82
   6  30  18  122.49    2.21
   6  30  19   94.39    3.34
   6  31   6  204.53    1.95
   6  31   7  183.02    1.51
   6  31   8  141.16    1.37
   6  31   9   86.61    1.09
   6  31  10   47.63    0.69
   6  31  11   31.26    0.61
   6  31  12   27.67    0.56
   6  31  13   34.37    0.63
   6  31  14   43.80    0.72
   6  31  15   67.20    1.19
   6  31  16   84.10    2.10
   6  31  17   94.72    3.08
   6  32   6  148.13    1.96
   6  32   7  133.62    1.43
   6  32   8  103.17    1.36
   6  32   9   69.51    1.05
   6  32  10   36.28    0.60
   6  32  11   20.45    0.51
   6  32  12   11.92    0.48
   6  32  13   14.48    0.51
   6  32  14   23.92    0.65
   6  32  15   37.14    1.17
   6  33   6   89.39    1.62
   6  33   7   79.64    1.26
   6  33   8   64.88    1.04
   6  33   9   36.53    0.70
   6  33  10   18.06    0.53
   6  33  11    4.57    0.46
   6  33  12    1.35    0.51
   6  33  13    1.57    0.79
   6  34   6   43.40    1.03
   6  34   7   43.48    0.85
   6  34   8   25.75    0.59
   6  34   9   13.22    0.68
   6  34  10    2.89    0.61
   6  34  11    0.04    1.48
   6  35   6   17.54    1.67
   6  35   7   14.09    1.46
   7   7   7 2970.01   25.42
   7   8   7 2176.37   10.93
   7   8   8 2429.88   12.32
   7   9   7 1727.66    9.36
   7   9   8 1739.07    7.23
   7   9   9 1285.79    7.66
   7  10   7 1240.84    8.02
   7  10   8  796.17    3.82
   7  10   9  328.68    1.79
   7  10  10   96.33    1.00
   7  11   7  242.43    2.07
   7  11   8  166.55    1.01
   7  11   9   16.66    0.39
   7  11  10    3.70    0.23
   7  11  11   42.62    0.76
   7  12   7   54.91    1.25
   7  12   8    4.56    0.26
   7  12   9    1.44    0.26
   7  12  10   48.29    0.60
   7  12  11  136.57    0.90
   7  12  12  223.53    1.77
   7  13   7    9.21    0.67
   7  13   8    8.24    0.29
   7  13   9    1.19    0.27
   7  13  10   20.42    0.43
   7  13  11   91.49    0.80
   7  13  12  172.00    1.11
   7  13  13  223.64    1.84
   7  14   7   60.90    0.95
   7  14   8   58.63    0.63
   7  14   9   22.44    0.38
   7  14  10    2.30    0.28
   7  14  11   23.88    0.44
   7  14  12  104.23    0.84
   7  14  13  107.68    0.76
   7  14  14   29.16    0.52
   7  15   7  290.89    2.36
   7  15   8  209.39    1.30
   7  15   9  105.71    0.86
   7  15  10   36.92    0.57
   7  15  11    0.62    0.26
   7  15  12   12.43    0.29
   7  15  13    3.77    0.24
   7  15  14    1.68    0.25
   7  15  15   11.15    0.48
   7  16   7  599.99    4.33
   7  16   8  415.47    2.40
   7  16   9  312.45    1.67
   7  16  10  116.40    0.82
   7  16  11   34.05    0.41
   7  16  12   17.32    0.34
   7  16  13    5.90    0.29
   7  16  14   16.85    0.42
   7  16  15   42.39    0.59
   7  16  16   95.62    1.27
   7  17   7  913.62    5.68
   7  17   8  691.76    3.21
   7  17   9  417.33    1.91
   7  17  10  205.71    1.05
   7  17  11  116.63    0.73
   7  17  12   43.15    0.54
   7  17  13   43.88    0.58
   7  17  14   64.66    0.70
   7  17  15  112.38    0.93
   7  17  16  246.46    1.50
   7  17  17  279.48    2.31
   7  18   7 1060.80    5.72
   7  18   8  778.01    2.78
   7  18   9  414.17    1.73
   7  18  10  238.39    1.17
   7  18  11  104.50    0.76
   7  18  12   55.64    0.56
   7  18  13   52.08    0.58
   7  18  14   97.18    0.84
   7  18  15  230.89    1.38
   7  18  16  260.84    1.56
   7  18  17  355.76    2.01
   7  18  18  484.04    3.52
   7  19   7  770.27    4.16
   7  19   8  582.45    2.21
   7  19   9  326.40    1.48
   7  19  10  130.67    0.91
   7  19  11   54.15    0.60
   7  19  12   33.88    0.49
   7  19  13   35.75    0.48
   7  19  14   82.23    0.80
   7  19  15  147.82    1.06
   7  19  16  276.86    1.66
   7  19  17  435.11    2.31
   7  19  18  313.62    1.93
   7  19  19  235.54    2.37
   7  20   7  389.91    2.51
   7  20   8  285.50    1.42
   7  20   9  136.19    0.91
   7  20  10   51.83    0.59
   7  20  11   12.78    0.37
   7  20  12    4.17    0.32
   7  20  13    9.56    0.34
   7  20  14   15.00    0.43
   7  20  15   66.60    0.78
   7  20  16  240.20    1.55
   7  20  17  242.86    1.61
   7  20  18  223.93    1.61
   7  20  19  219.89    1.57
   7  20  20  130.12    1.87
   7  21   7  133.24    1.34
   7  21   8   75.42    0.72
   7  21   9   37.44    0.50
   7  21  10    7.77    0.33
   7  21  11    0.41    0.29
   7  21  12    4.82    0.35
   7  21  13    5.86    0.38
   7  21  14    0.05    0.36
   7  21  15   31.81    0.62
   7  21  16   66.11    0.80
   7  21  17  139.71    1.16
   7  21  18  198.28    1.66
   7  21  19  139.71    1.34
   7  21  20   58.25    0.87
   7  21  21    9.85    0.72
   7  22   7   31.61    0.65
   7  22   8   28.95    0.46
   7  22   9   14.04    0.36
   7  22  10    0.10    0.28
   7  22  11   14.65    0.38
   7  22  12   33.99    0.53
   7  22  13   37.23    0.61
   7  22  14    2.00    0.38
   7  22  15    0.06    0.38
   7  22  16   24.62    0.56
   7  22  17   88.90    0.99
   7  22  18   98.96    1.17
   7  22  19   74.78    1.04
   7  22  20   24.79    0.60
   7  22  21    0.50    0.43
   7  22  22    0.76    0.62
   7  23   7   34.86    0.73
   7  23   8   36.18    0.58
   7  23   9   13.27    0.41
   7  23  10    0.31    0.33
   7  23  11   25.84    0.52
   7  23  12   81.44    0.92
   7  23  13   46.57    0.62
   7  23  14   30.02    0.57
   7  23  15    1.25    0.40
   7  23  16   13.68    0.49
   7  23  17   39.68    0.70
   7  23  18   51.20    0.78
   7  23  19   29.97    0.63
   7  23  20    7.42    0.48
   7  23  21    0.03    0.43
   7  23  22    5.70    0.50
   7  23  23    9.22    0.75
   7  24   7   98.59    1.41
   7  24   8   64.29    0.79
   7  24   9   15.82    0.48
   7  24  10    1.98    0.38
   7  24  11   40.17    0.61
   7  24  12   64.41    0.74
   7  24  13   81.69    0.81
   7  24  14   31.20    0.66
   7  24  15    2.76    0.44
   7  24  16    5.45    0.46
   7  24  17   22.99    0.60
   7  24  18   29.61    0.60
   7  24  19   16.85    0.53
   7  24  20    5.90    0.49
   7  24  21    0.20    0.44
   7  24  22    4.82    0.49
   7  24  23    9.48    0.54
   7  24  24   11.52    0.80
   7  25   7  126.51    1.75
   7  25   8   73.37    0.80
   7  25   9   16.00    0.49
   7  25  10    3.72    0.41
   7  25  11   23.45    0.53
   7  25  12   53.51    0.68
   7  25  13   54.71    0.76
   7  25  14   25.70    0.62
   7  25  15    0.65    0.44
   7  25  16    3.14    0.44
   7  25  17   17.86    0.56
   7  25  18   22.55    0.59
   7  25  19   18.35    0.55
   7  25  20    6.43    0.50
   7  25  21    0.03    0.45
   7  25  22    0.89    0.46
   7  25  23    4.10    0.50
   7  25  24    7.84    0.55
   7  25  25    4.04    1.67
   7  26   7   99.06    1.36
   7  26   8   60.46    0.74
   7  26   9   14.04    0.47
   7  26  10    0.08    0.41
   7  26  11    6.93    0.48
   7  26  12   23.90    0.58
   7  26  13   23.65    0.62
   7  26  14    9.55    0.49
   7  26  15    0.05    0.41
   7  26  16   10.25    0.51
   7  26  17   21.91    0.59
   7  26  18   38.06    0.67
   7  26  19   28.42    0.63
   7  26  20   12.55    0.54
   7  26  21    2.54    0.47
   7  26  22    0.02    0.45
   7  26  23    0.63    0.51
   7  26  24    2.74    1.09
   7  27   7   78.35    1.28
   7  27   8   46.31    0.67
   7  27   9   18.90    0.52
   7  27  10    2.14    0.44
   7  27  11    0.51    0.41
   7  27  12    3.73    0.47
   7  27  13    2.41    0.46
   7  27  14    0.09    0.45
   7  27  15    5.23    0.48
   7  27  16   24.25    0.63
   7  27  17   51.89    0.81
   7  27  18   51.33    0.81
   7  27  19   40.88    0.75
   7  27  20   25.82    0.68
   7  27  21    8.14    0.61
   7  27  22    0.30    0.53
   7  27  23    0.04    1.11
   7  28   7   83.72    1.27
   7  28   8   55.89    0.73
   7  28   9   31.08    0.61
   7  28  10   10.17    0.49
   7  28  11    0.97    0.42
   7  28  12    0.13    0.42
   7  28  13    0.58    0.45
   7  28  14    6.47    0.49
   7  28  15   25.61    0.59
   7  28  16   49.44    0.81
   7  28  17   75.22    0.95
   7  28  18   77.20    1.13
   7  28  19   61.61    0.98
   7  28  20   36.76    1.05
   7  28  21   14.36    0.79
   7  29   7  136.39    1.81
   7  29   8   97.55    1.00
   7  29   9   54.17    0.76
   7  29  10   24.69    0.59
   7  29  11   10.43    0.50
   7  29  12    6.26    0.49
   7  29  13   12.16    0.50
   7  29  14   26.92    0.56
   7  29  15   47.96    0.72
   7  29  16   72.94    1.15
   7  29  17   97.48    1.26
   7  29  18   98.16    1.44
   7  29  19   71.80    1.55
   7  29  20   44.39    1.46
   7  30   7  181.96    1.97
   7  30   8  131.79    1.57
   7  30   9   68.52    0.93
   7  30  10   36.56    0.66
   7  30  11   21.09    0.56
   7  30  12   17.66    0.52
   7  30  13   22.30    0.56
   7  30  14   40.14    0.66
   7  30  15   54.54    0.79
   7  30  16   81.42    1.22
   7  30  17  101.57    1.57
   7  30  18   90.33    2.99
   7  30  19   75.10    4.07
   7  31   7  176.72    2.28
   7  31   8  128.34    1.48
   7  31   9   70.41    1.11
   7  31  10   44.99    0.71
   7  31  11   22.08    0.55
   7  31  12   16.38    0.52
   7  31  13   21.83    0.54
   7  31  14   30.62    0.74
   7  31  15   49.98    0.93
   7  31  16   67.02    1.86
   7  31  17   74.49    2.52
   7  32   7  133.77    1.98
   7  32   8   98.07    1.42
   7  32   9   59.53    0.91
   7  32  10   31.20    0.64
   7  32  11   15.08    0.52
   7  32  12    8.49    0.44
   7  32  13    9.50    0.49
   7  32  14   19.59    0.69
   7  32  15   30.03    1.93
   7  33   7   80.38    1.73
   7  33   8   64.54    0.90
   7  33   9   36.56    0.68
   7  33  10   14.76    0.66
   7  33  11    3.75    0.48
   7  33  12    0.98    0.59
   7  33  13    0.98    1.14
   7  34   7   41.01    1.55
   7  34   8   28.00    0.95
   7  34   9   14.07    0.75
   7  34  10    1.71    0.89
   8   8   8 3495.51   27.96
   8   9   8 2009.80   11.52
   8   9   9 1233.31    6.57
   8  10   8  619.96    4.33
   8  10   9  226.99    1.07
   8  10  10   14.90    0.37
   8  11   8   73.81    1.53
   8  11   9    2.41    0.24
   8  11  10   61.93    0.61
   8  11  11  196.51    1.71
   8  12   8    2.28    0.36
   8  12   9   14.57    0.40
   8  12  10  118.57    0.96
   8  12  11  232.71    1.50
   8  12  12  280.81    2.31
   8  13   8    0.15    0.36
   8  13   9   16.20    0.38
   8  13  10   88.39    0.79
   8  13  11  183.24    1.28
   8  13  12  249.66    1.44
   8  13  13  287.73    2.19
   8  14   8   47.70    0.80
   8  14   9    3.86    0.31
   8  14  10   15.08    0.38
   8  14  11   60.47    0.67
   8  14  12  143.58    1.00
   8  14  13  123.78    0.78
   8  14  14   62.08    0.85
   8  15   8  176.26    1.53
   8  15   9   58.73    0.70
   8  15  10    6.28    0.31
   8  15  11   14.13    0.31
   8  15  12   30.96    0.36
   8  15  13   18.74    0.35
   8  15  14   18.44    0.35
   8  15  15    0.05    0.43
   8  16   8  323.91    2.74
   8  16   9  177.61    1.18
   8  16  10   50.31    0.52
   8  16  11    4.81    0.27
   8  16  12    1.85    0.24
   8  16  13    0.61    0.26
   8  16  14    2.61    0.32
   8  16  15   10.70    0.41
   8  16  16   57.45    1.21
   8  17   8  515.59    3.15
   8  17   9  260.45    1.21
   8  17  10  107.77    0.80
   8  17  11   31.19    0.45
   8  17  12   10.55    0.33
   8  17  13   19.17    0.40
   8  17  14   24.39    0.49
   8  17  15   58.34    0.70
   8  17  16  157.58    1.17
   8  17  17  196.44    1.88
   8  18   8  526.41    2.85
   8  18   9  269.55    1.24
   8  18  10  108.39    0.75
   8  18  11   27.56    0.46
   8  18  12   16.30    0.38
   8  18  13   13.82    0.38
   8  18  14   47.00    0.55
   8  18  15  132.24    1.05
   8  18  16  157.30    1.24
   8  18  17  241.45    1.59
   8  18  18  304.64    2.60
   8  19   8  386.76    2.35
   8  19   9  195.53    1.03
   8  19  10   55.91    0.57
   8  19  11   14.25    0.35
   8  19  12    3.38    0.31
   8  19  13    2.77    0.33
   8  19  14   29.47    0.52
   8  19  15   69.61    0.79
   8  19  16  169.91    1.34
   8  19  17  278.76    1.72
   8  19  18  204.55    1.52
   8  19  19  167.85    2.00
   8  20   8  145.88    1.37
   8  20   9   58.10    0.58
   8  20  10    7.33    0.33
   8  20  11    0.01    0.29
   8  20  12    2.90    0.32
   8  20  13    0.05    0.30
   8  20  14    1.80    0.36
   8  20  15   40.10    0.65
   8  20  16  147.12    1.26
   8  20  17  162.21    1.34
   8  20  18  161.42    1.37
   8  20  19  149.30    1.38
   8  20  20   90.72    1.41
   8  21   8   38.76    0.67
   8  21   9   13.42    0.34
   8  21  10    0.01    0.28
   8  21  11    5.42    0.36
   8  21  12   15.43    0.44
   8  21  13   19.48    0.50
   8  21  14    1.36    0.40
   8  21  15   15.89    0.52
   8  21  16   40.88    0.70
   8  21  17   92.10    0.99
   8  21  18  131.56    1.43
   8  21  19   89.19    1.14
   8  21  20   38.77    0.80
   8  21  21    7.40    0.65
   8  22   8   31.97    0.63
   8  22   9    7.69    0.34
   8  22  10    1.81    0.31
   8  22  11   19.24    0.47
   8  22  12   58.75    0.67
   8  22  13   52.36    0.69
   8  22  14   15.56    0.50
   8  22  15    0.43    0.40
   8  22  16   15.10    0.47
   8  22  17   60.40    0.78
   8  22  18   68.34    1.02
   8  22  19   46.17    0.88
   8  22  20   11.91    0.49
   8  22  21    0.08    0.40
   8  22  22    2.47    0.64
   8  23   8   32.80    0.81
   8  23   9    4.38    0.34
   8  23  10    3.41    0.38
   8  23  11   48.64    0.66
   8  23  12  106.96    0.97
   8  23  13   73.09    0.80
   8  23  14   55.51    0.70
   8  23  15    6.97    0.46
   8  23  16    3.70    0.44
   8  23  17   21.20    0.54
   8  23  18   30.78    0.66
   8  23  19   16.52    0.55
   8  23  20    2.64    0.45
   8  23  21    0.07    0.45
   8  23  22    7.15    0.52
   8  23  23   12.63    0.77
   8  24   8   49.32    0.96
   8  24   9    6.70    0.42
   8  24  10    6.24    0.43
   8  24  11   63.81    0.70
   8  24  12   92.70    0.89
   8  24  13  101.65    1.01
   8  24  14   55.27    0.75
   8  24  15    9.90    0.51
   8  24  16    0.27    0.42
   8  24  17   11.30    0.50
   8  24  18   13.99    0.53
   8  24  19    8.41    0.48
   8  24  20    1.25    0.45
   8  24  21    0.31    0.45
   8  24  22    4.31    0.51
   8  24  23   11.61    0.55
   8  24  24   12.37    0.82
   8  25   8   48.90    0.95
   8  25   9    5.03    0.45
   8  25  10    7.25    0.45
   8  25  11   47.67    0.63
   8  25  12   74.78    0.88
   8  25  13   77.29    0.93
   8  25  14   44.14    0.75
   8  25  15    6.50    0.49
   8  25  16    0.04    0.42
   8  25  17    7.00    0.48
   8  25  18   10.56    0.51
   8  25  19    9.72    0.50
   8  25  20    0.89    0.46
   8  25  21    0.09    0.43
   8  25  22    1.18    0.46
   8  25  23    8.33    0.54
   8  25  24   11.85    0.65
   8  25  25    8.76    3.10
   8  26   8   29.92    0.84
   8  26   9    1.26    0.44
   8  26  10    3.81    0.47
   8  26  11   28.11    0.61
   8  26  12   48.27    0.78
   8  26  13   47.27    0.77
   8  26  14   21.33    0.61
   8  26  15    2.98    0.45
   8  26  16    2.40    0.45
   8  26  17    9.16    0.51
   8  26  18   18.05    0.56
   8  26  19   14.38    0.55
   8  26  20    2.54    0.48
   8  26  21    0.15    0.47
   8  26  22    0.21    0.48
   8  26  23    2.63    0.59
   8  27   8   19.99    0.75
   8  27   9    2.89    0.44
   8  27  10    0.59    0.42
   8  27  11    9.23    0.50
   8  27  12   19.00    0.60
   8  27  13   18.54    0.57
   8  27  14    4.23    0.50
   8  27  15    0.04    0.44
   8  27  16    9.78    0.49
   8  27  17   27.25    0.62
   8  27  18   28.01    0.64
   8  27  19   26.03    0.63
   8  27  20   11.57    0.56
   8  27  21    2.38    0.53
   8  27  22    0.02    0.59
   8  28   8   31.68    0.85
   8  28   9   11.18    0.49
   8  28  10    1.62    0.42
   8  28  11    0.22    0.43
   8  28  12    1.90    0.46
   8  28  13    0.96    0.46
   8  28  14    1.16    0.43
   8  28  15    9.20    0.48
   8  28  16   25.04    0.63
   8  28  17   38.14    0.71
   8  28  18   43.56    0.86
   8  28  19   36.31    0.83
   8  28  20   20.56    0.77
   8  28  21    6.93    0.83
   8  29   8   58.47    1.11
   8  29   9   27.43    0.65
   8  29  10    5.15    0.48
   8  29  11    1.10    0.43
   8  29  12    0.02    0.44
   8  29  13    1.23    0.44
   8  29  14    9.87    0.47
   8  29  15   20.89    0.58
   8  29  16   43.05    0.80
   8  29  17   60.19    0.84
   8  29  18   58.74    1.32
   8  29  19   42.99    1.08
   8  29  20   27.99    2.16
   8  30   8   86.21    1.80
   8  30   9   44.06    0.70
   8  30  10   14.78    0.53
   8  30  11    6.93    0.47
   8  30  12    4.79    0.44
   8  30  13    9.90    0.48
   8  30  14   17.88    0.55
   8  30  15   30.32    0.66
   8  30  16   55.52    0.80
   8  30  17   65.85    1.54
   8  30  18   60.00    3.23
   8  31   8   85.82    2.08
   8  31   9   48.35    0.79
   8  31  10   22.29    0.56
   8  31  11    8.58    0.48
   8  31  12    6.46    0.44
   8  31  13   12.77    0.46
   8  31  14   15.22    0.51
   8  31  15   30.37    0.72
   8  31  16   41.83    1.60
   8  31  17   45.45    4.70
   8  32   8   67.26    1.47
   8  32   9   41.72    0.76
   8  32  10   16.07    0.51
   8  32  11    4.06    0.40
   8  32  12    1.62    0.39
   8  32  13    3.19    0.47
   8  32  14    7.81    0.74
   8  32  15   16.32    3.20
   8  33   8   45.21    1.27
   8  33   9   23.91    0.59
   8  33  10    7.14    0.47
   8  33  11    0.25    0.50
   8  33  12    0.05    0.69
   8  34   8   20.31    1.07
   8  34   9    7.12    0.76
   9   9   9  587.53    8.67
   9  10   9   18.06    0.41
   9  10  10   39.97    0.89
   9  11   9   42.72    0.82
   9  11  10  201.28    1.42
   9  11  11  377.63    3.40
   9  12   9  118.65    1.23
   9  12  10  282.69    1.76
   9  12  11  412.86    2.59
   9  12  12  430.21    3.46
   9  13   9   84.07    1.03
   9  13  10  189.02    1.29
   9  13  11  292.79    1.80
   9  13  12  316.96    1.83
   9  13  13  301.70    2.13
   9  14   9   10.25    0.47
   9  14  10   71.42    0.66
   9  14  11  169.82    0.93
   9  14  12  216.79    1.16
   9  14  13  153.62    0.93
   9  14  14   82.67    1.00
   9  15   9   22.18    0.56
   9  15  10    3.69    0.26
   9  15  11   45.78    0.44
   9  15  12   60.72    0.52
   9  15  13   59.43    0.57
   9  15  14   35.79    0.51
   9  15  15    7.00    0.49
   9  16   9   83.61    0.94
   9  16  10    2.90    0.26
   9  16  11    2.78    0.24
   9  16  12    9.44    0.27
   9  16  13    9.24    0.34
   9  16  14    0.35    0.32
   9  16  15    0.18    0.33
   9  16  16   27.89    0.70
   9  17   9  105.11    1.09
   9  17  10   19.53    0.37
   9  17  11    1.68    0.26
   9  17  12    0.89    0.28
   9  17  13    0.59    0.31
   9  17  14    3.58    0.35
   9  17  15   19.80    0.47
   9  17  16   70.74    0.79
   9  17  17   86.89    1.41
   9  18   9  101.65    1.02
   9  18  10   19.70    0.38
   9  18  11    0.83    0.28
   9  18  12    1.35    0.30
   9  18  13    0.93    0.35
   9  18  14    6.53    0.38
   9  18  15   52.38    0.64
   9  18  16   78.64    0.83
   9  18  17  130.14    1.13
   9  18  18  171.11    1.85
   9  19   9   37.86    0.71
   9  19  10    3.07    0.29
   9  19  11    2.41    0.31
   9  19  12   10.79    0.39
   9  19  13    3.25    0.38
   9  19  14    4.64    0.39
   9  19  15   35.53    0.58
   9  19  16  101.94    1.07
   9  19  17  152.09    1.26
   9  19  18  118.20    1.10
   9  19  19   98.49    1.63
   9  20   9    8.95    0.45
   9  20  10    0.04    0.29
   9  20  11   14.17    0.40
   9  20  12   23.19    0.49
   9  20  13    8.15    0.45
   9  20  14    1.94    0.38
   9  20  15   17.39    0.51
   9  20  16   73.54    1.20
   9  20  17   95.33    1.05
   9  20  18  100.42    1.03
   9  20  19   83.79    1.13
   9  20  20   43.98    1.06
   9  21   9    0.46    0.39
   9  21  10    4.60    0.35
   9  21  11   39.43    0.55
   9  21  12   42.47    0.61
   9  21  13   50.77    0.74
   9  21  14   11.76    0.47
   9  21  15    1.24    0.43
   9  21  16   16.81    0.55
   9  21  17   51.63    0.75
   9  21  18   71.85    0.93
   9  21  19   50.66    0.75
   9  21  20   16.08    0.55
   9  21  21    1.31    0.61
   9  22   9    0.06    0.45
   9  22  10   18.08    0.47
   9  22  11   66.63    0.70
   9  22  12  108.19    0.98
   9  22  13   99.60    1.10
   9  22  14   43.78    0.67
   9  22  15   10.18    0.46
   9  22  16    1.84    0.43
   9  22  17   21.04    0.56
   9  22  18   27.36    0.65
   9  22  19   20.43    0.57
   9  22  20    2.61    0.42
   9  22  21    0.83    0.42
   9  22  22    7.73    0.77
   9  23   9    0.27    0.48
   9  23  10   24.81    0.51
   9  23  11  105.34    0.91
   9  23  12  164.22    1.17
   9  23  13  142.15    1.11
   9  23  14   78.51    0.87
   9  23  15   25.92    0.60
   9  23  16    0.06    0.42
   9  23  17    4.78    0.43
   9  23  18    8.77    0.50
   9  23  19    2.92    0.45
   9  23  20    0.01    0.42
   9  23  21    3.82    0.47
   9  23  22   17.20    0.59
   9  23  23   22.04    1.01
   9  24   9    0.08    0.55
   9  24  10   41.23    0.61
   9  24  11  111.71    0.99
   9  24  12  167.92    1.30
   9  24  13  169.37    1.36
   9  24  14   86.08    1.01
   9  24  15   36.68    0.66
   9  24  16    4.11    0.45
   9  24  17    0.42    0.45
   9  24  18    1.39    0.44
   9  24  19    0.14    0.43
   9  24  20    0.13    0.42
   9  24  21    4.07    0.50
   9  24  22   15.31    0.58
   9  24  23   23.55    0.67
   9  24  24   25.81    0.97
   9  25   9    1.57    0.58
   9  25  10   48.44    0.66
   9  25  11  103.61    1.06
   9  25  12  157.36    1.35
   9  25  13  143.77    1.34
   9  25  14   83.13    1.10
   9  25  15   27.68    0.67
   9  25  16    3.65    0.47
   9  25  17    0.07    0.45
   9  25  18    1.98    0.44
   9  25  19    0.32    0.42
   9  25  20    0.10    0.43
   9  25  21    2.17    0.46
   9  25  22    9.33    0.54
   9  25  23   20.60    0.62
   9  25  24   24.40    1.01
   9  26   9    4.33    0.67
   9  26  10   31.67    0.66
   9  26  11   67.28    0.89
   9  26  12  107.73    1.11
   9  26  13   89.88    1.12
   9  26  14   55.57    0.83
   9  26  15   17.76    0.60
   9  26  16    1.22    0.46
   9  26  17    0.13    0.44
   9  26  18    3.57    0.45
   9  26  19    0.95    0.43
   9  26  20    0.04    0.43
   9  26  21    0.77    0.48
   9  26  22    4.50    0.52
   9  26  23   10.36    0.90
   9  27   9    0.57    0.61
   9  27  10   11.22    0.53
   9  27  11   32.40    0.70
   9  27  12   51.55    0.79
   9  27  13   40.41    0.88
   9  27  14   23.22    0.62
   9  27  15    3.78    0.47
   9  27  16    0.38    0.45
   9  27  17    5.44    0.48
   9  27  18    8.19    0.50
   9  27  19    5.69    0.50
   9  27  20    2.02    0.46
   9  27  21    0.05    0.52
   9  27  22    1.38    0.86
   9  28   9    0.65    0.59
   9  28  10    1.00    0.44
   9  28  11   11.44    0.52
   9  28  12   14.78    0.58
   9  28  13    9.50    0.53
   9  28  14    3.54    0.48
   9  28  15    1.46    0.45
   9  28  16    8.27    0.49
   9  28  17   15.64    0.57
   9  28  18   22.03    0.62
   9  28  19   14.79    0.57
   9  28  20    5.54    0.63
   9  28  21    1.33    1.46
   9  29   9    9.56    0.73
   9  29  10    0.71    0.45
   9  29  11    0.43    0.44
   9  29  12    0.39    0.43
   9  29  13    0.04    0.43
   9  29  14    1.53    0.41
   9  29  15    7.64    0.47
   9  29  16   18.50    0.57
   9  29  17   32.75    0.69
   9  29  18   31.75    0.80
   9  29  19   23.89    0.93
   9  30   9   12.79    0.77
   9  30  10    1.98    0.44
   9  30  11    0.07    0.42
   9  30  12    0.28    0.41
   9  30  13    0.84    0.41
   9  30  14    3.80    0.47
   9  30  15   11.68    0.53
   9  30  16   27.23    0.72
   9  30  17   37.68    1.25
   9  30  18   36.03    1.95
   9  31   9   16.16    0.75
   9  31  10    3.50    0.45
   9  31  11    0.73    0.39
   9  31  12    0.91    0.38
   9  31  13    1.25    0.40
   9  31  14    4.78    0.45
   9  31  15   13.04    0.64
   9  31  16   21.13    1.82
   9  32   9   18.51    0.69
   9  32  10    3.45    0.38
   9  32  11    0.44    0.35
   9  32  12    0.06    0.39
   9  32  13    0.01    0.51
   9  32  14    2.56    0.84
   9  33   9   11.61    0.72
   9  33  10    0.90    0.45
   9  33  11    0.21    0.60
   9  33  12    0.95    1.13
  10  10  10  201.39    3.49
  10  11  10  406.92    3.35
  10  11  11  580.71    4.71
  10  12  10  478.42    3.97
  10  12  11  566.21    3.38
  10  12  12  578.79    3.99
  10  13  10  327.76    2.60
  10  13  11  403.30    2.13
  10  13  12  436.44    2.06
  10  13  13  357.42    2.20
  10  14  10  116.60    1.34
  10  14  11  210.43    1.26
  10  14  12  261.75    1.19
  10  14  13  187.00    1.01
  10  14  14  124.37    1.24
  10  15  10   40.94    0.63
  10  15  11   94.51    0.65
  10  15  12  106.87    0.70
  10  15  13   95.75    0.74
  10  15  14   48.02    0.61
  10  15  15    4.10    0.51
  10  16  10    5.17    0.37
  10  16  11   26.88    0.39
  10  16  12   39.63    0.48
  10  16  13   31.48    0.49
  10  16  14   11.03    0.38
  10  16  15    1.02    0.33
  10  16  16    5.42    0.51
  10  17  10    0.03    0.35
  10  17  11   14.76    0.33
  10  17  12   22.31    0.45
  10  17  13   11.34    0.41
  10  17  14    2.81    0.36
  10  17  15    3.51    0.35
  10  17  16   21.27    0.50
  10  17  17   38.14    0.99
  10  18  10    1.07    0.40
  10  18  11   16.90    0.39
  10  18  12   22.16    0.53
  10  18  13   16.85    0.50
  10  18  14    0.05    0.37
  10  18  15   15.88    0.49
  10  18  16   37.50    0.62
  10  18  17   69.34    0.82
  10  18  18   86.38    1.73
  10  19  10    7.28    0.49
  10  19  11   24.88    0.47
  10  19  12   38.75    0.63
  10  19  13   20.47    0.52
  10  19  14    0.01    0.38
  10  19  15    9.16    0.48
  10  19  16   54.11    0.77
  10  19  17   80.33    0.97
  10  19  18   70.69    0.82
  10  19  19   58.64    1.14
  10  20  10   19.94    0.59
  10  20  11   53.87    0.62
  10  20  12   65.36    0.78
  10  20  13   30.98    0.59
  10  20  14    9.00    0.46
  10  20  15    1.69    0.42
  10  20  16   26.25    0.62
  10  20  17   44.18    0.73
  10  20  18   55.31    0.77
  10  20  19   39.20    0.70
  10  20  20   20.11    0.80
  10  21  10   46.47    0.88
  10  21  11   94.82    0.93
  10  21  12  105.09    0.99
  10  21  13   92.47    0.99
  10  21  14   30.61    0.58
  10  21  15    3.07    0.43
  10  21  16    3.17    0.45
  10  21  17   20.07    0.58
  10  21  18   33.98    0.62
  10  21  19   18.92    0.56
  10  21  20    4.19    0.44
  10  21  21    0.71    0.58
  10  22  10   73.87    1.29
  10  22  11  128.86    1.07
  10  22  12  188.86    1.37
  10  22  13  146.93    1.21
  10  22  14   87.82    0.90
  10  22  15   23.76    0.56
  10  22  16    0.92    0.44
  10  22  17    2.93    0.45
  10  22  18    7.62    0.49
  10  22  19    3.19    0.44
  10  22  20    0.17    0.41
  10  22  21    9.28    0.50
  10  22  22   25.35    1.02
  10  23  10   75.33    1.30
  10  23  11  181.98    1.35
  10  23  12  251.71    1.60
  10  23  13  215.79    1.45
  10  23  14  139.86    1.23
  10  23  15   53.72    0.78
  10  23  16   11.67    0.52
  10  23  17    0.47    0.42
  10  23  18    0.08    0.41
  10  23  19    0.19    0.41
  10  23  20    3.14    0.45
  10  23  21   18.39    0.56
  10  23  22   38.04    0.74
  10  23  23   44.34    1.11
  10  24  10  125.96    1.53
  10  24  11  233.20    1.62
  10  24  12  294.13    1.85
  10  24  13  259.72    1.80
  10  24  14  158.90    1.41
  10  24  15   68.95    0.93
  10  24  16   23.73    0.59
  10  24  17    3.86    0.46
  10  24  18    2.75    0.45
  10  24  19    2.82    0.45
  10  24  20    6.64    0.48
  10  24  21   20.14    0.60
  10  24  22   37.66    0.70
  10  24  23   47.76    0.99
  10  24  24   48.74    1.27
  10  25  10  120.59    1.73
  10  25  11  217.19    1.65
  10  25  12  252.68    1.85
  10  25  13  229.28    1.74
  10  25  14  154.41    1.58
  10  25  15   66.83    0.96
  10  25  16   26.52    0.66
  10  25  17    7.25    0.51
  10  25  18    3.26    0.45
  10  25  19    2.47    0.43
  10  25  20    6.04    0.48
  10  25  21   13.14    0.58
  10  25  22   27.22    0.68
  10  25  23   41.30    0.99
  10  25  24   44.36    1.81
  10  26  10   79.03    1.40
  10  26  11  145.87    1.33
  10  26  12  174.25    1.56
  10  26  13  157.67    1.63
  10  26  14  101.17    1.42
  10  26  15   45.73    0.80
  10  26  16   13.37    0.58
  10  26  17    2.12    0.46
  10  26  18    0.34    0.43
  10  26  19    0.33    0.42
  10  26  20    2.40    0.46
  10  26  21    8.12    0.54
  10  26  22   17.31    0.79
  10  26  23   24.62    1.96
  10  27  10   36.75    0.98
  10  27  11   72.30    0.94
  10  27  12   85.07    1.36
  10  27  13   74.28    1.10
  10  27  14   43.05    0.80
  10  27  15   19.26    0.60
  10  27  16    3.18    0.47
  10  27  17    0.00    0.42
  10  27  18    0.12    0.42
  10  27  19    0.14    0.43
  10  27  20    0.47    0.48
  10  27  21    3.55    0.61
  10  27  22    9.66    3.30
  10  28  10   10.54    0.78
  10  28  11   27.59    0.68
  10  28  12   30.63    0.69
  10  28  13   26.09    0.62
  10  28  14   12.81    0.55
  10  28  15    1.16    0.44
  10  28  16    0.46    0.42
  10  28  17    3.55    0.46
  10  28  18    7.48    0.50
  10  28  19    4.47    0.51
  10  28  20    0.82    0.63
  10  29  10    3.26    0.67
  10  29  11    6.83    0.51
  10  29  12    6.46    0.48
  10  29  13    4.55    0.47
  10  29  14    0.12    0.43
  10  29  15    0.89    0.43
  10  29  16    6.33    0.46
  10  29  17   17.13    0.58
  10  29  18   17.03    0.71
  10  29  19   10.25    1.47
  10  30  10    0.02    0.61
  10  30  11    0.37    0.42
  10  30  12    0.25    0.40
  10  30  13    0.02    0.38
  10  30  14    0.25    0.41
  10  30  15    4.63    0.46
  10  30  16   12.47    0.60
  10  30  17   20.31    1.15
  10  31  10    0.06    0.55
  10  31  11    0.02    0.37
  10  31  12    0.16    0.37
  10  31  13    0.16    0.41
  10  31  14    0.06    0.48
  10  31  15    5.65    0.74
  10  32  10    0.30    0.51
  10  32  11    0.04    0.37
  10  32  12    0.55    0.46
  10  32  13    0.30    0.64
  10  33  10    0.76    0.74
  10  33  11    3.92    1.14
  11  11  11  744.86    8.41
  11  12  11  628.12    4.66
  11  12  12  580.08    3.52
  11  13  11  454.14    3.04
  11  13  12  467.69    1.81
  11  13  13  379.90    2.16
  11  14  11  274.19    1.89
  11  14  12  292.20    1.28
  11  14  13  219.08    1.09
  11  14  14  126.53    1.36
  11  15  11  110.97    1.03
  11  15  12  121.03    0.80
  11  15  13  115.91    0.87
  11  15  14   51.62    0.62
  11  15  15   15.28    0.58
  11  16  11   52.27    0.77
  11  16  12   68.91    0.70
  11  16  13   44.74    0.59
  11  16  14   19.27    0.45
  11  16  15    8.58    0.38
  11  16  16    0.06    0.47
  11  17  11   55.78    0.83
  11  17  12   50.81    0.63
  11  17  13   24.19    0.50
  11  17  14    8.35    0.41
  11  17  15    0.11    0.33
  11  17  16    6.65    0.41
  11  17  17   24.39    0.81
  11  18  11   43.17    0.86
  11  18  12   43.29    0.62
  11  18  13   22.23    0.55
  11  18  14    1.34    0.38
  11  18  15    4.44    0.41
  11  18  16   19.32    0.53
  11  18  17   43.81    0.71
  11  18  18   49.69    1.09
  11  19  11   51.02    1.03
  11  19  12   64.55    0.79
  11  19  13   33.58    0.61
  11  19  14    4.32    0.40
  11  19  15    1.76    0.41
  11  19  16   21.33    0.61
  11  19  17   40.09    0.70
  11  19  18   43.43    0.69
  11  19  19   38.96    0.90
  11  20  11  101.06    1.36
  11  20  12  106.81    1.03
  11  20  13   56.97    0.72
  11  20  14   22.16    0.50
  11  20  15    0.02    0.40
  11  20  16    7.08    0.50
  11  20  17   23.82    0.58
  11  20  18   32.11    0.63
  11  20  19   22.30    0.54
  11  20  20    8.79    0.67
  11  21  11  146.67    1.77
  11  21  12  147.16    1.24
  11  21  13  122.05    1.10
  11  21  14   51.98    0.69
  11  21  15   11.81    0.48
  11  21  16    0.00    0.43
  11  21  17    6.06    0.48
  11  21  18   11.93    0.49
  11  21  19    6.47    0.47
  11  21  20    0.14    0.42
  11  21  21    3.94    0.65
  11  22  11  189.82    1.92
  11  22  12  230.74    1.55
  11  22  13  189.84    1.40
  11  22  14  124.91    1.14
  11  22  15   42.13    0.72
  11  22  16    6.57    0.49
  11  22  17    0.04    0.43
  11  22  18    0.49    0.43
  11  22  19    0.03    0.42
  11  22  20    5.65    0.45
  11  22  21   21.43    0.58
  11  22  22   45.71    1.07
  11  23  11  303.52    2.59
  11  23  12  335.03    2.00
  11  23  13  295.45    1.86
  11  23  14  189.03    1.52
  11  23  15   93.43    1.00
  11  23  16   28.74    0.64
  11  23  17    6.74    0.48
  11  23  18    2.73    0.44
  11  23  19    5.04    0.46
  11  23  20   14.99    0.51
  11  23  21   40.71    0.71
  11  23  22   62.97    1.03
  11  23  23   74.71    1.49
  11  24  11  348.38    2.82
  11  24  12  387.20    2.34
  11  24  13  342.57    2.20
  11  24  14  229.88    1.73
  11  24  15  130.94    1.26
  11  24  16   54.08    0.78
  11  24  17   20.48    0.59
  11  24  18   12.25    0.54
  11  24  19   12.33    0.52
  11  24  20   22.35    0.60
  11  24  21   43.50    0.76
  11  24  22   63.23    0.93
  11  24  23   81.15    1.35
  11  24  24   84.65    2.11
  11  25  11  323.78    3.00
  11  25  12  343.22    2.28
  11  25  13  306.44    2.16
  11  25  14  215.38    1.69
  11  25  15  120.40    1.26
  11  25  16   57.41    0.87
  11  25  17   27.72    0.65
  11  25  18   14.31    0.53
  11  25  19   14.73    0.53
  11  25  20   21.26    0.58
  11  25  21   34.14    0.73
  11  25  22   48.80    1.05
  11  25  23   64.59    1.77
  11  26  11  206.69    2.40
  11  26  12  235.43    1.82
  11  26  13  209.47    1.70
  11  26  14  142.93    1.70
  11  26  15   80.10    1.04
  11  26  16   36.15    0.71
  11  26  17   14.01    0.54
  11  26  18    5.84    0.46
  11  26  19    6.86    0.48
  11  26  20   10.98    0.52
  11  26  21   24.16    0.67
  11  26  22   35.23    1.26
  11  27  11  104.86    1.73
  11  27  12  129.92    1.51
  11  27  13  105.48    1.64
  11  27  14   66.72    1.02
  11  27  15   33.49    0.69
  11  27  16    9.56    0.51
  11  27  17    1.85    0.43
  11  27  18    0.19    0.42
  11  27  19    0.31    0.47
  11  27  20    2.39    0.55
  11  27  21   10.64    0.90
  11  28  11   39.76    1.13
  11  28  12   49.54    1.00
  11  28  13   35.62    0.75
  11  28  14   20.16    0.60
  11  28  15    4.47    0.48
  11  28  16    0.27    0.42
  11  28  17    0.14    0.40
  11  28  18    1.52    0.48
  11  28  19    1.29    0.57
  11  28  20    0.03    1.32
  11  29  11   11.28    0.77
  11  29  12   14.13    0.53
  11  29  13    8.17    0.49
  11  29  14    1.45    0.43
  11  29  15    0.07    0.41
  11  29  16    2.75    0.45
  11  29  17    9.87    0.53
  11  29  18    7.63    0.76
  11  30  11    2.08    0.56
  11  30  12    2.34    0.41
  11  30  13    0.40    0.38
  11  30  14    0.07    0.39
  11  30  15    1.22    0.44
  11  30  16    7.90    0.64
  11  30  17   13.39    1.90
  11  31  11    0.09    0.55
  11  31  12    0.23    0.40
  11  31  13    0.24    0.47
  11  31  14    0.04    0.55
  11  31  15    2.50    2.15
  11  32  11    2.49    0.62
  11  32  12    4.26    0.63
  11  32  13    3.69    2.18
  12  12  12  503.62    4.90
  12  13  12  413.55    2.34
  12  13  13  299.13    1.91
  12  14  12  249.97    1.72
  12  14  13  191.32    1.10
  12  14  14  117.50    1.29
  12  15  12  124.84    1.25
  12  15  13  118.16    0.89
  12  15  14   64.49    0.70
  12  15  15   32.00    0.75
  12  16  12   79.79    1.03
  12  16  13   46.23    0.61
  12  16  14   28.29    0.50
  12  16  15   13.82    0.43
  12  16  16    0.12    0.48
  12  17  12   35.65    0.82
  12  17  13   17.90    0.47
  12  17  14    9.41    0.42
  12  17  15    0.21    0.36
  12  17  16    3.79    0.39
  12  17  17   17.13    0.74
  12  18  12   42.10    0.84
  12  18  13   23.22    0.52
  12  18  14    5.16    0.40
  12  18  15    0.55    0.39
  12  18  16   14.27    0.50
  12  18  17   31.14    0.64
  12  18  18   33.27    0.98
  12  19  12   63.45    1.09
  12  19  13   36.13    0.61
  12  19  14    7.10    0.43
  12  19  15    0.49    0.42
  12  19  16   14.82    0.54
  12  19  17   30.36    0.61
  12  19  18   35.12    0.69
  12  19  19   34.80    0.85
  12  20  12   97.09    1.31
  12  20  13   59.89    0.72
  12  20  14   21.71    0.52
  12  20  15    0.98    0.40
  12  20  16    3.43    0.45
  12  20  17   21.04    0.58
  12  20  18   24.68    0.57
  12  20  19   18.29    0.51
  12  20  20    5.69    0.64
  12  21  12  140.52    1.80
  12  21  13  119.44    1.04
  12  21  14   55.40    0.75
  12  21  15   18.41    0.52
  12  21  16    0.25    0.43
  12  21  17    4.30    0.46
  12  21  18    7.49    0.46
  12  21  19    3.64    0.45
  12  21  20    0.21    0.42
  12  21  21    7.32    0.69
  12  22  12  251.51    2.22
  12  22  13  208.02    1.41
  12  22  14  140.26    1.27
  12  22  15   57.95    0.82
  12  22  16   12.94    0.56
  12  22  17    0.79    0.44
  12  22  18    0.01    0.41
  12  22  19    0.38    0.43
  12  22  20    8.01    0.50
  12  22  21   27.45    0.62
  12  22  22   56.16    1.26
  12  23  12  367.77    3.07
  12  23  13  319.89    2.11
  12  23  14  216.44    1.59
  12  23  15  123.01    1.21
  12  23  16   49.76    0.74
  12  23  17   17.54    0.54
  12  23  18    8.92    0.48
  12  23  19   12.10    0.50
  12  23  20   26.59    0.59
  12  23  21   54.91    0.79
  12  23  22   80.70    1.51
  12  23  23   94.82    2.37
  12  24  12  443.15    3.67
  12  24  13  371.51    2.33
  12  24  14  274.99    1.88
  12  24  15  164.50    1.49
  12  24  16   79.83    1.10
  12  24  17   38.68    0.69
  12  24  18   21.78    0.58
  12  24  19   22.50    0.57
  12  24  20   36.93    0.67
  12  24  21   57.93    1.00
  12  24  22   84.78    1.43
  12  24  23  103.42    1.47
  12  24  24  101.72    4.62
  12  25  12  380.40    3.38
  12  25  13  331.31    2.29
  12  25  14  250.27    1.97
  12  25  15  148.07    1.48
  12  25  16   79.41    1.07
  12  25  17   39.81    0.74
  12  25  18   23.17    0.60
  12  25  19   24.48    0.60
  12  25  20   33.41    0.69
  12  25  21   48.58    0.83
  12  25  22   72.69    1.81
  12  25  23   88.19    2.62
  12  26  12  256.03    2.80
  12  26  13  227.23    1.82
  12  26  14  163.43    1.62
  12  26  15   92.96    1.46
  12  26  16   51.62    0.82
  12  26  17   21.44    0.65
  12  26  18   12.36    0.52
  12  26  19   12.41    0.53
  12  26  20   16.56    0.62
  12  26  21   28.56    0.83
  12  26  22   44.99    2.54
  12  27  12  137.24    3.06
  12  27  13  116.67    1.78
  12  27  14   74.61    1.26
  12  27  15   37.04    0.79
  12  27  16   14.78    0.55
  12  27  17    4.20    0.46
  12  27  18    1.55    0.43
  12  27  19    0.95    0.51
  12  27  20    4.07    0.62
  12  28  12   49.21    1.54
  12  28  13   42.59    0.87
  12  28  14   20.87    0.66
  12  28  15    4.84    0.48
  12  28  16    0.38    0.41
  12  28  17    0.18    0.41
  12  28  18    0.86    0.51
  12  28  19    1.60    0.74
  12  29  12   11.93    0.72
  12  29  13    8.70    0.48
  12  29  14    1.21    0.43
  12  29  15    0.28    0.41
  12  29  16    2.06    0.45
  12  29  17    7.94    0.61
  12  29  18    5.52    1.82
  12  30  12    1.80    0.59
  12  30  13    0.27    0.41
  12  30  14    0.06    0.43
  12  30  15    0.96    0.52
  12  30  16    7.19    1.19
  12  31  12    0.81    0.62
  12  31  13    0.45    0.49
  12  31  14    0.02    0.97
  13  13  13  161.60    2.83
  13  14  13  149.39    1.44
  13  14  14  128.81    1.38
  13  15  13  105.23    1.24
  13  15  14   73.03    0.75
  13  15  15   33.00    0.78
  13  16  13   34.13    0.76
  13  16  14   25.55    0.51
  13  16  15   10.92    0.42
  13  16  16    0.73    0.50
  13  17  13   20.00    0.64
  13  17  14    9.22    0.42
  13  17  15    0.31    0.36
  13  17  16    2.57    0.40
  13  17  17   18.06    0.74
  13  18  13   17.14    0.69
  13  18  14    2.83    0.39
  13  18  15    0.59    0.40
  13  18  16   13.51    0.51
  13  18  17   32.40    0.64
  13  18  18   44.06    1.00
  13  19  13   20.72    0.74
  13  19  14    2.78    0.40
  13  19  15    1.86    0.42
  13  19  16   16.68    0.54
  13  19  17   33.30    0.65
  13  19  18   50.77    0.74
  13  19  19   46.52    1.03
  13  20  13   32.31    0.86
  13  20  14   10.19    0.47
  13  20  15    0.13    0.40
  13  20  16    5.36    0.46
  13  20  17   24.01    0.59
  13  20  18   35.93    0.64
  13  20  19   25.92    0.58
  13  20  20   11.20    0.74
  13  21  13   85.94    1.29
  13  21  14   45.94    0.68
  13  21  15   12.35    0.52
  13  21  16    0.01    0.42
  13  21  17    5.00    0.47
  13  21  18   12.53    0.48
  13  21  19    5.37    0.47
  13  21  20    0.01    0.43
  13  21  21    5.87    0.66
  13  22  13  179.30    2.31
  13  22  14  130.32    1.26
  13  22  15   52.37    0.79
  13  22  16   15.00    0.55
  13  22  17    1.06    0.44
  13  22  18    0.04    0.43
  13  22  19    0.21    0.42
  13  22  20    6.02    0.47
  13  22  21   27.18    0.57
  13  22  22   52.99    1.09
  13  23  13  307.16    2.87
  13  23  14  212.79    1.58
  13  23  15  119.21    1.24
  13  23  16   54.98    0.76
  13  23  17   17.90    0.55
  13  23  18    7.40    0.49
  13  23  19    7.01    0.49
  13  23  20   21.73    0.55
  13  23  21   50.70    0.75
  13  23  22   78.81    1.27
  13  23  23  102.43    3.38
  13  24  13  341.82    3.06
  13  24  14  252.92    1.74
  13  24  15  154.15    1.46
  13  24  16   80.48    1.14
  13  24  17   41.19    0.69
  13  24  18   24.12    0.58
  13  24  19   18.86    0.56
  13  24  20   35.66    0.64
  13  24  21   55.07    1.05
  13  24  22   79.63    1.48
  13  24  23  103.68    1.95
  13  25  13  308.40    2.93
  13  25  14  221.33    2.05
  13  25  15  146.92    1.59
  13  25  16   74.97    1.13
  13  25  17   37.44    0.73
  13  25  18   24.19    0.60
  13  25  19   18.81    0.63
  13  25  20   28.57    0.66
  13  25  21   43.10    0.87
  13  25  22   66.92    1.31
  13  26  13  200.78    2.99
  13  26  14  140.88    2.02
  13  26  15   88.68    1.45
  13  26  16   43.53    0.78
  13  26  17   20.01    0.82
  13  26  18   11.21    0.51
  13  26  19   10.57    0.53
  13  26  20   14.91    0.65
  13  26  21   24.91    1.04
  13  27  13   90.24    2.87
  13  27  14   60.23    1.21
  13  27  15   32.11    0.79
  13  27  16   11.22    0.57
  13  27  17    4.24    0.45
  13  27  18    0.45    0.45
  13  27  19    0.74    0.52
  13  27  20    3.01    0.96
  13  28  13   30.38    1.16
  13  28  14   16.41    0.62
  13  28  15    2.91    0.49
  13  28  16    0.08    0.43
  13  28  17    0.43    0.44
  13  28  18    4.11    0.64
  13  28  19    2.69    3.00
  13  29  13    3.62    0.62
  13  29  14    0.57    0.46
  13  29  15    0.23    0.45
  13  29  16    3.12    0.56
  13  29  17    8.37    1.15
  13  30  13    0.00    0.67
  13  30  14    0.04    0.45
  13  30  15    3.01    0.87
  13  31  13    0.77    1.51
  14  14  14   89.74    2.40
  14  15  14   49.13    0.86
  14  15  15   26.08    0.67
  14  16  14   19.19    0.69
  14  16  15    7.21    0.41
  14  16  16    0.38    0.53
  14  17  14    5.11    0.54
  14  17  15    0.01    0.36
  14  17  16    4.21    0.43
  14  17  17   21.50    0.83
  14  18  14    0.10    0.53
  14  18  15    4.76    0.44
  14  18  16   23.26    0.57
  14  18  17   47.26    0.71
  14  18  18   71.26    1.20
  14  19  14    0.02    0.58
  14  19  15    8.82    0.48
  14  19  16   25.76    0.60
  14  19  17   48.27    0.74
  14  19  18   76.55    0.90
  14  19  19   81.82    1.24
  14  20  14    0.70    0.58
  14  20  15    2.08    0.42
  14  20  16   16.09    0.50
  14  20  17   41.68    0.67
  14  20  18   50.81    0.77
  14  20  19   47.90    0.71
  14  20  20   23.80    0.88
  14  21  14   22.79    0.87
  14  21  15    5.34    0.47
  14  21  16    1.58    0.43
  14  21  17   12.32    0.49
  14  21  18   20.53    0.55
  14  21  19   15.00    0.54
  14  21  20    3.41    0.46
  14  21  21    0.22    0.61
  14  22  14   86.90    1.58
  14  22  15   39.09    0.67
  14  22  16    6.54    0.50
  14  22  17    0.06    0.42
  14  22  18    1.12    0.43
  14  22  19    0.25    0.42
  14  22  20    1.32    0.42
  14  22  21   15.39    0.49
  14  22  22   39.68    0.92
  14  23  14  144.77    1.88
  14  23  15   85.20    0.95
  14  23  16   31.55    0.68
  14  23  17    8.11    0.49
  14  23  18    1.51    0.43
  14  23  19    3.00    0.43
  14  23  20   10.70    0.49
  14  23  21   29.81    0.62
  14  23  22   55.76    1.30
  14  23  23   70.53    2.51
  14  24  14  198.60    2.09
  14  24  15  117.07    1.36
  14  24  16   55.56    0.78
  14  24  17   24.16    0.57
  14  24  18    7.52    0.51
  14  24  19    9.00    0.51
  14  24  20   17.25    0.58
  14  24  21   35.58    0.83
  14  24  22   57.61    1.66
  14  24  23   76.17    2.48
  14  25  14  165.09    2.94
  14  25  15  103.95    1.67
  14  25  16   53.75    0.98
  14  25  17   23.52    0.62
  14  25  18   10.56    0.54
  14  25  19    9.66    0.52
  14  25  20   13.27    0.60
  14  25  21   26.69    1.04
  14  25  22   42.82    2.27
  14  26  14  106.31    2.68
  14  26  15   57.92    1.18
  14  26  16   31.61    0.64
  14  26  17   11.15    0.56
  14  26  18    3.76    0.48
  14  26  19    3.40    0.48
  14  26  20    4.90    0.59
  14  26  21   13.28    2.40
  14  27  14   38.37    1.44
  14  27  15   15.43    0.71
  14  27  16    5.76    0.47
  14  27  17    0.43    0.42
  14  27  18    0.18    0.46
  14  27  19    0.09    0.71
  14  28  14    5.58    0.71
  14  28  15    0.27    0.43
  14  28  16    0.19    0.44
  14  28  17    2.77    0.57
  14  28  18    5.36    1.23
  14  29  14    0.21    0.66
  14  29  15    1.41    0.48
  14  29  16    6.19    0.93
  14  30  14    0.61    1.10
  15  15  15   17.83    1.05
  15  16  15    1.92    0.53
  15  16  16    1.51    0.58
  15  17  15    1.47    0.57
  15  17  16   16.56    0.54
  15  17  17   42.23    1.03
  15  18  15   11.99    0.75
  15  18  16   39.74    0.69
  15  18  17   68.97    0.88
  15  18  18   99.98    1.46
  15  19  15   28.79    0.84
  15  19  16   53.46    0.74
  15  19  17   79.74    0.95
  15  19  18  111.20    1.13
  15  19  19  107.74    1.60
  15  20  15   11.56    0.67
  15  20  16   32.80    0.62
  15  20  17   64.68    0.81
  15  20  18   80.99    0.95
  15  20  19   71.62    0.94
  15  20  20   48.53    1.08
  15  21  15    0.27    0.61
  15  21  16   10.82    0.51
  15  21  17   29.73    0.62
  15  21  18   43.51    0.75
  15  21  19   30.46    0.70
  15  21  20   15.81    0.57
  15  21  21    1.95    0.65
  15  22  15    9.33    0.71
  15  22  16    0.07    0.43
  15  22  17    6.48    0.48
  15  22  18   10.15    0.52
  15  22  19    6.62    0.52
  15  22  20    1.37    0.45
  15  22  21    3.09    0.44
  15  22  22   14.38    0.75
  15  23  15   38.72    1.00
  15  23  16   11.03    0.53
  15  23  17    0.54    0.44
  15  23  18    0.23    0.42
  15  23  19    0.05    0.42
  15  23  20    1.89    0.42
  15  23  21   10.39    0.50
  15  23  22   25.71    0.69
  15  23  23   37.65    1.62
  15  24  15   58.19    1.17
  15  24  16   23.39    0.61
  15  24  17    5.70    0.47
  15  24  18    0.93    0.42
  15  24  19    0.66    0.43
  15  24  20    3.95    0.50
  15  24  21   12.55    0.63
  15  24  22   25.38    1.33
  15  25  15   63.17    1.39
  15  25  16   24.30    0.72
  15  25  17    6.29    0.50
  15  25  18    1.82    0.46
  15  25  19    0.43    0.43
  15  25  20    2.67    0.55
  15  25  21    9.81    1.00
  15  26  15   29.46    1.33
  15  26  16    9.32    0.51
  15  26  17    1.49    0.45
  15  26  18    0.07    0.43
  15  26  19    0.10    0.51
  15  26  20    0.08    1.19
  15  27  15    6.65    0.68
  15  27  16    0.53    0.43
  15  27  17    0.27    0.45
  15  27  18    1.67    0.63
  15  28  15    0.28    0.64
  15  28  16    3.72    0.52
  15  28  17    7.58    0.90
  15  29  15    3.81    1.42
  16  16  16    8.91    1.23
  16  17  16   39.76    0.99
  16  17  17   81.51    1.32
  16  18  16   69.26    1.24
  16  18  17  107.51    1.12
  16  18  18  138.95    1.80
  16  19  16   80.09    1.29
  16  19  17  111.19    1.18
  16  19  18  142.45    1.37
  16  19  19  144.79    2.07
  16  20  16   66.48    1.10
  16  20  17   98.95    1.04
  16  20  18  112.07    1.35
  16  20  19  103.03    1.28
  16  20  20   67.00    1.88
  16  21  16   35.58    0.96
  16  21  17   56.44    0.85
  16  21  18   70.06    0.97
  16  21  19   58.00    0.91
  16  21  20   31.78    0.87
  16  21  21   10.17    0.94
  16  22  16    6.74    0.73
  16  22  17   22.07    0.61
  16  22  18   27.38    0.74
  16  22  19   24.27    0.68
  16  22  20   10.75    0.54
  16  22  21    0.58    0.44
  16  22  22    1.26    0.59
  16  23  16    0.09    0.64
  16  23  17    3.12    0.46
  16  23  18    7.42    0.50
  16  23  19    5.84    0.46
  16  23  20    1.19    0.43
  16  23  21    0.39    0.43
  16  23  22    6.86    0.62
  16  24  16    4.85    0.67
  16  24  17    0.04    0.41
  16  24  18    0.65    0.44
  16  24  19    0.52    0.42
  16  24  20    0.09    0.43
  16  24  21    1.60    0.64
  16  25  16    4.46    0.62
  16  25  17    0.09    0.41
  16  25  18    0.27    0.44
  16  25  19    0.77    0.47
  16  25  20    0.31    0.65
  16  26  16    1.09    0.61
  16  26  17    0.30    0.44
  16  26  18    0.97    0.54
  16  26  19    1.79    0.83
  16  27  16    0.77    0.70
  16  27  17    6.06    0.57
  16  27  18    8.69    1.72
  16  28  16    8.61    1.32
  17  17  17  130.53    3.10
  17  18  17  147.90    1.89
  17  18  18  170.08    2.75
  17  19  17  149.72    2.02
  17  19  18  166.47    1.55
  17  19  19  171.71    2.43
  17  20  17  135.66    2.15
  17  20  18  138.96    1.58
  17  20  19  128.90    1.70
  17  20  20   89.40    2.13
  17  21  17   82.14    1.81
  17  21  18   91.94    1.70
  17  21  19   80.02    1.55
  17  21  20   49.88    1.20
  17  21  21   22.12    1.25
  17  22  17   40.90    1.05
  17  22  18   47.32    0.82
  17  22  19   39.98    0.82
  17  22  20   20.25    0.68
  17  22  21    6.22    0.45
  17  22  22    0.41    0.67
  17  23  17   11.48    0.72
  17  23  18   19.97    0.59
  17  23  19   15.86    0.54
  17  23  20    6.15    0.45
  17  23  21    1.04    0.47
  17  23  22    0.91    1.25
  17  24  17    2.54    0.62
  17  24  18    7.34    0.47
  17  24  19    5.88    0.48
  17  24  20    2.15    0.53
  17  24  21    0.01    1.23
  17  25  17    0.15    0.62
  17  25  18    2.65    0.49
  17  25  19    4.48    0.58
  17  26  17    2.20    0.72
  17  26  18    5.58    0.78
  17  27  17   13.47    2.12
  18  18  18  211.53    4.31
  18  19  18  186.03    2.66
  18  19  19  168.26    2.72
  18  20  18  154.26    2.47
  18  20  19  131.33    1.65
  18  20  20   98.81    2.16
  18  21  18  100.70    2.64
  18  21  19   84.98    1.52
  18  21  20   56.28    1.19
  18  21  21   22.15    1.11
  18  22  18   51.04    1.42
  18  22  19   44.42    0.96
  18  22  20   23.25    0.67
  18  22  21    7.28    0.48
  18  22  22    0.70    1.53
  18  23  18   21.57    0.84
  18  23  19   18.21    0.58
  18  23  20    6.88    0.52
  18  23  21    0.89    0.95
  18  24  18    9.90    0.66
  18  24  19    8.25    0.56
  18  24  20    2.84    1.20
  18  25  18    8.83    0.91
  18  25  19    8.78    1.44
  19  19  19  154.19    3.88
  19  20  19  108.88    2.15
  19  20  20   73.43    2.25
  19  21  19   66.98    1.74
  19  21  20   40.96    0.94
  19  21  21   12.70    1.06
  19  22  19   29.26    1.13
  19  22  20   14.40    0.53
  19  22  21    2.36    0.69
  19  23  19   10.34    0.78
  19  23  20    4.83    1.02
  19  24  19    3.55    1.41
  20  20  20   36.62    3.19
  20  21  20   16.01    0.89
  20  21  21    2.86    0.89
  20  22  20    2.58    0.90
   0   0   0    0.00    0.00
;
_shelx_hkl_checksum              14870
_olex2_computing_structure_refinement_long 'ShelXL (Sheldrick, 2008)'
loop_
_space_group_symop_operation_xyz
'x, y, z'
'-x, -y, z'
'-x, y, -z'
'x, -y, -z'
'z, x, y'
'z, -x, -y'
'-z, -x, y'
'-z, x, -y'
'y, z, x'
'-y, z, -x'
'y, -z, -x'
'-y, -z, x'
'y, x, -z'
'-y, -x, -z'
'y, -x, z'
'-y, x, z'
'x, z, -y'
'-x, z, y'
'-x, -z, -y'
'x, -z, y'
'z, y, -x'
'z, -y, x'
'-z, y, x'
'-z, -y, -x'
'-x, -y, -z'
'x, y, -z'
'x, -y, z'
'-x, y, z'
'-z, -x, -y'
'-z, x, y'
'z, x, -y'
'z, -x, y'
'-y, -z, -x'
'y, -z, x'
'-y, z, x'
'y, z, -x'
'-y, -x, z'
'y, x, z'
'-y, x, -z'
'y, -x, -z'
'-x, -z, y'
'x, -z, -y'
'x, z, y'
'-x, z, -y'
'-z, -y, x'
'-z, y, -x'
'z, -y, -x'
'z, y, x'
loop_
_atom_site_label
_atom_site_type_symbol
_atom_site_fract_x
_atom_site_fract_y
_atom_site_fract_z
_atom_site_U_iso_or_equiv
_atom_site_adp_type
_atom_site_occupancy
_atom_site_site_symmetry_order
_atom_site_calc_flag
_atom_site_refinement_flags_posn
_atom_site_refinement_flags_adp
_atom_site_refinement_flags_occupancy
_atom_site_disorder_assembly
_atom_site_disorder_group
Zr1 Zr 1.0000 0.91790(2) 1.0000 0.0350(2) Uani 1 8 d S T P . .
O1 O 1.0000 0.88142(7) 0.93536(8) 0.0632(6) Uani 1 2 d S T P . .
O2 O 1.04093(10) 0.95907(10) 1.04093(10) 0.0751(15) Uani 1 6 d S T P . .
C1 C 1.0477(4) 0.5391(7) 0.5915(6) 0.1074(17) Uani 0.0625 1 d . . . A -1
C2 C 1.0555(5) 0.4991(9) 0.6146(5) 0.1074(17) Uani 0.0625 1 d . . . A -1
H2 H 1.0634 0.4997 0.6448 0.129 Uiso 0.0625 1 calc R . . A -1
C3 C 1.0514(5) 0.4582(7) 0.5922(6) 0.1074(17) Uani 0.0625 1 d . . . A -1
C4 C 1.0396(4) 0.4572(6) 0.5467(5) 0.1074(17) Uani 0.0625 1 d . . . A -1
C5 C 1.0353(6) 0.4166(6) 0.5238(7) 0.1074(17) Uani 0.0625 1 d . . . A -1
H5 H 1.0405 0.3897 0.5389 0.129 Uiso 0.0625 1 calc R . . A -1
C6 C 1.0233(6) 0.4158(6) 0.4791(7) 0.1074(17) Uani 0.0625 1 d . . . A -1
H6 H 1.0205 0.3884 0.4643 0.129 Uiso 0.0625 1 calc R . . A -1
C7 C 1.0154(5) 0.4557(6) 0.4557(4) 0.1074(17) Uani 0.0625 1 d S T P A -1
C8 C 1.0035(6) 0.4546(5) 0.4104(5) 0.1074(17) Uani 0.0625 1 d . . . A -1
C9 C 0.9954(6) 0.4938(6) 0.3868(5) 0.1074(17) Uani 0.0625 1 d . . . A -1
H9 H 0.9873 0.4923 0.3567 0.129 Uiso 0.0625 1 calc R . . A -1
C10 C 0.9991(5) 0.5352(5) 0.4077(5) 0.1074(17) Uani 0.0625 1 d . . . A -1
C11 C 1.0113(4) 0.5370(5) 0.4539(4) 0.1074(17) Uani 0.0625 1 d . . . A -1
C12 C 1.0157(5) 0.5777(5) 0.4773(7) 0.1074(17) Uani 0.0625 1 d . . . A -1
H12 H 1.0105 0.6045 0.4623 0.129 Uiso 0.0625 1 calc R . . A -1
C13 C 1.0276(4) 0.5788(6) 0.5223(7) 0.1074(17) Uani 0.0625 1 d . . . A -1
H13 H 1.0303 0.6062 0.5369 0.129 Uiso 0.0625 1 calc R . . A -1
C14 C 1.0356(3) 0.5389(6) 0.5458(5) 0.1074(17) Uani 0.0625 1 d . . . A -1
C15 C 1.0316(2) 0.4977(6) 0.5237(4) 0.1074(17) Uani 0.0625 1 d . . . A -1
C16 C 1.0193(3) 0.4969(5) 0.4775(4) 0.1074(17) Uani 0.0625 1 d . . . A -1
C101 C 1.0000 0.89552(11) 0.89552(11) 0.1074(17) Uani 1 4 d DS T P . .
C102 C 1.0109(15) 0.8571(5) 0.8649(6) 0.1074(17) Uani 0.0625 1 d . . . A -1
C103 C 1.012(2) 0.8132(5) 0.8804(8) 0.1074(17) Uani 0.0625 1 d . . . A -1
H103 H 1.0039 0.8068 0.9098 0.129 Uiso 0.0625 1 calc R . . A -1
C104 C 1.027(2) 0.7789(6) 0.8520(8) 0.1074(17) Uani 0.0625 1 d . . . A -1
H104 H 1.0295 0.7498 0.8630 0.129 Uiso 0.0625 1 calc R . . A -1
C105 C 1.0364(8) 0.7879(6) 0.8076(6) 0.1074(17) Uani 0.0625 1 d . . . A -1
C106 C 1.036(2) 0.8322(6) 0.7923(8) 0.1074(17) Uani 0.0625 1 d . . . A -1
H106 H 1.0435 0.8386 0.7627 0.129 Uiso 0.0625 1 calc R . . A -1
C107 C 1.024(2) 0.8667(6) 0.8209(7) 0.1074(17) Uani 0.0625 1 d . . . A -1
H107 H 1.0241 0.8963 0.8109 0.129 Uiso 0.0625 1 calc R . . A -1
C108 C 1.0494(10) 0.7506(7) 0.7757(8) 0.1074(17) Uani 0.0625 1 d . . . A -1
C109 C 1.0824(11) 0.7596(7) 0.7436(9) 0.1074(17) Uani 0.0625 1 d . . . A -1
H109 H 1.0972 0.7871 0.7438 0.129 Uiso 0.0625 1 calc R . . A -1
C110 C 1.0929(10) 0.7278(8) 0.7115(9) 0.1074(17) Uani 0.0625 1 d . . . A -1
H110 H 1.1183 0.7311 0.6938 0.129 Uiso 0.0625 1 calc R . . A -1
C111 C 1.0650(10) 0.6905(8) 0.7060(9) 0.1074(17) Uani 0.0625 1 d . . . A -1
C112 C 1.0294(9) 0.6831(6) 0.7352(8) 0.1074(17) Uani 0.0625 1 d . . . A -1
C113 C 1.0206(11) 0.7142(9) 0.7688(9) 0.1074(17) Uani 0.0625 1 d . . . A -1
H113 H 0.9953 0.7109 0.7867 0.129 Uiso 0.0625 1 calc R . . A -1
C114 C 1.0664(7) 0.6536(5) 0.6748(5) 0.1074(17) Uani 0.0625 1 d . . . A -1
C115 C 1.0941(8) 0.6448(7) 0.6386(8) 0.1074(17) Uani 0.0625 1 d . . . A -1
H115 H 1.1168 0.6648 0.6311 0.129 Uiso 0.0625 1 calc R . . A -1
C116 C 1.0880(8) 0.6058(8) 0.6133(7) 0.1074(17) Uani 0.0625 1 d . . . A -1
H116 H 1.1059 0.6003 0.5884 0.129 Uiso 0.0625 1 calc R . . A -1
C117 C 1.0551(7) 0.5752(8) 0.6255(9) 0.1074(17) Uani 0.0625 1 d . . . A -1
C118 C 1.0291(11) 0.5828(7) 0.6636(9) 0.1074(17) Uani 0.0625 1 d . . . A -1
H118 H 1.0104 0.5605 0.6747 0.129 Uiso 0.0625 1 calc R . . A -1
C119 C 1.0315(9) 0.6245(7) 0.6849(7) 0.1074(17) Uani 0.0625 1 d . . . A -1
C120 C 1.0116(7) 0.6385(6) 0.7269(6) 0.1074(17) Uani 0.0625 1 d . . . A -1
C121 C 1.0190(10) 0.6068(8) 0.7641(8) 0.1074(17) Uani 0.0625 1 d D . . A -1
H12A H 1.0197 0.5767 0.7526 0.161 Uiso 0.0625 1 calc R . . A -1
H12B H 0.9950 0.6095 0.7854 0.161 Uiso 0.0625 1 calc R . . A -1
H12C H 1.0470 0.6135 0.7785 0.161 Uiso 0.0625 1 calc R . . A -1
C122 C 0.9631(7) 0.6342(9) 0.7288(9) 0.1074(17) Uani 0.0625 1 d D . . A -1
H12D H 0.9496 0.6629 0.7232 0.161 Uiso 0.0625 1 calc R . . A -1
H12E H 0.9544 0.6237 0.7579 0.161 Uiso 0.0625 1 calc R . . A -1
H12F H 0.9533 0.6132 0.7064 0.161 Uiso 0.0625 1 calc R . . A -1
C202 C 0.9998(14) 0.1339(5) 0.8539(5) 0.1074(17) Uani 0.0625 1 d D . . A -1
C203 C 0.9880(16) 0.1787(6) 0.8603(8) 0.1074(17) Uani 0.0625 1 d . . . A -1
H203 H 0.9694 0.1867 0.8841 0.129 Uiso 0.0625 1 calc R . . A -1
C204 C 1.0037(17) 0.2114(5) 0.8312(8) 0.1074(17) Uani 0.0625 1 d . . . A -1
H204 H 0.9982 0.2416 0.8372 0.129 Uiso 0.0625 1 calc R . . A -1
C205 C 1.0279(10) 0.1990(6) 0.7931(7) 0.1074(17) Uani 0.0625 1 d . . . A -1
C206 C 1.0391(15) 0.1544(7) 0.7862(8) 0.1074(17) Uani 0.0625 1 d . . . A -1
H206 H 1.0560 0.1462 0.7613 0.129 Uiso 0.0625 1 calc R . . A -1
C207 C 1.0248(18) 0.1218(6) 0.8166(8) 0.1074(17) Uani 0.0625 1 d . . . A -1
H207 H 1.0322 0.0919 0.8119 0.129 Uiso 0.0625 1 calc R . . A -1
C208 C 1.0425(11) 0.2351(8) 0.7604(10) 0.1074(17) Uani 0.0625 1 d . . . A -1
C209 C 1.0756(13) 0.2258(7) 0.7286(10) 0.1074(17) Uani 0.0625 1 d . . . A -1
H209 H 1.0903 0.1982 0.7290 0.129 Uiso 0.0625 1 calc R . . A -1
C210 C 1.0863(11) 0.2575(8) 0.6964(10) 0.1074(17) Uani 0.0625 1 d . . . A -1
H210 H 1.1094 0.2520 0.6760 0.129 Uiso 0.0625 1 calc R . . A -1
C211 C 1.0626(10) 0.2977(8) 0.6945(9) 0.1074(17) Uani 0.0625 1 d . . . A -1
C212 C 1.0263(9) 0.3050(6) 0.7227(8) 0.1074(17) Uani 0.0625 1 d . . . A -1
C213 C 1.0160(11) 0.2734(8) 0.7553(9) 0.1074(17) Uani 0.0625 1 d . . . A -1
H213 H 0.9913 0.2777 0.7739 0.129 Uiso 0.0625 1 calc R . . A -1
C214 C 1.0628(11) 0.3324(7) 0.6610(9) 0.1074(17) Uani 0.0625 1 d . . . A -1
C215 C 1.0931(10) 0.3409(7) 0.6266(9) 0.1074(17) Uani 0.0625 1 d . . . A -1
H215 H 1.1148 0.3196 0.6194 0.129 Uiso 0.0625 1 calc R . . A -1
C216 C 1.0909(8) 0.3811(7) 0.6028(7) 0.1074(17) Uani 0.0625 1 d . . . A -1
H216 H 1.1105 0.3863 0.5791 0.129 Uiso 0.0625 1 calc R . . A -1
C217 C 1.0593(6) 0.4134(5) 0.6146(5) 0.1074(17) Uani 0.0625 1 d . . . A -1
C218 C 1.0301(10) 0.4055(7) 0.6502(9) 0.1074(17) Uani 0.0625 1 d . . . A -1
H218 H 1.0075 0.4259 0.6568 0.129 Uiso 0.0625 1 calc R . . A -1
C219 C 1.0350(10) 0.3667(6) 0.6761(7) 0.1074(17) Uani 0.0625 1 d . . . A -1
C220 C 1.0075(8) 0.3490(6) 0.7122(6) 0.1074(17) Uani 0.0625 1 d . . . A -1
C221 C 0.9595(8) 0.3484(9) 0.7019(9) 0.1074(17) Uani 0.0625 1 d D . . A -1
H22A H 0.9553 0.3480 0.6700 0.161 Uiso 0.0625 1 calc R . . A -1
H22B H 0.9456 0.3747 0.7143 0.161 Uiso 0.0625 1 calc R . . A -1
H22C H 0.9461 0.3221 0.7148 0.161 Uiso 0.0625 1 calc R . . A -1
C222 C 1.0022(12) 0.3790(7) 0.7504(6) 0.1074(17) Uani 0.0625 1 d D . . A -1
H22D H 0.9914 0.3619 0.7755 0.161 Uiso 0.0625 1 d R . . A -1
H22E H 0.9806 0.4018 0.7431 0.161 Uiso 0.0625 1 d R . . A -1
H22F H 1.0302 0.3928 0.7580 0.161 Uiso 0.0625 1 d R . . A -1
C302 C 1.005(2) 0.1399(7) 0.1398(8) 0.1074(17) Uani 0.0625 1 d DS T P A -1
C303 C 0.990(3) 0.1830(7) 0.1305(8) 0.1074(17) Uani 0.0625 1 d . . . A -1
H303 H 0.9852 0.1919 0.1010 0.129 Uiso 0.0625 1 calc R . . A -1
C304 C 0.982(2) 0.2127(7) 0.1653(8) 0.1074(17) Uani 0.0625 1 d . . . A -1
H304 H 0.9708 0.2413 0.1592 0.129 Uiso 0.0625 1 calc R . . A -1
C305 C 0.9900(15) 0.1996(7) 0.2096(7) 0.1074(17) Uani 0.0625 1 d . . . A -1
C306 C 1.008(2) 0.1578(10) 0.2184(7) 0.1074(17) Uani 0.0625 1 d . . . A -1
H306 H 1.0169 0.1503 0.2475 0.129 Uiso 0.0625 1 calc R . . A -1
C307 C 1.014(3) 0.1271(10) 0.1838(8) 0.1074(17) Uani 0.0625 1 d . . . A -1
H307 H 1.0232 0.0980 0.1901 0.129 Uiso 0.0625 1 calc R . . A -1
C308 C 0.9814(12) 0.2322(7) 0.2471(8) 0.1074(17) Uani 0.0625 1 d . . . A -1
C309 C 0.9525(13) 0.2248(9) 0.2831(10) 0.1074(17) Uani 0.0625 1 d . . . A -1
H309 H 0.9351 0.1989 0.2843 0.129 Uiso 0.0625 1 calc R . . A -1
C310 C 0.9497(12) 0.2565(9) 0.3171(9) 0.1074(17) Uani 0.0625 1 d . . . A -1
H310 H 0.9290 0.2529 0.3402 0.129 Uiso 0.0625 1 calc R . . A -1
C311 C 0.9781(11) 0.2937(7) 0.3166(7) 0.1074(17) Uani 0.0625 1 d . . . A -1
C312 C 1.0064(10) 0.3007(6) 0.2803(6) 0.1074(17) Uani 0.0625 1 d . . . A -1
C313 C 1.0107(12) 0.2684(8) 0.2476(8) 0.1074(17) Uani 0.0625 1 d . . . A -1
H313 H 1.0330 0.2708 0.2260 0.129 Uiso 0.0625 1 calc R . . A -1
C314 C 0.9808(11) 0.3316(7) 0.3451(8) 0.1074(17) Uani 0.0625 1 d . . . A -1
C315 C 0.9591(12) 0.3414(8) 0.3849(9) 0.1074(17) Uani 0.0625 1 d . . . A -1
H315 H 0.9372 0.3221 0.3960 0.129 Uiso 0.0625 1 calc R . . A -1
C316 C 0.9701(12) 0.3804(9) 0.4085(8) 0.1074(17) Uani 0.0625 1 d . . . A -1
H316 H 0.9580 0.3858 0.4368 0.129 Uiso 0.0625 1 calc R . . A -1
C317 C 0.9995(7) 0.4109(5) 0.3889(6) 0.1074(17) Uani 0.0625 1 d . . . A -1
C318 C 1.0210(8) 0.4012(6) 0.3493(7) 0.1074(17) Uani 0.0625 1 d . . . A -1
H318 H 1.0419 0.4212 0.3376 0.129 Uiso 0.0625 1 calc R . . A -1
C319 C 1.0115(7) 0.3618(5) 0.3270(5) 0.1074(17) Uani 0.0625 1 d . . . A -1
C320 C 1.0321(8) 0.3411(6) 0.2880(6) 0.1074(17) Uani 0.0625 1 d . . . A -1
C321 C 1.0805(8) 0.3340(9) 0.2925(9) 0.1074(17) Uani 0.0625 1 d D . . A -1
H32A H 1.0870 0.3026 0.2897 0.161 Uiso 0.0625 1 calc R . . A -1
H32B H 1.0902 0.3445 0.3214 0.161 Uiso 0.0625 1 calc R . . A -1
H32C H 1.0960 0.3503 0.2695 0.161 Uiso 0.0625 1 calc R . . A -1
C322 C 1.0370(11) 0.3704(7) 0.2489(7) 0.1074(17) Uani 0.0625 1 d D . . A -1
H32D H 1.0371 0.4012 0.2585 0.161 Uiso 0.0625 1 calc R . . A -1
H32E H 1.0125 0.3655 0.2286 0.161 Uiso 0.0625 1 calc R . . A -1
H32F H 1.0648 0.3638 0.2340 0.161 Uiso 0.0625 1 calc R . . A -1
C402 C 0.991(2) 0.8583(5) 0.1368(7) 0.1074(17) Uani 0.0625 1 d D . . A -1
C403 C 0.991(3) 0.8137(5) 0.1232(7) 0.1074(17) Uani 0.0625 1 d . . . A -1
H403 H 0.9952 0.8066 0.0930 0.129 Uiso 0.0625 1 calc R . . A -1
C404 C 0.986(3) 0.7798(5) 0.1549(8) 0.1074(17) Uani 0.0625 1 d . . . A -1
H404 H 0.9878 0.7499 0.1461 0.129 Uiso 0.0625 1 calc R . . A -1
C405 C 0.9781(11) 0.7905(6) 0.1993(6) 0.1074(17) Uani 0.0625 1 d . . . A -1
C406 C 0.972(3) 0.8354(6) 0.2119(9) 0.1074(17) Uani 0.0625 1 d . . . A -1
H406 H 0.9624 0.8425 0.2406 0.129 Uiso 0.0625 1 calc R . . A -1
C407 C 0.982(3) 0.8691(5) 0.1813(9) 0.1074(17) Uani 0.0625 1 d . . . A -1
H407 H 0.9819 0.8989 0.1905 0.129 Uiso 0.0625 1 calc R . . A -1
C408 C 0.9761(10) 0.7547(6) 0.2348(6) 0.1074(17) Uani 0.0625 1 d . . . A -1
C409 C 0.9443(10) 0.7603(6) 0.2683(8) 0.1074(17) Uani 0.0625 1 d . . . A -1
H409 H 0.9256 0.7853 0.2681 0.129 Uiso 0.0625 1 calc R . . A -1
C410 C 0.9404(8) 0.7286(7) 0.3021(7) 0.1074(17) Uani 0.0625 1 d . . . A -1
H410 H 0.9191 0.7322 0.3246 0.129 Uiso 0.0625 1 calc R . . A -1
C411 C 0.9685(7) 0.6913(5) 0.3023(5) 0.1074(17) Uani 0.0625 1 d . . . A -1
C412 C 0.9997(8) 0.6852(5) 0.2682(5) 0.1074(17) Uani 0.0625 1 d . . . A -1
C413 C 1.0039(10) 0.7171(7) 0.2348(6) 0.1074(17) Uani 0.0625 1 d . . . A -1
H413 H 1.0252 0.7135 0.2123 0.129 Uiso 0.0625 1 calc R . . A -1
C414 C 0.9714(7) 0.6542(5) 0.3320(5) 0.1074(17) Uani 0.0625 1 d . . . A -1
C415 C 0.9472(7) 0.6445(6) 0.3701(7) 0.1074(17) Uani 0.0625 1 d . . . A -1
H415 H 0.9246 0.6639 0.3796 0.129 Uiso 0.0625 1 calc R . . A -1
C416 C 0.9564(8) 0.6058(7) 0.3945(6) 0.1074(17) Uani 0.0625 1 d . . . A -1
H416 H 0.9403 0.5995 0.4204 0.129 Uiso 0.0625 1 calc R . . A -1
C417 C 0.9900(6) 0.5765(5) 0.3800(5) 0.1074(17) Uani 0.0625 1 d . . . A -1
C418 C 1.0140(7) 0.5864(5) 0.3413(6) 0.1074(17) Uani 0.0625 1 d . . . A -1
H418 H 1.0363 0.5669 0.3315 0.129 Uiso 0.0625 1 calc R . . A -1
C419 C 1.0049(7) 0.6254(5) 0.3173(5) 0.1074(17) Uani 0.0625 1 d . . . A -1
C420 C 1.0238(7) 0.6438(6) 0.2765(6) 0.1074(17) Uani 0.0625 1 d . . . A -1
C421 C 1.0726(7) 0.6486(8) 0.2769(9) 0.1074(17) Uani 0.0625 1 d D . . A -1
H42A H 1.0831 0.6486 0.3073 0.161 Uiso 0.0625 1 calc R . . A -1
H42B H 1.0808 0.6763 0.2627 0.161 Uiso 0.0625 1 calc R . . A -1
H42C H 1.0859 0.6240 0.2609 0.161 Uiso 0.0625 1 calc R . . A -1
C422 C 1.0244(10) 0.6123(7) 0.2385(7) 0.1074(17) Uani 0.0625 1 d D . . A -1
H42D H 1.0128 0.5838 0.2480 0.161 Uiso 0.0625 1 calc R . . A -1
H42E H 1.0546 0.6087 0.2280 0.161 Uiso 0.0625 1 calc R . . A -1
H42F H 1.0060 0.6239 0.2146 0.161 Uiso 0.0625 1 calc R . . A -1
loop_
_atom_site_aniso_label
_atom_site_aniso_U_11
_atom_site_aniso_U_22
_atom_site_aniso_U_33
_atom_site_aniso_U_23
_atom_site_aniso_U_13
_atom_site_aniso_U_12
Zr1 0.0392(2) 0.0266(3) 0.0392(2) 0.000 0.000 0.000
O1 0.0797(15) 0.0523(12) 0.0576(12) -0.0181(10) 0.000 0.000
O2 0.0751(15) 0.0751(15) 0.0751(15) -0.0397(16) 0.0397(16) -0.0397(16)
C1 0.218(5) 0.047(2) 0.057(2) -0.0160(17) 0.008(3) 0.006(3)
C2 0.218(5) 0.047(2) 0.057(2) -0.0160(17) 0.008(3) 0.006(3)
C3 0.218(5) 0.047(2) 0.057(2) -0.0160(17) 0.008(3) 0.006(3)
C4 0.218(5) 0.047(2) 0.057(2) -0.0160(17) 0.008(3) 0.006(3)
C5 0.218(5) 0.047(2) 0.057(2) -0.0160(17) 0.008(3) 0.006(3)
C6 0.218(5) 0.047(2) 0.057(2) -0.0160(17) 0.008(3) 0.006(3)
C7 0.218(5) 0.047(2) 0.057(2) -0.0160(17) 0.008(3) 0.006(3)
C8 0.218(5) 0.047(2) 0.057(2) -0.0160(17) 0.008(3) 0.006(3)
C9 0.218(5) 0.047(2) 0.057(2) -0.0160(17) 0.008(3) 0.006(3)
C10 0.218(5) 0.047(2) 0.057(2) -0.0160(17) 0.008(3) 0.006(3)
C11 0.218(5) 0.047(2) 0.057(2) -0.0160(17) 0.008(3) 0.006(3)
C12 0.218(5) 0.047(2) 0.057(2) -0.0160(17) 0.008(3) 0.006(3)
C13 0.218(5) 0.047(2) 0.057(2) -0.0160(17) 0.008(3) 0.006(3)
C14 0.218(5) 0.047(2) 0.057(2) -0.0160(17) 0.008(3) 0.006(3)
C15 0.218(5) 0.047(2) 0.057(2) -0.0160(17) 0.008(3) 0.006(3)
C16 0.218(5) 0.047(2) 0.057(2) -0.0160(17) 0.008(3) 0.006(3)
C101 0.218(5) 0.047(2) 0.057(2) -0.0160(17) 0.008(3) 0.006(3)
C102 0.218(5) 0.047(2) 0.057(2) -0.0160(17) 0.008(3) 0.006(3)
C103 0.218(5) 0.047(2) 0.057(2) -0.0160(17) 0.008(3) 0.006(3)
C104 0.218(5) 0.047(2) 0.057(2) -0.0160(17) 0.008(3) 0.006(3)
C105 0.218(5) 0.047(2) 0.057(2) -0.0160(17) 0.008(3) 0.006(3)
C106 0.218(5) 0.047(2) 0.057(2) -0.0160(17) 0.008(3) 0.006(3)
C107 0.218(5) 0.047(2) 0.057(2) -0.0160(17) 0.008(3) 0.006(3)
C108 0.218(5) 0.047(2) 0.057(2) -0.0160(17) 0.008(3) 0.006(3)
C109 0.218(5) 0.047(2) 0.057(2) -0.0160(17) 0.008(3) 0.006(3)
C110 0.218(5) 0.047(2) 0.057(2) -0.0160(17) 0.008(3) 0.006(3)
C111 0.218(5) 0.047(2) 0.057(2) -0.0160(17) 0.008(3) 0.006(3)
C112 0.218(5) 0.047(2) 0.057(2) -0.0160(17) 0.008(3) 0.006(3)
C113 0.218(5) 0.047(2) 0.057(2) -0.0160(17) 0.008(3) 0.006(3)
C114 0.218(5) 0.047(2) 0.057(2) -0.0160(17) 0.008(3) 0.006(3)
C115 0.218(5) 0.047(2) 0.057(2) -0.0160(17) 0.008(3) 0.006(3)
C116 0.218(5) 0.047(2) 0.057(2) -0.0160(17) 0.008(3) 0.006(3)
C117 0.218(5) 0.047(2) 0.057(2) -0.0160(17) 0.008(3) 0.006(3)
C118 0.218(5) 0.047(2) 0.057(2) -0.0160(17) 0.008(3) 0.006(3)
C119 0.218(5) 0.047(2) 0.057(2) -0.0160(17) 0.008(3) 0.006(3)
C120 0.218(5) 0.047(2) 0.057(2) -0.0160(17) 0.008(3) 0.006(3)
C121 0.218(5) 0.047(2) 0.057(2) -0.0160(17) 0.008(3) 0.006(3)
C122 0.218(5) 0.047(2) 0.057(2) -0.0160(17) 0.008(3) 0.006(3)
C202 0.218(5) 0.047(2) 0.057(2) -0.0160(17) 0.008(3) 0.006(3)
C203 0.218(5) 0.047(2) 0.057(2) -0.0160(17) 0.008(3) 0.006(3)
C204 0.218(5) 0.047(2) 0.057(2) -0.0160(17) 0.008(3) 0.006(3)
C205 0.218(5) 0.047(2) 0.057(2) -0.0160(17) 0.008(3) 0.006(3)
C206 0.218(5) 0.047(2) 0.057(2) -0.0160(17) 0.008(3) 0.006(3)
C207 0.218(5) 0.047(2) 0.057(2) -0.0160(17) 0.008(3) 0.006(3)
C208 0.218(5) 0.047(2) 0.057(2) -0.0160(17) 0.008(3) 0.006(3)
C209 0.218(5) 0.047(2) 0.057(2) -0.0160(17) 0.008(3) 0.006(3)
C210 0.218(5) 0.047(2) 0.057(2) -0.0160(17) 0.008(3) 0.006(3)
C211 0.218(5) 0.047(2) 0.057(2) -0.0160(17) 0.008(3) 0.006(3)
C212 0.218(5) 0.047(2) 0.057(2) -0.0160(17) 0.008(3) 0.006(3)
C213 0.218(5) 0.047(2) 0.057(2) -0.0160(17) 0.008(3) 0.006(3)
C214 0.218(5) 0.047(2) 0.057(2) -0.0160(17) 0.008(3) 0.006(3)
C215 0.218(5) 0.047(2) 0.057(2) -0.0160(17) 0.008(3) 0.006(3)
C216 0.218(5) 0.047(2) 0.057(2) -0.0160(17) 0.008(3) 0.006(3)
C217 0.218(5) 0.047(2) 0.057(2) -0.0160(17) 0.008(3) 0.006(3)
C218 0.218(5) 0.047(2) 0.057(2) -0.0160(17) 0.008(3) 0.006(3)
C219 0.218(5) 0.047(2) 0.057(2) -0.0160(17) 0.008(3) 0.006(3)
C220 0.218(5) 0.047(2) 0.057(2) -0.0160(17) 0.008(3) 0.006(3)
C221 0.218(5) 0.047(2) 0.057(2) -0.0160(17) 0.008(3) 0.006(3)
C222 0.218(5) 0.047(2) 0.057(2) -0.0160(17) 0.008(3) 0.006(3)
C302 0.218(5) 0.047(2) 0.057(2) -0.0160(17) 0.008(3) 0.006(3)
C303 0.218(5) 0.047(2) 0.057(2) -0.0160(17) 0.008(3) 0.006(3)
C304 0.218(5) 0.047(2) 0.057(2) -0.0160(17) 0.008(3) 0.006(3)
C305 0.218(5) 0.047(2) 0.057(2) -0.0160(17) 0.008(3) 0.006(3)
C306 0.218(5) 0.047(2) 0.057(2) -0.0160(17) 0.008(3) 0.006(3)
C307 0.218(5) 0.047(2) 0.057(2) -0.0160(17) 0.008(3) 0.006(3)
C308 0.218(5) 0.047(2) 0.057(2) -0.0160(17) 0.008(3) 0.006(3)
C309 0.218(5) 0.047(2) 0.057(2) -0.0160(17) 0.008(3) 0.006(3)
C310 0.218(5) 0.047(2) 0.057(2) -0.0160(17) 0.008(3) 0.006(3)
C311 0.218(5) 0.047(2) 0.057(2) -0.0160(17) 0.008(3) 0.006(3)
C312 0.218(5) 0.047(2) 0.057(2) -0.0160(17) 0.008(3) 0.006(3)
C313 0.218(5) 0.047(2) 0.057(2) -0.0160(17) 0.008(3) 0.006(3)
C314 0.218(5) 0.047(2) 0.057(2) -0.0160(17) 0.008(3) 0.006(3)
C315 0.218(5) 0.047(2) 0.057(2) -0.0160(17) 0.008(3) 0.006(3)
C316 0.218(5) 0.047(2) 0.057(2) -0.0160(17) 0.008(3) 0.006(3)
C317 0.218(5) 0.047(2) 0.057(2) -0.0160(17) 0.008(3) 0.006(3)
C318 0.218(5) 0.047(2) 0.057(2) -0.0160(17) 0.008(3) 0.006(3)
C319 0.218(5) 0.047(2) 0.057(2) -0.0160(17) 0.008(3) 0.006(3)
C320 0.218(5) 0.047(2) 0.057(2) -0.0160(17) 0.008(3) 0.006(3)
C321 0.218(5) 0.047(2) 0.057(2) -0.0160(17) 0.008(3) 0.006(3)
C322 0.218(5) 0.047(2) 0.057(2) -0.0160(17) 0.008(3) 0.006(3)
C402 0.218(5) 0.047(2) 0.057(2) -0.0160(17) 0.008(3) 0.006(3)
C403 0.218(5) 0.047(2) 0.057(2) -0.0160(17) 0.008(3) 0.006(3)
C404 0.218(5) 0.047(2) 0.057(2) -0.0160(17) 0.008(3) 0.006(3)
C405 0.218(5) 0.047(2) 0.057(2) -0.0160(17) 0.008(3) 0.006(3)
C406 0.218(5) 0.047(2) 0.057(2) -0.0160(17) 0.008(3) 0.006(3)
C407 0.218(5) 0.047(2) 0.057(2) -0.0160(17) 0.008(3) 0.006(3)
C408 0.218(5) 0.047(2) 0.057(2) -0.0160(17) 0.008(3) 0.006(3)
C409 0.218(5) 0.047(2) 0.057(2) -0.0160(17) 0.008(3) 0.006(3)
C410 0.218(5) 0.047(2) 0.057(2) -0.0160(17) 0.008(3) 0.006(3)
C411 0.218(5) 0.047(2) 0.057(2) -0.0160(17) 0.008(3) 0.006(3)
C412 0.218(5) 0.047(2) 0.057(2) -0.0160(17) 0.008(3) 0.006(3)
C413 0.218(5) 0.047(2) 0.057(2) -0.0160(17) 0.008(3) 0.006(3)
C414 0.218(5) 0.047(2) 0.057(2) -0.0160(17) 0.008(3) 0.006(3)
C415 0.218(5) 0.047(2) 0.057(2) -0.0160(17) 0.008(3) 0.006(3)
C416 0.218(5) 0.047(2) 0.057(2) -0.0160(17) 0.008(3) 0.006(3)
C417 0.218(5) 0.047(2) 0.057(2) -0.0160(17) 0.008(3) 0.006(3)
C418 0.218(5) 0.047(2) 0.057(2) -0.0160(17) 0.008(3) 0.006(3)
C419 0.218(5) 0.047(2) 0.057(2) -0.0160(17) 0.008(3) 0.006(3)
C420 0.218(5) 0.047(2) 0.057(2) -0.0160(17) 0.008(3) 0.006(3)
C421 0.218(5) 0.047(2) 0.057(2) -0.0160(17) 0.008(3) 0.006(3)
C422 0.218(5) 0.047(2) 0.057(2) -0.0160(17) 0.008(3) 0.006(3)
loop_
_atom_type_symbol
_atom_type_description
_atom_type_scat_dispersion_real
_atom_type_scat_dispersion_imag
_atom_type_scat_source
C C 0.0181 0.0091 'International Tables Vol C Tables 4.2.6.8 and 6.1.1.4'
H H 0.0000 0.0000 'International Tables Vol C Tables 4.2.6.8 and 6.1.1.4'
O O 0.0492 0.0322 'International Tables Vol C Tables 4.2.6.8 and 6.1.1.4'
Zr Zr -0.1862 2.2449 'International Tables Vol C Tables 4.2.6.8 and 6.1.1.4'
loop_
_geom_angle_atom_site_label_1
_geom_angle_atom_site_label_2
_geom_angle_atom_site_label_3
_geom_angle
_geom_angle_site_symmetry_1
_geom_angle_site_symmetry_3
Zr1 Zr1 Zr1 60.0 9 5
Zr1 Zr1 Zr1 60.0 33_777 5
Zr1 Zr1 Zr1 90.0 29_777 5
Zr1 Zr1 Zr1 60.0 29_777 33_777
Zr1 Zr1 Zr1 60.0 29_777 9
Zr1 Zr1 Zr1 90.0 33_777 9
O1 Zr1 Zr1 164.44(6) 26_557 5
O1 Zr1 Zr1 74.44(6) . 5
O1 Zr1 Zr1 110.34(4) 46_757 5
O1 Zr1 Zr1 110.34(4) 21_557 5
O1 Zr1 Zr1 110.34(4) . 9
O1 Zr1 Zr1 110.34(4) 26_557 9
O1 Zr1 Zr1 164.44(6) 46_757 9
O1 Zr1 Zr1 74.44(6) 21_557 9
O1 Zr1 Zr1 164.44(6) 21_557 33_777
O1 Zr1 Zr1 110.34(4) . 33_777
O1 Zr1 Zr1 110.34(4) 26_557 33_777
O1 Zr1 Zr1 74.44(6) 46_757 33_777
O1 Zr1 Zr1 164.44(6) . 29_777
O1 Zr1 Zr1 74.44(6) 26_557 29_777
O1 Zr1 Zr1 110.34(4) 21_557 29_777
O1 Zr1 Zr1 110.34(4) 46_757 29_777
O1 Zr1 O1 76.02(5) 21_557 .
O1 Zr1 O1 76.02(5) 21_557 26_557
O1 Zr1 O1 76.02(5) 46_757 26_557
O1 Zr1 O1 76.02(5) 46_757 .
O1 Zr1 O1 121.13(12) 26_557 .
O1 Zr1 O1 121.13(12) 21_557 46_757
O2 Zr1 Zr1 35.18(6) 3_757 5
O2 Zr1 Zr1 35.18(6) 28_755 29_777
O2 Zr1 Zr1 35.18(6) 26_557 5
O2 Zr1 Zr1 35.18(6) . 29_777
O2 Zr1 Zr1 89.86(11) 26_557 29_777
O2 Zr1 Zr1 89.86(11) 3_757 29_777
O2 Zr1 Zr1 89.86(11) 28_755 5
O2 Zr1 Zr1 89.86(11) . 5
O2 Zr1 Zr1 35.18(6) 3_757 9
O2 Zr1 Zr1 89.86(11) 28_755 33_777
O2 Zr1 Zr1 35.18(6) . 33_777
O2 Zr1 Zr1 35.18(6) 26_557 33_777
O2 Zr1 Zr1 89.86(11) 3_757 33_777
O2 Zr1 Zr1 89.86(11) . 9
O2 Zr1 Zr1 89.86(11) 26_557 9
O2 Zr1 Zr1 35.18(6) 28_755 9
O2 Zr1 O1 141.88(2) 28_755 .
O2 Zr1 O1 77.47(11) 26_557 46_757
O2 Zr1 O1 77.47(11) 26_557 .
O2 Zr1 O1 77.47(11) 3_757 .
O2 Zr1 O1 77.47(11) 28_755 26_557
O2 Zr1 O1 141.88(2) 26_557 26_557
O2 Zr1 O1 77.47(11) . 26_557
O2 Zr1 O1 141.88(2) 3_757 46_757
O2 Zr1 O1 141.88(2) 26_557 21_557
O2 Zr1 O1 77.47(11) 28_755 21_557
O2 Zr1 O1 141.88(2) 28_755 46_757
O2 Zr1 O1 141.88(2) . 21_557
O2 Zr1 O1 141.88(2) . .
O2 Zr1 O1 141.88(2) 3_757 26_557
O2 Zr1 O1 77.47(11) 3_757 21_557
O2 Zr1 O1 77.47(11) . 46_757
O2 Zr1 O2 70.37(13) 26_557 3_757
O2 Zr1 O2 70.37(13) 28_755 3_757
O2 Zr1 O2 109.2(3) . 3_757
O2 Zr1 O2 109.2(3) 28_755 26_557
O2 Zr1 O2 70.37(13) . 26_557
O2 Zr1 O2 70.37(13) . 28_755
C101 O1 Zr1 131.1(2) . .
Zr1 O2 Zr1 109.63(13) . 33_777
Zr1 O2 Zr1 109.63(13) . 29_777
Zr1 O2 Zr1 109.63(13) 33_777 29_777
C2 C1 C14 120.9(9) . .
C2 C1 C117 105(2) . .
C14 C1 C117 134(2) . .
C1 C2 H2 120.2 . .
C3 C2 C1 119.6(10) . .
C3 C2 H2 120.2 . .
C2 C3 C4 120.3(10) . .
C2 C3 C217 123.1(12) . .
C4 C3 C217 116.6(9) . .
C3 C4 C15 119.7(9) . .
C5 C4 C3 120.8(12) . .
C5 C4 C15 119.5(11) . .
C4 C5 H5 119.7 . .
C6 C5 C4 120.6(11) . .
C6 C5 H5 119.7 . .
C5 C6 H6 119.7 . .
C5 C6 C7 120.7(10) . .
C7 C6 H6 119.7 . .
C8 C7 C6 120.2(13) . .
C16 C7 C6 120.1(10) . .
C16 C7 C8 119.7(10) . .
C7 C8 C317 118.0(14) . .
C9 C8 C7 120.9(10) . .
C9 C8 C317 121.1(14) . .
C8 C9 H9 119.7 . .
C8 C9 C10 120.7(9) . .
C10 C9 H9 119.7 . .
C9 C10 C11 119.1(9) . .
C9 C10 C417 117.8(11) . .
C11 C10 C417 123.0(10) . .
C12 C11 C10 122.4(12) . .
C12 C11 C16 118.0(11) . .
C16 C11 C10 119.6(9) . .
C11 C12 H12 119.2 . .
C13 C12 C11 121.6(10) . .
C13 C12 H12 119.2 . .
C12 C13 H13 119.8 . .
C12 C13 C14 120.4(10) . .
C14 C13 H13 119.8 . .
C13 C14 C1 121.4(13) . .
C15 C14 C1 118.8(10) . .
C15 C14 C13 119.8(10) . .
C4 C15 C16 120.0(10) . .
C14 C15 C4 120.6(10) . .
C14 C15 C16 119.4(9) . .
C7 C16 C11 120.0(10) . .
C7 C16 C15 119.1(9) . .
C11 C16 C15 120.9(10) . .
O1 C101 O1 129.0(4) . 18_755
O1 C101 C102 108.6(8) . .
O1 C101 C102 121.1(8) 18_755 .
C103 C102 C101 121.5(10) . .
C103 C102 C107 120.0(7) . .
C107 C102 C101 118.3(10) . .
C102 C103 H103 120.1 . .
C102 C103 C104 119.9(8) . .
C104 C103 H103 120.1 . .
C103 C104 H104 119.9 . .
C105 C104 C103 120.3(8) . .
C105 C104 H104 119.9 . .
C104 C105 C106 119.5(7) . .
C104 C105 C108 121.0(10) . .
C106 C105 C108 119.5(10) . .
C105 C106 H106 119.9 . .
C107 C106 C105 120.3(8) . .
C107 C106 H106 119.9 . .
C102 C107 H107 120.1 . .
C106 C107 C102 119.9(7) . .
C106 C107 H107 120.1 . .
C109 C108 C105 117.9(12) . .
C109 C108 C113 118.8(8) . .
C113 C108 C105 120.3(11) . .
C108 C109 H109 120.0 . .
C110 C109 C108 120.0(8) . .
C110 C109 H109 120.0 . .
C109 C110 H110 120.2 . .
C109 C110 C111 119.5(8) . .
C111 C110 H110 120.2 . .
C110 C111 C114 131.8(10) . .
C112 C111 C110 120.3(7) . .
C112 C111 C114 107.9(7) . .
C111 C112 C120 108.4(8) . .
C113 C112 C111 119.4(7) . .
C113 C112 C120 131.6(11) . .
C108 C113 H113 119.8 . .
C112 C113 C108 120.5(8) . .
C112 C113 H113 119.8 . .
C115 C114 C111 131.8(10) . .
C115 C114 C119 119.7(7) . .
C119 C114 C111 108.5(7) . .
C114 C115 H115 120.0 . .
C114 C115 C116 120.1(8) . .
C116 C115 H115 120.0 . .
C115 C116 H116 120.1 . .
C117 C116 C115 119.9(7) . .
C117 C116 H116 120.1 . .
C116 C117 C1 113.5(14) . .
C116 C117 C118 119.9(8) . .
C118 C117 C1 126.1(10) . .
C117 C118 H118 120.4 . .
C117 C118 C119 119.2(8) . .
C119 C118 H118 120.4 . .
C114 C119 C118 119.8(8) . .
C114 C119 C120 108.3(8) . .
C118 C119 C120 128.9(12) . .
C112 C120 C121 113.8(12) . .
C119 C120 C112 105.1(7) . .
C119 C120 C121 114.0(12) . .
C119 C120 C122 114.7(12) . .
C122 C120 C112 115.9(12) . .
C122 C120 C121 93.7(8) . .
C120 C121 H12A 109.5 . .
C120 C121 H12B 109.5 . .
C120 C121 H12C 109.5 . .
H12A C121 H12B 109.5 . .
H12A C121 H12C 109.5 . .
H12B C121 H12C 109.5 . .
C120 C122 H12D 109.5 . .
C120 C122 H12E 109.5 . .
C120 C122 H12F 109.5 . .
H12D C122 H12E 109.5 . .
H12D C122 H12F 109.5 . .
H12E C122 H12F 109.5 . .
C203 C202 C101 116.2(10) . 27_565
C207 C202 C101 120.2(13) . 27_565
C207 C202 C203 119.6(7) . .
C202 C203 H203 119.9 . .
C204 C203 C202 120.2(8) . .
C204 C203 H203 119.9 . .
C203 C204 H204 120.1 . .
C203 C204 C205 119.8(7) . .
C205 C204 H204 120.1 . .
C204 C205 C208 118.9(10) . .
C206 C205 C204 119.8(7) . .
C206 C205 C208 121.3(10) . .
C205 C206 H206 120.0 . .
C205 C206 C207 120.0(8) . .
C207 C206 H206 120.0 . .
C202 C207 C206 120.3(8) . .
C202 C207 H207 119.9 . .
C206 C207 H207 119.9 . .
C209 C208 C205 119.8(13) . .
C209 C208 C213 119.2(8) . .
C213 C208 C205 119.2(12) . .
C208 C209 H209 120.1 . .
C210 C209 C208 119.9(8) . .
C210 C209 H209 120.1 . .
C209 C210 H210 120.1 . .
C209 C210 C211 119.9(8) . .
C211 C210 H210 120.1 . .
C210 C211 C214 130.2(12) . .
C212 C211 C210 120.5(8) . .
C212 C211 C214 108.0(8) . .
C211 C212 C213 119.3(7) . .
C211 C212 C220 108.1(8) . .
C213 C212 C220 132.4(10) . .
C208 C213 H213 119.8 . .
C212 C213 C208 120.4(8) . .
C212 C213 H213 119.8 . .
C215 C214 C211 130.2(13) . .
C215 C214 C219 119.5(8) . .
C219 C214 C211 107.6(9) . .
C214 C215 H215 120.0 . .
C214 C215 C216 120.0(8) . .
C216 C215 H215 120.0 . .
C215 C216 H216 120.0 . .
C217 C216 C215 119.9(8) . .
C217 C216 H216 120.0 . .
C216 C217 C3 127.2(10) . .
C216 C217 C218 119.8(7) . .
C218 C217 C3 113.0(9) . .
C217 C218 H218 120.1 . .
C217 C218 C219 119.7(8) . .
C219 C218 H218 120.1 . .
C214 C219 C218 119.5(8) . .
C214 C219 C220 108.0(8) . .
C218 C219 C220 130.6(11) . .
C212 C220 C221 114.3(12) . .
C219 C220 C212 105.5(7) . .
C219 C220 C221 113.7(12) . .
C219 C220 C222 114.6(12) . .
C222 C220 C212 115.1(12) . .
C222 C220 C221 93.8(8) . .
C220 C221 H22A 109.5 . .
C220 C221 H22B 109.5 . .
C220 C221 H22C 109.5 . .
H22A C221 H22B 109.5 . .
H22A C221 H22C 109.5 . .
H22B C221 H22C 109.5 . .
C220 C222 H22D 108.6 . .
C220 C222 H22E 109.1 . .
C220 C222 H22F 110.8 . .
H22D C222 H22E 109.0 . .
H22D C222 H22F 109.7 . .
H22E C222 H22F 109.5 . .
C303 C302 C101 118.5(13) . 4_566
C307 C302 C101 119.2(13) . 4_566
C307 C302 C303 120.1(7) . .
C302 C303 H303 120.0 . .
C304 C303 C302 120.0(8) . .
C304 C303 H303 120.0 . .
C303 C304 H304 120.0 . .
C303 C304 C305 119.9(7) . .
C305 C304 H304 120.0 . .
C304 C305 C308 119.5(10) . .
C306 C305 C304 119.8(7) . .
C306 C305 C308 120.6(10) . .
C305 C306 H306 120.0 . .
C305 C306 C307 120.0(8) . .
C307 C306 H306 120.0 . .
C302 C307 H307 120.1 . .
C306 C307 C302 119.9(8) . .
C306 C307 H307 120.1 . .
C309 C308 C305 125.2(16) . .
C313 C308 C305 113.8(16) . .
C313 C308 C309 120.1(8) . .
C308 C309 H309 120.2 . .
C310 C309 C308 119.6(8) . .
C310 C309 H309 120.2 . .
C309 C310 H310 120.1 . .
C309 C310 C311 119.7(8) . .
C311 C310 H310 120.1 . .
C310 C311 C314 131.5(11) . .
C312 C311 C310 119.8(7) . .
C312 C311 C314 108.2(7) . .
C311 C312 C320 109.0(7) . .
C313 C312 C311 120.2(7) . .
C313 C312 C320 130.2(11) . .
C308 C313 H313 120.2 . .
C312 C313 C308 119.6(8) . .
C312 C313 H313 120.2 . .
C315 C314 C311 131.0(10) . .
C315 C314 C319 120.3(7) . .
C319 C314 C311 108.7(7) . .
C314 C315 H315 120.1 . .
C314 C315 C316 119.8(8) . .
C316 C315 H315 120.1 . .
C315 C316 H316 120.7 . .
C317 C316 C315 118.7(8) . .
C317 C316 H316 120.7 . .
C316 C317 C8 116.8(11) . .
C318 C317 C8 121.9(11) . .
C318 C317 C316 121.1(8) . .
C317 C318 H318 120.0 . .
C317 C318 C319 119.9(8) . .
C319 C318 H318 120.0 . .
C314 C319 C320 108.3(7) . .
C318 C319 C314 119.8(7) . .
C318 C319 C320 131.5(10) . .
C312 C320 C319 104.9(7) . .
C312 C320 C321 114.6(12) . .
C312 C320 C322 115.2(12) . .
C319 C320 C321 113.7(12) . .
C319 C320 C322 115.2(12) . .
C322 C320 C321 93.5(8) . .
C320 C321 H32A 109.5 . .
C320 C321 H32B 109.5 . .
C320 C321 H32C 109.5 . .
H32A C321 H32B 109.5 . .
H32A C321 H32C 109.5 . .
H32B C321 H32C 109.5 . .
C320 C322 H32D 109.5 . .
C320 C322 H32E 109.5 . .
C320 C322 H32F 109.5 . .
H32D C322 H32E 109.5 . .
H32D C322 H32F 109.5 . .
H32E C322 H32F 109.5 . .
C403 C402 C101 121.3(10) . 26_556
C403 C402 C407 120.2(7) . .
C407 C402 C101 118.6(10) . 26_556
C402 C403 H403 120.2 . .
C402 C403 C404 119.7(8) . .
C404 C403 H403 120.2 . .
C403 C404 H404 119.9 . .
C405 C404 C403 120.1(7) . .
C405 C404 H404 119.9 . .
C404 C405 C406 119.8(7) . .
C404 C405 C408 121.2(10) . .
C406 C405 C408 119.0(10) . .
C405 C406 H406 120.2 . .
C407 C406 C405 119.5(8) . .
C407 C406 H406 120.2 . .
C402 C407 H407 120.1 . .
C406 C407 C402 119.9(8) . .
C406 C407 H407 120.1 . .
C409 C408 C405 116.6(14) . .
C409 C408 C413 120.2(7) . .
C413 C408 C405 123.2(14) . .
C408 C409 H409 120.1 . .
C410 C409 C408 119.8(8) . .
C410 C409 H409 120.1 . .
C409 C410 H410 120.1 . .
C409 C410 C411 119.8(8) . .
C411 C410 H410 120.1 . .
C410 C411 C414 131.4(10) . .
C412 C411 C410 120.3(7) . .
C412 C411 C414 108.3(7) . .
C411 C412 C420 108.6(7) . .
C413 C412 C411 119.7(7) . .
C413 C412 C420 131.7(10) . .
C408 C413 H413 120.0 . .
C412 C413 C408 120.1(7) . .
C412 C413 H413 120.0 . .
C415 C414 C411 130.3(10) . .
C415 C414 C419 120.6(7) . .
C419 C414 C411 109.2(7) . .
C414 C415 H415 120.0 . .
C414 C415 C416 120.0(8) . .
C416 C415 H415 120.0 . .
C415 C416 H416 120.0 . .
C415 C416 C417 120.1(8) . .
C417 C416 H416 120.0 . .
C416 C417 C10 118.2(9) . .
C418 C417 C10 122.3(9) . .
C418 C417 C416 119.5(7) . .
C417 C418 H418 119.9 . .
C417 C418 C419 120.2(7) . .
C419 C418 H418 119.9 . .
C414 C419 C418 119.6(7) . .
C414 C419 C420 108.1(7) . .
C418 C419 C420 132.2(10) . .
C412 C420 C419 105.8(7) . .
C412 C420 C421 114.3(11) . .
C412 C420 C422 114.7(11) . .
C419 C420 C421 114.7(11) . .
C419 C420 C422 114.2(11) . .
C421 C420 C422 93.3(7) . .
C420 C421 H42A 109.5 . .
C420 C421 H42B 109.5 . .
C420 C421 H42C 109.5 . .
H42A C421 H42B 109.5 . .
H42A C421 H42C 109.5 . .
H42B C421 H42C 109.5 . .
C420 C422 H42D 109.5 . .
C420 C422 H42E 109.5 . .
C420 C422 H42F 109.5 . .
H42D C422 H42E 109.5 . .
H42D C422 H42F 109.5 . .
H42E C422 H42F 109.5 . .
loop_
_geom_bond_atom_site_label_1
_geom_bond_atom_site_label_2
_geom_bond_distance
_geom_bond_site_symmetry_2
Zr1 Zr1 3.4958(5) 9
Zr1 Zr1 3.4958(5) 5
Zr1 Zr1 3.4958(5) 29_777
Zr1 Zr1 3.4958(5) 33_777
Zr1 O1 2.235(2) 21_557
Zr1 O1 2.235(2) 46_757
Zr1 O1 2.235(2) 26_557
Zr1 O1 2.235(2) .
Zr1 O2 2.1386(17) 26_557
Zr1 O2 2.1386(17) 3_757
Zr1 O2 2.1386(17) .
Zr1 O2 2.1386(17) 28_755
O1 C101 1.272(3) .
O2 Zr1 2.1386(17) 33_777
O2 Zr1 2.1386(17) 29_777
C1 C2 1.411(13) .
C1 C14 1.426(13) .
C1 C117 1.508(13) .
C2 H2 0.9400 .
C2 C3 1.410(12) .
C3 C4 1.416(13) .
C3 C217 1.527(14) .
C4 C5 1.410(13) .
C4 C15 1.421(12) .
C5 H5 0.9400 .
C5 C6 1.396(13) .
C6 H6 0.9400 .
C6 C7 1.415(12) .
C7 C8 1.411(13) .
C7 C16 1.409(12) .
C8 C9 1.399(13) .
C8 C317 1.469(13) .
C9 H9 0.9400 .
C9 C10 1.401(12) .
C10 C11 1.442(12) .
C10 C417 1.521(13) .
C11 C12 1.419(13) .
C11 C16 1.420(12) .
C12 H12 0.9400 .
C12 C13 1.400(13) .
C13 H13 0.9400 .
C13 C14 1.416(12) .
C14 C15 1.411(12) .
C15 C16 1.439(11) .
C101 O1 1.272(3) 18_755
C101 C102 1.516(10) .
C102 C103 1.401(11) .
C102 C107 1.408(11) .
C103 H103 0.9400 .
C103 C104 1.409(11) .
C104 H104 0.9400 .
C104 C105 1.396(11) .
C105 C106 1.414(11) .
C105 C108 1.528(11) .
C106 H106 0.9400 .
C106 C107 1.398(11) .
C107 H107 0.9400 .
C108 C109 1.411(12) .
C108 C113 1.412(12) .
C109 H109 0.9400 .
C109 C110 1.398(12) .
C110 H110 0.9400 .
C110 C111 1.412(11) .
C111 C112 1.404(11) .
C111 C114 1.454(13) .
C112 C113 1.402(11) .
C112 C120 1.471(12) .
C113 H113 0.9400 .
C114 C115 1.400(11) .
C114 C119 1.401(11) .
C115 H115 0.9400 .
C115 C116 1.410(11) .
C116 H116 0.9400 .
C116 C117 1.402(12) .
C117 C118 1.406(12) .
C118 H118 0.9400 .
C118 C119 1.411(11) .
C119 C120 1.463(12) .
C120 C121 1.488(14) .
C120 C122 1.465(13) .
C121 H12A 0.9700 .
C121 H12B 0.9700 .
C121 H12C 0.9700 .
C122 H12D 0.9700 .
C122 H12E 0.9700 .
C122 H12F 0.9700 .
C202 C101 1.534(11) 27_565
C202 C203 1.410(11) .
C202 C207 1.399(12) .
C203 H203 0.9400 .
C203 C204 1.399(11) .
C204 H204 0.9400 .
C204 C205 1.412(11) .
C205 C206 1.399(11) .
C205 C208 1.530(12) .
C206 H206 0.9400 .
C206 C207 1.408(11) .
C207 H207 0.9400 .
C208 C209 1.410(12) .
C208 C213 1.411(12) .
C209 H209 0.9400 .
C209 C210 1.400(12) .
C210 H210 0.9400 .
C210 C211 1.405(12) .
C211 C212 1.402(11) .
C211 C214 1.452(14) .
C212 C213 1.403(11) .
C212 C220 1.474(12) .
C213 H213 0.9400 .
C214 C215 1.403(12) .
C214 C219 1.404(11) .
C215 H215 0.9400 .
C215 C216 1.409(12) .
C216 H216 0.9400 .
C216 C217 1.405(12) .
C217 C218 1.408(12) .
C218 H218 0.9400 .
C218 C219 1.410(12) .
C219 C220 1.468(12) .
C220 C221 1.477(14) .
C220 C222 1.473(13) .
C221 H22A 0.9700 .
C221 H22B 0.9700 .
C221 H22C 0.9700 .
C222 H22D 0.9716 .
C222 H22E 0.9734 .
C222 H22F 0.9657 .
C302 C101 1.514(11) 4_566
C302 C303 1.406(12) .
C302 C307 1.404(12) .
C303 H303 0.9400 .
C303 C304 1.397(11) .
C304 H304 0.9400 .
C304 C305 1.413(11) .
C305 C306 1.400(11) .
C305 C308 1.516(11) .
C306 H306 0.9400 .
C306 C307 1.402(11) .
C307 H307 0.9400 .
C308 C309 1.407(12) .
C308 C313 1.403(12) .
C309 H309 0.9400 .
C309 C310 1.402(12) .
C310 H310 0.9400 .
C310 C311 1.410(12) .
C311 C312 1.402(11) .
C311 C314 1.430(13) .
C312 C313 1.392(11) .
C312 C320 1.458(13) .
C313 H313 0.9400 .
C314 C315 1.397(11) .
C314 C319 1.409(11) .
C315 H315 0.9400 .
C315 C316 1.410(12) .
C316 H316 0.9400 .
C316 C317 1.409(12) .
C317 C318 1.386(12) .
C318 H318 0.9400 .
C318 C319 1.394(11) .
C319 C320 1.466(12) .
C320 C321 1.480(14) .
C320 C322 1.478(13) .
C321 H32A 0.9700 .
C321 H32B 0.9700 .
C321 H32C 0.9700 .
C322 H32D 0.9700 .
C322 H32E 0.9700 .
C322 H32F 0.9700 .
C402 C101 1.511(10) 26_556
C402 C403 1.402(11) .
C402 C407 1.406(11) .
C403 H403 0.9400 .
C403 C404 1.407(11) .
C404 H404 0.9400 .
C404 C405 1.396(11) .
C405 C406 1.415(11) .
C405 C408 1.519(11) .
C406 H406 0.9400 .
C406 C407 1.398(12) .
C407 H407 0.9400 .
C408 C409 1.402(12) .
C408 C413 1.406(12) .
C409 H409 0.9400 .
C409 C410 1.401(12) .
C410 H410 0.9400 .
C410 C411 1.406(11) .
C411 C412 1.404(11) .
C411 C414 1.434(13) .
C412 C413 1.397(11) .
C412 C420 1.463(13) .
C413 H413 0.9400 .
C414 C415 1.390(11) .
C414 C419 1.402(11) .
C415 H415 0.9400 .
C415 C416 1.404(12) .
C416 H416 0.9400 .
C416 C417 1.411(12) .
C417 C418 1.403(12) .
C418 H418 0.9400 .
C418 C419 1.408(11) .
C419 C420 1.464(13) .
C420 C421 1.476(13) .
C420 C422 1.486(13) .
C421 H42A 0.9700 .
C421 H42B 0.9700 .
C421 H42C 0.9700 .
C422 H42D 0.9700 .
C422 H42E 0.9700 .
C422 H42F 0.9700 .
loop_
_geom_torsion_atom_site_label_1
_geom_torsion_atom_site_label_2
_geom_torsion_atom_site_label_3
_geom_torsion_atom_site_label_4
_geom_torsion
_geom_torsion_site_symmetry_1
_geom_torsion_site_symmetry_4
Zr1 O1 C101 O1 0.000(3) . 18_755
Zr1 O1 C101 C102 166.8(18) . .
O1 C101 C102 C103 178(4) 18_755 .
O1 C101 C102 C103 10(5) . .
O1 C101 C102 C107 -164(3) . .
O1 C101 C102 C107 4(5) 18_755 .
C1 C2 C3 C4 0.1(9) . .
C1 C2 C3 C217 180.0(5) . .
C1 C14 C15 C4 -0.3(4) . .
C1 C14 C15 C16 179.9(4) . .
C1 C117 C118 C119 -161(3) . .
C2 C1 C14 C13 179.9(4) . .
C2 C1 C14 C15 -0.1(6) . .
C2 C1 C117 C116 122(2) . .
C2 C1 C117 C118 -66(3) . .
C2 C3 C4 C5 -179.8(6) . .
C2 C3 C4 C15 -0.4(8) . .
C2 C3 C217 C216 -120.2(11) . .
C2 C3 C217 C218 60.8(18) . .
C3 C4 C5 C6 179.6(6) . .
C3 C4 C15 C14 0.5(6) . .
C3 C4 C15 C16 -179.6(5) . .
C3 C217 C218 C219 -176(2) . .
C4 C3 C217 C216 59.7(10) . .
C4 C3 C217 C218 -119.3(18) . .
C4 C5 C6 C7 0.1(9) . .
C4 C15 C16 C7 0.0(7) . .
C4 C15 C16 C11 -179.6(5) . .
C5 C4 C15 C14 179.9(4) . .
C5 C4 C15 C16 -0.2(7) . .
C5 C6 C7 C8 179.7(6) . .
C5 C6 C7 C16 -0.4(9) . .
C6 C7 C8 C9 179.7(6) . .
C6 C7 C8 C317 0.3(9) . .
C6 C7 C16 C11 179.9(6) . .
C6 C7 C16 C15 0.3(8) . .
C7 C8 C9 C10 0.4(9) . .
C7 C8 C317 C316 56(2) . .
C7 C8 C317 C318 -128.8(13) . .
C8 C7 C16 C11 -0.2(9) . .
C8 C7 C16 C15 -179.8(5) . .
C8 C9 C10 C11 -0.2(9) . .
C8 C9 C10 C417 179.8(5) . .
C8 C317 C318 C319 -171.2(13) . .
C9 C8 C317 C316 -123(2) . .
C9 C8 C317 C318 51.8(14) . .
C9 C10 C11 C12 -179.9(6) . .
C9 C10 C11 C16 -0.1(9) . .
C9 C10 C417 C416 122.4(11) . .
C9 C10 C417 C418 -58.5(9) . .
C10 C11 C12 C13 180.0(5) . .
C10 C11 C16 C7 0.3(9) . .
C10 C11 C16 C15 179.9(5) . .
C10 C417 C418 C419 -178.8(9) . .
C11 C10 C417 C416 -57.6(11) . .
C11 C10 C417 C418 121.5(9) . .
C11 C12 C13 C14 -0.1(6) . .
C12 C11 C16 C7 -179.9(6) . .
C12 C11 C16 C15 -0.3(8) . .
C12 C13 C14 C1 -179.9(4) . .
C12 C13 C14 C15 0.0(3) . .
C13 C14 C15 C4 179.8(3) . .
C13 C14 C15 C16 -0.1(3) . .
C14 C1 C2 C3 0.2(8) . .
C14 C1 C117 C116 -58(2) . .
C14 C1 C117 C118 114(3) . .
C14 C15 C16 C7 179.9(4) . .
C14 C15 C16 C11 0.2(6) . .
C15 C4 C5 C6 0.2(8) . .
C16 C7 C8 C9 -0.2(9) . .
C16 C7 C8 C317 -179.6(5) . .
C16 C11 C12 C13 0.2(8) . .
C101 C102 C103 C104 -174(3) . .
C101 C102 C107 C106 177(2) . .
C101 C202 C203 C204 153(3) 27_565 .
C101 C202 C207 C206 -155(3) 27_565 .
C101 C302 C303 C304 161(4) 4_566 .
C101 C302 C307 C306 -165(5) 4_566 .
C101 C402 C403 C404 175(4) 26_556 .
C101 C402 C407 C406 179(5) 26_556 .
C102 C103 C104 C105 -4(5) . .
C103 C102 C107 C106 3(4) . .
C103 C104 C105 C106 6(4) . .
C103 C104 C105 C108 -177(2) . .
C104 C105 C106 C107 -2.6(18) . .
C104 C105 C108 C109 -142(4) . .
C104 C105 C108 C113 57(4) . .
C105 C106 C107 C102 -2(2) . .
C105 C108 C109 C110 -175(3) . .
C105 C108 C113 C112 171(3) . .
C106 C105 C108 C109 35(4) . .
C106 C105 C108 C113 -125(4) . .
C107 C102 C103 C104 0(5) . .
C108 C105 C106 C107 179.5(8) . .
C108 C109 C110 C111 12(5) . .
C109 C108 C113 C112 11(5) . .
C109 C110 C111 C112 -6(5) . .
C109 C110 C111 C114 177(3) . .
C110 C111 C112 C113 3(5) . .
C110 C111 C112 C120 -170(3) . .
C110 C111 C114 C115 -5(5) . .
C110 C111 C114 C119 178(4) . .
C111 C112 C113 C108 -6(5) . .
C111 C112 C120 C119 -13(3) . .
C111 C112 C120 C121 112(3) . .
C111 C112 C120 C122 -141(3) . .
C111 C114 C115 C116 -180(2) . .
C111 C114 C119 C118 -171(3) . .
C111 C114 C119 C120 -9(3) . .
C112 C111 C114 C115 178.3(17) . .
C112 C111 C114 C119 1(3) . .
C113 C108 C109 C110 -15(5) . .
C113 C112 C120 C119 176(3) . .
C113 C112 C120 C121 -59(4) . .
C113 C112 C120 C122 48(4) . .
C114 C111 C112 C113 -180(3) . .
C114 C111 C112 C120 8(3) . .
C114 C115 C116 C117 -2.2(18) . .
C114 C119 C120 C112 13(2) . .
C114 C119 C120 C121 -112(2) . .
C114 C119 C120 C122 142(2) . .
C115 C114 C119 C118 11(3) . .
C115 C114 C119 C120 173.1(13) . .
C115 C116 C117 C1 170.8(15) . .
C115 C116 C117 C118 -2(4) . .
C116 C117 C118 C119 10(5) . .
C117 C1 C2 C3 -179.9(5) . .
C117 C1 C14 C13 0.0(8) . .
C117 C1 C14 C15 -179.9(5) . .
C117 C118 C119 C114 -15(5) . .
C117 C118 C119 C120 -173(3) . .
C118 C119 C120 C112 173(3) . .
C118 C119 C120 C121 48(3) . .
C118 C119 C120 C122 -58(3) . .
C119 C114 C115 C116 -2.5(16) . .
C120 C112 C113 C108 165(3) . .
C202 C203 C204 C205 6(5) . .
C203 C202 C207 C206 1(3) . .
C203 C204 C205 C206 -5(4) . .
C203 C204 C205 C208 177(2) . .
C204 C205 C206 C207 2.1(18) . .
C204 C205 C208 C209 164(4) . .
C204 C205 C208 C213 -31(3) . .
C205 C206 C207 C202 -0.4(19) . .
C205 C208 C209 C210 175(3) . .
C205 C208 C213 C212 -174(2) . .
C206 C205 C208 C209 -14(3) . .
C206 C205 C208 C213 151(3) . .
C207 C202 C203 C204 -4(4) . .
C208 C205 C206 C207 -179.5(11) . .
C208 C209 C210 C211 -3(6) . .
C209 C208 C213 C212 -9(5) . .
C209 C210 C211 C212 -4(6) . .
C209 C210 C211 C214 -170(4) . .
C210 C211 C212 C213 5(5) . .
C210 C211 C212 C220 -178(3) . .
C210 C211 C214 C215 -16(7) . .
C210 C211 C214 C219 -177(4) . .
C211 C212 C213 C208 2(5) . .
C211 C212 C220 C219 0(3) . .
C211 C212 C220 C221 126(3) . .
C211 C212 C220 C222 -127(3) . .
C211 C214 C215 C216 -169(3) . .
C211 C214 C219 C218 178(3) . .
C211 C214 C219 C220 -16(4) . .
C212 C211 C214 C215 177(4) . .
C212 C211 C214 C219 16(4) . .
C213 C208 C209 C210 10(5) . .
C213 C212 C220 C219 176(3) . .
C213 C212 C220 C221 -58(4) . .
C213 C212 C220 C222 49(4) . .
C214 C211 C212 C213 174(3) . .
C214 C211 C212 C220 -10(4) . .
C214 C215 C216 C217 2(4) . .
C214 C219 C220 C212 10(3) . .
C214 C219 C220 C221 -116(3) . .
C214 C219 C220 C222 138(3) . .
C215 C214 C219 C218 15(5) . .
C215 C214 C219 C220 -179(3) . .
C215 C216 C217 C3 -178.6(19) . .
C215 C216 C217 C218 0(3) . .
C216 C217 C218 C219 5(4) . .
C217 C3 C4 C5 0.3(8) . .
C217 C3 C4 C15 179.7(4) . .
C217 C218 C219 C214 -12(5) . .
C217 C218 C219 C220 -175(2) . .
C218 C219 C220 C212 174(3) . .
C218 C219 C220 C221 48(3) . .
C218 C219 C220 C222 -59(3) . .
C219 C214 C215 C216 -10(5) . .
C220 C212 C213 C208 -174(3) . .
C302 C303 C304 C305 2(2) . .
C303 C302 C307 C306 -2(7) . .
C303 C304 C305 C306 3(2) . .
C303 C304 C305 C308 179(2) . .
C304 C305 C306 C307 -7(5) . .
C304 C305 C308 C309 122(4) . .
C304 C305 C308 C313 -68(3) . .
C305 C306 C307 C302 7(7) . .
C305 C308 C309 C310 176(3) . .
C305 C308 C313 C312 -180(3) . .
C306 C305 C308 C309 -61(5) . .
C306 C305 C308 C313 108(4) . .
C307 C302 C303 C304 -2(5) . .
C308 C305 C306 C307 176(4) . .
C308 C309 C310 C311 -5(6) . .
C309 C308 C313 C312 -10(5) . .
C309 C310 C311 C312 5(6) . .
C309 C310 C311 C314 176(4) . .
C310 C311 C312 C313 -8(5) . .
C310 C311 C312 C320 -180(3) . .
C310 C311 C314 C315 7(7) . .
C310 C311 C314 C319 -173(4) . .
C311 C312 C313 C308 10(5) . .
C311 C312 C320 C319 -10(3) . .
C311 C312 C320 C321 115(3) . .
C311 C312 C320 C322 -138(2) . .
C311 C314 C315 C316 175(4) . .
C311 C314 C319 C318 -178(2) . .
C311 C314 C319 C320 -5(3) . .
C312 C311 C314 C315 179(4) . .
C312 C311 C314 C319 -1(4) . .
C313 C308 C309 C310 7(6) . .
C313 C312 C320 C319 179(3) . .
C313 C312 C320 C321 -55(3) . .
C313 C312 C320 C322 51(4) . .
C314 C311 C312 C313 179(3) . .
C314 C311 C312 C320 7(4) . .
C314 C315 C316 C317 7(6) . .
C314 C319 C320 C312 9(2) . .
C314 C319 C320 C321 -117(2) . .
C314 C319 C320 C322 137(2) . .
C315 C314 C319 C318 1(4) . .
C315 C314 C319 C320 175(3) . .
C315 C316 C317 C8 169(3) . .
C315 C316 C317 C318 -7(4) . .
C316 C317 C318 C319 4(2) . .
C317 C8 C9 C10 179.8(6) . .
C317 C318 C319 C314 -1.2(19) . .
C317 C318 C319 C320 -172.6(16) . .
C318 C319 C320 C312 -178.7(12) . .
C318 C319 C320 C321 55.4(17) . .
C318 C319 C320 C322 -50.9(17) . .
C319 C314 C315 C316 -4(6) . .
C320 C312 C313 C308 -180(3) . .
C402 C403 C404 C405 3(3) . .
C403 C402 C407 C406 -2(7) . .
C403 C404 C405 C406 4(2) . .
C403 C404 C405 C408 -175(2) . .
C404 C405 C406 C407 -10(5) . .
C404 C405 C408 C409 -142(4) . .
C404 C405 C408 C413 37(4) . .
C405 C406 C407 C402 9(7) . .
C405 C408 C409 C410 179.8(11) . .
C405 C408 C413 C412 -179.0(13) . .
C406 C405 C408 C409 39(4) . .
C406 C405 C408 C413 -142(4) . .
C407 C402 C403 C404 -4(5) . .
C408 C405 C406 C407 169(3) . .
C408 C409 C410 C411 0.1(17) . .
C409 C408 C413 C412 0(2) . .
C409 C410 C411 C412 -1.6(17) . .
C409 C410 C411 C414 -179.1(14) . .
C410 C411 C412 C413 2(2) . .
C410 C411 C412 C420 -179.3(11) . .
C410 C411 C414 C415 -1(3) . .
C410 C411 C414 C419 179.2(13) . .
C411 C412 C413 C408 -2(2) . .
C411 C412 C420 C419 0.5(14) . .
C411 C412 C420 C421 -126.6(17) . .
C411 C412 C420 C422 127.3(17) . .
C411 C414 C415 C416 -179.1(15) . .
C411 C414 C419 C418 179.8(11) . .
C411 C414 C419 C420 -1.1(16) . .
C412 C411 C414 C415 -178.9(15) . .
C412 C411 C414 C419 1.5(17) . .
C413 C408 C409 C410 1(2) . .
C413 C412 C420 C419 178.6(15) . .
C413 C412 C420 C421 52(2) . .
C413 C412 C420 C422 -55(2) . .
C414 C411 C412 C413 -179.6(13) . .
C414 C411 C412 C420 -1.2(16) . .
C414 C415 C416 C417 -1(2) . .
C414 C419 C420 C412 0.4(14) . .
C414 C419 C420 C421 127.3(16) . .
C414 C419 C420 C422 -126.8(17) . .
C415 C414 C419 C418 0(2) . .
C415 C414 C419 C420 179.2(12) . .
C415 C416 C417 C10 179.4(11) . .
C415 C416 C417 C418 0.3(15) . .
C416 C417 C418 C419 0.2(9) . .
C417 C10 C11 C12 0.1(9) . .
C417 C10 C11 C16 179.9(5) . .
C417 C418 C419 C414 -0.4(15) . .
C417 C418 C419 C420 -179.3(11) . .
C418 C419 C420 C412 179.3(13) . .
C418 C419 C420 C421 -53.8(19) . .
C418 C419 C420 C422 52.2(19) . .
C419 C414 C415 C416 0(2) . .
C420 C412 C413 C408 -179.6(13) . .
loop_
_smtbx_masks_void_nr
_smtbx_masks_void_average_x
_smtbx_masks_void_average_y
_smtbx_masks_void_average_z
_smtbx_masks_void_volume
_smtbx_masks_void_count_electrons
1 -0.644 -0.918 -0.700 18469.9 1887.7
