#------------------------------------------------------------------------------
#$Date: 2019-11-25 06:09:38 +0200 (Mon, 25 Nov 2019) $
#$Revision: 240194 $
#$URL: file:///home/coder/svn-repositories/cod/cif/4/12/94/4129483.cif $
#------------------------------------------------------------------------------
#
# This file is available in the Crystallography Open Database (COD),
# http://www.crystallography.net/
#
# All data on this site have been placed in the public domain by the
# contributors.
#
data_4129483
loop_
_publ_author_name
'Zhang, Shi-Yuan'
'Wojtas, Lukasz'
'Zaworotko, Michael J.'
_publ_section_title
;
 Structural Insight into Guest Binding Sites in a Porous Homochiral
 Metal-Organic Material.
;
_journal_issue                   37
_journal_name_full               'Journal of the American Chemical Society'
_journal_page_first              12045
_journal_page_last               12049
_journal_paper_doi               10.1021/jacs.5b06760
_journal_volume                  137
_journal_year                    2015
_chemical_formula_moiety
'C46 H38 Co2 N6 O6, 2(N O3), 1.53(C6 H5 N O2)'
_chemical_formula_sum            'C55.18 H45.65 Co2 N9.53 O15.06'
_chemical_formula_weight         1201.14
_space_group_crystal_system      monoclinic
_space_group_IT_number           4
_space_group_name_Hall           'P 2yb'
_space_group_name_H-M_alt        'P 1 21 1'
_atom_sites_solution_hydrogens   mixed
_atom_sites_solution_primary     direct
_audit_creation_date             2014-04-02
_audit_creation_method
;
Olex2 1.2
(compiled 2014.03.20 svn.r2914 for OlexSys, GUI svn.r4816)
;
_cell_angle_alpha                90
_cell_angle_beta                 90.0870(16)
_cell_angle_gamma                90
_cell_formula_units_Z            2
_cell_length_a                   10.2292(3)
_cell_length_b                   24.7002(7)
_cell_length_c                   11.4243(3)
_cell_measurement_reflns_used    8064
_cell_measurement_temperature    100(2)
_cell_measurement_theta_max      66.94
_cell_measurement_theta_min      3.57
_cell_volume                     2886.50(14)
_computing_molecular_graphics    'Olex2 (Dolomanov et al., 2009)'
_computing_publication_material  'Olex2 (Dolomanov et al., 2009)'
_computing_structure_refinement  'XL (Sheldrick, 2008)'
_computing_structure_solution    'XS (Sheldrick, 2008)'
_diffrn_ambient_temperature      100.01
_diffrn_measured_fraction_theta_full 0.979
_diffrn_measured_fraction_theta_max 0.975
_diffrn_measurement_device_type  'Bruker APEX-II CCD'
_diffrn_measurement_method       '\f and \w scans'
_diffrn_radiation_type           CuK\a
_diffrn_radiation_wavelength     1.54178
_diffrn_reflns_av_R_equivalents  0.0507
_diffrn_reflns_av_unetI/netI     0.0660
_diffrn_reflns_Laue_measured_fraction_full 0.979
_diffrn_reflns_Laue_measured_fraction_max 0.975
_diffrn_reflns_limit_h_max       11
_diffrn_reflns_limit_h_min       -12
_diffrn_reflns_limit_k_max       29
_diffrn_reflns_limit_k_min       -28
_diffrn_reflns_limit_l_max       13
_diffrn_reflns_limit_l_min       -13
_diffrn_reflns_number            24845
_diffrn_reflns_point_group_measured_fraction_full 0.948
_diffrn_reflns_point_group_measured_fraction_max 0.943
_diffrn_reflns_theta_full        66.220
_diffrn_reflns_theta_max         66.768
_diffrn_reflns_theta_min         3.869
_diffrn_standards_number         0
_exptl_absorpt_coefficient_mu    5.129
_exptl_absorpt_correction_T_max  0.7528
_exptl_absorpt_correction_T_min  0.6044
_exptl_absorpt_correction_type   multi-scan
_exptl_absorpt_process_details
;
SADABS-2012/1 (Bruker,2012) was used for absorption correction.
wR2(int) was 0.1018 before and 0.0655 after correction.
The Ratio of minimum to maximum transmission is 0.8029.
The \l/2 correction factor is 0.0015.
;
_exptl_crystal_density_diffrn    1.382
_exptl_crystal_F_000             1236
_exptl_crystal_size_max          0.12
_exptl_crystal_size_mid          0.1
_exptl_crystal_size_min          0.07
_refine_diff_density_max         0.655
_refine_diff_density_min         -0.698
_refine_diff_density_rms         0.110
_refine_ls_abs_structure_details
;
 Flack x determined using 3359 quotients [(I+)-(I-)]/[(I+)+(I-)]
 (Parsons and Flack (2004), Acta Cryst. A60, s61).
;
_refine_ls_abs_structure_Flack   0.069(4)
_refine_ls_extinction_method     none
_refine_ls_goodness_of_fit_ref   1.088
_refine_ls_hydrogen_treatment    mixed
_refine_ls_matrix_type           full
_refine_ls_number_parameters     717
_refine_ls_number_reflns         9647
_refine_ls_number_restraints     112
_refine_ls_restrained_S_all      1.087
_refine_ls_R_factor_all          0.0844
_refine_ls_R_factor_gt           0.0751
_refine_ls_shift/su_max          0.000
_refine_ls_shift/su_mean         0.000
_refine_ls_structure_factor_coef Fsqd
_refine_ls_weighting_details
'w=1/[\s^2^(Fo^2^)+(0.0964P)^2^+5.1842P] where P=(Fo^2^+2Fc^2^)/3'
_refine_ls_weighting_scheme      calc
_refine_ls_wR_factor_gt          0.1967
_refine_ls_wR_factor_ref         0.2036
_reflns_Friedel_coverage         0.886
_reflns_Friedel_fraction_full    0.916
_reflns_Friedel_fraction_max     0.909
_reflns_number_gt                8427
_reflns_number_total             9647
_reflns_threshold_expression     'I > 2\s(I)'
_cod_data_source_file            ja5b06760_si_002.cif
_cod_data_source_block           CMOM_1S_NB
_cod_database_code               4129483
_shelxl_version_number           2013-4
_shelx_space_group_comment
;
The symmetry employed for this shelxl refinement is uniquely defined
by the following loop, which should always be used as a source of
symmetry information in preference to the above space-group names.
They are only intended as comments.
;
_shelx_estimated_absorpt_t_max   0.715
_shelx_estimated_absorpt_t_min   0.578
_olex2_refinement_description
;
1. Fixed Uiso
 At 1.2 times of:
  All C(H) groups
 At 1.5 times of:
  All O(H) groups
2. Restrained distances
 O13-H13 = O17-H17
 0.88 with sigma of 0.02
 O17-H17 = O13-H13
 0.88 with sigma of 0.02
 O7-N2 = O8-N2 = O29A-N50 = O60-N50 = O59-N49 = O57-N49 = O58-N8 = O6-N8
 1.23 with sigma of 0.02
 N2-C7 = N50-C92 = N49-C1H = N8-C1G
 1.47 with sigma of 0.02
 C40-H13
 1.889034 with sigma of 0.02
 C38-H17
 1.897478 with sigma of 0.02
 O7-O8 = O60-O29A = O59-O57 = O58-O6
 2.17 with sigma of 0.04
 O7-C7 = O60-C92 = O57-C1H = O6-C1G
 2.31 with sigma of 0.04
 O58-C1G = C1H-O59 = C92-O29A = C7-O8
 2.31 with sigma of 0.04
 N2-C29
 2.45 with sigma of 0.04
 N8-C1C = C96-N50 = N49-C1J = C7-O8
 2.45 with sigma of 0.04
 N2-C13 = N50-C93 = N49-C1I = C1F-N8
 2.45 with sigma of 0.04
3. Restrained planarity
 O7, N2, O8, C7
 with sigma of 0.02
 C13, C7, C29, N2
 with sigma of 0.02
 C1G, O58, N8, O6
 with sigma of 0.02
 C1C, C1G, N8, C1F
 with sigma of 0.02
 O59, N49, C1H, O57
 with sigma of 0.02
 N49, C1H, C1I, C1J
 with sigma of 0.02
 O29A, N50, O60, C92
 with sigma of 0.02
 N50, C92, C96, C93
 with sigma of 0.02
4. Uiso/Uaniso restraints and constraints
C92 \\sim C93 \\sim C96 \\sim N50 \\sim C94 \\sim O60 \\sim O29A \\sim C17A
\\sim C95 \\sim C29 \\sim N2 \\sim O7 \\sim O8 \\sim C7 \\sim C13 \\sim C9
\\sim C5 \\sim C4 \\sim C1E \\sim C1H \\sim C1I \\sim C1J \\sim N49 \\sim C1D
\\sim O57 \\sim O59 \\sim C17 \\sim O58 \\sim C1G \\sim C1C \\sim C1F \\sim N8
\\sim C1A \\sim C15 \\sim O6 \\sim C1B: within 1.7A with sigma of 0.04 and
sigma for terminal atoms of 0.08
Uiso(C17A) = Uiso(C17)
Uiso(C29) = Uiso(O29A)
5. Others
 Sof(C92)=Sof(C93)=Sof(H93)=Sof(C94)=Sof(H94)=Sof(C17A)=Sof(H17B)=Sof(C95)=
 Sof(H95)=Sof(C96)=Sof(H96)=Sof(N50)=Sof(O60)=Sof(O29A)=FVAR(1)
 Sof(C1H)=Sof(C1I)=Sof(H1I)=Sof(C1D)=Sof(H1D)=Sof(C17)=Sof(H17A)=Sof(C1E)=
 Sof(H1E)=Sof(C1J)=Sof(H1J)=Sof(N49)=Sof(O57)=Sof(O59)=FVAR(2)
 Sof(C1G)=Sof(C1C)=Sof(H1C)=Sof(C1A)=Sof(H1A)=Sof(C1B)=Sof(H1B)=Sof(C15)=
 Sof(H15)=Sof(C1F)=Sof(H1F)=Sof(O6)=Sof(N8)=Sof(O58)=FVAR(3)
 Sof(N2)=Sof(O7)=Sof(O8)=Sof(C29)=Sof(H29)=Sof(C9)=Sof(H9)=Sof(C4)=Sof(H4)=
 Sof(C5)=Sof(H5)=Sof(C13)=Sof(H13A)=Sof(C7)=FVAR(4)
6.a Ternary CH refined with riding coordinates:
 C38(H38), C40(H40)
6.b Aromatic/amide H refined with riding coordinates:
 C8(H8), C12(H12), C16(H16), C18(H18), C20(H20), C21(H21), C22(H22), C23(H23),
 C24(H24), C26(H26), C30(H30), C31(H31), C32(H32), C33(H33), C41(H41), C46(H46),
  C49(H49), C50(H50), C57(H57), C59(H59), C61(H61), C62(H62), C65(H65),
 C67(H67), C68(H68), C70(H70), C75(H75), C91(H91), C72(H72), C1(H1), C6(H6),
 C3(H3), C11(H11), C2(H2), C1C(H1C), C1A(H1A), C1B(H1B), C15(H15), C1F(H1F),
 C29(H29), C9(H9), C4(H4), C5(H5), C13(H13A), C1I(H1I), C1D(H1D), C17(H17A),
 C1E(H1E), C1J(H1J), C93(H93), C94(H94), C17A(H17B), C95(H95), C96(H96)
6.c Fitted hexagon refined as free rotating group:
 C1G(C1C,C1A,C1B,C15,C1F), C29(C9,C4,C5,C13,C7), C1H(C1I,C1D,C17,C1E,C1J),
 C92(C93,C94,C17A,C95,C96)
;
_shelx_res_file
;
TITL 1 in P21 #4
CELL 1.54178 10.2292 24.7002 11.4243 90 90.087 90
ZERR 2 0.0003 0.0007 0.0003 0 0.0016 0
LATT -1
SYMM -X,0.5+Y,-Z

SFAC C H Co N O
UNIT 110.36792 91.3066 4 19.06132 30.12264
DFIX 0.88 O13 H13 O17 H17
DFIX 0.88 O17 H17 O13 H13
DFIX 1.23 O7 N2 O8 N2 O29A N50 O60 N50 O59 N49 O57 N49 O58 N8 O6 N8
DFIX 1.47 N2 C7 N50 C92 N49 C1H N8 C1G
DANG 1.889034 0.02 C40 H13
DANG 1.897478 0.02 C38 H17
DANG 2.17 O7 O8 O60 O29A O59 O57 O58 O6
DANG 2.31 O7 C7 O60 C92 O57 C1H O6 C1G
DANG 2.31 O58 C1G C1H O59 C92 O29A C7 O8
DANG 2.45 N2 C29
DANG 2.45 N8 C1C C96 N50 N49 C1J C7 O8
DANG 2.45 N2 C13 N50 C93 N49 C1I C1F N8
FLAT 0.02 O7 N2 O8 C7
FLAT 0.02 C13 C7 C29 N2
FLAT 0.02 C1G O58 N8 O6
FLAT 0.02 C1C C1G N8 C1F
FLAT 0.02 O59 N49 C1H O57
FLAT 0.02 N49 C1H C1I C1J
FLAT 0.02 O29A N50 O60 C92
FLAT 0.02 N50 C92 C96 C93
SIMU 0.04 0.08 1.7 C92 C93 C96 N50 C94 O60 O29A C17A C95 C29 N2 O7 O8 C7 C13 =
 C9 C5 C4 C1E C1H C1I C1J N49 C1D O57 O59 C17 O58 C1G C1C C1F N8 C1A C15 O6 C1B
EADP C17A C17
EADP C29 O29A

L.S. 20 0 0
PLAN  40
SIZE 0.12 0.1 0.07
TEMP -173.14
REM reset to P21 #4
BOND
bond $h
CONF
fmap 2 53
acta 132.44
OMIT 0 2 0
OMIT 0 -2 0
REM <HKL>P:/Xray_Data/SZ/SZ13092001S/work/refine/1.hkl</HKL>

WGHT    0.096400    5.184200
FVAR       0.09111   0.32640   0.27116   0.37242   0.55833
CO1   3   -0.044321    0.181831    1.079183    11.00000    0.02793    0.03131 =
         0.03106   -0.00052    0.00153   -0.00056
CO2   3    0.456871    0.261130    1.056560    11.00000    0.02811    0.03146 =
         0.02975    0.00158    0.00096    0.00010
O1    5    0.768811    0.214239    1.075045    11.00000    0.03023    0.03149 =
         0.04542    0.00217   -0.00295    0.00065
O2    5    0.268654    0.228289    1.064246    11.00000    0.03079    0.03527 =
         0.03779    0.00408    0.00035   -0.00265
O3    5    0.646509    0.287988    1.055545    11.00000    0.03307    0.03580 =
         0.03674   -0.00061   -0.00272    0.00264
O4    5    0.145093    0.155597    1.081391    11.00000    0.02650    0.03133 =
         0.04505    0.00116    0.00354   -0.00174
N5    4   -0.043346    0.176053    1.267641    11.00000    0.03554    0.04236 =
         0.03935   -0.00292    0.00327   -0.00381
N6    4   -0.042867    0.177865    1.887238    11.00000    0.03499    0.03886 =
         0.03681    0.00239    0.00206    0.00401
N7    4    0.460007    0.264041    0.865039    11.00000    0.03648    0.04732 =
         0.02607    0.00350    0.00348    0.00034
C8    1   -0.150882    0.183822    1.828924    11.00000    0.03663    0.07703 =
         0.04437   -0.00563    0.00082   -0.00215
AFIX  43
H8    2   -0.229437    0.190103    1.871046    11.00000   -1.20000
AFIX   0
N9    4    0.462970    0.268551    0.244008    11.00000    0.03333    0.04662 =
         0.02787    0.00240    0.00213   -0.00082
C10   1    0.251653    0.179448    1.073665    11.00000    0.03371    0.03435 =
         0.02402   -0.00667   -0.00141    0.00772
N11   4    0.375817    0.340808    1.041637    11.00000    0.03787    0.02706 =
         0.04974   -0.00010    0.00082    0.00043
C12   1    0.356277    0.252534    0.803694    11.00000    0.04220    0.09815 =
         0.04807    0.01181    0.00240   -0.00861
AFIX  43
H12   2    0.281098    0.240003    0.844208    11.00000   -1.20000
AFIX   0
O13   5    0.986928    0.269165    1.090931    11.00000    0.03125    0.03594 =
         0.05239    0.00284   -0.00337   -0.00201
H13   2    1.035219    0.283349    1.146344    11.00000   -1.50000
C14   1   -0.046251    0.170998    1.511794    11.00000    0.03211    0.05286 =
         0.03442   -0.00432    0.00597    0.00387
N15   4    0.123149    0.601826    0.927390    11.00000    0.03473    0.04025 =
         0.04243    0.00403    0.00115    0.00109
C16   1    0.348667    0.257395    0.683549    11.00000    0.03098    0.11668 =
         0.04339   -0.00444    0.00553   -0.01243
AFIX  43
H16   2    0.268114    0.250916    0.644499    11.00000   -1.20000
AFIX   0
O17   5    0.486362    0.173599    1.050818    11.00000    0.03755    0.03171 =
         0.06115    0.00085    0.00304    0.00275
H17   2    0.505894    0.170168    0.976375    11.00000   -1.50000
C18   1    0.065101    0.181082    1.332788    11.00000    0.03295    0.09474 =
         0.02034   -0.00202    0.00372   -0.00594
AFIX  43
H18   2    0.145330    0.187211    1.293162    11.00000   -1.20000
AFIX   0
C19   1   -0.044396    0.171443    1.641233    11.00000    0.03497    0.05405 =
         0.04695    0.00121    0.00263    0.00028
C20   1   -0.156512    0.181421    1.708271    11.00000    0.02819    0.07671 =
         0.04729   -0.00478   -0.00098   -0.00095
AFIX  43
H20   2   -0.238010    0.186637    1.669913    11.00000   -1.20000
AFIX   0
C21   1    0.576283    0.267894    0.430625    11.00000    0.03555    0.08783 =
         0.03990   -0.00096   -0.00318   -0.00357
AFIX  43
H21   2    0.657066    0.266278    0.471611    11.00000   -1.20000
AFIX   0
C22   1    0.563090    0.283207    0.807829    11.00000    0.04077    0.06494 =
         0.04333    0.00088   -0.00075   -0.00635
AFIX  43
H22   2    0.637563    0.294524    0.851171    11.00000   -1.20000
AFIX   0
C23   1    0.062736    0.162885    1.826967    11.00000    0.03158    0.10973 =
         0.05144   -0.00328    0.00225    0.01592
AFIX  43
H23   2    0.140215    0.154407    1.869099    11.00000   -1.20000
AFIX   0
C24   1    0.068301    0.178043    1.450937    11.00000    0.03675    0.09250 =
         0.04285   -0.00022   -0.00771   -0.01218
AFIX  43
H24   2    0.149127    0.180757    1.491580    11.00000   -1.20000
AFIX   0
C25   1    0.459012    0.271792    0.619582    11.00000    0.03965    0.05321 =
         0.03543    0.00872   -0.00187   -0.00127
C26   1   -0.157876    0.163248    1.449159    11.00000    0.03652    0.07959 =
         0.03956    0.00137    0.00338   -0.00176
AFIX  43
H26   2   -0.237841    0.155509    1.487889    11.00000   -1.20000
AFIX   0
C27   1    0.460617    0.272878    0.489800    11.00000    0.03516    0.06462 =
         0.02205    0.00505   -0.00122   -0.00737
C28   1    0.754245    0.265360    1.066839    11.00000    0.02831    0.03855 =
         0.02746   -0.00483   -0.00032    0.00032
C30   1    0.565327    0.287298    0.683535    11.00000    0.04304    0.07409 =
         0.03164    0.01298    0.00166   -0.01112
AFIX  43
H30   2    0.640877    0.300831    0.645131    11.00000   -1.20000
AFIX   0
C31   1    0.572705    0.265294    0.310945    11.00000    0.02969    0.08421 =
         0.02886    0.00420    0.00587    0.00015
AFIX  43
H31   2    0.653620    0.260846    0.271389    11.00000   -1.20000
AFIX   0
C32   1   -0.153630    0.166709    1.330407    11.00000    0.04010    0.08183 =
         0.03446    0.00803    0.00074   -0.00001
AFIX  43
H32   2   -0.233240    0.162289    1.288556    11.00000   -1.20000
AFIX   0
C33   1    0.064983    0.159136    1.707853    11.00000    0.03619    0.11645 =
         0.03683   -0.01076    0.00215    0.02079
AFIX  43
H33   2    0.142943    0.147884    1.669874    11.00000   -1.20000
AFIX   0
C38   1    0.372990    0.142598    1.075466    11.00000    0.03853    0.03891 =
         0.04729   -0.00279   -0.00002    0.00892
AFIX  13
H38   2    0.362740    0.114799    1.012481    11.00000   -1.20000
AFIX   0
C39   1    0.276990    0.443245    0.990019    11.00000    0.02951    0.03193 =
         0.05869    0.00160   -0.00159   -0.00087
C40   1    0.875146    0.301517    1.072333    11.00000    0.03147    0.03776 =
         0.05585    0.00136   -0.00282    0.00120
AFIX  13
H40   2    0.865602    0.326807    1.140137    11.00000   -1.20000
AFIX   0
C41   1    0.352374    0.276511    0.303809    11.00000    0.02848    0.08122 =
         0.03743    0.00108   -0.00459    0.00000
AFIX  43
H41   2    0.273159    0.280571    0.261191    11.00000   -1.20000
AFIX   0
C46   1    0.247743    0.592498    0.937715    11.00000    0.03546    0.04033 =
         0.12698    0.00056   -0.01028   -0.00390
AFIX  43
H46   2    0.305810    0.622329    0.930582    11.00000   -1.20000
AFIX   0

O47   5    0.568104    0.139616    0.845143    11.00000    0.04154    0.07778 =
         0.07346   -0.02022   -0.00714    0.00125
C49   1    0.252618    0.349374    1.021641    11.00000    0.03610    0.02924 =
         0.11840    0.02149    0.00555   -0.00377
AFIX  43
H49   2    0.195418    0.319100    1.024289    11.00000   -1.20000
AFIX   0
C50   1    0.452419    0.382532    1.034047    11.00000    0.02927    0.03464 =
         0.23552    0.01742   -0.01480    0.00685
AFIX  43
H50   2    0.543627    0.377649    1.045752    11.00000   -1.20000
AFIX   0
C51   1    0.223540    0.498369    0.963647    11.00000    0.03314    0.03832 =
         0.04659   -0.00174    0.00563    0.00143
C52   1    0.882022    0.334906    0.960274    11.00000    0.04861    0.05071 =
         0.05863    0.01358   -0.00615   -0.02129

O56   5    0.524226    0.135346    0.661868    11.00000    0.09469    0.16300 =
         0.06803   -0.02839    0.00136   -0.00815
C57   1    0.347653    0.279102    0.423668    11.00000    0.03210    0.08721 =
         0.02366    0.00372    0.00370    0.00078
AFIX  43
H57   2    0.266458    0.285204    0.461709    11.00000   -1.20000
AFIX   0
C59   1    0.405228    0.434557    1.009174    11.00000    0.03230    0.03089 =
         0.28169    0.02076    0.00153   -0.00566
AFIX  43
H59   2    0.464543    0.464108    1.005780    11.00000   -1.20000
AFIX   0
C61   1    0.198812    0.399217    0.996849    11.00000    0.03363    0.03798 =
         0.11272    0.01417   -0.00229   -0.00003
AFIX  43
H61   2    0.107300    0.402632    0.984622    11.00000   -1.20000
AFIX   0
C62   1    0.052398    0.558950    0.927352    11.00000    0.03361    0.04598 =
         0.22608    0.01755   -0.02087   -0.00289
AFIX  43
H62   2   -0.038757    0.563528    0.914767    11.00000   -1.20000
AFIX   0
C64   1    0.381728    0.113563    1.191831    11.00000    0.04803    0.05703 =
         0.05086    0.01848    0.00372    0.00781
C65   1    0.371377    0.068333    1.417648    11.00000    0.15399    0.17816 =
         0.13476    0.11074   -0.06324   -0.05280
AFIX  43
H65   2    0.371787    0.052086    1.493019    11.00000   -1.20000
AFIX   0
C67   1    0.455817    0.135308    1.281005    11.00000    0.09490    0.06532 =
         0.06981    0.01728   -0.02449    0.00880
AFIX  43
H67   2    0.511825    0.165345    1.267575    11.00000   -1.20000
AFIX   0
C68   1    0.301290    0.541870    0.958447    11.00000    0.03089    0.04166 =
         0.11709    0.00990   -0.00851    0.00039
AFIX  43
H68   2    0.392973    0.538046    0.968944    11.00000   -1.20000
AFIX   0
C70   1    0.096292    0.507469    0.943739    11.00000    0.04407    0.03195 =
         0.27901    0.02037   -0.03136   -0.00047
AFIX  43
H70   2    0.036704    0.477993    0.941060    11.00000   -1.20000
AFIX   0
C75   1    0.949215    0.316569    0.864865    11.00000    0.12261    0.06063 =
         0.06911    0.00144    0.01403   -0.03829
AFIX  43
H75   2    0.997386    0.283713    0.867811    11.00000   -1.20000
AFIX   0
C91   1    0.301802    0.069688    1.219658    11.00000    0.09071    0.07797 =
         0.09494    0.03084   -0.03474   -0.03501
AFIX  43
H91   2    0.250269    0.053835    1.159495    11.00000   -1.20000
AFIX   0

O42   5    0.064486    0.309674    1.293428    11.00000    0.03679    0.07123 =
         0.06732   -0.02046    0.00703   -0.01057
O44   5   -0.131021    0.297453    1.357794    11.00000    0.03958    0.10532 =
         0.07731   -0.00913    0.00668   -0.00128
O45   5    0.024934    0.315955    1.480572    11.00000    0.06997    0.11582 =
         0.05653   -0.02649   -0.01015    0.00842
N48   4   -0.015453    0.307876    1.378714    11.00000    0.04798    0.05386 =
         0.05466   -0.00592   -0.00313   -0.00292
C72   1    0.811287    0.415317    0.857114    11.00000    0.09502    0.08723 =
         0.14230    0.05931   -0.02404   -0.00201
AFIX  43
H72   2    0.765918    0.448874    0.856165    11.00000   -1.20000
AFIX   0
C1    1    0.944531    0.349264    0.757799    11.00000    0.21271    0.12039 =
         0.03684   -0.00715    0.03211   -0.06122
AFIX  43
H1    2    0.988917    0.338421    0.688679    11.00000   -1.20000
AFIX   0
C6    1    0.816753    0.383749    0.956980    11.00000    0.05720    0.05625 =
         0.12648    0.03985   -0.00667   -0.00542
AFIX  43
H6    2    0.774051    0.396141    1.025735    11.00000   -1.20000
AFIX   0
C3    1    0.872388    0.396699    0.762086    11.00000    0.17113    0.09656 =
         0.09803    0.04938   -0.04706   -0.05650
AFIX  43
H3    2    0.865928    0.417484    0.692349    11.00000   -1.20000
AFIX   0
C11   1    0.445806    0.111516    1.392928    11.00000    0.16039    0.08950 =
         0.06299    0.01519   -0.03607    0.01711
AFIX  43
H11   2    0.495072    0.127131    1.454876    11.00000   -1.20000
AFIX   0

N1    4    0.486389    0.134857    0.766312    11.00000    0.06406    0.08559 =
         0.06146   -0.01538    0.00471    0.00772
O5    5    0.367718    0.129884    0.787713    11.00000    0.04410    0.10717 =
         0.11171    0.00722   -0.00884   -0.01163
C2    1    0.294759    0.048836    1.328787    11.00000    0.11188    0.13818 =
         0.10794    0.06556   -0.01688   -0.03395
AFIX  43
H2    2    0.235508    0.020095    1.344161    11.00000   -1.20000
AFIX  66

PART 2
C1G   1    0.177073    0.477529    1.611170    41.00000    0.10426
C1C   1    0.278546    0.511699    1.644326    41.00000    0.09566
AFIX  43
H1C   2    0.266363    0.549824    1.643102    41.00000   -1.20000
AFIX  65
C1A   1    0.397846    0.490088    1.679273    41.00000    0.10934
AFIX  43
H1A   2    0.467198    0.513443    1.701933    41.00000   -1.20000
AFIX  65
C1B   1    0.415673    0.434306    1.681064    41.00000    0.12092
AFIX  43
H1B   2    0.497210    0.419536    1.704948    41.00000   -1.20000
AFIX  65
C15   1    0.314201    0.400135    1.647908    41.00000    0.10019
AFIX  43
H15   2    0.326386    0.362010    1.649132    41.00000   -1.20000
AFIX  65
C1F   1    0.194901    0.421745    1.612961    41.00000    0.08787
AFIX  43
H1F   2    0.125549    0.398390    1.590301    41.00000   -1.20000
AFIX   0

O6    5   -0.024939    0.470082    1.524180    41.00000    0.15993
PART 0
PART 1
N2    4    0.722581    0.507922    1.139003    51.00000    0.09142
O7    5    0.827628    0.526864    1.116029    51.00000    0.13913
O8    5    0.632618    0.518256    1.074345    51.00000    0.12711
AFIX  66
C29   1    0.592241    0.459023    1.293433    51.00000    0.24953
AFIX  43
H29   2    0.511534    0.470677    1.260797    51.00000   -1.20000
AFIX  65
C9    1    0.593132    0.426519    1.392752    51.00000    0.22398
AFIX  43
H9    2    0.513034    0.415957    1.427996    51.00000   -1.20000
AFIX  65
C4    1    0.711219    0.409467    1.440503    51.00000    0.14866
AFIX  43
H4    2    0.711828    0.387252    1.508383    51.00000   -1.20000
AFIX  65
C5    1    0.828416    0.424921    1.388935    51.00000    0.23400
AFIX  43
H5    2    0.909122    0.413267    1.421571    51.00000   -1.20000
AFIX  65
C13   1    0.827526    0.457425    1.289617    51.00000    0.27124
AFIX  43
H13A  2    0.907625    0.467987    1.254373    51.00000   -1.20000
AFIX  65
C7    1    0.709440    0.474477    1.241864    51.00000    0.11973
AFIX   0

PART 0
PART 2
N8    4    0.051433    0.499424    1.575634    41.00000    0.14286

PART 0
PART 1
AFIX  66
C1H   1    0.264176    0.463867    1.513691    31.00000    0.10062
C1I   1    0.202533    0.428283    1.437201    31.00000    0.07749
AFIX  43
H1I   2    0.181697    0.392617    1.462088    31.00000   -1.20000
AFIX  65
C1D   1    0.171375    0.444881    1.324300    31.00000    0.10509
AFIX  43
H1D   2    0.129245    0.420560    1.272023    31.00000   -1.20000
AFIX  65
C17   1    0.201861    0.497065    1.287886    31.00000    0.09440
AFIX  43
H17A  2    0.180566    0.508409    1.210722    31.00000   -1.20000
AFIX  65
C1E   1    0.263505    0.532650    1.364374    31.00000    0.09683
AFIX  43
H1E   2    0.284340    0.568316    1.339486    31.00000   -1.20000
AFIX  65
C1J   1    0.294663    0.516052    1.477277    31.00000    0.09673
AFIX  43
H1J   2    0.336793    0.540374    1.529553    31.00000   -1.20000
AFIX   0
N49   4    0.293882    0.443843    1.630507    31.00000    0.10851
O57   5    0.253890    0.398190    1.652173    31.00000    0.17085

PART 0
PART 2
O58   5    0.032511    0.546425    1.601389    41.00000    0.30722

PART 0
PART 1
O59   5    0.354821    0.472523    1.697379    31.00000    0.19277

PART 0
PART 2
AFIX  66
C92   1    0.380463    0.458804    1.357399    21.00000    0.12794
C93   1    0.276477    0.423731    1.337656    21.00000    0.08844
AFIX  43
H93   2    0.287341    0.385931    1.349550    21.00000   -1.20000
AFIX  65
C94   1    0.156594    0.443965    1.300511    21.00000    0.11707
AFIX  43
H94   2    0.085525    0.419994    1.287018    21.00000   -1.20000
AFIX  65
C17A  1    0.140697    0.499272    1.283109    21.00000    0.09440
AFIX  43
H17B  2    0.058762    0.513100    1.257723    21.00000   -1.20000
AFIX  65
C95   1    0.244682    0.534346    1.302852    21.00000    0.13583
AFIX  43
H95   2    0.233816    0.572146    1.290958    21.00000   -1.20000
AFIX  65
C96   1    0.364565    0.514112    1.339997    21.00000    0.14252
AFIX  43
H96   2    0.435634    0.538084    1.353490    21.00000   -1.20000
AFIX   0

N50   4    0.504556    0.437858    1.397106    21.00000    0.22065
O60   5    0.520696    0.389036    1.396538    21.00000    0.33825
O29A  5    0.592394    0.468201    1.431366    21.00000    0.24953
HKLF 4

REM  1 in P21 #4
REM R1 =  0.0751 for    8427 Fo > 4sig(Fo)  and  0.0844 for all    9647 data
REM    717 parameters refined using    112 restraints

END

WGHT      0.0973      5.1149

REM Highest difference peak  0.655,  deepest hole -0.698,  1-sigma level  0.110
Q1    1  -0.0598  0.1824  1.0018  11.00000  0.05    0.65
Q2    1   0.0209  0.1939  1.0572  11.00000  0.05    0.61
Q3    1   0.4455  0.2604  0.9959  11.00000  0.05    0.59
Q4    1   0.9479  0.3402  1.0263  11.00000  0.05    0.57
Q5    1   0.1377  0.1848  1.8637  11.00000  0.05    0.53
Q6    1   0.0183  0.1980  1.8576  11.00000  0.05    0.53
Q7    1   0.0202  0.1908  1.6626  11.00000  0.05    0.48
Q8    1   0.3642  0.4149  1.3547  11.00000  0.05    0.47
Q9    1   0.0564  0.1997  1.8042  11.00000  0.05    0.47
Q10   1   0.5306  0.2634  1.0572  11.00000  0.05    0.46
Q11   1   0.3632  0.4048  1.7155  11.00000  0.05    0.46
Q12   1   0.4404  0.1012  1.1046  11.00000  0.05    0.45
Q13   1   0.7917  0.4777  1.1555  11.00000  0.05    0.45
Q14   1  -0.0547  0.1853  1.8271  11.00000  0.05    0.43
Q15   1   0.5293  0.2707  0.2590  11.00000  0.05    0.43
Q16   1   0.8660  0.5099  1.1756  11.00000  0.05    0.42
Q17   1   0.1193  0.5308  1.2894  11.00000  0.05    0.41
Q18   1   0.4773  0.4384  1.3333  11.00000  0.05    0.41
Q19   1   0.6154  0.2585  0.8654  11.00000  0.05    0.40
Q20   1   0.3786  0.2255  1.1016  11.00000  0.05    0.40
Q21   1   0.3902  0.2488  0.2534  11.00000  0.05    0.40
Q22   1   0.5283  0.2451  0.8445  11.00000  0.05    0.39
Q23   1   0.4092  0.4368  1.0470  11.00000  0.05    0.39
Q24   1  -0.0861  0.1966  1.6730  11.00000  0.05    0.39
Q25   1   0.5293  0.2538  0.6603  11.00000  0.05    0.39
Q26   1   0.6106  0.1010  0.8443  11.00000  0.05    0.38
Q27   1   0.7173  0.4302  1.1800  11.00000  0.05    0.37
Q28   1   0.1453  0.1875  1.0631  11.00000  0.05    0.37
Q29   1   0.3701  0.2419  1.0697  11.00000  0.05    0.36
Q30   1   0.4740  0.0798  1.3468  11.00000  0.05    0.36
Q31   1   0.4438  0.4076  1.3579  11.00000  0.05    0.36
Q32   1   0.4068  0.2767  0.8404  11.00000  0.05    0.35
Q33   1   0.3821  0.2814  1.0861  11.00000  0.05    0.35
Q34   1  -0.1049  0.1956  1.4686  11.00000  0.05    0.35
Q35   1  -0.0029  0.1959  1.4755  11.00000  0.05    0.34
Q36   1   1.1069  0.3432  0.8671  11.00000  0.05    0.34
Q37   1  -0.0203  0.5166  1.2198  11.00000  0.05    0.34
Q38   1   0.8496  0.3627  1.4053  11.00000  0.05    0.34
Q39   1   0.2244  0.4820  1.2865  11.00000  0.05    0.34
Q40   1   0.5627  0.0969  1.3530  11.00000  0.05    0.33
;
_shelx_res_checksum              51523
_shelx_hkl_file
;
   1   0   0   -0.12    0.04
  -1   0   0   -0.09    0.04
   2   0   0  207.91   11.55
  -2   0   0  185.12   11.42
   3   0   0    0.05    0.10
  -3   0   0    0.02    0.09
   4   0   0   17.02    1.03
  -4   0   0   15.80    1.00
  -4   0   0   15.79    1.01
   5   0   0   -0.02    0.20
  -5   0   0    0.19    0.18
  -5   0   0   -0.07    0.17
   6   0   0    0.48    0.30
  -6   0   0    1.11    0.27
  -6   0   0    0.83    0.28
   7   0   0   -0.14    0.17
  -7   0   0   -0.02    0.33
  -7   0   0    0.16    0.33
   8   0   0    1.17    0.27
   8   0   0    1.42    0.23
  -8   0   0    1.94    0.22
  -8   0   0    2.25    0.59
   9   0   0    0.62    0.28
   9   0   0    0.83    0.23
  -9   0   0    0.93    0.21
  -9   0   0    0.85    0.20
  10   0   0   33.10    1.65
 -10   0   0   33.43    1.63
 -11   0   0   -0.04    0.16
 -12   0   0    3.99    0.26
 -12   0   1    2.45    0.21
 -11   0   1    0.26    0.17
  11   0  -1    0.08    0.19
  11   0  -1   -0.12    0.24
 -10   0   1    7.28    0.44
  10   0  -1    6.62    0.47
  10   0  -1    6.57    0.53
   9   0  -1   -0.03    0.25
   9   0  -1   -0.16    0.21
   9   0  -1   -0.17    0.26
  -8   0   1    0.73    0.54
  -8   0   1    0.89    0.21
  -8   0   1    0.84    0.61
   8   0  -1    0.80    0.23
   8   0  -1    0.96    0.20
   8   0  -1    1.00    0.23
  -7   0   1   -0.04    0.34
  -7   0   1   -0.02    0.37
   7   0  -1    0.12    0.15
   7   0  -1    0.19    0.19
  -6   0   1   22.53    1.41
  -6   0   1   22.12    1.43
   6   0  -1   21.89    1.47
  -5   0   1    2.33    0.33
  -5   0   1    2.11    0.33
   5   0  -1    2.23    0.30
   4   0  -1    1.52    0.23
  -3   0   1    0.99    0.17
   3   0  -1    0.68    0.15
  -2   0   1   17.84    1.11
   2   0  -1   19.29    1.13
  -1   0   1    2.30    0.17
   1   0  -1    2.21    0.18
   1   0  -1    2.46    0.18
   0   0  -1  331.70   20.10
   0   0  -1  359.61   20.31
  -1   0  -1    0.30    0.05
  -1   0  -1    0.27    0.05
   2   0   1    4.09    0.29
  -2   0  -1    4.09    0.28
  -2   0  -1    3.95    0.30
   3   0   1   19.57    1.16
  -3   0  -1   18.61    1.15
  -3   0  -1   18.90    1.15
   4   0   1   59.90    3.44
  -4   0  -1   57.29    3.40
  -4   0  -1   55.76    3.42
  -5   0  -1    1.53    0.24
  -5   0  -1    1.41    0.22
  -6   0  -1    0.55    0.26
  -6   0  -1    0.16    0.24
   7   0   1    1.46    0.21
  -7   0  -1    1.95    0.41
  -7   0  -1    1.46    0.20
   8   0   1    2.75    0.34
  -8   0  -1    3.39    0.63
  -8   0  -1    2.87    0.28
  -8   0  -1    2.45    0.30
   9   0   1    0.54    0.23
  -9   0  -1    0.52    0.19
  -9   0  -1    0.46    0.20
 -10   0  -1    0.69    0.22
 -10   0  -1    0.68    0.19
 -11   0  -1    0.10    0.17
 -12   0  -1    2.33    0.21
 -12   0   2    0.67    0.13
 -11   0   2   -0.08    0.16
  11   0  -2    0.12    0.18
  11   0  -2    0.08    0.22
 -10   0   2    2.17    0.24
  10   0  -2    1.85    0.29
  10   0  -2    2.24    0.30
  10   0  -2    2.22    0.27
   9   0  -2    0.01    0.21
   9   0  -2    0.21    0.23
   9   0  -2    0.21    0.23
  -8   0   2    2.57    0.59
   8   0  -2    2.93    0.34
   8   0  -2    3.00    0.38
   8   0  -2    3.03    0.38
  -7   0   2   -0.27    0.34
  -7   0   2    0.12    0.39
   7   0  -2   -0.66    0.40
   7   0  -2    0.11    0.17
   7   0  -2   -0.03    0.16
   7   0  -2    0.03    0.16
  -6   0   2   36.83    2.22
  -6   0   2   34.80    2.19
   6   0  -2   35.24    2.24
  -5   0   2    0.87    0.24
  -5   0   2    1.25    0.23
   5   0  -2    1.23    0.28
  -4   0   2   13.72    0.82
   4   0  -2   11.58    0.85
  -3   0   2    0.11    0.12
   3   0  -2    0.19    0.13
  -2   0   2   27.79    1.74
   2   0  -2   31.32    1.77
   2   0  -2   28.87    1.74
   1   0  -2    6.27    0.41
   1   0  -2    6.15    0.41
   0   0  -2   86.24    5.00
   0   0  -2   83.85    4.96
  -1   0  -2    3.33    0.20
  -1   0  -2    2.89    0.23
  -2   0  -2    2.08    0.20
  -2   0  -2    2.04    0.17
  -3   0  -2    0.22    0.11
  -3   0  -2    0.09    0.09
  -4   0  -2  169.80   10.18
  -4   0  -2  176.23   10.09
  -5   0  -2    7.99    0.61
  -5   0  -2    8.18    0.61
  -6   0  -2   13.00    0.92
   7   0   2    0.60    0.20
  -7   0  -2    0.72    0.41
  -7   0  -2    0.80    0.15
  -7   0  -2    0.66    0.16
   8   0   2    0.32    0.22
  -8   0  -2    0.44    0.17
  -8   0  -2    1.44    0.59
  -8   0  -2    0.57    0.17
  -9   0  -2    0.76    0.19
  -9   0  -2    0.76    0.20
 -10   0  -2    0.32    0.19
 -10   0  -2    0.18    0.20
 -11   0  -2   -0.17    0.16
 -11   0  -2    0.01    0.19
 -11   0   3    0.16    0.16
  11   0  -3    0.23    0.22
  11   0  -3    0.18    0.22
  11   0  -3    0.10    0.18
 -10   0   3    6.37    0.42
  10   0  -3    6.51    0.45
  10   0  -3    6.61    0.48
  10   0  -3    6.16    0.49
   9   0  -3    0.08    0.22
   9   0  -3    0.33    0.23
   9   0  -3    0.02    0.21
   8   0  -3    2.34    0.35
   8   0  -3    2.53    0.34
   8   0  -3    2.68    0.35
  -7   0   3   -0.08    0.40
   7   0  -3    0.15    0.17
   7   0  -3   -0.18    0.44
   7   0  -3    0.24    0.17
   7   0  -3    0.00    0.17
  -6   0   3    6.13    0.64
  -6   0   3    6.26    0.63
   6   0  -3    6.63    0.67
  -5   0   3    4.93    0.51
  -5   0   3    5.64    0.51
   5   0  -3    4.99    0.55
  -4   0   3    3.63    0.39
   4   0  -3    3.73    0.43
  -3   0   3    5.10    0.39
   3   0  -3    4.74    0.42
  -2   0   3  102.20    5.86
   2   0  -3  101.20    5.92
   2   0  -3   96.80    5.86
   1   0  -3   64.90    3.83
   1   0  -3   65.43    3.86
   0   0  -3  266.05   15.67
   0   0  -3  272.80   15.83
  -1   0  -3    1.45    0.19
  -1   0  -3    1.15    0.13
  -2   0  -3   21.56    1.30
  -3   0  -3    8.50    0.59
  -4   0  -3   11.39    0.76
  -5   0  -3    0.96    0.26
  -6   0  -3    1.38    0.34
   7   0   3   -0.51    0.27
   7   0   3    0.01    0.22
  -7   0  -3    0.01    0.14
  -7   0  -3    0.22    0.44
  -7   0  -3   -0.01    0.17
   8   0   3    4.12    0.60
  -8   0  -3    4.40    0.36
  -8   0  -3    4.32    0.35
  -9   0  -3   -0.03    0.20
  -9   0  -3   -0.16    0.18
 -10   0  -3    2.13    0.30
 -10   0  -3    2.18    0.29
 -11   0  -3   -0.09    0.18
 -11   0  -3    0.04    0.18
 -11   0   4    0.78    0.16
  11   0  -4    0.58    0.19
  11   0  -4    0.36    0.18
  11   0  -4    0.80    0.20
  10   0  -4    5.36    0.42
  10   0  -4    5.45    0.40
  10   0  -4    5.09    0.43
   9   0  -4   -0.03    0.21
   9   0  -4    0.04    0.23
   9   0  -4    0.39    0.23
   8   0  -4    2.45    0.34
   8   0  -4    2.76    0.36
   8   0  -4    2.84    0.37
  -7   0   4    0.22    0.45
   7   0  -4    0.42    0.18
   7   0  -4    0.58    0.19
   7   0  -4   -0.04    0.50
   7   0  -4    0.77    0.18
  -6   0   4   24.63    1.62
  -6   0   4   25.70    1.61
   6   0  -4   23.70    1.32
   6   0  -4   25.32    1.63
   6   0  -4   22.64    1.25
   6   0  -4   23.47    1.21
  -5   0   4    0.84    0.30
  -5   0   4    1.00    0.32
   5   0  -4    1.13    0.34
  -4   0   4   23.76    1.59
   4   0  -4   27.88    1.65
  -3   0   4    0.28    0.20
   3   0  -4    0.26    0.20
   3   0  -4    0.30    0.20
   2   0  -4   18.04    1.15
   2   0  -4   18.71    1.16
   1   0  -4   13.62    0.86
   1   0  -4   13.39    0.87
   0   0  -4   12.22    0.75
   0   0  -4   10.98    0.74
  -1   0  -4    4.03    0.34
  -1   0  -4    3.77    0.29
  -2   0  -4    8.67    0.60
  -3   0  -4    0.90    0.23
  -4   0  -4   27.70    1.71
  -5   0  -4    1.90    0.34
   6   0   4   15.27    0.95
  -6   0  -4   16.57    1.12
  -6   0  -4   14.73    0.80
   7   0   4    3.26    0.47
  -7   0  -4    2.97    0.31
  -7   0  -4    3.16    0.58
  -7   0  -4    3.45    0.35
   8   0   4    3.32    0.39
  -8   0  -4    3.44    0.36
  -8   0  -4    3.06    0.33
  -9   0  -4    0.38    0.19
  -9   0  -4    0.18    0.22
 -10   0  -4    8.64    0.54
 -10   0  -4    9.37    0.53
 -11   0  -4    0.61    0.19
 -11   0   5    2.03    0.19
  11   0  -5    1.62    0.21
  11   0  -5    1.56    0.22
  11   0  -5    1.86    0.23
  10   0  -5    2.55    0.31
  10   0  -5    2.20    0.29
   9   0  -5    1.90    0.28
   9   0  -5    2.19    0.26
   9   0  -5    2.67    0.34
   8   0  -5    1.66    0.25
   8   0  -5    1.32    0.23
   8   0  -5    1.60    0.24
  -7   0   5    0.66    0.54
   7   0  -5    0.75    0.20
   7   0  -5    0.94    0.21
   7   0  -5    1.19    0.63
   7   0  -5    0.67    0.20
  -6   0   5   18.63    1.32
   6   0  -5   19.87    1.36
   6   0  -5   16.57    0.97
   6   0  -5   18.70    0.95
   6   0  -5   18.05    1.03
  -5   0   5    0.22    0.37
  -5   0   5    0.05    0.31
   5   0  -5   -0.08    0.35
  -4   0   5   33.40    2.09
   4   0  -5   34.19    2.13
  -3   0   5    0.26    0.26
   3   0  -5   -0.02    0.23
   3   0  -5    0.26    0.28
   2   0  -5   33.52    2.04
   2   0  -5   33.21    2.04
   1   0  -5   40.64    2.48
   1   0  -5   41.78    2.48
   0   0  -5   89.74    5.49
   0   0  -5   96.01    5.46
  -1   0  -5   49.90    2.97
  -2   0  -5    4.65    0.42
  -3   0  -5    4.24    0.47
  -4   0  -5    5.45    0.56
  -5   0  -5    0.24    0.37
   6   0   5   20.96    1.25
  -6   0  -5   20.31    1.09
  -6   0  -5   23.84    1.50
  -6   0  -5   21.31    1.26
   7   0   5    0.42    0.27
  -7   0  -5    0.49    0.25
  -7   0  -5    0.69    0.17
  -7   0  -5    0.86    0.57
   8   0   5    5.22    0.55
  -8   0  -5    5.62    0.41
   9   0   5   -0.06    0.31
  -9   0  -5    0.14    0.19
 -10   0  -5   12.81    0.69
 -11   0  -5    0.61    0.18
 -10   0   6    0.71    0.18
  10   0  -6    0.38    0.18
  10   0  -6    0.49    0.20
  10   0  -6    0.71    0.19
   9   0  -6   -0.03    0.22
   9   0  -6    0.29    0.23
   9   0  -6    0.05    0.19
   8   0  -6    1.23    0.25
   8   0  -6    1.26    0.24
   8   0  -6    1.08    0.23
   7   0  -6    1.14    0.22
   7   0  -6    1.11    0.23
   7   0  -6    1.01    0.24
  -6   0   6    9.41    0.99
   6   0  -6    9.18    0.62
   6   0  -6   11.50    1.06
   6   0  -6   11.00    0.62
   6   0  -6   11.48    0.67
  -5   0   6    1.74    0.43
   5   0  -6    1.80    0.25
   5   0  -6    1.99    0.47
   5   0  -6    2.20    0.31
   5   0  -6    1.56    0.23
  -4   0   6   28.84    1.90
  -4   0   6   29.69    1.92
   4   0  -6   31.13    1.93
  -3   0   6    0.41    0.34
   3   0  -6    0.38    0.30
   3   0  -6    0.37    0.35
   2   0  -6   28.08    1.78
   2   0  -6   28.27    1.78
   1   0  -6    8.61    0.71
   1   0  -6    9.56    0.73
   0   0  -6   20.02    1.29
  -1   0  -6    1.27    0.31
  -2   0  -6    1.49    0.34
  -3   0  -6    3.65    0.52
  -4   0  -6    6.75    0.69
  -5   0  -6    0.91    0.46
  -5   0  -6    1.33    0.18
  -5   0  -6    1.18    0.23
  -5   0  -6    1.93    0.27
   6   0   6    9.25    0.63
  -6   0  -6    8.11    0.52
  -6   0  -6    8.95    0.63
  -6   0  -6    8.65    0.95
   7   0   6    0.36    0.27
  -7   0  -6   -0.03    0.18
  -7   0  -6    0.12    0.25
   8   0   6    0.85    0.31
  -8   0  -6    0.79    0.21
   9   0   6    0.19    0.29
  -9   0  -6    0.04    0.20
 -10   0  -6    4.00    0.32
 -10   0   7    1.57    0.20
  10   0  -7    1.56    0.22
  10   0  -7    1.33    0.19
  10   0  -7    1.22    0.19
   9   0  -7    0.61    0.19
   9   0  -7    0.54    0.22
   9   0  -7    0.32    0.21
   8   0  -7    2.58    0.30
   8   0  -7    2.13    0.28
   8   0  -7    2.57    0.33
   7   0  -7    2.09    0.25
   7   0  -7    2.07    0.29
   7   0  -7    1.83    0.27
   6   0  -7    1.89    0.27
   6   0  -7    2.63    0.36
   6   0  -7    1.82    0.28
  -5   0   7   10.94    1.09
   5   0  -7   10.31    1.11
   5   0  -7   11.01    0.73
   5   0  -7   11.84    0.67
   5   0  -7   10.54    0.66
  -4   0   7   12.39    1.05
   4   0  -7   13.81    1.10
   4   0  -7   12.69    0.80
   4   0  -7   11.31    0.74
  -3   0   7    4.19    0.64
  -3   0   7    4.17    0.59
   3   0  -7    4.60    0.74
   3   0  -7    3.59    0.52
   2   0  -7    9.09    0.85
   1   0  -7    0.38    0.40
   0   0  -7   47.82    2.93
  -1   0  -7    1.96    0.43
  -2   0  -7    5.13    0.63
  -3   0  -7    8.38    0.58
  -3   0  -7    8.90    0.51
  -3   0  -7    9.55    0.83
  -3   0  -7    8.13    0.54
  -4   0  -7    3.34    0.36
  -4   0  -7    3.04    0.60
  -4   0  -7    3.85    0.40
  -4   0  -7    3.93    0.33
  -5   0  -7    4.73    0.38
  -5   0  -7    3.76    0.71
  -5   0  -7    4.35    0.44
  -5   0  -7    4.30    0.42
   6   0   7    1.10    0.28
  -6   0  -7    0.80    0.21
  -6   0  -7    0.72    0.29
  -6   0  -7    0.77    0.25
   7   0   7    3.01    0.43
  -7   0  -7    2.30    0.32
  -7   0  -7    2.49    0.34
   8   0   7    2.98    0.42
  -8   0  -7    2.52    0.34
   9   0   7    0.87    0.29
  -9   0  -7    0.90    0.20
 -10   0  -7    2.12    0.22
   9   0  -8    1.04    0.19
   9   0  -8    0.65    0.20
   9   0  -8    1.03    0.22
   8   0  -8    0.43    0.20
   8   0  -8    0.19    0.22
   8   0  -8    0.30    0.23
   7   0  -8    0.47    0.21
   7   0  -8    0.43    0.25
   7   0  -8    0.27    0.25
   6   0  -8    0.92    0.23
   6   0  -8    1.29    0.27
   6   0  -8    0.88    0.28
   5   0  -8    1.03    0.29
   5   0  -8    1.44    0.25
  -2   0   8    1.69    0.60
   2   0  -8    0.68    0.59
   2   0  -8    0.50    0.25
   1   0  -8    8.61    0.53
   1   0  -8    9.20    0.64
   1   0  -8    6.84    0.92
   1   0  -8    8.75    0.58
   0   0  -8   41.80    2.15
   0   0  -8   43.55    2.73
   0   0  -8   45.95    2.22
   0   0  -8   41.96    2.41
  -1   0  -8    2.70    0.33
  -1   0  -8    1.69    0.58
  -1   0  -8    3.16    0.36
  -1   0  -8    2.68    0.30
  -2   0  -8    0.46    0.54
  -2   0  -8    1.26    0.21
  -2   0  -8    0.73    0.21
  -2   0  -8    0.57    0.21
  -3   0  -8    2.22    0.25
  -3   0  -8    2.74    0.65
  -3   0  -8    1.94    0.24
  -3   0  -8    2.08    0.26
  -4   0  -8    6.30    0.98
  -4   0  -8    6.96    0.51
  -4   0  -8    7.55    0.57
  -4   0  -8    8.32    0.49
  -5   0  -8    0.34    0.21
  -5   0  -8    0.44    0.23
  -5   0  -8    0.80    0.24
   6   0   8    0.71    0.29
  -6   0  -8    0.68    0.23
  -6   0  -8    0.09    0.28
  -6   0  -8    0.31    0.27
   7   0   8    0.52    0.29
  -7   0  -8    0.15    0.22
  -7   0  -8    0.57    0.26
   8   0   8    0.49    0.28
  -8   0  -8    0.21    0.20
   9   0   8    0.90    0.26
  -9   0  -8    1.20    0.19
   9   0  -9    0.24    0.16
   9   0  -9    0.11    0.21
   8   0  -9    0.80    0.21
   8   0  -9    0.43    0.23
   7   0  -9    0.50    0.22
   7   0  -9    0.29    0.26
   6   0  -9    5.56    0.45
   2   0  -9    0.87    0.27
   1   0  -9    2.24    0.34
   0   0  -9   12.83    1.26
   0   0  -9   13.16    0.76
   0   0  -9   14.09    0.76
   0   0  -9   13.04    0.84
  -1   0  -9    1.14    0.24
  -1   0  -9    0.81    0.79
  -1   0  -9    1.40    0.25
  -1   0  -9    1.01    0.21
  -2   0  -9    7.10    0.52
  -2   0  -9    6.18    0.47
  -2   0  -9    6.48    0.47
  -2   0  -9    7.01    1.01
  -3   0  -9    1.11    0.23
  -3   0  -9    0.92    0.24
  -3   0  -9    1.00    0.25
  -4   0  -9    7.67    0.51
  -4   0  -9    7.55    0.54
  -4   0  -9    7.67    0.58
  -5   0  -9    3.18    0.41
  -5   0  -9    3.17    0.36
  -5   0  -9    3.97    0.41
   6   0   9    3.54    0.41
  -6   0  -9    2.71    0.40
  -6   0  -9    2.90    0.35
  -6   0  -9    2.60    0.39
   7   0   9    0.48    0.27
  -7   0  -9    0.51    0.24
  -7   0  -9    0.76    0.21
   8   0   9    0.58    0.25
  -8   0  -9    0.34    0.18
   9   0   9    0.46    0.22
  -9   0  -9    0.60    0.15
   2   0 -10    1.52    0.29
   1   0 -10    4.76    0.43
   0   0 -10    4.43    0.38
   0   0 -10    3.06    0.43
   0   0 -10    3.60    0.45
  -1   0 -10    2.16    0.26
  -1   0 -10    1.85    0.29
  -1   0 -10    2.49    0.29
  -2   0 -10    3.37    0.39
  -2   0 -10    3.48    0.36
  -2   0 -10    3.00    0.41
  -3   0 -10    1.56    0.26
  -3   0 -10    1.18    0.28
  -3   0 -10    1.24    0.27
  -4   0 -10    8.71    0.60
   5   0  10    0.72    0.28
  -5   0 -10    0.92    0.25
  -5   0 -10    1.01    0.24
  -5   0 -10    0.96    0.25
   6   0  10    2.77    0.37
  -6   0 -10    3.10    0.36
  -6   0 -10    3.12    0.32
  -6   0 -10    3.21    0.36
   7   0  10    0.47    0.24
  -7   0 -10    0.33    0.19
   8   0  10    0.04    0.20
  -8   0 -10    0.31    0.14
   2   0 -11    1.39    0.28
   1   0 -11   10.61    0.65
   0   0 -11    3.05    0.36
   0   0 -11    2.95    0.41
  -1   0 -11    8.46    0.61
  -1   0 -11    8.55    0.56
  -1   0 -11    9.06    0.58
  -2   0 -11    2.32    0.33
  -2   0 -11    2.18    0.30
  -2   0 -11    2.35    0.36
  -3   0 -11    0.62    0.23
  -3   0 -11    0.56    0.25
  -3   0 -11    1.01    0.25
   4   0  11    1.16    0.29
  -4   0 -11    1.17    0.24
  -4   0 -11    1.04    0.24
  -4   0 -11    1.05    0.24
   5   0  11    0.36    0.26
  -5   0 -11    0.62    0.22
  -5   0 -11    0.80    0.22
  -5   0 -11    0.61    0.21
   6   0  11    1.78    0.28
  -6   0 -11    1.87    0.24
  -6   0 -11    1.74    0.24
  -6   0 -11    1.77    0.27
   7   0  11    0.89    0.20
   1   0 -12    1.49    0.26
   0   0 -12    1.29    0.24
  -1   0 -12    1.91    0.29
  -1   0 -12    2.17    0.30
  -2   0 -12    0.13    0.20
  -2   0 -12    0.28    0.23
  -2   0 -12    0.45    0.25
   3   0  12    0.85    0.28
  -3   0 -12    1.26    0.25
  -3   0 -12    1.13    0.23
  -3   0 -12    1.05    0.22
   4   0  12    0.09    0.24
  -4   0 -12    0.39    0.19
  -4   0 -12    0.49    0.21
  -4   0 -12    0.23    0.19
   5   0  12    1.53    0.24
  -5   0 -12    1.38    0.20
  -5   0 -12    1.03    0.19
  -5   0 -12    1.03    0.19
   1   0 -13    0.87    0.25
   0   0 -13    1.42    0.23
  -1   0 -13    0.81    0.20
   2   0  13   -0.27    0.28
  -2   0 -13    0.00    0.16
  -2   0 -13    0.48    0.20
   3   0  13   -0.31    0.24
  -3   0 -13    0.23    0.18
  -3   0 -13    0.29    0.16
  -3   1 -13    0.20    0.20
  -3   1 -13    0.01    0.15
   3  -1  13    0.14    0.26
  -2   1 -13    0.12    0.16
  -1   1 -13    0.65    0.19
   0   1 -13    1.41    0.22
   1   1 -13    1.45    0.24
  -5   1 -12    0.85    0.18
  -5   1 -12    1.15    0.19
  -5   1 -12    0.65    0.17
   5  -1  12    0.87    0.23
  -4   1 -12    0.95    0.21
  -4   1 -12    0.98    0.20
  -4   1 -12    1.03    0.22
   4  -1  12    0.99    0.27
  -3   1 -12    0.90    0.24
  -3   1 -12    0.70    0.22
  -3   1 -12    0.74    0.20
   3  -1  12    0.66    0.28
  -2   1 -12    0.60    0.24
  -2   1 -12    0.16    0.22
  -2   1 -12    0.34    0.20
   2  -1  12    0.81    0.30
  -1   1 -12    0.49    0.25
  -1   1 -12    0.26    0.25
  -1   1 -12    0.47    0.22
   0   1 -12    2.96    0.33
   1   1 -12    1.07    0.24
  -7   1 -11    1.55    0.20
   7  -1  11    2.00    0.25
  -6   1 -11    0.26    0.18
  -6   1 -11    0.47    0.21
   6  -1  11    0.36    0.23
  -5   1 -11    0.64    0.21
  -5   1 -11    0.96    0.22
  -5   1 -11    1.07    0.24
   5  -1  11    1.15    0.28
  -4   1 -11    0.51    0.22
  -4   1 -11    0.30    0.22
  -4   1 -11    0.33    0.22
   4  -1  11    0.55    0.27
  -3   1 -11    0.81    0.23
  -3   1 -11    0.57    0.23
  -3   1 -11    0.70    0.24
  -2   1 -11    0.34    0.23
  -2   1 -11    0.41    0.25
  -2   1 -11    0.66    0.26
  -1   1 -11    3.14    0.34
  -1   1 -11    3.25    0.40
  -1   1 -11    2.68    0.39
   0   1 -11   10.54    0.65
   0   1 -11   10.91    0.65
   1   1 -11    3.55    0.38
   2   1 -11    0.71    0.26
  -8   1 -10    0.75    0.15
   8  -1  10    0.32    0.20
  -7   1 -10    0.71    0.19
   7  -1  10    1.30    0.25
  -6   1 -10    0.98    0.22
  -6   1 -10    1.20    0.25
  -6   1 -10    1.84    0.27
   6  -1  10    1.51    0.28
  -5   1 -10    4.84    0.42
  -5   1 -10    5.09    0.44
  -5   1 -10    4.70    0.40
   5  -1  10    4.53    0.45
  -4   1 -10    3.06    0.36
  -4   1 -10    2.82    0.36
  -4   1 -10    3.18    0.38
  -3   1 -10    1.26    0.27
  -3   1 -10    1.32    0.26
  -3   1 -10    1.46    0.25
  -2   1 -10    1.56    0.29
  -2   1 -10    1.91    0.25
  -2   1 -10    2.22    0.27
  -1   1 -10    0.78    0.25
  -1   1 -10    0.76    0.22
  -1   1 -10    0.73    0.26
   0   1 -10   12.97    0.74
   0   1 -10   12.75    0.82
   0   1 -10   12.23    0.74
   1   1 -10    3.54    0.38
   1   1 -10    3.02    0.41
   2   1 -10    4.69    0.44
  -9   1  -9    0.07    0.14
   9  -1   9    0.16    0.20
  -8   1  -9    0.59    0.18
   8  -1   9    0.38    0.24
  -7   1  -9    0.80    0.21
   7  -1   9    0.69    0.27
  -6   1  -9    6.62    0.49
  -6   1  -9    5.76    0.49
  -6   1  -9    5.92    0.44
   6  -1   9    5.55    0.50
  -5   1  -9    4.68    0.41
  -5   1  -9    4.64    0.43
  -5   1  -9    4.98    0.45
   5  -1   9    4.77    0.47
  -4   1  -9    2.36    0.38
  -4   1  -9    2.70    0.37
  -4   1  -9    2.44    0.34
  -3   1  -9    3.82    0.44
  -3   1  -9    4.10    0.38
  -3   1  -9    4.19    0.40
  -2   1  -9    0.94    0.22
  -2   1  -9    1.57    0.77
  -2   1  -9    1.37    0.24
  -2   1  -9    1.14    0.25
  -1   1  -9    2.93    0.31
  -1   1  -9    2.58    0.34
  -1   1  -9    2.68    0.81
  -1   1  -9    2.36    0.29
   0   1  -9   13.92    0.85
   0   1  -9   12.81    0.74
   0   1  -9   14.43    0.75
   0   1  -9   10.26    1.25
   1   1  -9    3.53    0.82
   1   1  -9    2.84    0.39
   1   1  -9    3.35    0.33
   2   1  -9    3.41    0.39
   6   1  -9    1.81    0.26
   7   1  -9    1.65    0.24
   7   1  -9    1.46    0.29
   8   1  -9    0.02    0.23
   8   1  -9    0.58    0.20
   9   1  -9    0.39    0.18
  -9   1  -8    0.09    0.17
   9  -1   8    0.37    0.24
  -8   1  -8    0.49    0.20
  -7   1  -8    0.65    0.27
  -7   1  -8    0.56    0.22
   7  -1   8    1.10    0.29
  -6   1  -8    0.17    0.28
  -6   1  -8    0.27    0.26
  -6   1  -8    0.18    0.22
   6  -1   8    1.00    0.28
  -5   1  -8    0.24    0.22
  -5   1  -8   -0.01    0.23
  -5   1  -8   -0.32    0.20
  -4   1  -8    3.47    0.42
  -4   1  -8    4.26    0.35
  -4   1  -8    3.86    0.76
  -4   1  -8    3.47    0.38
  -3   1  -8    0.28    0.20
  -3   1  -8    0.11    0.21
  -3   1  -8    0.17    0.58
  -3   1  -8    0.00    0.20
  -2   1  -8    1.60    0.22
  -2   1  -8    1.72    0.55
  -2   1  -8    1.78    0.23
  -2   1  -8    1.16    0.23
  -1   1  -8   14.35    0.81
  -1   1  -8   14.49    0.79
  -1   1  -8   14.93    1.16
  -1   1  -8   14.89    0.89
   0   1  -8    7.68    0.50
   0   1  -8    6.51    0.86
   0   1  -8    8.81    0.53
   0   1  -8    9.04    0.61
   1   1  -8   14.53    0.77
   1   1  -8   13.00    1.13
   1   1  -8   12.88    0.77
   2   1  -8    1.01    0.57
   2   1  -8    0.85    0.26
   2   1  -8    0.87    0.24
   5   1  -8    0.54    0.23
   5   1  -8    0.28    0.27
   6   1  -8    1.57    0.25
   6   1  -8    1.36    0.30
   6   1  -8    1.85    0.27
   7   1  -8    1.10    0.27
   7   1  -8    1.28    0.23
   7   1  -8    1.08    0.26
   8   1  -8    0.80    0.23
   8   1  -8    0.57    0.21
   8   1  -8    0.62    0.23
   9   1  -8    0.66    0.21
   9   1  -8    0.38    0.20
   9   1  -8    0.99    0.19
 -10   1  -7    1.13    0.17
  10  -1   7    1.07    0.28
  -9   1  -7    0.28    0.20
   9  -1   7   -0.13    0.27
  -8   1  -7    0.48    0.22
   8  -1   7    1.04    0.31
  -7   1  -7    0.26    0.21
  -7   1  -7    0.45    0.27
   7  -1   7    1.05    0.29
  -6   1  -7    7.73    0.61
  -6   1  -7    8.23    0.53
   6  -1   7    8.53    0.62
  -5   1  -7    2.75    0.36
  -5   1  -7    2.11    0.31
  -5   1  -7    2.44    0.66
  -5   1  -7    2.68    0.40
  -4   1  -7   17.27    1.05
  -4   1  -7   17.76    0.93
  -4   1  -7   18.96    1.32
  -4   1  -7   17.90    0.98
  -3   1  -7    1.37    0.22
  -3   1  -7    1.41    0.20
  -3   1  -7    1.62    0.49
  -3   1  -7    1.52    0.22
  -2   1  -7   13.11    0.99
  -1   1  -7    1.96    0.41
   0   1  -7    5.45    0.66
   1   1  -7    7.11    0.71
   2   1  -7   10.03    0.87
   3   1  -7    2.84    0.50
   3   1  -7    3.02    0.54
  -3  -1   7    2.57    0.53
   4   1  -7   13.57    0.75
   4   1  -7   12.73    1.09
   4   1  -7   13.01    0.73
  -4  -1   7   13.04    1.08
   5   1  -7    4.43    0.42
   5   1  -7    4.22    0.39
   5   1  -7    4.25    0.46
   5   1  -7    5.38    0.90
  -5  -1   7    3.64    0.64
   6   1  -7   12.05    0.76
   6   1  -7   11.66    0.68
   6   1  -7   11.25    0.69
   7   1  -7    0.69    0.22
   7   1  -7    0.78    0.26
   7   1  -7    0.64    0.24
   8   1  -7    0.98    0.25
   8   1  -7    0.82    0.23
   8   1  -7    0.94    0.22
   9   1  -7    0.25    0.22
   9   1  -7    0.23    0.21
   9   1  -7    0.24    0.19
  10   1  -7    1.42    0.19
  10   1  -7    1.57    0.24
  10   1  -7    1.29    0.19
 -10  -1   7    1.24    0.17
 -10   1  -6    0.83    0.19
  10  -1   6    0.52    0.30
  -9   1  -6    0.53    0.21
   9  -1   6    0.36    0.29
  -8   1  -6    2.43    0.32
   8  -1   6    1.57    0.33
  -7   1  -6    0.81    0.20
  -7   1  -6    0.73    0.26
   7  -1   6    1.11    0.29
  -6   1  -6   15.79    0.97
  -6   1  -6   15.76    1.27
  -6   1  -6   16.80    0.84
   6  -1   6   14.94    0.97
  -5   1  -6    1.22    0.21
  -5   1  -6    1.22    0.18
  -5   1  -6    1.11    0.45
  -5   1  -6    1.45    0.28
  -4   1  -6   41.31    2.56
  -3   1  -6    0.74    0.35
  -2   1  -6   12.81    0.92
  -1   1  -6    2.62    0.38
   0   1  -6   18.70    1.23
   1   1  -6   17.28    1.18
   1   1  -6   18.58    1.20
   2   1  -6   18.15    1.22
   2   1  -6   17.59    1.20
   3   1  -6    2.00    0.38
   3   1  -6    2.55    0.43
   4   1  -6   10.23    0.90
  -4  -1   6   11.29    0.91
   5   1  -6    4.37    0.37
   5   1  -6    5.06    0.74
   5   1  -6    3.91    0.39
   5   1  -6    4.87    0.44
  -5  -1   6    4.00    0.68
   6   1  -6   20.56    1.05
   6   1  -6   18.59    1.01
   6   1  -6   17.84    1.46
   6   1  -6   20.24    1.11
  -6  -1   6   19.68    1.44
   7   1  -6   -0.04    0.21
   7   1  -6    0.32    0.19
   7   1  -6    0.12    0.21
   8   1  -6    0.44    0.24
   8   1  -6    0.76    0.23
   8   1  -6    0.27    0.21
   9   1  -6   -0.09    0.22
   9   1  -6    0.14    0.22
   9   1  -6   -0.03    0.19
  10   1  -6    2.28    0.27
  10   1  -6    2.95    0.28
  10   1  -6    2.36    0.29
 -11   1  -5    1.18    0.20
 -10   1  -5    5.51    0.38
  -9   1  -5    0.87    0.26
  -9   1  -5    0.65    0.20
   9  -1   5    1.15    0.32
  -8   1  -5    0.23    0.19
  -8   1  -5    0.41    0.24
   8  -1   5    0.17    0.29
  -7   1  -5   -0.68    0.54
  -7   1  -5    0.82    0.25
  -7   1  -5    0.78    0.18
  -7   1  -5    0.48    0.23
   7  -1   5    1.39    0.27
  -6   1  -5    4.89    0.47
  -6   1  -5    4.55    0.63
  -6   1  -5    5.39    0.36
   6  -1   5    5.50    0.47
  -5   1  -5    1.82    0.40
  -4   1  -5   29.50    1.85
  -3   1  -5    3.06    0.42
  -2   1  -5   28.32    1.74
  -1   1  -5   20.61    1.29
   0   1  -5  341.66   20.24
   0   1  -5  347.23   20.06
   1   1  -5   46.61    2.75
   1   1  -5   45.11    2.76
   2   1  -5   21.86    1.34
   2   1  -5   20.26    1.33
   3   1  -5    8.49    0.67
   3   1  -5    8.41    0.70
   4   1  -5    8.05    0.72
  -4  -1   5    8.84    0.73
   5   1  -5    3.64    0.62
  -5  -1   5    3.69    0.51
   6   1  -5   13.07    1.10
   6   1  -5   13.18    0.81
   6   1  -5   13.16    0.74
   6   1  -5   14.32    0.76
  -6  -1   5   14.53    1.07
   7   1  -5    1.38    0.22
   7   1  -5    1.06    0.21
   7   1  -5    1.43    0.22
   7   1  -5    1.88    0.65
  -7  -1   5    0.60    0.58
   8   1  -5    3.48    0.39
   8   1  -5    3.21    0.38
   8   1  -5    3.60    0.39
   9   1  -5    1.30    0.25
   9   1  -5    1.12    0.24
   9   1  -5    1.37    0.23
  10   1  -5   12.47    0.75
  10   1  -5   12.80    0.69
  10   1  -5   13.25    0.72
  11   1  -5    1.07    0.18
  11   1  -5    0.55    0.16
 -11  -1   5    0.50    0.14
 -11   1  -4    1.07    0.22
 -10   1  -4    6.89    0.45
 -10   1  -4    7.34    0.46
  -9   1  -4    0.81    0.22
  -9   1  -4    1.18    0.21
   9  -1   4    1.54    0.33
  -8   1  -4    0.70    0.21
  -8   1  -4    0.50    0.19
   8  -1   4    1.44    0.31
  -7   1  -4    1.17    0.21
  -7   1  -4    1.00    0.17
  -7   1  -4    0.84    0.52
   7  -1   4    1.50    0.27
  -6   1  -4    1.25    0.24
  -6   1  -4    1.07    0.16
  -6   1  -4    0.70    0.39
   6  -1   4    1.36    0.24
  -5   1  -4    7.71    0.66
  -4   1  -4   10.48    0.76
  -3   1  -4   10.09    0.70
  -2   1  -4   17.73    1.10
  -1   1  -4    5.64    0.38
  -1   1  -4    5.09    0.42
   0   1  -4  292.94   17.12
   0   1  -4  289.65   16.96
   1   1  -4   26.67    1.62
   1   1  -4   26.50    1.62
   2   1  -4   13.94    0.89
   2   1  -4   13.12    0.88
   3   1  -4    6.45    0.54
   3   1  -4    7.36    0.55
   4   1  -4    8.60    0.68
  -4  -1   4    7.98    0.66
   5   1  -4    9.31    0.77
  -5  -1   4    9.93    0.79
   6   1  -4    3.75    0.61
   6   1  -4    4.39    0.35
   6   1  -4    4.35    0.36
   6   1  -4    3.84    0.35
  -6  -1   4    4.64    0.59
  -6  -1   4    4.42    0.65
   7   1  -4    2.09    0.23
   7   1  -4    2.21    0.55
   7   1  -4    1.87    0.23
   7   1  -4    2.24    0.33
  -7  -1   4    1.95    0.53
   8   1  -4    0.82    0.22
   8   1  -4    0.89    0.21
   8   1  -4    1.01    0.21
   9   1  -4    1.27    0.25
   9   1  -4    1.35    0.25
   9   1  -4    1.35    0.24
  10   1  -4    9.67    0.65
  10   1  -4   10.66    0.60
  10   1  -4   10.85    0.62
  11   1  -4    0.59    0.17
  11   1  -4    0.79    0.20
  11   1  -4    0.77    0.18
 -11  -1   4    0.26    0.15
 -11   1  -3    0.92    0.22
 -11   1  -3    0.72    0.19
 -10   1  -3    8.99    0.55
 -10   1  -3    9.41    0.53
  -9   1  -3    0.94    0.21
  -9   1  -3    0.97    0.21
  -8   1  -3    1.49    0.20
  -8   1  -3    1.53    0.21
   8  -1   3    1.50    0.33
  -7   1  -3    1.11    0.19
  -7   1  -3    1.22    0.46
  -7   1  -3    1.26    0.17
   7  -1   3    0.77    0.28
  -6   1  -3    0.60    0.34
  -5   1  -3    9.20    0.70
  -4   1  -3    0.43    0.20
  -3   1  -3    1.33    0.20
  -3   1  -3    1.34    0.17
  -2   1  -3    0.43    0.09
  -2   1  -3    0.72    0.14
  -1   1  -3   17.28    1.02
  -1   1  -3   16.59    1.03
   0   1  -3  453.63   26.59
   0   1  -3  461.33   26.86
   1   1  -3  162.66    9.44
   1   1  -3  157.92    9.35
   2   1  -3   26.52    1.60
   2   1  -3   26.25    1.61
   3   1  -3    5.78    0.47
  -3  -1   3    6.24    0.47
   4   1  -3    3.53    0.38
  -4  -1   3    3.51    0.38
   5   1  -3    1.58    0.32
   6   1  -3    0.16    0.33
  -6  -1   3    0.74    0.31
  -6  -1   3    0.65    0.34
   7   1  -3    1.39    0.21
   7   1  -3    1.20    0.20
   7   1  -3    1.23    0.19
   7   1  -3    1.17    0.46
  -7  -1   3    1.99    0.52
  -7  -1   3    2.41    0.48
   8   1  -3    3.44    0.39
   8   1  -3    3.54    0.37
   8   1  -3    3.38    0.39
   9   1  -3    0.32    0.23
   9   1  -3    0.33    0.23
   9   1  -3    0.53    0.23
  10   1  -3    4.26    0.40
  10   1  -3    3.63    0.36
  11   1  -3   -0.12    0.19
  11   1  -3    0.17    0.19
  11   1  -3    0.07    0.22
 -11  -1   3    0.38    0.16
 -11   1  -2    1.04    0.18
 -10   1  -2    3.23    0.31
 -10   1  -2    2.86    0.34
  -9   1  -2    0.16    0.18
  -9   1  -2    0.11    0.19
  -8   1  -2    2.02    0.28
  -8   1  -2    2.42    0.65
  -8   1  -2    2.28    0.26
   8  -1   2    2.11    0.26
  -7   1  -2    1.12    0.41
  -7   1  -2    0.69    0.16
  -7   1  -2    0.31    0.15
   7  -1   2    0.55    0.19
   7  -1   2    0.81    0.30
  -6   1  -2   22.56    1.45
  -5   1  -2   14.62    0.96
  -5   1  -2   14.58    0.96
  -4   1  -2    6.71    0.46
  -4   1  -2    5.83    0.45
  -3   1  -2    3.00    0.25
  -3   1  -2    2.94    0.25
  -2   1  -2    6.79    0.45
  -2   1  -2    7.06    0.44
  -1   1  -2   12.22    0.78
  -1   1  -2   13.35    0.77
   0   1  -2   23.19    1.38
   0   1  -2   23.07    1.37
   1   1  -2  109.06    6.23
   1   1  -2  102.25    6.16
   2   1  -2    2.52    0.25
   2   1  -2    2.54    0.25
   3   1  -2    0.21    0.13
  -3  -1   2    0.42    0.13
   4   1  -2  141.87    8.45
  -4  -1   2  143.76    8.34
   5   1  -2   13.48    0.97
  -5  -1   2   14.09    0.92
   6   1  -2   17.85    1.22
  -6  -1   2   17.19    1.16
  -6  -1   2   16.72    1.18
   7   1  -2    1.30    0.20
   7   1  -2    1.21    0.21
   7   1  -2    1.19    0.44
   7   1  -2    1.17    0.22
   7   1  -2    1.47    0.19
  -7  -1   2    1.89    0.43
  -7  -1   2    2.15    0.44
   8   1  -2    1.73    0.24
   8   1  -2    1.53    0.22
   8   1  -2    1.15    0.23
  -8  -1   2    1.95    0.55
   9   1  -2    0.12    0.23
   9   1  -2    0.21    0.23
   9   1  -2   -0.02    0.21
  10   1  -2    0.71    0.25
  10   1  -2    0.83    0.23
 -10  -1   2    0.53    0.20
  11   1  -2    0.14    0.19
  11   1  -2   -0.08    0.22
 -11  -1   2    0.33    0.17
 -12  -1   2    2.20    0.19
 -12   1  -1    0.32    0.14
 -11   1  -1    0.11    0.16
 -10   1  -1    5.22    0.38
  -9   1  -1    0.09    0.21
  -9   1  -1   -0.03    0.17
   9  -1   1    0.25    0.21
  -8   1  -1    0.50    0.58
  -8   1  -1    0.54    0.16
  -8   1  -1    0.49    0.18
  -7   1  -1    0.06    0.37
  -7   1  -1    0.37    0.14
   7  -1   1    0.71    0.18
  -6   1  -1   32.49    2.02
  -6   1  -1   33.01    2.01
  -5   1  -1   17.31    1.07
  -5   1  -1   16.51    1.07
  -4   1  -1   33.74    2.07
  -4   1  -1   35.45    2.06
  -3   1  -1    1.93    0.19
  -3   1  -1    1.94    0.20
  -2   1  -1   32.19    1.85
  -2   1  -1   30.42    1.86
  -1   1  -1    3.93    0.25
  -1   1  -1    3.83    0.24
   0   1  -1   53.69    3.15
   0   1  -1   53.13    3.12
   1   1  -1   11.30    0.63
   1   1  -1   10.59    0.63
  -1  -1   1    8.96    0.62
   3   1  -1   19.71    1.12
  -3  -1   1   16.13    1.08
   4   1  -1   97.45    5.57
  -4  -1   1   90.00    5.49
   5   1  -1   15.39    1.00
  -5  -1   1   13.89    0.95
   6   1  -1   28.58    1.64
  -6  -1   1   23.68    1.59
  -6  -1   1   23.20    1.58
   7   1  -1    0.97    0.20
   7   1  -1    1.03    0.18
   7   1  -1    0.61    0.44
  -7  -1   1    0.18    0.36
  -7  -1   1    0.99    0.38
   8   1  -1    1.81    0.26
   8   1  -1    2.11    0.25
   8   1  -1    1.69    0.23
  -8  -1   1    1.51    0.56
  -8  -1   1    1.39    0.21
  -8  -1   1    1.70    0.59
   9   1  -1    0.04    0.26
   9   1  -1    0.39    0.24
   9   1  -1    0.11    0.22
  -9  -1   1    0.58    0.21
  10   1  -1    1.54    0.28
  10   1  -1    1.52    0.26
 -10  -1   1    1.48    0.22
  11   1  -1    0.21    0.19
  11   1  -1    0.06    0.24
 -11  -1   1    0.47    0.17
 -12  -1   1    0.52    0.14
 -12   1   0    0.14    0.13
 -11   1   0    0.11    0.17
  -9   1   0    0.45    0.19
   9  -1   0    0.57    0.22
   9  -1   0    0.57    0.29
  -8   1   0   28.22    1.47
  -8   1   0   28.49    1.99
  -8   1   0   29.37    1.43
   8  -1   0   30.51    1.45
   8  -1   0   29.17    1.61
  -7   1   0    0.78    0.38
  -7   1   0    0.82    0.37
   7  -1   0    1.32    0.19
  -6   1   0   19.26    1.25
  -6   1   0   19.37    1.24
  -5   1   0   23.15    1.36
  -5   1   0   19.72    1.34
   5  -1   0   22.30    1.39
  -4   1   0    9.43    0.61
  -4   1   0    9.18    0.62
  -3   1   0    1.10    0.16
  -3   1   0    1.08    0.16
   3  -1   0    0.95    0.15
  -2   1   0  280.42   16.63
  -2   1   0  276.54   16.81
   2  -1   0  301.84   16.82
  -1   1   0    4.35    0.31
  -1   1   0    4.25    0.31
   1  -1   0    4.84    0.32
   1   1   0    5.00    0.34
  -1  -1   0    4.73    0.34
   2   1   0  311.69   17.78
  -2  -1   0  293.79   17.59
  -3  -1   0    0.78    0.12
   4   1   0   10.54    0.76
  -4  -1   0   12.34    0.74
   5   1   0   25.58    1.58
  -5  -1   0   25.15    1.55
  -5  -1   0   24.61    1.56
   6   1   0   19.59    1.32
  -6  -1   0   20.33    1.29
  -6  -1   0   19.82    1.28
   7   1   0    1.22    0.20
  -7  -1   0    1.75    0.39
  -7  -1   0    1.61    0.39
   8   1   0   28.52    1.57
   8   1   0   31.08    1.43
  -8  -1   0   27.71    1.44
  -8  -1   0   26.74    1.92
   9   1   0    0.26    0.27
   9   1   0    0.52    0.23
  -9  -1   0    0.92    0.20
  -9  -1   0    0.54    0.19
  10   1   0   22.37    1.08
  10   1   0   20.62    1.20
 -10  -1   0   19.94    1.09
 -10  -1   0   21.57    1.07
 -11  -1   0    0.18    0.17
 -12  -1   0    0.16    0.14
 -12   1   1    0.54    0.13
 -11   1   1    0.64    0.17
  11  -1  -1    0.17    0.18
 -10   1   1    1.14    0.21
  10  -1  -1    1.22    0.29
  10  -1  -1    1.38    0.24
  -9   1   1    0.46    0.19
   9  -1  -1    0.46    0.21
   9  -1  -1    0.44    0.26
   9  -1  -1    0.00    0.26
  -8   1   1    2.03    0.57
   8  -1  -1    1.23    0.24
   8  -1  -1    1.36    0.25
   8  -1  -1    1.28    0.21
  -7   1   1    1.18    0.39
  -7   1   1    1.32    0.36
   7  -1  -1    0.37    0.17
   7  -1  -1    0.67    0.21
   7  -1  -1    0.41    0.21
  -6   1   1   26.47    1.64
  -6   1   1   26.88    1.61
   6  -1  -1   23.80    1.67
  -5   1   1   14.24    0.94
  -5   1   1   14.61    0.93
   5  -1  -1   14.05    0.97
  -4   1   1   90.55    5.41
  -4   1   1   91.87    5.35
   4  -1  -1   91.68    5.42
  -3   1   1   18.78    1.11
  -3   1   1   18.94    1.09
   3  -1  -1   16.44    1.11
  -2   1   1   56.85    3.01
   2  -1  -1   45.98    3.05
  -1   1   1   10.45    0.56
   1  -1  -1    9.35    0.57
   1  -1  -1    8.20    0.56
   0   1   1   48.81    2.74
   0  -1  -1   46.25    2.74
   0  -1  -1   44.73    2.71
   1   1   1    4.00    0.24
  -1  -1  -1    3.84    0.25
   2   1   1   36.96    2.10
  -2  -1  -1   33.73    2.08
   3   1   1    2.16    0.23
  -3  -1  -1    2.00    0.20
   4   1   1   37.03    2.18
  -4  -1  -1   35.69    2.16
  -4  -1  -1   35.70    2.15
   5   1   1   18.03    1.10
  -5  -1  -1   16.54    1.07
  -5  -1  -1   15.87    1.07
  -6  -1  -1   32.03    1.92
  -6  -1  -1   30.20    1.92
   7   1   1   -0.01    0.18
  -7  -1  -1    0.37    0.14
  -7  -1  -1    0.44    0.35
  -8  -1  -1    1.75    0.21
  -8  -1  -1    1.52    0.20
  -8  -1  -1    1.43    0.56
   9   1   1    0.09    0.22
  -9  -1  -1    0.25    0.19
  -9  -1  -1    0.29    0.18
  10   1   1    5.45    0.43
 -10  -1  -1    5.71    0.42
 -10  -1  -1    5.95    0.40
 -11  -1  -1   -0.05    0.17
 -11  -1  -1    0.21    0.20
 -12  -1  -1    0.31    0.15
 -12   1   2    1.68    0.17
 -11   1   2    0.17    0.16
  11  -1  -2    0.06    0.21
  11  -1  -2    0.36    0.18
  11  -1  -2    0.58    0.26
 -10   1   2    0.82    0.21
  10  -1  -2    0.79    0.25
  10  -1  -2    0.65    0.26
  10  -1  -2    0.14    0.23
   9  -1  -2    0.39    0.22
   9  -1  -2    0.61    0.24
   9  -1  -2    0.30    0.23
  -8   1   2    1.49    0.58
   8  -1  -2    1.64    0.22
   8  -1  -2    1.91    0.24
   8  -1  -2    1.86    0.25
  -7   1   2    1.02    0.39
   7  -1  -2    1.90    0.22
   7  -1  -2    1.84    0.20
   7  -1  -2    1.80    0.22
  -6   1   2   16.23    1.15
  -6   1   2   17.43    1.16
   6  -1  -2   17.59    1.20
  -5   1   2   12.90    0.88
  -5   1   2   13.09    0.91
   5  -1  -2   14.28    0.94
  -4   1   2  142.69    8.53
  -4   1   2  140.91    8.43
   4  -1  -2  149.70    8.55
  -3   1   2    0.61    0.12
   3  -1  -2    0.09    0.13
  -2   1   2    2.29    0.21
   1  -1  -2  109.79    6.39
   1  -1  -2  107.27    6.32
   0  -1  -2   36.54    2.12
   0  -1  -2   35.28    2.11
  -1  -1  -2   11.92    0.72
  -2  -1  -2    8.98    0.55
  -2  -1  -2    8.46    0.53
  -3  -1  -2    2.02    0.22
  -3  -1  -2    1.81    0.18
  -4  -1  -2    6.98    0.49
  -4  -1  -2    6.97    0.48
  -5  -1  -2   13.52    0.90
  -6  -1  -2   20.57    1.33
   7   1   2    0.43    0.22
  -7  -1  -2    0.72    0.17
  -7  -1  -2    0.74    0.15
  -7  -1  -2    0.40    0.40
   8   1   2    2.48    0.34
  -8  -1  -2    1.85    0.58
  -8  -1  -2    1.58    0.19
  -8  -1  -2    1.65    0.21
   9   1   2   -0.02    0.23
  -9  -1  -2    0.02    0.19
  -9  -1  -2    0.16    0.18
 -10  -1  -2    2.77    0.31
 -10  -1  -2    2.68    0.32
 -11  -1  -2    0.71    0.20
 -11  -1  -2    0.90    0.19
 -11   1   3    0.13    0.16
  11  -1  -3    0.49    0.21
  11  -1  -3    0.54    0.22
  11  -1  -3    0.36    0.18
 -10   1   3    3.77    0.34
  10  -1  -3    4.52    0.38
  10  -1  -3    5.17    0.41
  10  -1  -3    4.49    0.42
   9  -1  -3    1.69    0.26
   9  -1  -3    1.58    0.25
   9  -1  -3    1.14    0.24
   8  -1  -3    4.34    0.39
   8  -1  -3    4.16    0.40
   8  -1  -3    4.34    0.41
  -7   1   3    1.49    0.46
   7  -1  -3    1.98    0.30
   7  -1  -3    2.26    0.29
   7  -1  -3    2.33    0.23
   7  -1  -3    1.91    0.53
  -6   1   3    0.19    0.30
  -6   1   3    0.28    0.33
   6  -1  -3    0.85    0.34
  -5   1   3    2.21    0.32
  -5   1   3    2.38    0.31
   5  -1  -3    2.85    0.44
  -4   1   3    2.90    0.35
  -4   1   3    2.37    0.35
   4  -1  -3    3.43    0.40
  -3   1   3    5.61    0.45
   3  -1  -3    6.41    0.48
   2  -1  -3   15.71    1.00
   2  -1  -3   16.54    1.02
   1  -1  -3  160.22    9.37
   1  -1  -3  158.12    9.27
   0  -1  -3  482.28   28.09
   0  -1  -3  484.81   28.38
  -1  -1  -3   14.15    0.87
  -2  -1  -3    3.02    0.27
  -3  -1  -3    0.58    0.16
  -4  -1  -3    0.49    0.19
  -5  -1  -3    7.93    0.63
  -6  -1  -3    2.64    0.41
   7   1   3    1.10    0.26
   7   1   3    1.04    0.32
  -7  -1  -3    1.69    0.47
  -7  -1  -3    1.06    0.20
  -7  -1  -3    1.27    0.17
  -8  -1  -3    1.37    0.19
  -8  -1  -3    1.49    0.22
  -9  -1  -3    0.56    0.19
  -9  -1  -3    0.30    0.21
 -10  -1  -3    7.64    0.47
 -10  -1  -3    7.64    0.48
 -11  -1  -3    0.61    0.21
 -11  -1  -3    0.66    0.18
 -11   1   4    1.08    0.16
  11  -1  -4    0.21    0.18
  11  -1  -4    0.52    0.17
  11  -1  -4    0.68    0.20
 -10   1   4   10.58    0.54
  10  -1  -4    8.90    0.56
  10  -1  -4    9.99    0.58
  10  -1  -4    8.77    0.61
   9  -1  -4    1.01    0.25
   9  -1  -4    1.00    0.24
   9  -1  -4    1.04    0.23
   8  -1  -4    0.26    0.20
   8  -1  -4    0.34    0.21
   8  -1  -4    0.40    0.20
  -7   1   4    2.20    0.50
   7  -1  -4    1.65    0.22
   7  -1  -4    1.52    0.53
   7  -1  -4    1.77    0.22
   7  -1  -4    1.52    0.21
  -6   1   4    5.42    0.60
   6  -1  -4    3.55    0.35
   6  -1  -4    4.18    0.35
   6  -1  -4    3.87    0.35
   6  -1  -4    3.49    0.62
  -5   1   4    9.27    0.74
  -5   1   4    9.08    0.75
   5  -1  -4    9.28    0.76
  -4   1   4    7.11    0.60
  -4   1   4    6.85    0.61
   4  -1  -4    8.74    0.65
  -3   1   4    8.00    0.66
   3  -1  -4   10.89    0.69
   2  -1  -4   10.85    0.75
   2  -1  -4   11.31    0.75
   1  -1  -4   27.23    1.64
   1  -1  -4   27.00    1.64
   0  -1  -4  295.33   17.34
   0  -1  -4  294.99   17.18
  -1  -1  -4    3.13    0.30
  -2  -1  -4   11.72    0.77
  -3  -1  -4    9.03    0.65
  -4  -1  -4   12.96    0.89
  -5  -1  -4    5.15    0.55
  -6  -1  -4    0.99    0.14
  -6  -1  -4    0.71    0.38
   7   1   4    1.29    0.30
  -7  -1  -4    1.58    0.29
  -7  -1  -4    1.52    0.52
  -7  -1  -4    1.39    0.18
   8   1   4    0.73    0.33
  -8  -1  -4    1.36    0.24
  -8  -1  -4    0.91    0.19
  -9  -1  -4    1.45    0.26
  -9  -1  -4    1.39    0.21
 -10  -1  -4    6.61    0.42
 -11  -1  -4    0.82    0.18
 -11   1   5    1.10    0.15
  11  -1  -5    0.55    0.16
  11  -1  -5    0.61    0.18
  11  -1  -5    0.81    0.17
 -10   1   5   12.43    0.66
  10  -1  -5   12.88    0.70
  10  -1  -5   12.53    0.73
  10  -1  -5   12.05    0.67
   9  -1  -5    0.92    0.24
   9  -1  -5    1.08    0.25
   9  -1  -5    0.82    0.22
   8  -1  -5    3.59    0.39
   8  -1  -5    3.48    0.36
   8  -1  -5    3.63    0.42
  -7   1   5    1.08    0.54
   7  -1  -5    1.22    0.22
   7  -1  -5    1.13    0.21
   7  -1  -5    0.84    0.21
  -6   1   5   14.12    1.10
   6  -1  -5   13.25    1.14
   6  -1  -5   14.93    0.78
   6  -1  -5   14.28    0.82
   6  -1  -5   13.48    0.76
  -5   1   5    3.03    0.53
   5  -1  -5    3.88    0.58
  -4   1   5    7.85    0.69
  -4   1   5    7.54    0.66
   4  -1  -5    8.27    0.70
  -3   1   5    7.80    0.64
  -3   1   5    8.07    0.62
   2  -1  -5   23.28    1.42
   2  -1  -5   21.64    1.41
   1  -1  -5   46.50    2.77
   1  -1  -5   46.01    2.78
   0   1   5  314.37   19.50
   0  -1  -5  334.20   19.51
   0  -1  -5  347.60   19.33
  -1  -1  -5   22.01    1.37
  -2  -1  -5   28.20    1.73
  -3  -1  -5    2.64    0.36
  -4  -1  -5   31.97    1.98
  -5  -1  -5    0.80    0.39
   6   1   5    4.71    0.45
  -6  -1  -5    4.03    0.69
  -6  -1  -5    4.74    0.47
  -6  -1  -5    4.73    0.34
   7   1   5    1.22    0.29
  -7  -1  -5    1.58    0.28
  -7  -1  -5    1.04    0.19
  -7  -1  -5    1.31    0.65
   8   1   5    0.61    0.32
  -8  -1  -5    0.52    0.18
   9   1   5    0.98    0.36
  -9  -1  -5    1.35    0.22
 -10  -1  -5    5.50    0.37
 -11  -1  -5    1.16    0.18
 -10   1   6    2.09    0.24
  10  -1  -6    2.44    0.27
  10  -1  -6    2.36    0.27
  10  -1  -6    2.34    0.27
   9  -1  -6    0.10    0.22
   9  -1  -6    0.53    0.20
   9  -1  -6    0.31    0.23
   8  -1  -6    1.49    0.27
   8  -1  -6    1.49    0.25
   8  -1  -6    1.73    0.24
   7  -1  -6    0.40    0.22
   7  -1  -6    0.69    0.22
   7  -1  -6    0.54    0.21
  -6   1   6   18.00    1.42
   6  -1  -6   19.07    1.01
   6  -1  -6   20.64    1.11
   6  -1  -6   20.80    1.05
   6  -1  -6   18.13    1.49
  -5   1   6    5.24    0.67
   5  -1  -6    4.38    0.40
   5  -1  -6    3.76    0.43
   5  -1  -6    4.50    0.41
   5  -1  -6    4.69    0.68
  -4   1   6   12.02    0.87
   4  -1  -6    9.68    0.88
  -3   1   6    2.84    0.50
  -3   1   6    3.11    0.45
   3  -1  -6    3.88    0.50
   3  -1  -6    4.62    0.59
  -2   1   6   18.94    1.10
   2  -1  -6   15.33    1.13
   2  -1  -6   15.12    1.11
  -1   1   6   17.81    1.07
   1  -1  -6   13.73    1.08
   0  -1  -6   22.09    1.42
  -1  -1  -6    3.99    0.50
  -2  -1  -6   12.70    0.91
  -3  -1  -6    1.42    0.37
  -5  -1  -6    0.48    0.21
  -5  -1  -6    0.56    0.24
  -5  -1  -6    0.65    0.47
  -5  -1  -6    0.56    0.15
   6   1   6   14.88    0.91
  -6  -1  -6   14.80    0.92
  -6  -1  -6   12.67    1.21
  -6  -1  -6   15.75    0.79
   7   1   6    1.22    0.30
  -7  -1  -6    1.14    0.28
  -7  -1  -6    1.06    0.20
   8   1   6    2.06    0.34
  -8  -1  -6    1.29    0.22
   9   1   6    0.74    0.31
  -9  -1  -6    0.23    0.19
 -10  -1  -6    0.41    0.18
 -10   1   7    1.38    0.18
  10  -1  -7    1.44    0.20
  10  -1  -7    1.45    0.21
  10  -1  -7    1.35    0.19
   9  -1  -7    0.52    0.20
   9  -1  -7    0.60    0.23
   9  -1  -7    0.12    0.19
   8  -1  -7    0.60    0.22
   8  -1  -7    0.59    0.25
   8  -1  -7    0.75    0.24
   7  -1  -7    0.39    0.24
   7  -1  -7    0.71    0.21
   7  -1  -7    0.53    0.25
   6  -1  -7   10.62    0.66
   6  -1  -7   11.86    0.71
   6  -1  -7   10.06    0.65
  -5   1   7    3.18    0.59
   5  -1  -7    3.95    0.44
   5  -1  -7    4.35    0.43
   5  -1  -7    4.34    0.38
   5  -1  -7    4.25    0.72
  -4   1   7   14.93    1.09
   4  -1  -7   11.98    0.82
   4  -1  -7   13.00    0.76
   4  -1  -7   11.77    1.11
  -3   1   7    1.88    0.44
   3  -1  -7    2.68    0.47
   2  -1  -7    9.10    0.85
   1  -1  -7    5.38    0.65
   0  -1  -7    5.81    0.67
  -1  -1  -7    3.61    0.55
  -2  -1  -7   11.92    0.93
  -3  -1  -7    1.00    0.20
  -3  -1  -7    1.35    0.21
  -3  -1  -7    1.14    0.49
  -3  -1  -7    0.94    0.18
  -4  -1  -7   20.34    1.19
  -4  -1  -7   19.43    1.05
  -4  -1  -7   20.08    1.09
  -4  -1  -7   21.78    1.46
  -5  -1  -7    2.17    0.28
  -5  -1  -7    2.17    0.31
  -5  -1  -7    2.18    0.66
  -5  -1  -7    2.17    0.27
   6   1   7    7.77    0.61
  -6  -1  -7    8.65    0.53
  -6  -1  -7    8.66    0.62
  -6  -1  -7    7.82    0.60
  -7  -1  -7    1.43    0.23
  -7  -1  -7    1.52    0.30
   8   1   7    0.43    0.29
  -8  -1  -7    0.24    0.21
   9   1   7    0.41    0.28
  -9  -1  -7    0.25    0.19
 -10  -1  -7    1.62    0.21
   9  -1  -8    0.84    0.24
   9  -1  -8    0.75    0.20
   9  -1  -8    1.00    0.19
   8  -1  -8    0.62    0.26
   8  -1  -8    1.04    0.21
   8  -1  -8    0.54    0.23
   7  -1  -8    0.34    0.21
   7  -1  -8    0.64    0.27
   7  -1  -8    0.69    0.24
   6  -1  -8    1.04    0.26
   6  -1  -8    1.21    0.24
   5  -1  -8    0.55    0.23
   5  -1  -8    0.34    0.26
   1  -1  -8   13.02    0.71
   1  -1  -8   11.65    0.81
   1  -1  -8   12.42    1.11
   0  -1  -8    9.28    0.57
   0  -1  -8    6.00    0.84
   0  -1  -8    7.63    0.52
  -1  -1  -8   15.08    0.84
  -1  -1  -8   16.18    0.85
  -1  -1  -8   14.47    1.22
  -1  -1  -8   15.37    0.91
  -2  -1  -8    2.51    0.31
  -2  -1  -8    2.22    0.33
  -2  -1  -8    2.78    0.35
  -2  -1  -8    2.33    0.62
  -3  -1  -8    0.25    0.62
  -3  -1  -8    0.54    0.21
  -3  -1  -8    0.78    0.21
  -3  -1  -8    0.38    0.21
  -4  -1  -8    4.35    0.44
  -4  -1  -8    3.23    0.79
  -4  -1  -8    4.55    0.42
  -4  -1  -8    4.17    0.39
  -5  -1  -8   -0.01    0.23
  -5  -1  -8    0.20    0.24
  -5  -1  -8    0.07    0.22
   6   1   8    0.51    0.28
  -6  -1  -8    1.03    0.27
  -6  -1  -8    0.78    0.24
  -6  -1  -8    0.45    0.28
   7   1   8    0.91    0.30
  -7  -1  -8    1.44    0.29
  -7  -1  -8    1.28    0.24
   8   1   8    0.96    0.29
  -8  -1  -8    1.26    0.21
   9   1   8    0.72    0.26
  -9  -1  -8    0.36    0.17
   9  -1  -9    0.61    0.20
   9  -1  -9    0.78    0.17
   8  -1  -9    0.27    0.20
   8  -1  -9    0.20    0.22
   7  -1  -9    1.01    0.26
   6  -1  -9    2.02    0.31
   6  -1  -9    2.04    0.28
   2  -1  -9    4.05    0.44
   1  -1  -9    2.28    0.29
   1  -1  -9    2.32    0.33
   0  -1  -9   12.89    0.83
   0  -1  -9   14.01    0.76
   0  -1  -9   12.51    0.75
  -1  -1  -9    2.02    0.25
  -1  -1  -9    0.28    0.78
  -1  -1  -9    1.93    0.26
  -1  -1  -9    1.53    0.25
  -2  -1  -9    1.17    0.85
  -2  -1  -9    1.49    0.24
  -2  -1  -9    1.81    0.27
  -2  -1  -9    1.69    0.26
  -3  -1  -9    3.84    0.41
  -3  -1  -9    4.25    0.43
  -3  -1  -9    3.90    0.38
  -4  -1  -9    3.20    0.37
  -4  -1  -9    2.92    0.41
  -4  -1  -9    2.88    0.36
  -5  -1  -9    5.34    0.42
  -5  -1  -9    5.25    0.46
  -5  -1  -9    4.67    0.45
   6   1   9    6.19    0.51
  -6  -1  -9    5.98    0.49
  -6  -1  -9    6.08    0.45
  -6  -1  -9    6.03    0.49
   7   1   9    0.74    0.28
  -7  -1  -9    1.23    0.22
  -7  -1  -9    1.08    0.27
   8   1   9    0.95    0.26
   9   1   9   -0.47    0.22
  -9  -1  -9    0.31    0.14
   2  -1 -10    2.73    0.36
   1  -1 -10    1.70    0.27
   1  -1 -10    1.70    0.29
   0  -1 -10   11.51    0.76
   0  -1 -10   11.69    0.70
  -1  -1 -10    0.59    0.22
  -1  -1 -10    0.54    0.24
  -1  -1 -10    0.58    0.27
  -2  -1 -10    3.25    0.40
  -2  -1 -10    2.94    0.39
  -3  -1 -10    0.85    0.26
  -3  -1 -10    0.72    0.26
  -3  -1 -10    0.95    0.24
  -4  -1 -10    3.26    0.36
  -4  -1 -10    3.20    0.39
  -4  -1 -10    3.22    0.38
   5   1  10    4.42    0.44
  -5  -1 -10    4.50    0.41
  -5  -1 -10    4.87    0.41
  -5  -1 -10    4.67    0.40
   6   1  10    1.65    0.28
  -6  -1 -10    1.39    0.23
  -6  -1 -10    1.53    0.26
  -6  -1 -10    1.57    0.26
   7   1  10    0.77    0.24
  -7  -1 -10    1.17    0.20
   8   1  10    0.87    0.21
  -8  -1 -10    0.39    0.15
   1  -1 -11    2.69    0.36
   0  -1 -11   10.48    0.64
   0  -1 -11   10.41    0.71
  -1  -1 -11    3.80    0.41
  -1  -1 -11    3.18    0.36
  -1  -1 -11    3.33    0.37
  -2  -1 -11    1.43    0.28
  -2  -1 -11    1.30    0.27
  -2  -1 -11    1.95    0.27
  -3  -1 -11    0.97    0.26
  -3  -1 -11    0.98    0.25
  -3  -1 -11    1.01    0.24
  -4  -1 -11    0.68    0.24
  -4  -1 -11    0.64    0.23
  -4  -1 -11    0.69    0.23
   5   1  11    0.73    0.27
  -5  -1 -11    1.15    0.23
  -5  -1 -11    1.14    0.22
  -5  -1 -11    1.10    0.23
   6   1  11    0.31    0.23
  -6  -1 -11    0.89    0.21
  -6  -1 -11    0.58    0.20
  -6  -1 -11    0.34    0.18
   7   1  11    2.03    0.24
  -7  -1 -11    1.35    0.20
   1  -1 -12    1.19    0.25
   0  -1 -12    2.95    0.40
   0  -1 -12    2.88    0.33
  -1  -1 -12    0.56    0.25
  -1  -1 -12    0.37    0.22
  -2  -1 -12    0.64    0.21
  -2  -1 -12    0.36    0.23
   3   1  12    1.16    0.28
  -3  -1 -12    0.41    0.20
  -3  -1 -12    0.79    0.21
  -3  -1 -12    0.69    0.25
   4   1  12    0.85    0.25
  -4  -1 -12    0.90    0.20
  -4  -1 -12    1.02    0.23
  -4  -1 -12    0.76    0.20
   5   1  12    1.03    0.23
  -5  -1 -12    0.82    0.18
  -5  -1 -12    1.31    0.20
  -5  -1 -12    0.91    0.19
   0  -1 -13    0.83    0.23
  -1  -1 -13    1.06    0.20
   2   1  13   -0.18    0.26
  -2  -1 -13   -0.05    0.17
  -2  -1 -13    0.14    0.19
   3   1  13    0.26    0.23
  -3  -1 -13    0.26    0.17
  -3  -1 -13   -0.07    0.15
  -3   2 -13    0.30    0.20
  -3   2 -13    0.11    0.14
  -2   2 -13   -0.14    0.15
  -2   2 -13   -0.34    0.22
  -1   2 -13    0.11    0.18
   0   2 -13    1.96    0.26
   1   2 -13    0.77    0.23
  -5   2 -12    1.01    0.19
  -5   2 -12    1.11    0.19
   5  -2  12    1.31    0.23
  -4   2 -12    0.29    0.19
  -4   2 -12    0.13    0.18
  -4   2 -12    0.07    0.20
   4  -2  12    0.19    0.25
  -3   2 -12    0.99    0.22
  -3   2 -12    1.45    0.24
  -3   2 -12    1.34    0.23
   3  -2  12    0.74    0.30
  -2   2 -12    0.26    0.23
  -2   2 -12    0.47    0.24
  -2   2 -12    0.23    0.20
   2  -2  12    0.59    0.32
  -1   2 -12    1.67    0.27
  -1   2 -12    1.62    0.24
   0   2 -12    2.15    0.29
   0   2 -12    2.65    0.31
   1   2 -12    1.71    0.26
   2   2 -12    0.84    0.27
  -7   2 -11    1.07    0.15
  -6   2 -11    1.28    0.24
  -6   2 -11    1.73    0.23
   6  -2  11    1.77    0.28
  -5   2 -11    0.42    0.21
  -5   2 -11    0.41    0.23
  -5   2 -11    0.20    0.22
   5  -2  11    0.94    0.28
  -4   2 -11    0.43    0.23
  -4   2 -11    0.45    0.22
  -4   2 -11    0.63    0.22
   4  -2  11    1.28    0.29
  -3   2 -11    0.82    0.22
  -3   2 -11    0.73    0.25
  -3   2 -11    0.74    0.24
   3  -2  11    1.13    0.31
  -2   2 -11    2.21    0.29
  -2   2 -11    2.15    0.27
  -2   2 -11    2.24    0.36
  -1   2 -11    5.10    0.44
  -1   2 -11    5.63    0.49
  -1   2 -11    5.53    0.42
   0   2 -11    4.38    0.40
   0   2 -11    4.61    0.41
   1   2 -11    7.61    0.52
   1   2 -11    7.58    0.52
   2   2 -11    1.41    0.27
  -8   2 -10    0.09    0.14
   8  -2  10    0.33    0.19
  -7   2 -10    0.71    0.19
   7  -2  10    1.36    0.26
  -6   2 -10    2.68    0.31
  -6   2 -10    3.04    0.34
  -6   2 -10    3.04    0.36
   6  -2  10    2.97    0.36
  -5   2 -10    2.90    0.37
  -5   2 -10    2.57    0.36
  -5   2 -10    2.71    0.33
   5  -2  10    3.02    0.39
  -4   2 -10    7.24    0.51
  -4   2 -10    6.78    0.50
  -4   2 -10    6.72    0.53
   4  -2  10    8.79    0.57
  -3   2 -10    1.60    0.27
  -3   2 -10    1.52    0.25
  -3   2 -10    1.42    0.25
  -2   2 -10    2.07    0.27
  -2   2 -10    1.87    0.29
  -2   2 -10    1.72    0.25
  -1   2 -10    1.29    0.26
  -1   2 -10    1.06    0.23
  -1   2 -10    1.03    0.28
   0   2 -10    2.90    0.34
   0   2 -10    2.63    0.38
   1   2 -10    3.17    0.40
   1   2 -10    3.12    0.37
   2   2 -10    1.44    0.27
   2   2 -10    1.88    0.29
  -9   2  -9    0.27    0.14
   9  -2   9   -0.09    0.19
  -8   2  -9    0.40    0.18
   8  -2   9   -0.03    0.24
  -7   2  -9    1.47    0.23
   7  -2   9    2.35    0.34
  -6   2  -9    3.01    0.40
  -6   2  -9    2.94    0.33
  -6   2  -9    2.80    0.39
  -5   2  -9    3.66    0.41
  -5   2  -9    3.09    0.40
  -5   2  -9    3.31    0.37
   5  -2   9    3.71    0.43
  -4   2  -9    9.07    0.56
  -4   2  -9    8.34    0.60
  -4   2  -9    7.88    0.55
  -3   2  -9    1.40    0.26
  -3   2  -9    1.20    0.23
  -3   2  -9    1.15    0.24
  -2   2  -9    2.54    0.35
  -2   2  -9    2.58    0.40
  -2   2  -9    2.56    0.33
  -1   2  -9    0.78    0.25
  -1   2  -9    0.64    0.21
  -1   2  -9    0.53    0.18
  -1   2  -9    0.63    0.71
   0   2  -9    8.95    0.58
   0   2  -9    9.62    0.56
   0   2  -9    8.56    1.10
   0   2  -9    9.08    0.68
   1   2  -9    3.22    0.81
   1   2  -9    4.43    0.41
   1   2  -9    4.09    0.38
   2   2  -9    1.84    0.27
   2   2  -9    2.55    0.95
   2   2  -9    1.72    0.28
  -2  -2   9    1.82    0.87
   5   2  -9    7.27    0.52
   6   2  -9    3.99    0.39
   6   2  -9    3.78    0.39
   7   2  -9    0.61    0.24
   7   2  -9    0.71    0.22
   8   2  -9    0.18    0.24
   8   2  -9    0.40    0.19
   8   2  -9    0.30    0.21
   9   2  -9    0.13    0.15
  -9   2  -8    1.01    0.18
   9  -2   8    0.42    0.23
  -8   2  -8    0.87    0.21
   8  -2   8    0.40    0.27
  -7   2  -8    0.54    0.22
   7  -2   8    1.02    0.29
  -6   2  -8    0.57    0.30
  -6   2  -8    0.62    0.22
   6  -2   8    0.93    0.28
  -5   2  -8    0.06    0.23
  -5   2  -8    0.55    0.21
  -5   2  -8    0.06    0.24
   5  -2   8    0.62    0.27
  -4   2  -8    2.33    0.28
  -4   2  -8    1.70    0.26
  -4   2  -8    2.44    0.31
  -3   2  -8    0.03    0.18
  -3   2  -8   -0.06    0.22
  -3   2  -8   -0.02    0.20
  -3   2  -8    0.06    0.57
  -2   2  -8    2.26    0.35
  -2   2  -8    2.15    0.23
  -2   2  -8    1.63    0.22
  -2   2  -8    1.88    0.59
  -1   2  -8    4.72    0.37
  -1   2  -8    4.37    0.45
  -1   2  -8    4.97    0.36
  -1   2  -8    4.45    0.77
   0   2  -8   29.79    1.52
   0   2  -8   27.43    1.68
   0   2  -8   32.61    1.94
   0   2  -8   27.65    1.47
   1   2  -8   12.81    0.70
   1   2  -8   11.84    1.06
   1   2  -8   12.63    0.72
   2   2  -8   -0.09    0.56
   2   2  -8    0.59    0.24
   2   2  -8    0.19    0.23
  -2  -2   8    2.11    0.59
   3   2  -8    0.46    0.25
   3   2  -8    0.40    0.67
  -3  -2   8    0.94    0.62
   4   2  -8    1.32    0.28
   5   2  -8    0.34    0.24
   5   2  -8    0.13    0.24
   6   2  -8    1.79    0.28
   6   2  -8    1.75    0.31
   6   2  -8    2.59    0.35
   7   2  -8    0.21    0.24
   7   2  -8    0.48    0.26
   7   2  -8    0.46    0.22
   8   2  -8    0.74    0.23
   8   2  -8    0.83    0.20
   8   2  -8    0.69    0.24
   9   2  -8    1.40    0.22
   9   2  -8    1.82    0.24
   9   2  -8    1.48    0.22
 -10   2  -7    1.28    0.19
  10  -2   7    1.85    0.27
  -9   2  -7    2.43    0.28
   9  -2   7    1.86    0.31
  -8   2  -7    0.28    0.21
   8  -2   7    0.47    0.29
  -7   2  -7    2.60    0.41
  -7   2  -7    2.31    0.33
   7  -2   7    2.06    0.32
  -6   2  -7    0.67    0.21
  -6   2  -7    1.06    0.25
  -5   2  -7    8.78    0.60
  -5   2  -7    7.88    0.96
  -5   2  -7    9.40    0.61
  -5   2  -7    9.09    0.53
   5  -2   7    7.24    0.60
  -4   2  -7    7.42    0.46
  -4   2  -7    6.94    0.50
  -4   2  -7    7.51    0.54
  -4   2  -7    6.82    0.82
  -3   2  -7    2.98    0.56
  -3   2  -7    3.11    0.32
  -3   2  -7    2.25    0.35
  -3   2  -7    2.93    0.28
  -2   2  -7    3.54    0.57
  -1   2  -7    2.87    0.47
   0   2  -7   35.55    2.23
   1   2  -7    3.88    0.58
   2   2  -7    2.48    0.50
   3   2  -7    5.93    0.77
   3   2  -7    5.01    0.71
  -3  -2   7    5.10    0.79
   4   2  -7   11.39    1.04
   4   2  -7   10.48    0.65
   4   2  -7   10.55    0.63
  -4  -2   7   10.14    1.02
   5   2  -7    7.19    0.48
   5   2  -7    6.25    0.58
   5   2  -7    6.53    0.50
  -5  -2   7    7.54    0.89
   6   2  -7    1.62    0.23
   6   2  -7    1.48    0.26
   6   2  -7    1.40    0.27
   7   2  -7    1.17    0.27
   7   2  -7    1.59    0.23
   7   2  -7    1.18    0.24
   8   2  -7    0.48    0.25
   8   2  -7    0.48    0.21
   8   2  -7    0.48    0.23
   9   2  -7    0.77    0.20
   9   2  -7    0.78    0.23
   9   2  -7    0.81    0.22
  10   2  -7    1.56    0.24
  10   2  -7    1.77    0.22
 -10   2  -6    1.26    0.20
  10  -2   6    1.28    0.30
  -9   2  -6    0.52    0.21
   9  -2   6    0.17    0.28
   7  -2   6    1.50    0.29
  -6   2  -6    9.65    0.65
  -6   2  -6    8.76    0.96
  -6   2  -6    8.57    0.53
   6  -2   6    9.48    0.65
  -5   2  -6    4.46    0.72
  -5   2  -6    4.68    0.40
  -5   2  -6    4.67    0.33
  -5   2  -6    4.18    0.48
   5  -2   6    4.33    0.41
  -4   2  -6    7.02    0.69
  -3   2  -6    0.93    0.36
  -2   2  -6    1.50    0.36
  -1   2  -6    2.82    0.39
   0   2  -6   27.15    1.71
   1   2  -6    3.18    0.46
   1   2  -6    2.62    0.43
   2   2  -6    6.42    0.61
   2   2  -6    6.14    0.63
   3   2  -6    5.55    0.63
   3   2  -6    5.54    0.63
   4   2  -6   39.80    2.39
  -4  -2   6   35.38    2.35
   5   2  -6    3.65    0.35
   5   2  -6    4.78    0.38
   5   2  -6    4.29    0.71
   5   2  -6    3.59    0.41
  -5  -2   6    4.88    0.84
   6   2  -6    5.42    0.42
   6   2  -6    5.24    0.43
   6   2  -6    5.30    0.87
   6   2  -6    5.57    0.46
  -6  -2   6    4.93    0.80
   7   2  -6    0.63    0.22
   7   2  -6    0.73    0.21
   7   2  -6    0.64    0.23
   8   2  -6    0.96    0.23
   8   2  -6    0.52    0.21
   8   2  -6    0.76    0.24
   9   2  -6    0.11    0.23
   9   2  -6    0.14    0.21
   9   2  -6    0.28    0.20
  10   2  -6    0.64    0.19
  10   2  -6    0.31    0.19
  10   2  -6    0.80    0.19
 -11   2  -5    0.58    0.20
 -10   2  -5    5.71    0.43
 -10   2  -5    6.96    0.43
  10  -2   5    6.89    0.55
  -9   2  -5    2.18    0.31
  -9   2  -5    2.19    0.28
   9  -2   5    3.26    0.45
  -8   2  -5    5.52    0.43
  -8   2  -5    5.36    0.41
   8  -2   5    5.28    0.53
  -7   2  -5    1.24    0.24
  -7   2  -5    0.87    0.62
  -7   2  -5    1.26    0.19
  -6   2  -5   20.77    1.39
  -6   2  -5   19.85    1.02
  -6   2  -5   18.60    1.00
  -6   2  -5   20.30    1.16
   6  -2   5   19.03    1.15
  -5   2  -5   11.17    0.89
  -4   2  -5    3.30    0.48
  -3   2  -5   25.67    1.60
  -2   2  -5    3.47    0.41
  -1   2  -5   29.50    1.80
   0   2  -5   84.38    4.86
   0   2  -5   80.16    4.87
   1   2  -5   45.51    2.75
   1   2  -5   45.91    2.75
   2   2  -5   28.25    1.76
   2   2  -5   28.33    1.76
   3   2  -5    7.23    0.61
   3   2  -5    6.85    0.60
  -3  -2   5    6.07    0.59
   4   2  -5   30.98    1.97
  -4  -2   5   31.16    1.94
   5   2  -5    9.42    0.81
  -5  -2   5    7.71    0.83
   6   2  -5   12.60    0.75
   6   2  -5   14.23    0.80
   6   2  -5   13.95    0.73
   6   2  -5   15.04    1.12
  -6  -2   5   12.34    1.06
  -6  -2   5   13.02    1.17
   7   2  -5    3.58    0.36
   7   2  -5    3.66    0.37
   7   2  -5    3.77    0.39
   8   2  -5    1.85    0.27
   8   2  -5    2.52    0.33
   8   2  -5    1.91    0.25
   9   2  -5    2.09    0.27
   9   2  -5    2.33    0.33
   9   2  -5    2.39    0.37
  10   2  -5    1.26    0.21
  10   2  -5    1.12    0.22
  10   2  -5    0.80    0.22
  11   2  -5    1.50    0.22
  11   2  -5    1.16    0.17
  11   2  -5    1.15    0.19
 -11  -2   5    0.89    0.15
 -11   2  -4    0.24    0.19
 -10   2  -4    3.23    0.32
 -10   2  -4    3.32    0.32
  -9   2  -4    0.13    0.21
  -9   2  -4    0.08    0.20
   9  -2   4    0.22    0.31
  -8   2  -4    2.82    0.31
  -8   2  -4    2.65    0.33
   8  -2   4    3.52    0.47
  -7   2  -4    0.44    0.16
  -7   2  -4    0.31    0.50
  -7   2  -4    0.36    0.18
  -6   2  -4   15.79    1.12
  -6   2  -4   14.81    0.80
  -6   2  -4   15.77    0.93
  -5   2  -4    5.32    0.55
  -4   2  -4    6.72    0.57
  -3   2  -4   11.66    0.79
  -2   2  -4    8.92    0.62
  -1   2  -4   18.69    1.15
  -1   2  -4   18.20    1.12
   0   2  -4   20.50    1.28
   0   2  -4   21.41    1.29
   1   2  -4   12.38    0.81
   1   2  -4   12.24    0.79
   2   2  -4   17.13    1.08
   2   2  -4   16.66    1.07
   3   2  -4    7.33    0.58
   3   2  -4    7.84    0.59
  -3  -2   4    7.18    0.57
   4   2  -4   15.56    1.07
  -4  -2   4   15.89    1.05
   5   2  -4   11.57    0.91
  -5  -2   4   11.47    0.86
   6   2  -4   11.23    0.61
   6   2  -4   10.80    0.62
   6   2  -4   12.59    0.96
   6   2  -4   11.14    0.66
  -6  -2   4    8.99    0.88
   7   2  -4    1.35    0.20
   7   2  -4    1.40    0.21
   7   2  -4    1.93    0.22
   7   2  -4    1.90    0.51
  -7  -2   4    0.59    0.63
   8   2  -4    3.74    0.39
   8   2  -4    3.60    0.36
   8   2  -4    3.69    0.38
   9   2  -4    0.31    0.22
   9   2  -4    0.23    0.22
   9   2  -4    0.17    0.23
  10   2  -4    2.77    0.32
  10   2  -4    2.39    0.34
  10   2  -4    2.43    0.32
  11   2  -4    0.87    0.18
  11   2  -4    0.70    0.21
  11   2  -4    0.82    0.19
 -11  -2   4    0.55    0.16
 -11   2  -3    0.17    0.17
 -10   2  -3    0.70    0.19
 -10   2  -3    0.45    0.21
  -9   2  -3    1.19    0.22
  -9   2  -3    0.92    0.20
   9  -2   3    0.73    0.34
  -8   2  -3    2.33    0.30
  -8   2  -3    2.33    0.29
   8  -2   3    2.05    0.33
  -7   2  -3    0.34    0.16
  -7   2  -3    0.62    0.16
  -7   2  -3    0.52    0.45
   7  -2   3    0.45    0.25
  -6   2  -3    7.76    0.69
  -5   2  -3    1.25    0.28
  -4   2  -3    3.47    0.37
  -3   2  -3    5.44    0.42
  -3   2  -3    5.58    0.43
  -2   2  -3    8.58    0.56
  -2   2  -3    8.74    0.57
  -1   2  -3   10.62    0.65
  -1   2  -3   10.32    0.67
   0   2  -3   32.44    1.94
   0   2  -3   32.71    1.94
   1   2  -3   14.96    0.92
   1   2  -3   14.59    0.93
   2   2  -3    1.45    0.24
   2   2  -3    1.14    0.17
  -2  -2   3    0.73    0.18
  -3  -2   3    2.99    0.30
  -4  -2   3    5.36    0.49
   5   2  -3    4.88    0.53
  -5  -2   3    3.98    0.50
  -6  -2   3    2.91    0.43
   7   2  -3    1.39    0.20
   7   2  -3    1.16    0.18
   7   2  -3    1.84    0.50
   7   2  -3    0.84    0.24
   7   2  -3    1.38    0.20
  -7  -2   3    0.71    0.44
  -7  -2   3    0.47    0.48
  -7  -2   3    0.71    0.23
   8   2  -3    1.17    0.24
   8   2  -3    1.44    0.22
   8   2  -3    1.04    0.25
   8   2  -3    1.39    0.23
   9   2  -3    0.28    0.23
   9   2  -3    0.09    0.22
   9   2  -3   -0.02    0.23
  10   2  -3    4.95    0.39
  10   2  -3    4.54    0.41
  10   2  -3    4.56    0.41
  11   2  -3    0.64    0.21
  11   2  -3    0.67    0.19
  11   2  -3    0.29    0.23
 -11  -2   3    0.17    0.17
 -12   2  -2    0.86    0.17
 -11   2  -2    0.29    0.16
 -10   2  -2    0.18    0.18
 -10   2  -2    0.07    0.23
  -9   2  -2    0.35    0.21
  -9   2  -2    0.55    0.18
  -8   2  -2    1.13    0.63
  -8   2  -2    0.89    0.19
  -8   2  -2    0.97    0.17
   8  -2   2    0.60    0.21
   8  -2   2    0.48    0.31
  -7   2  -2    1.81    0.24
  -7   2  -2    2.52    0.47
  -7   2  -2    2.11    0.27
   7  -2   2    1.79    0.23
   7  -2   2    1.48    0.30
  -6   2  -2   30.26    1.88
  -5   2  -2    4.65    0.46
  -5   2  -2    4.69    0.44
  -4   2  -2   59.47    3.49
  -4   2  -2   57.79    3.46
  -3   2  -2   14.90    0.92
  -3   2  -2   14.95    0.92
  -2   2  -2    5.25    0.35
  -2   2  -2    5.16    0.35
  -1   2  -2  110.89    6.61
  -1   2  -2  113.75    6.55
   0   2  -2   40.65    2.40
   0   2  -2   40.39    2.38
   1   2  -2   10.31    0.66
   1   2  -2   10.96    0.67
   2   2  -2    2.65    0.23
   2   2  -2    2.12    0.25
   3   2  -2    1.64    0.27
  -3  -2   2    2.78    0.26
   4   2  -2    4.35    0.43
  -4  -2   2    6.30    0.44
   5   2  -2   25.53    1.66
  -5  -2   2   26.57    1.62
   6   2  -2   19.98    1.40
  -6  -2   2   21.43    1.38
  -6  -2   2   20.88    1.36
   7   2  -2    2.91    0.27
   7   2  -2    3.28    0.54
   7   2  -2    2.80    0.31
   7   2  -2    3.07    0.34
   7   2  -2    2.39    0.33
  -7  -2   2    3.11    0.48
  -7  -2   2    3.15    0.33
  -7  -2   2    2.86    0.49
   8   2  -2   -0.36    0.61
   8   2  -2    0.46    0.20
   8   2  -2    0.30    0.21
   8   2  -2    0.59    0.22
   8   2  -2    0.70    0.20
   9   2  -2    0.43    0.23
   9   2  -2    0.44    0.22
   9   2  -2    0.38    0.24
  -9  -2   2    0.61    0.22
  10   2  -2    2.65    0.38
  10   2  -2    1.84    0.26
  10   2  -2    1.64    0.28
 -10  -2   2    2.08    0.28
  11   2  -2    2.52    0.29
  11   2  -2    2.68    0.32
 -11  -2   2    2.21    0.26
 -12  -2   2    0.06    0.12
 -12   2  -1    0.84    0.14
 -11   2  -1    2.92    0.27
 -10   2  -1    1.21    0.20
  -9   2  -1    0.60    0.18
   9  -2   1    0.96    0.22
  -8   2  -1    2.57    0.65
  -8   2  -1    1.45    0.22
  -8   2  -1    1.53    0.18
   8  -2   1    1.44    0.21
  -7   2  -1    0.41    0.14
  -7   2  -1    0.21    0.38
   7  -2   1    0.79    0.18
  -6   2  -1    9.11    0.73
  -6   2  -1    9.24    0.70
  -5   2  -1    2.72    0.33
  -5   2  -1    2.93    0.34
  -4   2  -1   39.29    2.32
  -4   2  -1   38.33    2.30
  -3   2  -1   25.63    1.55
  -3   2  -1   26.06    1.54
  -2   2  -1   43.61    2.57
  -2   2  -1   44.08    2.60
  -1   2  -1   16.38    0.96
  -1   2  -1   15.99    0.97
   0   2  -1  104.91    6.07
   0   2  -1  103.49    6.13
   1   2  -1   12.93    0.74
   1   2  -1   13.44    0.75
  -1  -2   1   10.28    0.74
  -2  -2   1   13.49    0.82
   3   2  -1    6.11    0.40
  -3  -2   1    4.28    0.37
   4   2  -1   12.51    0.79
  -4  -2   1   10.91    0.75
   5   2  -1    4.95    0.51
  -5  -2   1    5.70    0.47
  -6  -2   1    8.72    0.72
  -6  -2   1    9.49    0.73
   7   2  -1    0.03    0.40
   7   2  -1    0.39    0.20
   7   2  -1    0.53    0.19
   7   2  -1    0.44    0.17
  -7  -2   1    1.10    0.37
  -7  -2   1    0.64    0.17
  -7  -2   1    0.59    0.38
   8   2  -1    2.28    0.31
  -8  -2   1    0.16    0.53
  -8  -2   1    0.50    0.56
   9   2  -1    0.53    0.25
   9   2  -1    0.77    0.23
   9   2  -1    0.82    0.28
  10   2  -1    7.28    0.46
  10   2  -1    6.69    0.50
 -10  -2   1    5.17    0.45
 -10  -2   1    5.39    0.41
  11   2  -1    1.51    0.26
  11   2  -1    1.07    0.21
 -11  -2   1    1.03    0.18
 -12  -2   1    1.02    0.15
 -12   2   0    1.09    0.14
 -11   2   0    4.87    0.33
 -10   2   0   30.71    1.50
  10  -2   0   30.01    1.51
  -9   2   0   13.23    0.70
   9  -2   0   13.20    0.73
  -8   2   0    1.13    0.18
   8  -2   0    0.41    0.27
   8  -2   0    1.28    0.21
  -7   2   0    3.09    0.45
  -7   2   0    3.08    0.45
   7  -2   0    2.31    0.29
  -6   2   0    0.37    0.25
  -6   2   0    0.62    0.27
  -5   2   0    4.54    0.40
  -5   2   0    4.33    0.41
  -4   2   0   10.76    0.72
  -4   2   0   10.61    0.72
   4  -2   0   12.54    0.76
  -3   2   0    1.47    0.18
  -3   2   0    1.59    0.18
   3  -2   0    1.98    0.22
  -2   2   0  398.37   24.04
  -2   2   0  418.94   23.75
  -1   2   0   13.24    0.78
   0   2   0  408.57   23.36
   0   2   0  396.20   23.62
   0  -2   0  400.47   23.35
   1   2   0   15.78    0.92
  -1  -2   0   15.01    0.91
   2   2   0  457.99   25.91
  -2  -2   0  424.52   25.63
   3   2   0    1.80    0.21
  -3  -2   0    1.76    0.21
   4   2   0   12.52    0.81
  -4  -2   0   11.89    0.79
   5   2   0    4.11    0.48
  -5  -2   0    4.78    0.44
   6   2   0    0.91    0.32
  -6  -2   0    1.06    0.28
  -6  -2   0    0.31    0.27
   7   2   0    1.59    0.49
   7   2   0    2.53    0.30
   7   2   0    2.41    0.29
  -7  -2   0    2.25    0.42
  -7  -2   0    2.53    0.27
  -7  -2   0    2.45    0.44
   8   2   0    0.90    0.25
   8   2   0    0.69    0.21
  -8  -2   0    0.69    0.52
  -8  -2   0    1.10    0.18
   9   2   0   12.25    0.82
   9   2   0   13.18    0.73
  -9  -2   0   13.18    0.71
  -9  -2   0   13.32    0.69
  10   2   0   24.75    1.57
  10   2   0   29.13    1.43
 -10  -2   0   30.56    1.41
 -10  -2   0   29.76    1.44
 -11  -2   0    4.63    0.38
 -11  -2   0    5.13    0.34
 -12  -2   0    1.06    0.16
 -12   2   1    1.00    0.14
 -11   2   1    1.46    0.19
 -10   2   1    7.43    0.42
  10  -2  -1    6.07    0.45
  10  -2  -1    6.18    0.51
  10  -2  -1    5.24    0.51
  -9   2   1    0.67    0.20
   9  -2  -1   -0.33    0.25
   9  -2  -1    0.50    0.22
   9  -2  -1    0.32    0.26
   8  -2  -1    0.42    0.22
  -7   2   1    0.31    0.38
  -7   2   1    0.15    0.36
   7  -2  -1    0.53    0.17
   7  -2  -1    0.63    0.20
   7  -2  -1    0.55    0.21
  -6   2   1    6.33    0.59
  -6   2   1    6.43    0.57
  -5   2   1    4.80    0.44
  -5   2   1    4.05    0.43
   5  -2  -1    6.00    0.51
  -4   2   1   10.96    0.73
  -4   2   1   11.32    0.72
   4  -2  -1   11.43    0.75
  -3   2   1    5.38    0.39
  -3   2   1    5.45    0.37
  -2   2   1   24.33    1.48
  -2   2   1   25.14    1.46
  -1   2   1   12.05    0.70
  -1   2   1   12.48    0.68
   1  -2  -1   10.06    0.70
   0   2   1   95.64    5.74
   0  -2  -1   99.84    5.68
   3   2   1   29.47    1.75
  -3  -2  -1   28.73    1.74
   4   2   1   43.87    2.76
  -4  -2  -1   48.22    2.73
  -5  -2  -1    5.05    0.44
  -5  -2  -1    4.63    0.43
   6   2   1    8.28    0.82
  -6  -2  -1   10.26    0.79
  -6  -2  -1   12.20    0.78
   7   2   1    0.49    0.20
  -7  -2  -1    0.40    0.14
  -7  -2  -1    0.35    0.36
   8   2   1    1.97    0.26
   8   2   1    1.68    0.29
  -8  -2  -1    1.49    0.20
  -8  -2  -1    2.27    0.57
  -8  -2  -1    2.10    0.22
   9   2   1    0.54    0.24
  -9  -2  -1    0.94    0.21
  -9  -2  -1    0.84    0.19
  10   2   1    1.25    0.26
 -10  -2  -1    2.04    0.23
 -10  -2  -1    2.08    0.29
 -11  -2  -1    2.95    0.27
 -11  -2  -1    2.85    0.29
 -12   2   2    0.39    0.12
 -11   2   2    2.40    0.24
  11  -2  -2    2.20    0.26
  11  -2  -2    2.05    0.28
  11  -2  -2    2.20    0.29
 -10   2   2    1.77    0.23
  10  -2  -2    1.91    0.28
  10  -2  -2    2.40    0.30
  10  -2  -2    2.54    0.32
  -9   2   2    0.33    0.19
   9  -2  -2    0.64    0.25
   9  -2  -2    0.26    0.24
   9  -2  -2    0.92    0.23
  -8   2   2    0.24    0.54
   8  -2  -2    1.66    0.23
   8  -2  -2    1.60    0.25
   8  -2  -2    1.67    0.22
  -7   2   2    2.51    0.45
   7  -2  -2    2.74    0.34
   7  -2  -2    2.70    0.33
   7  -2  -2    2.83    0.30
  -6   2   2   20.46    1.32
  -6   2   2   20.27    1.33
   6  -2  -2   20.07    1.38
  -5   2   2   24.40    1.56
  -5   2   2   25.09    1.59
   5  -2  -2   26.59    1.62
  -4   2   2    5.14    0.40
  -4   2   2    4.84    0.42
   4  -2  -2    5.14    0.45
  -3   2   2    1.95    0.24
  -3   2   2    2.07    0.23
   3  -2  -2    2.26    0.27
  -2   2   2    1.98    0.20
  -2   2   2    2.11    0.19
   1  -2  -2    7.68    0.49
   1  -2  -2    7.82    0.50
  -1  -2  -2  104.47    6.09
  -2  -2  -2    8.23    0.49
  -2  -2  -2    7.10    0.46
   3   2   2   14.51    0.90
  -3  -2  -2   14.13    0.89
  -3  -2  -2   15.24    0.91
   4   2   2   58.87    3.33
  -4  -2  -2   55.63    3.31
  -4  -2  -2   53.50    3.32
  -5  -2  -2    5.08    0.44
  -6  -2  -2   26.02    1.64
   7   2   2    2.11    0.26
  -7  -2  -2    1.43    0.21
  -7  -2  -2    1.64    0.44
  -7  -2  -2    1.83    0.18
   8   2   2    1.25    0.25
  -8  -2  -2    0.35    0.19
  -8  -2  -2    0.63    0.17
  -8  -2  -2    0.90    0.57
   9   2   2    0.20    0.25
  -9  -2  -2    0.21    0.20
  -9  -2  -2    0.17    0.18
 -10  -2  -2    0.43    0.20
 -10  -2  -2    0.73    0.20
 -11  -2  -2    0.22    0.17
 -11  -2  -2    0.26    0.18
 -11   2   3    0.46    0.16
  11  -2  -3    0.25    0.20
  11  -2  -3    0.56    0.22
  11  -2  -3    0.27    0.18
 -10   2   3    4.32    0.35
  10  -2  -3    4.41    0.42
  10  -2  -3    5.00    0.41
  10  -2  -3    4.99    0.38
   9  -2  -3    0.40    0.22
   9  -2  -3    0.34    0.23
   9  -2  -3    0.44    0.24
   8  -2  -3    2.53    0.36
   8  -2  -3    2.61    0.26
   8  -2  -3    2.09    0.25
  -7   2   3    1.54    0.41
   7  -2  -3    0.54    0.17
   7  -2  -3    0.34    0.18
   7  -2  -3    0.65    0.19
   6  -2  -3    2.87    0.45
  -5   2   3    5.21    0.50
  -5   2   3    4.74    0.49
   5  -2  -3    3.88    0.51
  -4   2   3   14.91    0.96
  -4   2   3   14.34    0.93
  -3   2   3    5.34    0.42
  -3   2   3    5.47    0.41
   2  -2  -3    0.83    0.15
   2  -2  -3    0.66    0.14
  -1   2   3   13.76    0.75
   1  -2  -3   10.51    0.75
   1  -2  -3   11.88    0.76
   0  -2  -3   24.86    1.46
   0  -2  -3   23.96    1.46
  -1  -2  -3   11.24    0.70
  -2  -2  -3   16.02    0.99
  -3  -2  -3    7.94    0.56
  -4  -2  -3   15.34    0.99
  -5  -2  -3    3.45    0.40
  -6  -2  -3    9.97    0.80
   7   2   3    0.39    0.26
  -7  -2  -3    0.93    0.46
  -7  -2  -3    0.57    0.15
  -7  -2  -3    0.36    0.21
  -8  -2  -3    1.81    0.24
  -8  -2  -3    2.14    0.29
  -9  -2  -3    0.33    0.21
  -9  -2  -3    0.18    0.18
 -10  -2  -3    0.48    0.19
 -10  -2  -3    0.27    0.21
 -11  -2  -3   -0.01    0.16
 -11   2   4    0.66    0.16
  11  -2  -4    0.52    0.18
  11  -2  -4    0.65    0.18
  11  -2  -4    0.76    0.19
 -10   2   4    2.80    0.29
  10  -2  -4    2.74    0.34
  10  -2  -4    2.89    0.32
  10  -2  -4    2.30    0.33
   9  -2  -4    0.53    0.22
   9  -2  -4    0.46    0.22
   9  -2  -4    0.40    0.24
   8  -2  -4    2.87    0.38
   8  -2  -4    3.07    0.36
   8  -2  -4    3.30    0.38
   7  -2  -4    0.35    0.18
   7  -2  -4    0.70    0.18
   7  -2  -4    0.53    0.18
   6  -2  -4    7.86    0.52
   6  -2  -4    9.00    0.55
   6  -2  -4    9.23    0.85
   6  -2  -4    8.72    0.52
  -5   2   4   11.50    0.87
   5  -2  -4   11.62    0.89
  -4   2   4   15.61    1.02
  -4   2   4   16.55    1.02
   4  -2  -4   14.15    1.04
  -3   2   4    6.82    0.53
  -3   2   4    7.09    0.54
   3  -2  -4    7.13    0.55
  -2   2   4   16.35    0.98
   2  -2  -4   14.89    0.98
   2  -2  -4   14.93    0.98
  -1   2   4   11.73    0.74
   1  -2  -4   11.55    0.75
   1  -2  -4   11.71    0.77
   0   2   4   19.99    1.19
   0  -2  -4   18.58    1.19
   0  -2  -4   20.31    1.20
  -1  -2  -4   17.59    1.09
  -2  -2  -4    9.45    0.64
  -3  -2  -4   11.61    0.79
  -4  -2  -4    9.55    0.71
  -5  -2  -4    7.09    0.64
  -6  -2  -4   20.35    1.06
  -6  -2  -4   21.66    1.42
  -7  -2  -4    1.77    0.31
  -7  -2  -4    2.26    0.57
  -7  -2  -4    1.90    0.27
  -8  -2  -4    3.25    0.31
  -9  -2  -4    0.39    0.19
 -10  -2  -4    3.31    0.30
 -11  -2  -4    0.10    0.15
 -11   2   5    1.22    0.16
  11  -2  -5    1.05    0.18
  11  -2  -5    0.63    0.17
  11  -2  -5    0.83    0.17
 -10   2   5    1.25    0.19
  10  -2  -5    1.13    0.22
  10  -2  -5    1.10    0.22
  10  -2  -5    1.16    0.22
   9  -2  -5    1.72    0.26
   9  -2  -5    2.33    0.35
   9  -2  -5    2.03    0.26
   8  -2  -5    2.66    0.30
   8  -2  -5    2.57    0.28
   8  -2  -5    2.87    0.37
   7  -2  -5    3.31    0.38
   7  -2  -5    2.80    0.37
   7  -2  -5    2.81    0.35
  -6   2   5   14.88    1.05
   6  -2  -5   14.00    1.12
   6  -2  -5   13.65    0.79
   6  -2  -5   12.35    0.75
   6  -2  -5   12.38    0.73
  -5   2   5    9.32    0.78
   5  -2  -5    8.30    0.83
  -4   2   5   31.89    1.95
   4  -2  -5   30.20    1.96
  -3   2   5    6.26    0.59
  -3   2   5    6.81    0.55
   3  -2  -5    6.75    0.57
   3  -2  -5    6.69    0.59
  -2   2   5   27.24    1.59
   2  -2  -5   25.29    1.60
   2  -2  -5   24.76    1.60
  -1   2   5   43.96    2.68
   1  -2  -5   46.54    2.69
   1  -2  -5   43.84    2.69
   0  -2  -5   82.09    4.83
  -1  -2  -5   25.00    1.54
  -2  -2  -5    3.89    0.42
  -3  -2  -5   22.58    1.44
  -4  -2  -5    1.17    0.33
  -5  -2  -5   10.95    0.88
   6   2   5   19.67    1.13
  -6  -2  -5   18.54    1.13
  -6  -2  -5   18.64    0.97
   7   2   5    2.24    0.33
  -7  -2  -5    2.17    0.28
  -7  -2  -5    1.87    0.32
   8   2   5    5.07    0.56
  -8  -2  -5    5.19    0.40
  -9  -2  -5    3.22    0.32
 -10  -2  -5    6.82    0.42
 -11  -2  -5    1.74    0.22
 -10   2   6    0.56    0.17
  10  -2  -6    0.38    0.18
  10  -2  -6    0.37    0.19
  10  -2  -6    0.64    0.18
   9  -2  -6    0.88    0.24
   9  -2  -6    0.90    0.23
   9  -2  -6    1.07    0.22
   8  -2  -6    1.25    0.26
   8  -2  -6    1.20    0.23
   8  -2  -6    1.55    0.26
   7  -2  -6    1.32    0.22
   7  -2  -6    1.53    0.25
   7  -2  -6    1.34    0.25
  -6   2   6    5.19    0.81
   6  -2  -6    5.35    0.47
   6  -2  -6    5.16    0.43
   6  -2  -6    5.21    0.43
  -5   2   6    3.72    0.65
   5  -2  -6    5.11    0.38
   5  -2  -6    4.76    0.63
   5  -2  -6    3.67    0.42
   5  -2  -6    4.23    0.41
  -4   2   6   39.75    2.36
   4  -2  -6   35.43    2.36
   3  -2  -6    2.34    0.38
   1  -2  -6    3.83    0.53
   0  -2  -6   28.56    1.78
  -1  -2  -6    2.64    0.42
  -2  -2  -6    3.88    0.51
  -3  -2  -6    0.73    0.33
  -4  -2  -6    5.75    0.67
  -5  -2  -6    4.81    0.71
  -5  -2  -6    4.71    0.47
  -5  -2  -6    5.05    0.35
  -5  -2  -6    4.72    0.41
   6   2   6    8.65    0.62
  -6  -2  -6    9.02    0.62
  -6  -2  -6    8.19    0.51
  -6  -2  -6    7.50    0.94
  -6  -2  -6    8.54    0.62
   7   2   6    0.75    0.30
  -7  -2  -6    1.09    0.21
  -7  -2  -6    0.92    0.29
   8   2   6    1.69    0.34
   9   2   6    0.83    0.33
  -9  -2  -6    0.02    0.19
 -10  -2  -6    1.81    0.25
  10  -2  -7    1.22    0.18
  10  -2  -7    1.06    0.20
  10  -2  -7    1.41    0.20
   9  -2  -7    1.15    0.21
   9  -2  -7    1.38    0.24
   9  -2  -7    1.19    0.22
   8  -2  -7    1.14    0.26
   8  -2  -7    0.91    0.23
   8  -2  -7    0.79    0.22
   7  -2  -7    2.22    0.29
   7  -2  -7    2.78    0.36
   7  -2  -7    2.05    0.29
   6  -2  -7    1.86    0.28
   6  -2  -7    1.59    0.24
   6  -2  -7    1.25    0.25
  -5   2   7    5.96    0.93
   5  -2  -7    7.69    0.57
   5  -2  -7    8.04    0.53
  -4   2   7   10.31    0.95
   4  -2  -7    9.20    0.65
   4  -2  -7   11.53    1.03
   4  -2  -7   10.17    0.69
  -3   2   7    4.13    0.66
   3  -2  -7    4.78    0.74
   1  -2  -7    4.37    0.56
   0  -2  -7   37.24    2.31
  -1  -2  -7    1.68    0.43
  -2  -2  -7    1.52    0.44
  -3  -2  -7    2.10    0.51
  -3  -2  -7    2.25    0.32
  -3  -2  -7    2.02    0.28
  -3  -2  -7    2.30    0.34
  -4  -2  -7    7.29    0.51
  -4  -2  -7    6.33    0.82
  -4  -2  -7    7.51    0.46
  -4  -2  -7    6.69    0.48
  -5  -2  -7    8.48    0.98
  -5  -2  -7    8.16    0.51
  -5  -2  -7    8.23    0.61
  -5  -2  -7    8.02    0.55
   6   2   7    1.11    0.29
  -6  -2  -7    1.39    0.26
  -6  -2  -7    1.27    0.28
  -6  -2  -7    1.31    0.22
   7   2   7    3.11    0.45
  -7  -2  -7    2.03    0.32
  -7  -2  -7    2.04    0.26
   8   2   7    0.56    0.30
  -8  -2  -7    0.24    0.21
   9   2   7    2.06    0.34
  -9  -2  -7    2.20    0.28
 -10  -2  -7    2.17    0.21
   9  -2  -8    1.06    0.20
   9  -2  -8    0.74    0.18
   8  -2  -8    0.15    0.21
   8  -2  -8    0.51    0.21
   7  -2  -8    0.64    0.21
   7  -2  -8    0.22    0.23
   6  -2  -8    0.40    0.23
   6  -2  -8    0.57    0.25
   5  -2  -8    0.74    0.24
   5  -2  -8    0.62    0.25
   2  -2  -8    1.06    0.26
   1  -2  -8   12.54    0.78
   1  -2  -8   11.80    0.71
   0  -2  -8   31.38    1.85
   0  -2  -8   34.69    2.16
   0  -2  -8   33.11    1.71
  -1  -2  -8    3.54    0.65
  -1  -2  -8    4.66    0.40
  -1  -2  -8    4.28    0.36
  -1  -2  -8    3.81    0.42
  -2  -2  -8    0.69    0.19
  -2  -2  -8    0.32    0.23
  -2  -2  -8    0.37    0.18
  -2  -2  -8    0.22    0.58
  -3  -2  -8    0.42    0.19
  -3  -2  -8    0.72    0.64
  -3  -2  -8    1.06    0.22
  -3  -2  -8    0.48    0.21
  -4  -2  -8    0.92    0.22
  -4  -2  -8    0.80    0.23
  -4  -2  -8    0.81    0.24
  -4  -2  -8    0.27    0.75
  -5  -2  -8    0.28    0.24
  -5  -2  -8    0.15    0.22
  -5  -2  -8    0.12    0.23
   6   2   8    0.13    0.28
  -6  -2  -8    0.75    0.24
  -6  -2  -8    0.86    0.27
  -6  -2  -8    0.73    0.27
   7   2   8    0.32    0.30
  -7  -2  -8    0.45    0.23
  -7  -2  -8    0.80    0.28
   8   2   8    1.21    0.29
  -8  -2  -8    0.57    0.21
   9   2   8    1.39    0.28
   9  -2  -9    0.43    0.16
   9  -2  -9    0.44    0.19
   8  -2  -9    0.53    0.22
   8  -2  -9    0.41    0.20
   7  -2  -9    0.79    0.25
   7  -2  -9    1.05    0.24
   6  -2  -9    5.19    0.43
   6  -2  -9    3.67    0.46
   2  -2  -9    0.99    0.29
   1  -2  -9    3.71    0.45
   1  -2  -9    4.08    0.38
   0  -2  -9    9.21    0.64
   0  -2  -9    9.41    0.59
  -1  -2  -9    1.03    0.23
  -1  -2  -9    0.92    0.21
  -1  -2  -9   -0.14    0.89
  -1  -2  -9    1.28    0.27
  -2  -2  -9    2.20    0.28
  -2  -2  -9    2.05    0.87
  -2  -2  -9    2.02    0.26
  -2  -2  -9    2.43    0.30
  -3  -2  -9    1.41    0.26
  -3  -2  -9    1.43    0.25
  -3  -2  -9    1.01    0.24
  -4  -2  -9    9.03    0.59
  -4  -2  -9    9.38    0.61
  -4  -2  -9    9.54    0.65
  -5  -2  -9    3.35    0.40
  -5  -2  -9    3.48    0.40
  -5  -2  -9    3.20    0.37
   6   2   9    2.67    0.39
  -6  -2  -9    2.39    0.34
  -6  -2  -9    1.48    0.29
  -6  -2  -9    1.85    0.30
  -7  -2  -9    2.16    0.35
  -7  -2  -9    2.00    0.31
  -7  -2  -9    1.90    0.28
   8   2   9    0.22    0.24
  -8  -2  -9    0.03    0.17
  -9  -2  -9    0.42    0.14
   1  -2 -10    1.70    0.29
   1  -2 -10    2.05    0.28
   0  -2 -10    2.45    0.37
   0  -2 -10    2.84    0.40
  -1  -2 -10    2.10    0.27
  -1  -2 -10    2.61    0.30
  -2  -2 -10    2.66    0.32
  -2  -2 -10    2.44    0.36
  -2  -2 -10    2.99    0.39
  -3  -2 -10    2.41    0.30
  -3  -2 -10    2.55    0.36
  -3  -2 -10    1.96    0.30
  -4  -2 -10    9.61    0.65
  -4  -2 -10    9.71    0.61
  -4  -2 -10    9.97    0.60
  -5  -2 -10    3.13    0.36
  -5  -2 -10    2.68    0.34
  -5  -2 -10    2.73    0.36
   6   2  10    2.60    0.36
  -6  -2 -10    2.96    0.32
  -6  -2 -10    3.47    0.35
  -6  -2 -10    2.62    0.35
   7   2  10    0.60    0.25
  -7  -2 -10    1.00    0.20
  -7  -2 -10    1.27    0.25
  -7  -2 -10    0.91    0.23
   8   2  10    0.22    0.20
  -8  -2 -10   -0.16    0.15
   1  -2 -11    6.87    0.49
   1  -2 -11    5.96    0.53
   0  -2 -11    4.32    0.43
   0  -2 -11    4.03    0.40
  -1  -2 -11    6.29    0.48
  -1  -2 -11    7.04    0.52
  -2  -2 -11    2.87    0.38
  -2  -2 -11    3.16    0.34
  -2  -2 -11    2.54    0.33
  -3  -2 -11    1.12    0.25
  -3  -2 -11    1.35    0.27
  -3  -2 -11    1.22    0.25
  -4  -2 -11    1.12    0.24
  -4  -2 -11    0.97    0.25
  -4  -2 -11    0.97    0.24
   5   2  11    0.23    0.26
  -5  -2 -11    0.82    0.22
  -5  -2 -11    0.63    0.22
  -5  -2 -11    0.68    0.22
   6   2  11    1.46    0.25
  -6  -2 -11    1.67    0.26
  -6  -2 -11    1.45    0.23
  -6  -2 -11    1.68    0.24
   7   2  11    1.62    0.23
  -7  -2 -11    1.37    0.19
   1  -2 -12    1.50    0.27
   0  -2 -12    2.52    0.33
   0  -2 -12    2.81    0.38
  -1  -2 -12    1.96    0.28
  -1  -2 -12    1.89    0.26
  -2  -2 -12    0.76    0.24
  -2  -2 -12    0.69    0.21
  -3  -2 -12    0.81    0.21
  -3  -2 -12    0.79    0.21
   4   2  12    0.22    0.25
  -4  -2 -12    0.68    0.23
  -4  -2 -12    0.20    0.19
  -4  -2 -12    0.49    0.19
   5   2  12    0.63    0.23
  -5  -2 -12    1.09    0.18
  -5  -2 -12    1.12    0.21
  -5  -2 -12    0.86    0.18
   0  -2 -13    1.05    0.23
  -1  -2 -13    0.09    0.21
  -1  -2 -13    0.40    0.19
   2   2  13   -0.33    0.24
  -2  -2 -13   -0.09    0.17
  -2  -2 -13    0.11    0.18
   3   2  13    0.23    0.22
  -3  -2 -13   -0.13    0.15
  -3  -2 -13    0.42    0.16
  -3   3 -13    0.12    0.21
  -3   3 -13   -0.14    0.15
  -2   3 -13   -0.34    0.16
  -2   3 -13   -0.27    0.18
  -1   3 -13   -0.38    0.21
  -1   3 -13    0.34    0.18
   0   3 -13    0.46    0.19
   1   3 -13    0.61    0.22
  -5   3 -12    0.81    0.18
  -5   3 -12    0.95    0.19
   5  -3  12    0.80    0.23
  -4   3 -12    0.77    0.19
  -4   3 -12    0.75    0.21
  -4   3 -12    0.39    0.20
   4  -3  12    0.98    0.27
  -3   3 -12    0.29    0.19
  -3   3 -12    0.72    0.22
  -3   3 -12    0.51    0.23
   3  -3  12    0.74    0.30
  -2   3 -12    0.76    0.25
  -2   3 -12    1.07    0.23
  -2   3 -12    0.45    0.20
   2  -3  12    0.26    0.33
  -1   3 -12    1.44    0.23
  -1   3 -12    1.51    0.26
   0   3 -12    1.66    0.27
   0   3 -12    2.37    0.29
   1   3 -12    1.66    0.27
   1   3 -12    1.82    0.26
   2   3 -12    0.90    0.26
  -7   3 -11    1.30    0.17
  -6   3 -11    0.80    0.18
  -6   3 -11    1.15    0.23
   6  -3  11    1.50    0.25
  -5   3 -11    1.15    0.23
  -5   3 -11    1.35    0.21
  -5   3 -11    1.36    0.24
   5  -3  11    1.84    0.28
  -4   3 -11    1.22    0.23
  -4   3 -11    1.52    0.25
  -4   3 -11    1.21    0.23
   4  -3  11    1.09    0.30
  -3   3 -11    2.16    0.27
  -3   3 -11    1.69    0.25
  -3   3 -11    1.56    0.27
   3  -3  11    2.52    0.33
  -2   3 -11    1.82    0.28
  -2   3 -11    1.50    0.28
  -2   3 -11    1.65    0.25
  -1   3 -11    5.24    0.43
   0   3 -11    7.41    0.51
   1   3 -11    7.86    0.52
   1   3 -11    7.43    0.51
   2   3 -11    1.48    0.27
   2   3 -11    1.37    0.28
  -8   3 -10    0.32    0.13
   8  -3  10    0.28    0.19
  -7   3 -10    1.30    0.20
   7  -3  10    1.69    0.26
  -6   3 -10    2.27    0.34
  -6   3 -10    2.69    0.33
  -6   3 -10    2.32    0.28
   6  -3  10    2.58    0.34
  -5   3 -10    4.39    0.40
  -5   3 -10    4.36    0.37
  -5   3 -10    4.42    0.41
   5  -3  10    3.72    0.43
  -4   3 -10    4.70    0.40
  -4   3 -10    5.05    0.39
  -4   3 -10    5.13    0.43
   4  -3  10    3.63    0.45
  -3   3 -10    3.23    0.36
  -3   3 -10    3.54    0.39
  -3   3 -10    3.45    0.37
  -2   3 -10    0.90    0.24
  -2   3 -10    0.55    0.22
  -2   3 -10    0.84    0.27
  -1   3 -10    2.33    0.28
  -1   3 -10    2.11    0.26
  -1   3 -10    1.93    0.32
   0   3 -10    3.09    0.38
   0   3 -10    3.42    0.37
   1   3 -10    0.59    0.23
   1   3 -10    0.61    0.25
   2   3 -10    3.35    0.38
   2   3 -10    2.70    0.36
   3   3 -10    0.96    0.28
   7   3 -10    1.91    0.26
   9  -3   9    0.13    0.19
  -8   3  -9    0.18    0.18
   8  -3   9   -0.03    0.23
  -7   3  -9    0.51    0.21
   7  -3   9    0.94    0.27
  -6   3  -9    4.92    0.47
  -6   3  -9    4.27    0.39
  -6   3  -9    4.42    0.44
   6  -3   9    5.33    0.45
  -5   3  -9    3.67    0.40
  -5   3  -9    3.51    0.41
  -5   3  -9    3.83    0.37
  -4   3  -9    3.06    0.38
  -4   3  -9    3.13    0.39
  -4   3  -9    3.11    0.35
  -3   3  -9    3.05    0.35
  -3   3  -9    3.13    0.41
  -3   3  -9    3.44    0.37
  -2   3  -9    0.79    0.20
  -2   3  -9    0.94    0.22
  -2   3  -9    0.79    0.26
  -1   3  -9    2.91    0.44
  -1   3  -9    2.74    0.32
  -1   3  -9    2.66    0.76
  -1   3  -9    3.08    0.35
   0   3  -9    5.79    0.92
   0   3  -9    5.40    0.42
   0   3  -9    5.33    0.40
   1   3  -9    1.07    0.22
   1   3  -9    0.80    0.23
   1   3  -9    0.31    0.72
   2   3  -9    2.40    0.28
   2   3  -9    2.48    0.35
   2   3  -9    2.19    0.83
  -2  -3   9    1.98    0.83
   3   3  -9    4.55    0.44
   4   3  -9    6.74    0.50
   5   3  -9    5.66    0.47
   5   3  -9    5.55    0.45
   6   3  -9    2.03    0.28
   6   3  -9    1.92    0.27
   7   3  -9    1.32    0.25
   7   3  -9    1.44    0.23
   8   3  -9    0.08    0.18
   8   3  -9   -0.15    0.20
   9   3  -9    0.38    0.16
  -9   3  -8    1.19    0.19
   9  -3   8    1.32    0.25
  -8   3  -8    0.59    0.21
   8  -3   8    1.91    0.29
  -7   3  -8    1.60    0.24
   7  -3   8    1.30    0.30
  -6   3  -8    1.15    0.23
  -6   3  -8    0.89    0.27
  -5   3  -8    0.91    0.27
  -5   3  -8    1.10    0.26
  -5   3  -8    1.06    0.22
  -4   3  -8    2.41    0.75
  -4   3  -8    3.31    0.33
  -4   3  -8    3.03    0.38
  -4   3  -8    2.87    0.39
  -3   3  -8    0.84    0.21
  -3   3  -8    0.83    0.21
  -3   3  -8    0.92    0.24
  -3   3  -8    1.01    0.60
  -2   3  -8    2.58    0.30
  -2   3  -8    2.31    0.62
  -2   3  -8    2.38    0.29
  -2   3  -8    2.67    0.30
  -1   3  -8    3.97    0.45
  -1   3  -8    4.23    0.68
  -1   3  -8    4.38    0.34
  -1   3  -8    4.06    0.34
   0   3  -8    6.68    0.44
   0   3  -8    6.62    0.83
   0   3  -8    7.28    0.46
   1   3  -8    2.55    0.32
   1   3  -8    2.63    0.62
   1   3  -8    2.33    0.29
   2   3  -8    0.98    0.58
   2   3  -8    1.29    0.24
   2   3  -8    1.14    0.25
   2   3  -8    1.52    0.30
  -2  -3   8    1.66    0.60
   3   3  -8    1.58    0.69
   3   3  -8    1.68    0.26
   3   3  -8    1.22    0.26
  -3  -3   8    0.14    0.61
   4   3  -8    1.94    0.28
   4   3  -8    2.03    0.27
   4   3  -8    2.13    0.30
   5   3  -8    0.91    0.24
   5   3  -8    0.66    0.23
   6   3  -8    2.31    0.34
   6   3  -8    2.09    0.27
   6   3  -8    2.44    0.29
   7   3  -8    0.33    0.23
   7   3  -8    0.42    0.21
   7   3  -8    0.34    0.27
   8   3  -8    0.93    0.21
   8   3  -8    1.36    0.26
   8   3  -8    0.61    0.22
   9   3  -8    0.50    0.20
   9   3  -8    0.73    0.17
   9   3  -8    0.82    0.20
 -10   3  -7    1.05    0.19
  10  -3   7    1.29    0.25
  -9   3  -7    0.20    0.19
   9  -3   7    0.02    0.25
  -8   3  -7   -0.07    0.20
   8  -3   7    0.69    0.29
  -7   3  -7    3.73    0.37
   7  -3   7    4.19    0.45
  -6   3  -7    6.24    0.47
  -6   3  -7    6.21    0.55
   6  -3   7    7.39    0.55
  -5   3  -7   11.39    0.73
  -5   3  -7   12.23    0.76
  -5   3  -7   11.67    0.66
  -5   3  -7   11.00    1.10
   5  -3   7   12.30    0.76
  -4   3  -7    7.82    0.53
  -4   3  -7    7.82    0.54
  -4   3  -7    7.76    0.83
  -4   3  -7    7.24    0.47
  -3   3  -7    3.87    0.30
  -3   3  -7    2.90    0.33
  -3   3  -7    2.78    0.36
  -3   3  -7    3.51    0.57
  -2   3  -7    3.48    0.53
  -1   3  -7    3.51    0.57
   0   3  -7    7.41    0.71
   1   3  -7    8.30    0.77
   2   3  -7    1.92    0.48
   2   3  -7    1.18    0.40
   3   3  -7    7.15    0.82
   3   3  -7    7.93    0.82
  -3  -3   7    7.32    0.86
   4   3  -7    6.53    0.49
   4   3  -7    5.90    0.83
   4   3  -7    6.14    0.44
   4   3  -7    6.89    0.49
  -4  -3   7    5.70    0.92
   5   3  -7   13.37    0.79
   5   3  -7   13.46    0.73
   5   3  -7   13.49    0.76
   5   3  -7   13.76    0.85
   5   3  -7   12.40    1.25
  -5  -3   7   11.63    1.16
   6   3  -7    9.17    0.66
   6   3  -7    9.29    0.58
   6   3  -7    9.05    0.59
   7   3  -7    3.01    0.34
   7   3  -7    2.18    0.30
   7   3  -7    2.74    0.36
   8   3  -7    1.03    0.22
   8   3  -7    0.72    0.24
   8   3  -7    0.99    0.26
   9   3  -7   -0.14    0.20
   9   3  -7    0.23    0.18
   9   3  -7    0.32    0.22
  10   3  -7    1.34    0.18
  10   3  -7    1.00    0.18
 -10   3  -6   -0.18    0.18
  10  -3   6    0.36    0.27
  -9   3  -6    1.33    0.23
   9  -3   6    0.52    0.29
  -8   3  -6    0.21    0.21
  -8   3  -6    0.11    0.25
   8  -3   6    0.26    0.28
  -7   3  -6    1.29    0.22
  -7   3  -6    1.30    0.27
   7  -3   6    1.10    0.28
  -6   3  -6   11.15    1.07
  -6   3  -6   11.68    0.75
  -6   3  -6   12.07    0.68
  -6   3  -6   11.86    0.64
   6  -3   6    9.93    0.75
  -5   3  -6    4.33    0.42
  -5   3  -6    4.60    0.68
  -5   3  -6    4.36    0.44
  -5   3  -6    4.01    0.34
   5  -3   6    5.05    0.42
  -4   3  -6   12.94    0.99
  -3   3  -6    4.74    0.57
  -2   3  -6    1.68    0.34
  -1   3  -6    2.58    0.38
   0   3  -6    5.50    0.56
   1   3  -6    3.50    0.49
   1   3  -6    2.92    0.47
   2   3  -6    1.02    0.34
   2   3  -6    1.17    0.30
   3   3  -6    5.80    0.63
   3   3  -6    5.97    0.63
  -3  -3   6    4.62    0.63
   4   3  -6    5.05    0.68
  -4  -3   6    6.64    0.76
   5   3  -6    7.17    0.82
   5   3  -6    6.75    0.46
   5   3  -6    6.24    0.44
   5   3  -6    5.99    0.52
   5   3  -6    6.64    0.53
  -5  -3   6    6.14    0.89
   6   3  -6    9.84    0.59
   6   3  -6   10.27    0.60
   6   3  -6    9.96    0.65
   6   3  -6   10.16    0.66
   6   3  -6    9.15    1.03
  -6  -3   6    9.47    0.96
   7   3  -6    1.90    0.25
   7   3  -6    2.04    0.24
   7   3  -6    1.73    0.26
   8   3  -6    0.03    0.22
   8   3  -6   -0.08    0.20
   8   3  -6    0.01    0.22
   9   3  -6    0.36    0.22
   9   3  -6    0.19    0.21
   9   3  -6    0.22    0.19
  10   3  -6    1.92    0.25
  10   3  -6    1.57    0.22
  10   3  -6    1.69    0.22
 -10   3  -5    0.91    0.22
 -10   3  -5    1.09    0.22
  10  -3   5    1.14    0.31
  -9   3  -5    1.14    0.24
  -9   3  -5    0.99    0.23
   9  -3   5    0.91    0.30
  -8   3  -5    1.06    0.24
  -8   3  -5    0.96    0.21
   8  -3   5    0.97    0.29
  -7   3  -5    4.02    0.77
  -7   3  -5    3.92    0.39
  -7   3  -5    4.25    0.36
   7  -3   5    5.21    0.47
  -6   3  -5    6.43    0.51
  -6   3  -5    6.26    0.79
  -6   3  -5    6.62    0.42
  -6   3  -5    5.92    0.46
   6  -3   5    7.33    0.50
  -5   3  -5    5.04    0.62
  -4   3  -5   18.88    1.25
  -3   3  -5    4.89    0.49
  -2   3  -5   28.42    1.76
  -1   3  -5   55.93    3.37
  -1   3  -5   57.15    3.37
   0   3  -5   82.40    5.00
   0   3  -5   86.41    4.99
   1   3  -5   29.64    1.82
   1   3  -5   29.43    1.82
   2   3  -5    4.25    0.47
   2   3  -5    5.22    0.51
   3   3  -5    7.21    0.61
   3   3  -5    7.15    0.64
   4   3  -5    8.57    0.75
  -4  -3   5    9.30    0.75
   5   3  -5    9.33    0.86
  -5  -3   5   10.44    0.90
   6   3  -5    7.51    0.49
   6   3  -5    6.78    0.85
   6   3  -5    7.39    0.54
   6   3  -5    8.48    0.50
   6   3  -5    7.93    0.56
  -6  -3   5    8.83    0.90
   7   3  -5    4.47    0.44
   7   3  -5    3.97    0.43
   7   3  -5    4.09    0.38
   7   3  -5    4.18    0.38
   8   3  -5    2.56    0.35
   8   3  -5    2.73    0.34
   8   3  -5    2.23    0.29
   9   3  -5    3.88    0.37
   9   3  -5    4.06    0.37
   9   3  -5    4.08    0.42
  10   3  -5    6.07    0.44
  10   3  -5    6.06    0.41
  10   3  -5    5.80    0.41
  11   3  -5    3.65    0.26
  11   3  -5    3.39    0.29
  11   3  -5    3.42    0.29
 -11  -3   5    3.73    0.25
 -11   3  -4    1.55    0.20
 -10   3  -4    1.29    0.24
 -10   3  -4    1.01    0.21
  -9   3  -4    3.35    0.35
  -9   3  -4    3.57    0.34
   9  -3   4    3.22    0.46
  -8   3  -4    0.31    0.19
  -8   3  -4    0.06    0.19
   8  -3   4    0.12    0.27
  -7   3  -4    0.07    0.53
  -7   3  -4    0.24    0.18
  -7   3  -4    0.27    0.16
   7  -3   4    0.39    0.25
  -6   3  -4    0.52    0.17
  -6   3  -4    0.53    0.40
  -6   3  -4    0.44    0.15
  -6   3  -4    0.54    0.20
   6  -3   4    0.51    0.21
  -5   3  -4    3.12    0.48
  -4   3  -4   15.36    1.01
  -3   3  -4    1.92    0.33
  -2   3  -4   15.44    0.96
  -2   3  -4   14.83    0.95
  -1   3  -4   16.79    1.03
  -1   3  -4   16.21    1.02
   0   3  -4   73.90    4.44
   0   3  -4   77.10    4.47
   1   3  -4   13.58    0.86
   1   3  -4   13.12    0.88
   2   3  -4    3.56    0.36
   2   3  -4    3.59    0.39
   3   3  -4    1.76    0.30
   3   3  -4    1.71    0.27
  -3  -3   4    2.42    0.35
   4   3  -4    6.22    0.62
  -4  -3   4    8.55    0.62
   5   3  -4    0.74    0.31
  -5  -3   4    0.64    0.33
   6   3  -4    1.17    0.19
   6   3  -4    1.38    0.18
   6   3  -4    1.37    0.45
   6   3  -4    1.09    0.18
  -6  -3   4    0.54    0.44
   7   3  -4    1.05    0.50
   7   3  -4    1.04    0.20
   7   3  -4    0.99    0.19
   7   3  -4    1.08    0.24
   7   3  -4    1.14    0.20
  -7  -3   4    0.11    0.45
  -7  -3   4    0.74    0.60
   8   3  -4    1.11    0.23
   8   3  -4    1.24    0.23
   8   3  -4    1.06    0.25
   8   3  -4    1.34    0.22
   9   3  -4    0.89    0.24
   9   3  -4    1.42    0.24
   9   3  -4    1.07    0.23
  10   3  -4    3.84    0.34
  10   3  -4    3.43    0.38
  10   3  -4    3.84    0.36
  11   3  -4    1.80    0.24
  11   3  -4    1.70    0.26
  11   3  -4    1.64    0.23
 -11  -3   4    1.88    0.21
 -11   3  -3    0.70    0.18
 -10   3  -3    2.60    0.29
 -10   3  -3    2.44    0.34
  -9   3  -3    8.09    0.49
  -9   3  -3    7.81    0.51
   9  -3   3    7.74    0.65
  -8   3  -3    2.26    0.24
  -8   3  -3    1.99    0.28
  -7   3  -3    2.80    0.29
  -7   3  -3    2.82    0.29
  -7   3  -3    3.12    0.57
   7  -3   3    2.83    0.42
  -6   3  -3    1.00    0.36
  -5   3  -3    1.94    0.32
  -4   3  -3   15.48    1.04
  -4   3  -3   16.83    1.04
  -3   3  -3    6.46    0.47
  -3   3  -3    6.06    0.47
  -2   3  -3    1.17    0.21
  -2   3  -3    1.25    0.18
  -1   3  -3   14.95    0.92
  -1   3  -3   15.03    0.93
   0   3  -3   24.07    1.44
   0   3  -3   23.62    1.44
   1   3  -3   14.97    0.93
   1   3  -3   14.73    0.93
   2   3  -3    6.11    0.46
   2   3  -3    6.21    0.47
   3   3  -3    6.71    0.58
  -3  -3   3    9.35    0.58
   4   3  -3    4.45    0.46
  -4  -3   3    4.77    0.45
   5   3  -3    4.45    0.54
  -5  -3   3    5.54    0.53
   6   3  -3    1.00    0.39
   7   3  -3    0.52    0.46
   7   3  -3    0.77    0.18
   7   3  -3    0.63    0.18
   7   3  -3    1.34    0.23
   7   3  -3    0.74    0.19
  -7  -3   3    1.39    0.45
  -7  -3   3    1.69    0.49
   8   3  -3    0.37    0.21
   8   3  -3    0.64    0.22
   8   3  -3    0.50    0.21
   8   3  -3    0.48    0.21
  -8  -3   3    1.03    0.22
   9   3  -3    4.38    0.42
   9   3  -3    4.01    0.40
   9   3  -3    3.94    0.42
  -9  -3   3    4.12    0.40
  10   3  -3    2.04    0.27
  10   3  -3    2.15    0.26
  10   3  -3    1.88    0.28
  11   3  -3    1.48    0.23
  11   3  -3    1.14    0.21
  11   3  -3    1.38    0.26
 -11  -3   3    1.71    0.22
 -11   3  -2    1.71    0.23
 -10   3  -2    1.23    0.20
  -9   3  -2    3.39    0.38
  -9   3  -2    3.92    0.33
   9  -3   2    2.62    0.39
  -8   3  -2    0.88    0.71
  -8   3  -2    1.34    0.18
  -7   3  -2    4.39    0.32
  -7   3  -2    5.04    0.67
  -7   3  -2    4.12    0.35
   7  -3   2    4.44    0.49
   7  -3   2    5.44    0.37
  -6   3  -2   13.57    0.98
  -5   3  -2   17.35    1.12
  -5   3  -2   17.30    1.12
  -4   3  -2    8.55    0.60
  -4   3  -2    8.69    0.60
  -3   3  -2    2.16    0.24
  -3   3  -2    2.54    0.26
  -2   3  -2    4.33    0.33
  -2   3  -2    4.95    0.34
  -1   3  -2   49.82    2.90
  -1   3  -2   49.02    2.92
   0   3  -2   48.29    2.80
   0   3  -2   46.81    2.81
   1   3  -2    7.67    0.51
   1   3  -2    7.49    0.49
   2   3  -2    6.44    0.45
   2   3  -2    6.16    0.45
   3   3  -2   38.49    2.24
  -3  -3   2   35.65    2.21
   4   3  -2   39.93    2.27
  -4  -3   2   34.37    2.22
   5   3  -2   11.06    0.76
  -5  -3   2    8.59    0.72
   6   3  -2   21.64    1.51
  -6  -3   2   23.54    1.47
   7   3  -2    1.55    0.22
   7   3  -2    1.81    0.22
   7   3  -2    2.22    0.29
   7   3  -2    1.47    0.22
   7   3  -2    1.61    0.49
  -7  -3   2    2.36    0.46
  -7  -3   2    1.98    0.46
  -7  -3   2    1.98    0.22
   8   3  -2    0.53    0.20
   8   3  -2   -0.03    0.66
   8   3  -2    0.42    0.21
   8   3  -2    0.66    0.22
   8   3  -2    0.41    0.19
  -8  -3   2   -0.27    0.57
  -8  -3   2    1.29    0.59
  -8  -3   2    0.63    0.19
   9   3  -2   -0.01    0.23
   9   3  -2    0.18    0.22
   9   3  -2    0.60    0.25
  -9  -3   2    0.67    0.20
  10   3  -2    0.39    0.26
  10   3  -2    0.24    0.24
  10   3  -2    0.23    0.23
 -10  -3   2    0.15    0.21
  11   3  -2    0.92    0.23
  11   3  -2    0.87    0.21
 -11  -3   2    1.60    0.22
 -12   3  -1    0.05    0.12
 -11   3  -1    0.10    0.16
 -10   3  -1    0.84    0.19
  -9   3  -1    0.27    0.17
   9  -3   1    0.32    0.21
   8  -3   1    1.99    0.33
   8  -3   1    1.88    0.22
  -7   3  -1    1.96    0.45
  -7   3  -1    2.04    0.22
  -7   3  -1    1.90    0.44
   7  -3   1    1.49    0.19
   7  -3   1    2.31    0.32
  -6   3  -1   25.63    1.60
  -6   3  -1   24.48    1.57
  -5   3  -1   12.88    0.91
  -5   3  -1   14.63    0.91
  -4   3  -1    6.00    0.44
  -4   3  -1    5.79    0.43
  -3   3  -1    4.44    0.32
  -3   3  -1    4.36    0.33
  -2   3  -1    5.76    0.37
  -2   3  -1    5.28    0.36
  -1   3  -1   19.05    1.11
  -1   3  -1   18.46    1.13
   0   3  -1   11.27    0.68
   0   3  -1   11.00    0.68
   1   3  -1   10.92    0.68
   1   3  -1   11.36    0.69
  -2  -3   1    5.91    0.39
   4   3  -1   29.14    1.63
  -4  -3   1   23.61    1.59
   5   3  -1   23.87    1.43
  -5  -3   1   20.48    1.38
   6   3  -1   25.22    1.59
  -6  -3   1   22.83    1.53
   7   3  -1    3.05    0.36
   7   3  -1    3.66    0.41
   7   3  -1    3.33    0.31
   7   3  -1    2.77    0.33
   7   3  -1    3.12    0.54
  -7  -3   1    4.50    0.62
  -7  -3   1    3.18    0.49
  -7  -3   1    2.99    0.31
   8   3  -1   -0.52    0.66
   8   3  -1    0.69    0.24
   8   3  -1    0.67    0.19
   8   3  -1    0.61    0.22
  -8  -3   1    1.02    0.57
  -8  -3   1    0.57    0.55
  -8  -3   1    0.37    0.17
   9   3  -1    0.97    0.29
   9   3  -1    0.71    0.23
   9   3  -1    1.02    0.26
  -9  -3   1    1.25    0.20
  10   3  -1    0.08    0.23
  10   3  -1    0.17    0.25
 -10  -3   1    0.12    0.20
 -10  -3   1    0.08    0.20
  11   3  -1    0.20    0.24
  11   3  -1    0.44    0.20
 -11  -3   1    0.31    0.17
 -12  -3   1    0.17    0.14
 -12   3   0    0.08    0.12
 -11   3   0    0.48    0.17
 -10   3   0    3.74    0.33
  10  -3   0    4.10    0.37
  -9   3   0    4.12    0.34
   9  -3   0    4.94    0.39
  -8   3   0   14.00    0.72
   8  -3   0   14.94    0.75
   8  -3   0   12.70    0.80
  -7   3   0   28.25    1.81
  -7   3   0   26.81    1.35
  -7   3   0   27.31    1.79
   7  -3   0   27.88    1.36
  -6   3   0   32.03    1.97
  -6   3   0   31.52    1.94
  -5   3   0   24.43    1.53
  -5   3   0   25.64    1.55
  -4   3   0    1.85    0.25
  -4   3   0    2.08    0.24
  -3   3   0    0.09    0.08
  -3   3   0    0.14    0.09
  -2   3   0    0.93    0.12
  -2   3   0    0.87    0.12
  -1   3   0    6.90    0.43
  -1   3   0    6.93    0.44
   0   3   0   -0.22    0.04
   0   3   0   -0.26    0.04
   0  -3   0   -0.27    0.04
   1   3   0    7.11    0.43
  -1  -3   0    6.24    0.43
  -2  -3   0    1.97    0.18
   4   3   0    2.14    0.29
  -4  -3   0    1.89    0.27
   5   3   0   27.48    1.73
  -5  -3   0   28.00    1.71
   6   3   0   32.98    2.14
  -6  -3   0   33.24    2.12
  -6  -3   0   36.18    2.11
   7   3   0   25.26    1.37
   7   3   0   26.70    1.83
   7   3   0   27.79    1.49
   7   3   0   27.68    1.35
  -7  -3   0   25.56    1.36
  -7  -3   0   28.56    1.76
  -7  -3   0   28.44    1.79
   8   3   0   13.60    0.84
   8   3   0   14.64    0.77
  -8  -3   0   13.36    0.75
  -8  -3   0   13.44    1.18
   9   3   0    4.60    0.45
   9   3   0    4.62    0.41
  -9  -3   0    4.48    0.37
  -9  -3   0    4.04    0.34
  10   3   0    3.91    0.38
  10   3   0    4.26    0.43
 -10  -3   0    4.07    0.34
 -10  -3   0    3.56    0.35
 -11  -3   0    0.34    0.17
 -11  -3   0    0.58    0.20
 -12  -3   0   -0.11    0.14
 -12   3   1    0.18    0.12
 -11   3   1    0.27    0.16
 -10   3   1    0.12    0.18
  10  -3  -1   -0.15    0.27
  10  -3  -1    0.33    0.27
  10  -3  -1    0.24    0.21
  -9   3   1    1.19    0.21
   9  -3  -1    0.97    0.24
   9  -3  -1    0.86    0.25
   9  -3  -1    1.35    0.29
  -8   3   1    0.62    0.17
  -8   3   1    0.47    0.54
   8  -3  -1   -0.04    0.21
   8  -3  -1    0.52    0.19
   8  -3  -1    0.59    0.24
  -7   3   1    3.72    0.50
   7  -3  -1    3.25    0.31
   7  -3  -1    3.55    0.35
   7  -3  -1    3.50    0.39
  -6   3   1   23.45    1.51
  -6   3   1   23.43    1.48
  -5   3   1   21.13    1.32
  -5   3   1   21.69    1.35
  -4   3   1   26.93    1.58
  -4   3   1   26.64    1.55
   4  -3  -1   24.02    1.60
  -2   3   1   15.23    0.89
  -2   3   1   14.60    0.91
  -1   3   1   10.06    0.62
   0   3   1    9.96    0.61
   0  -3  -1   10.16    0.60
   1   3   1   18.87    1.10
  -1  -3  -1   17.94    1.09
   2   3   1    5.83    0.39
  -2  -3  -1    6.21    0.40
  -3  -3  -1    2.21    0.24
  -4  -3  -1    2.82    0.31
   5   3   1   15.20    1.03
  -5  -3  -1   15.45    1.00
  -5  -3  -1   15.90    1.01
   6   3   1   24.35    1.60
  -6  -3  -1   24.12    1.57
  -6  -3  -1   25.21    1.56
   7   3   1    1.91    0.23
  -7  -3  -1    1.47    0.18
  -7  -3  -1    1.94    0.40
  -8  -3  -1    1.93    0.27
  -8  -3  -1    2.11    0.23
  -8  -3  -1    2.15    0.57
   9   3   1    0.26    0.29
   9   3   1    0.42    0.24
  -9  -3  -1    0.36    0.18
  -9  -3  -1    0.43    0.20
  10   3   1    0.81    0.25
 -10  -3  -1    1.21    0.21
 -10  -3  -1    1.11    0.21
 -11  -3  -1    0.09    0.18
 -11  -3  -1    0.29    0.18
 -11   3   2    1.17    0.18
  11  -3  -2    1.08    0.24
  11  -3  -2    1.38    0.26
 -10   3   2    0.52    0.19
  10  -3  -2    0.36    0.22
  10  -3  -2    0.27    0.25
  10  -3  -2    0.36    0.24
  -9   3   2    0.49    0.20
   9  -3  -2    0.55    0.23
   9  -3  -2    0.66    0.22
   9  -3  -2    0.69    0.26
  -8   3   2    0.76    0.56
   8  -3  -2    0.79    0.21
   8  -3  -2    0.64    0.20
   8  -3  -2    0.94    0.23
  -7   3   2    1.71    0.44
   7  -3  -2    2.11    0.23
   7  -3  -2    2.25    0.24
   7  -3  -2    1.82    0.21
  -6   3   2   20.06    1.32
  -5   3   2    9.57    0.68
  -5   3   2   10.09    0.70
   5  -3  -2    8.61    0.73
  -4   3   2   33.69    2.14
  -4   3   2   37.87    2.11
   4  -3  -2   34.43    2.16
  -3   3   2   35.81    2.12
  -3   3   2   35.95    2.16
   3  -3  -2   36.22    2.18
  -2   3   2    5.53    0.39
  -2   3   2    5.95    0.37
   0   3   2   45.48    2.88
   0  -3  -2   52.30    2.86
   1   3   2   47.31    2.66
  -1  -3  -2   43.04    2.65
   2   3   2    4.76    0.32
   3   3   2    2.42    0.25
  -3  -3  -2    1.96    0.25
   4   3   2    8.44    0.54
  -4  -3  -2    6.91    0.53
  -4  -3  -2    6.24    0.50
  -5  -3  -2   17.41    1.11
  -6  -3  -2   13.13    0.93
   7   3   2    4.54    0.45
  -7  -3  -2    4.28    0.37
  -7  -3  -2    4.71    0.63
  -7  -3  -2    4.92    0.33
  -8  -3  -2    0.19    0.57
  -8  -3  -2    0.09    0.16
  -8  -3  -2   -0.01    0.20
   9   3   2    2.94    0.40
  -9  -3  -2    2.81    0.33
  -9  -3  -2    2.47    0.31
 -10  -3  -2    1.13    0.22
 -10  -3  -2    1.27    0.21
 -11  -3  -2    2.29    0.26
 -11  -3  -2    2.41    0.27
 -11   3   3    1.57    0.22
  11  -3  -3    1.56    0.21
  11  -3  -3    1.39    0.23
  11  -3  -3    1.72    0.24
  10  -3  -3    3.65    0.35
  10  -3  -3    3.77    0.36
  10  -3  -3    3.52    0.38
   9  -3  -3    4.00    0.42
   9  -3  -3    4.15    0.44
   9  -3  -3    4.40    0.40
   8  -3  -3    1.18    0.23
   8  -3  -3    0.64    0.21
   8  -3  -3    0.89    0.21
  -7   3   3    0.49    0.42
   7  -3  -3    2.41    0.33
   7  -3  -3    1.54    0.20
   7  -3  -3    1.67    0.21
  -6   3   3    1.44    0.35
  -5   3   3    4.48    0.48
   5  -3  -3    4.95    0.55
  -4   3   3    4.24    0.41
  -4   3   3    3.93    0.41
   4  -3  -3    4.08    0.44
  -3   3   3    5.96    0.46
  -3   3   3    6.34    0.45
   2  -3  -3    3.11    0.29
   2  -3  -3    3.27    0.30
  -1   3   3   14.41    0.86
   1  -3  -3   13.79    0.87
   1  -3  -3   13.99    0.88
   0   3   3   21.39    1.26
   0  -3  -3   20.64    1.26
  -1  -3  -3   16.55    1.01
  -2  -3  -3    3.59    0.31
  -3  -3  -3    4.74    0.37
  -4  -3  -3   13.25    0.88
  -5  -3  -3    1.36    0.27
  -6  -3  -3    2.15    0.38
  -7  -3  -3    3.08    0.28
  -7  -3  -3    2.65    0.50
  -8  -3  -3    0.87    0.18
  -9  -3  -3    7.87    0.50
 -10  -3  -3    1.69    0.22
 -11  -3  -3    0.73    0.17
 -11   3   4    1.80    0.21
  11  -3  -4    1.61    0.23
  11  -3  -4    2.00    0.25
  11  -3  -4    1.46    0.21
 -10   3   4    3.79    0.30
  10  -3  -4    2.77    0.34
  10  -3  -4    2.84    0.33
  10  -3  -4    3.28    0.36
   9  -3  -4    0.44    0.23
   9  -3  -4    0.55    0.23
   9  -3  -4    0.62    0.24
   8  -3  -4    0.16    0.22
   8  -3  -4    0.00    0.20
   8  -3  -4   -0.28    0.20
  -7   3   4    1.10    0.49
   7  -3  -4    0.45    0.19
   7  -3  -4    0.38    0.18
   7  -3  -4    0.44    0.18
  -6   3   4    1.12    0.37
   6  -3  -4    0.60    0.17
   6  -3  -4    0.46    0.15
   6  -3  -4    0.49    0.19
  -5   3   4    0.52    0.27
   5  -3  -4    0.58    0.32
  -4   3   4    6.32    0.60
   4  -3  -4    8.88    0.65
  -3   3   4    0.93    0.20
  -3   3   4    1.52    0.23
  -2   3   4    3.33    0.35
  -2   3   4    3.24    0.33
   1  -3  -4   16.98    1.07
   1  -3  -4   17.35    1.07
   0   3   4   67.41    4.16
   0  -3  -4   73.56    4.14
  -1  -3  -4   18.66    1.15
  -2  -3  -4   10.10    0.68
  -3  -3  -4    0.36    0.18
  -4  -3  -4   12.86    0.90
  -5  -3  -4    3.29    0.50
  -6  -3  -4    0.41    0.14
  -6  -3  -4    0.95    0.40
  -7  -3  -4    0.35    0.49
  -7  -3  -4    0.40    0.16
  -7  -3  -4    0.68    0.30
  -8  -3  -4    0.25    0.17
  -9  -3  -4    3.38    0.34
 -10  -3  -4    1.81    0.25
 -11  -3  -4    1.82    0.22
 -11   3   5    3.57    0.25
  11  -3  -5    3.25    0.26
  11  -3  -5    3.34    0.27
  11  -3  -5    3.43    0.28
 -10   3   5    5.77    0.36
  10  -3  -5    5.34    0.39
  10  -3  -5    5.38    0.38
  10  -3  -5    4.91    0.40
   9  -3  -5    4.02    0.39
   9  -3  -5    4.24    0.41
   9  -3  -5    3.65    0.38
   8  -3  -5    3.23    0.37
   8  -3  -5    3.08    0.30
   8  -3  -5    2.97    0.40
   7  -3  -5    3.26    0.39
   7  -3  -5    3.53    0.36
   7  -3  -5    3.11    0.38
  -6   3   5    8.54    0.82
   6  -3  -5    8.53    0.57
   6  -3  -5    9.07    0.54
   6  -3  -5    8.63    0.56
  -5   3   5    9.85    0.80
   5  -3  -5    9.25    0.85
  -4   3   5    8.68    0.72
   4  -3  -5    9.42    0.76
  -3   3   5    7.96    0.69
   3  -3  -5   10.40    0.73
  -2   3   5    4.25    0.43
   2  -3  -5    4.65    0.44
   2  -3  -5    4.65    0.49
  -1   3   5   25.45    1.60
   1  -3  -5   27.26    1.63
   0  -3  -5   83.82    4.93
  -1  -3  -5   59.14    3.51
  -2  -3  -5   30.39    1.86
  -3  -3  -5    8.16    0.66
  -4  -3  -5   20.08    1.33
  -5  -3  -5    6.17    0.67
  -6  -3  -5    7.04    0.44
  -6  -3  -5    6.97    0.80
  -6  -3  -5    7.45    0.58
   7   3   5    4.68    0.55
  -7  -3  -5    5.43    0.56
  -7  -3  -5    5.53    0.38
   8   3   5    0.40    0.36
  -8  -3  -5    0.63    0.20
  -9  -3  -5    1.13    0.21
 -10  -3  -5    1.15    0.19
 -11  -3  -5    1.81    0.21
 -10   3   6    1.56    0.20
  10  -3  -6    1.37    0.21
  10  -3  -6    1.46    0.23
  10  -3  -6    1.60    0.20
   9  -3  -6    0.72    0.22
   9  -3  -6    0.59    0.24
   9  -3  -6    0.41    0.21
   8  -3  -6    0.92    0.24
   8  -3  -6    1.19    0.26
   8  -3  -6    0.77    0.22
   7  -3  -6    1.51    0.25
   7  -3  -6    1.18    0.24
   7  -3  -6    1.27    0.23
  -6   3   6   11.19    1.04
   6  -3  -6   10.72    0.64
   6  -3  -6   10.53    0.67
   6  -3  -6   11.17    0.69
  -5   3   6    6.90    0.76
   5  -3  -6    6.23    0.47
   5  -3  -6    5.96    0.44
  -4   3   6    5.34    0.66
   4  -3  -6    6.69    0.74
  -3   3   6    6.02    0.58
   3  -3  -6    3.73    0.61
  -2   3   6    1.46    0.30
   2  -3  -6    2.39    0.41
   1  -3  -6    1.02    0.31
   0  -3  -6    3.03    0.46
  -1  -3  -6    3.86    0.47
  -2  -3  -6    5.37    0.56
  -3  -3  -6    6.61    0.66
  -4  -3  -6   14.47    1.10
  -5  -3  -6    4.78    0.49
  -5  -3  -6    4.54    0.73
  -5  -3  -6    5.07    0.42
  -5  -3  -6    5.65    0.37
  -6  -3  -6    9.84    0.70
  -6  -3  -6    8.01    1.05
  -6  -3  -6   10.32    0.66
  -6  -3  -6   10.85    0.59
   7   3   6    1.20    0.32
  -7  -3  -6    0.82    0.20
  -7  -3  -6    0.58    0.29
   8   3   6    0.05    0.32
  -8  -3  -6    0.04    0.20
  -9  -3  -6    0.42    0.19
 -10  -3  -6    0.28    0.17
  10  -3  -7    0.97    0.17
  10  -3  -7    1.02    0.17
  -9   3   7    0.19    0.20
   9  -3  -7    0.59    0.24
   9  -3  -7    0.47    0.20
   9  -3  -7    0.87    0.20
   8  -3  -7    0.72    0.27
   8  -3  -7    0.53    0.22
   8  -3  -7    1.22    0.23
   7  -3  -7    2.42    0.31
   7  -3  -7    2.07    0.28
   7  -3  -7    2.18    0.26
   6  -3  -7    7.56    0.54
   6  -3  -7    7.24    0.50
  -5   3   7   13.56    1.16
   5  -3  -7   13.58    0.77
   5  -3  -7   13.15    0.82
  -4   3   7    6.43    0.82
   4  -3  -7    7.01    0.52
   4  -3  -7    6.23    0.51
   1  -3  -7    4.20    0.67
   0  -3  -7    5.69    0.69
  -1  -3  -7    6.17    0.69
  -2  -3  -7    3.95    0.62
  -3  -3  -7    6.04    0.75
  -3  -3  -7    5.40    0.44
  -3  -3  -7    4.95    0.40
  -3  -3  -7    4.86    0.38
  -4  -3  -7    9.10    0.61
  -4  -3  -7    8.54    0.54
  -4  -3  -7    8.43    0.54
  -4  -3  -7    9.17    0.93
  -5  -3  -7   11.50    1.16
  -5  -3  -7   12.92    0.70
  -5  -3  -7   12.21    0.73
  -5  -3  -7   12.75    0.82
  -6  -3  -7    7.44    0.57
  -6  -3  -7    8.04    0.61
  -6  -3  -7    7.45    0.49
   7   3   7    4.02    0.49
  -7  -3  -7    4.35    0.36
  -7  -3  -7    3.72    0.49
   8   3   7    0.27    0.30
  -8  -3  -7    0.77    0.21
   9   3   7    0.53    0.34
  -9  -3  -7    0.33    0.19
 -10  -3  -7    0.84    0.16
   9  -3  -8    0.74    0.19
   9  -3  -8    1.15    0.19
   8  -3  -8    0.80    0.23
   8  -3  -8    1.11    0.22
   7  -3  -8    1.04    0.24
   7  -3  -8    0.57    0.24
   6  -3  -8    0.60    0.25
   6  -3  -8    0.55    0.24
   5  -3  -8    0.48    0.25
   5  -3  -8    0.37    0.24
   4  -3  -8    0.42    0.27
   2  -3  -8    0.68    0.24
   1  -3  -8    1.95    0.27
   0  -3  -8    5.40    0.44
   0  -3  -8    6.18    0.48
  -1  -3  -8    5.31    0.43
  -1  -3  -8    4.98    0.39
  -1  -3  -8    4.46    0.72
  -2  -3  -8    2.55    0.37
  -2  -3  -8    3.54    0.33
  -2  -3  -8    4.52    0.71
  -2  -3  -8    3.60    0.38
  -3  -3  -8    2.11    0.30
  -3  -3  -8    1.53    0.24
  -3  -3  -8    1.11    0.69
  -3  -3  -8    1.77    0.26
  -4  -3  -8    4.85    0.40
  -4  -3  -8    4.71    0.42
  -4  -3  -8    3.57    0.87
  -4  -3  -8    4.44    0.46
  -5  -3  -8    2.97    0.37
  -5  -3  -8    2.95    0.38
  -5  -3  -8    2.93    0.43
  -6  -3  -8    2.10    0.27
  -6  -3  -8    1.82    0.29
  -6  -3  -8    2.52    0.40
   7   3   8    1.22    0.32
  -7  -3  -8    1.32    0.29
  -7  -3  -8    1.59    0.31
  -7  -3  -8    1.35    0.24
  -8  -3  -8    1.51    0.23
   9   3   8    1.57    0.29
  -9  -3  -8    1.41    0.19
   9  -3  -9    0.48    0.18
   8  -3  -9    0.52    0.20
   8  -3  -9    0.31    0.22
   7  -3  -9    1.72    0.27
   7  -3  -9    1.10    0.24
   6  -3  -9    3.33    0.41
   6  -3  -9    2.41    0.32
   2  -3  -9    1.70    0.29
   1  -3  -9    0.66    0.23
   1  -3  -9    0.72    0.23
   0  -3  -9    6.37    0.49
   0  -3  -9    6.81    0.52
  -1  -3  -9    2.63    0.35
  -1  -3  -9    2.31    0.37
  -2  -3  -9    1.28    0.24
  -2  -3  -9    1.43    0.29
  -2  -3  -9    1.28    0.25
  -3  -3  -9    1.57    0.28
  -3  -3  -9    1.63    0.25
  -3  -3  -9    1.82    0.27
  -4  -3  -9    1.43    0.27
  -4  -3  -9    1.20    0.27
  -4  -3  -9    1.13    0.24
  -5  -3  -9    5.19    0.43
  -5  -3  -9    4.63    0.46
  -5  -3  -9    4.59    0.44
   6   3   9    4.46    0.46
  -6  -3  -9    4.65    0.45
  -6  -3  -9    4.79    0.41
  -6  -3  -9    5.34    0.45
   7   3   9    0.30    0.29
  -7  -3  -9    0.62    0.21
  -7  -3  -9    1.14    0.26
  -7  -3  -9    1.22    0.28
   8   3   9    0.35    0.25
  -8  -3  -9    0.15    0.17
  -9  -3  -9    0.21    0.14
   2  -3 -10    1.01    0.27
   1  -3 -10    1.04    0.27
   1  -3 -10    0.46    0.24
   0  -3 -10    3.30    0.39
   0  -3 -10    3.13    0.41
  -1  -3 -10    0.80    0.25
  -1  -3 -10    0.75    0.23
  -2  -3 -10    2.01    0.27
  -2  -3 -10    1.33    0.27
  -2  -3 -10    1.53    0.30
  -3  -3 -10    2.90    0.37
  -3  -3 -10    2.06    0.31
  -3  -3 -10    2.37    0.39
  -4  -3 -10    4.20    0.40
  -4  -3 -10    4.48    0.43
  -4  -3 -10    4.29    0.42
  -5  -3 -10    3.78    0.38
  -5  -3 -10    4.14    0.39
  -5  -3 -10    3.67    0.39
   6   3  10    2.47    0.35
  -6  -3 -10    2.90    0.34
  -6  -3 -10    2.74    0.31
  -6  -3 -10    2.52    0.33
   7   3  10    1.20    0.24
  -7  -3 -10    1.05    0.22
  -7  -3 -10    0.97    0.25
  -7  -3 -10    0.82    0.19
   8   3  10    0.31    0.21
  -8  -3 -10   -0.02    0.14
   1  -3 -11    6.62    0.51
   1  -3 -11    7.10    0.55
   0  -3 -11    7.13    0.55
   0  -3 -11    7.33    0.51
  -1  -3 -11    5.62    0.47
  -2  -3 -11    1.47    0.26
  -2  -3 -11    1.55    0.27
  -3  -3 -11    3.06    0.36
  -3  -3 -11    2.27    0.33
  -3  -3 -11    2.61    0.32
  -4  -3 -11    1.00    0.23
  -4  -3 -11    1.00    0.25
  -4  -3 -11    1.05    0.23
   5   3  11    1.08    0.27
  -5  -3 -11    1.56    0.24
  -5  -3 -11    1.96    0.29
  -5  -3 -11    1.60    0.24
   6   3  11    0.94    0.24
  -6  -3 -11    1.10    0.21
  -6  -3 -11    1.23    0.21
  -6  -3 -11    1.32    0.20
   7   3  11    1.59    0.23
  -7  -3 -11    1.05    0.18
   1  -3 -12    1.40    0.28
   0  -3 -12    1.83    0.27
   0  -3 -12    1.99    0.29
  -1  -3 -12    1.68    0.26
  -1  -3 -12    1.68    0.26
  -2  -3 -12    0.40    0.22
  -2  -3 -12    0.40    0.23
  -3  -3 -12    0.65    0.20
  -3  -3 -12    0.75    0.21
   4   3  12    0.68    0.25
  -4  -3 -12    0.69    0.19
  -4  -3 -12    0.50    0.19
   5   3  12    1.12    0.22
  -5  -3 -12    0.70    0.18
  -5  -3 -12    1.04    0.22
  -5  -3 -12    0.71    0.18
   0  -3 -13    0.66    0.23
  -1  -3 -13    0.26    0.20
  -1  -3 -13    0.26    0.20
   2   3  13    0.02    0.24
  -2  -3 -13    0.30    0.18
  -2  -3 -13    0.20    0.18
   3   3  13   -0.32    0.22
  -3  -3 -13    0.21    0.15
  -3  -3 -13    0.29    0.16
  -3   4 -13    0.39    0.15
  -3   4 -13    0.44    0.17
  -2   4 -13   -0.10    0.18
  -2   4 -13    0.21    0.15
  -1   4 -13    0.56    0.18
  -1   4 -13   -0.07    0.20
   0   4 -13    0.75    0.23
   0   4 -13    0.75    0.19
   1   4 -13   -0.13    0.20
  -5   4 -12    1.05    0.17
   5  -4  12    0.85    0.25
  -4   4 -12    0.65    0.18
  -4   4 -12    0.85    0.19
   4  -4  12    0.35    0.26
  -3   4 -12    1.00    0.24
  -3   4 -12    1.28    0.22
  -3   4 -12    1.13    0.20
   3  -4  12    0.84    0.31
  -2   4 -12    0.43    0.22
  -2   4 -12    0.52    0.19
  -1   4 -12    1.35    0.23
  -1   4 -12    1.34    0.25
   0   4 -12    2.53    0.30
   0   4 -12    2.35    0.32
   1   4 -12    0.94    0.23
   1   4 -12    1.00    0.25
   2   4 -12    0.70    0.25
  -6   4 -11    1.03    0.19
  -6   4 -11    1.30    0.25
   6  -4  11    1.84    0.28
  -5   4 -11    0.97    0.23
  -5   4 -11    1.01    0.20
   5  -4  11    0.93    0.27
  -4   4 -11    0.61    0.22
  -4   4 -11    0.76    0.22
   4  -4  11    0.42    0.28
  -3   4 -11    0.99    0.25
  -3   4 -11    0.54    0.23
  -3   4 -11    0.77    0.22
  -2   4 -11    1.16    0.26
  -2   4 -11    1.15    0.23
  -2   4 -11    0.99    0.28
   2  -4  11    0.81    0.34
  -1   4 -11    2.82    0.36
  -1   4 -11    2.93    0.33
   0   4 -11    6.73    0.48
   0   4 -11    6.81    0.47
   1   4 -11    3.29    0.34
   1   4 -11    2.64    0.36
   2   4 -11    1.42    0.27
   2   4 -11    1.57    0.26
   3   4 -11    2.03    0.31
  -8   4 -10   -0.04    0.13
   8  -4  10    0.11    0.19
  -7   4 -10    1.18    0.19
   7  -4  10    1.37    0.25
  -6   4 -10    1.63    0.22
  -6   4 -10    1.63    0.28
  -5   4 -10    6.42    0.48
  -5   4 -10    6.38    0.46
  -5   4 -10    6.38    0.43
   5  -4  10    5.33    0.49
  -4   4 -10    2.20    0.35
  -4   4 -10    2.19    0.32
  -4   4 -10    1.78    0.26
  -3   4 -10    2.70    0.37
  -3   4 -10    2.63    0.34
  -3   4 -10    2.64    0.34
   3  -4  10    2.46    0.35
  -2   4 -10    0.41    0.26
  -2   4 -10   -0.01    0.22
  -2   4 -10    0.40    0.22
  -1   4 -10    1.76    0.24
  -1   4 -10    1.50    0.26
   0   4 -10    0.46    0.23
   0   4 -10    0.83    0.22
   1   4 -10    1.40    0.27
   1   4 -10    1.93    0.26
   2   4 -10    0.90    0.25
   2   4 -10    0.72    0.24
   3   4 -10    1.20    0.27
   3   4 -10    0.94    0.28
   4   4 -10    1.54    0.32
   5   4 -10    4.78    0.42
   6   4 -10    2.87    0.33
   7   4 -10    1.49    0.24
   7   4 -10    1.54    0.24
  -8   4  -9   -0.19    0.17
   8  -4   9    0.06    0.23
  -7   4  -9    1.72    0.24
   7  -4   9    2.19    0.31
  -6   4  -9    2.53    0.36
  -6   4  -9    2.33    0.35
  -6   4  -9    2.73    0.32
   6  -4   9    1.85    0.32
  -5   4  -9    3.25    0.42
  -5   4  -9    3.65    0.42
  -5   4  -9    4.31    0.36
   5  -4   9    4.27    0.44
  -4   4  -9    3.54    0.41
  -4   4  -9    3.28    0.35
  -4   4  -9    3.61    0.39
   4  -4   9    3.38    0.44
  -3   4  -9    4.65    0.40
  -3   4  -9    4.35    0.37
  -3   4  -9    4.26    0.44
  -2   4  -9    0.28    0.26
  -2   4  -9    0.30    0.19
  -2   4  -9    0.23    0.20
  -1   4  -9    2.10    0.25
  -1   4  -9    2.45    0.33
  -1   4  -9    2.24    0.72
  -1   4  -9    2.29    0.31
   0   4  -9    3.57    0.77
   0   4  -9    3.52    0.37
   0   4  -9    3.51    0.33
   1   4  -9    1.15    0.74
   1   4  -9    1.31    0.24
   1   4  -9    1.24    0.22
   2   4  -9    1.42    0.90
   2   4  -9    0.78    0.24
   2   4  -9    1.01    0.29
   2   4  -9    1.00    0.24
  -2  -4   9    1.13    0.88
   3   4  -9    4.02    0.40
   3   4  -9    3.60    0.40
   3   4  -9    2.82    0.42
   4   4  -9    3.09    0.39
   4   4  -9    3.40    0.40
   5   4  -9    2.64    0.35
   5   4  -9    2.21    0.30
   6   4  -9    2.91    0.35
   6   4  -9    2.67    0.29
   7   4  -9    2.12    0.25
   7   4  -9    1.96    0.26
   8   4  -9    0.29    0.19
   8   4  -9    0.43    0.19
  -9   4  -8    2.86    0.25
   9  -4   8    1.84    0.29
  -8   4  -8    0.87    0.21
   8  -4   8    0.83    0.27
  -7   4  -8    1.24    0.23
   7  -4   8    1.37    0.30
  -6   4  -8    0.28    0.22
  -6   4  -8    0.21    0.26
   6  -4   8    0.44    0.29
  -5   4  -8    0.14    0.24
  -5   4  -8    0.51    0.26
  -5   4  -8    0.34    0.21
   5  -4   8    0.63    0.26
  -4   4  -8    5.41    0.41
  -4   4  -8    4.77    0.45
  -4   4  -8    4.15    0.38
  -3   4  -8    2.60    0.65
  -3   4  -8    1.97    0.28
  -3   4  -8    2.36    0.25
  -3   4  -8    1.91    0.25
  -2   4  -8    2.07    0.29
  -2   4  -8    1.68    0.60
  -2   4  -8    1.83    0.28
  -2   4  -8    2.26    0.29
  -1   4  -8    7.79    0.47
  -1   4  -8    7.55    0.47
  -1   4  -8    7.65    0.60
  -1   4  -8    7.03    0.83
   0   4  -8    6.95    0.80
   0   4  -8    6.80    0.44
   0   4  -8    6.52    0.43
   1   4  -8   12.00    1.07
   1   4  -8   11.97    0.68
   1   4  -8   12.29    0.68
   1   4  -8   11.84    0.67
   2   4  -8    0.85    0.22
   2   4  -8    0.93    0.25
   2   4  -8    1.09    0.61
   2   4  -8    0.83    0.22
   3   4  -8    1.11    0.27
   3   4  -8    1.21    0.66
   3   4  -8    0.75    0.23
   3   4  -8    0.94    0.23
  -3  -4   8    0.39    0.61
   4   4  -8    3.36    0.40
   4   4  -8    2.87    0.39
   4   4  -8    2.51    0.35
  -4  -4   8    1.80    0.79
   5   4  -8    0.45    0.23
   5   4  -8    0.04    0.28
   5   4  -8    0.08    0.22
   6   4  -8    1.55    0.27
   6   4  -8    2.36    0.26
   7   4  -8    1.30    0.23
   7   4  -8    1.38    0.30
   7   4  -8    1.69    0.25
   8   4  -8    0.63    0.21
   8   4  -8    0.86    0.25
   8   4  -8    0.71    0.22
   9   4  -8    1.13    0.18
   9   4  -8    1.12    0.22
   9   4  -8    1.40    0.20
 -10   4  -7    1.05    0.19
  10  -4   7    1.50    0.24
  -9   4  -7    2.83    0.28
   9  -4   7    2.09    0.35
  -8   4  -7    0.05    0.21
   8  -4   7    1.20    0.29
  -7   4  -7    3.50    0.41
  -7   4  -7    3.44    0.36
   7  -4   7    2.88    0.43
  -6   4  -7    3.94    0.38
  -6   4  -7    4.00    0.43
  -6   4  -7    4.11    0.44
  -5   4  -7    2.18    0.32
  -5   4  -7    3.37    0.44
  -5   4  -7    2.49    0.67
  -5   4  -7    2.46    0.33
  -5   4  -7    3.30    0.39
   5  -4   7    3.63    0.41
  -4   4  -7    7.37    0.52
  -4   4  -7    7.24    0.45
  -4   4  -7    7.24    0.53
  -4   4  -7    6.02    0.81
  -4   4  -7    7.00    0.51
  -3   4  -7    3.03    0.29
  -3   4  -7    3.69    0.57
  -3   4  -7    2.92    0.33
  -3   4  -7    2.95    0.38
  -2   4  -7    3.60    0.59
  -1   4  -7    2.80    0.50
   0   4  -7    3.32    0.51
   1   4  -7    3.75    0.60
   2   4  -7    0.30    0.38
   2   4  -7    0.24    0.43
   3   4  -7    8.55    0.82
   3   4  -7    7.34    0.85
   3   4  -7    7.74    0.49
   3   4  -7    7.70    0.48
  -3  -4   7    5.65    0.81
   4   4  -7    5.98    0.47
   4   4  -7    6.09    0.48
   4   4  -7    7.06    0.45
   4   4  -7    6.19    0.86
  -4  -4   7    7.33    0.93
   5   4  -7    3.78    0.50
   5   4  -7    3.59    0.72
   5   4  -7    3.87    0.37
   5   4  -7    3.86    0.38
   5   4  -7    3.39    0.41
  -5  -4   7    3.40    0.77
   6   4  -7    3.30    0.45
   6   4  -7    3.49    0.47
   6   4  -7    3.60    0.39
   6   4  -7    3.48    0.39
   7   4  -7    4.06    0.48
   7   4  -7    3.88    0.40
   7   4  -7    4.66    0.40
   8   4  -7    1.57    0.26
   8   4  -7    1.35    0.22
   8   4  -7    1.03    0.24
   9   4  -7    0.86    0.23
   9   4  -7    0.88    0.21
   9   4  -7    1.18    0.20
  10   4  -7    0.72    0.18
  10   4  -7    1.17    0.18
  10   4  -7    0.92    0.16
 -10   4  -6    0.48    0.20
  10  -4   6    0.69    0.26
  -9   4  -6    0.24    0.21
  -9   4  -6    0.49    0.23
   9  -4   6    1.13    0.29
  -8   4  -6    0.55    0.25
  -8   4  -6    0.46    0.22
   8  -4   6    0.47    0.28
  -7   4  -6    1.95    0.25
  -7   4  -6    2.13    0.29
   7  -4   6    2.91    0.33
  -6   4  -6    5.76    0.50
  -6   4  -6    6.95    0.90
  -6   4  -6    5.57    0.47
  -6   4  -6    5.24    0.43
   6  -4   6    6.41    0.50
  -5   4  -6    7.96    0.52
  -5   4  -6    8.77    0.60
  -5   4  -6    8.60    0.55
  -5   4  -6    9.21    0.87
   5  -4   6    9.51    0.61
  -4   4  -6    9.89    0.63
  -4   4  -6    9.67    0.84
  -4   4  -6    9.85    0.55
  -3   4  -6    3.82    0.55
  -2   4  -6    3.32    0.49
  -1   4  -6    8.72    0.71
   0   4  -6    4.45    0.53
   1   4  -6    2.84    0.47
   1   4  -6    3.08    0.47
   2   4  -6    5.64    0.61
   2   4  -6    5.82    0.61
   3   4  -6    5.51    0.61
   3   4  -6    5.40    0.64
   4   4  -6   14.17    1.06
  -4  -4   6   13.27    1.09
   5   4  -6    4.92    0.39
   5   4  -6    4.90    0.44
   5   4  -6    4.46    0.78
   5   4  -6    5.35    0.42
   5   4  -6    5.50    0.47
  -5  -4   6    5.84    0.82
   6   4  -6    3.82    0.38
   6   4  -6    3.29    0.45
   6   4  -6    4.15    0.37
   6   4  -6    3.09    0.66
   6   4  -6    3.21    0.41
  -6  -4   6    3.38    0.76
   7   4  -6    1.31    0.26
   7   4  -6    1.36    0.22
   7   4  -6    1.72    0.25
   7   4  -6    1.69    0.28
   8   4  -6    0.56    0.23
   8   4  -6    1.00    0.22
   8   4  -6    0.52    0.24
   9   4  -6    1.43    0.23
   9   4  -6    1.46    0.22
   9   4  -6    1.24    0.25
  10   4  -6    0.60    0.19
  10   4  -6    0.47    0.17
  10   4  -6    0.50    0.19
 -10   4  -5    2.26    0.29
 -10   4  -5    2.00    0.27
  10  -4   5    2.05    0.32
  -9   4  -5    4.30    0.38
  -9   4  -5    4.89    0.39
   9  -4   5    4.54    0.47
  -8   4  -5    0.72    0.22
  -8   4  -5    0.47    0.22
   8  -4   5    1.11    0.29
  -7   4  -5   10.30    0.59
  -7   4  -5   10.37    0.60
   7  -4   5   10.03    0.71
  -6   4  -5   10.40    0.61
  -6   4  -5   10.56    0.61
  -6   4  -5   11.18    0.98
  -6   4  -5   11.26    0.70
   6  -4   5   10.28    0.70
  -5   4  -5   16.87    1.21
  -5   4  -5   15.92    1.01
   5  -4   5   18.91    1.02
  -4   4  -5    4.64    0.54
  -3   4  -5   10.12    0.74
  -2   4  -5    5.47    0.51
  -1   4  -5   12.10    0.82
  -1   4  -5   11.33    0.79
   0   4  -5   23.84    1.51
   0   4  -5   24.82    1.52
   1   4  -5   16.63    1.08
   1   4  -5   16.62    1.10
   2   4  -5    8.93    0.70
   2   4  -5    9.27    0.69
   3   4  -5   21.23    1.34
   3   4  -5   21.71    1.35
  -3  -4   5   17.75    1.31
   4   4  -5   12.48    0.88
  -4  -4   5   10.31    0.88
   5   4  -5   13.29    0.76
   5   4  -5   13.90    0.73
   5   4  -5   15.34    1.08
  -5  -4   5   12.80    1.06
   6   4  -5   10.87    1.04
   6   4  -5   10.88    0.62
   6   4  -5   10.77    0.66
   6   4  -5   10.70    0.64
   6   4  -5   10.58    0.67
  -6  -4   5   10.55    1.01
   7   4  -5    8.50    0.52
   7   4  -5    7.46    0.56
   7   4  -5    8.12    0.53
   7   4  -5    8.49    0.58
  -7  -4   5    6.97    1.17
   8   4  -5    1.40    0.24
   8   4  -5    0.90    0.26
   8   4  -5    1.05    0.23
   8   4  -5    1.26    0.25
  -8  -4   5    1.73    0.27
   9   4  -5    0.60    0.24
   9   4  -5    0.92    0.23
   9   4  -5    0.83    0.22
  10   4  -5    1.41    0.22
  10   4  -5    1.48    0.23
  10   4  -5    1.21    0.22
  11   4  -5    0.89    0.16
  11   4  -5    0.47    0.17
  11   4  -5    0.77    0.18
 -11  -4   5    1.31    0.16
 -11   4  -4    0.10    0.17
 -10   4  -4    0.70    0.20
 -10   4  -4    0.66    0.27
  10  -4   4    0.81    0.30
  -9   4  -4    0.65    0.21
  -9   4  -4    0.66    0.23
   9  -4   4    0.20    0.29
  -8   4  -4    0.64    0.21
  -8   4  -4    0.73    0.20
  -7   4  -4    7.03    0.41
  -7   4  -4    6.57    0.44
  -7   4  -4    6.28    0.88
   7  -4   4    5.01    0.52
  -6   4  -4    8.86    0.85
  -6   4  -4    8.17    0.52
  -6   4  -4    9.02    0.50
   6  -4   4    9.52    0.59
  -5   4  -4   18.48    1.24
  -4   4  -4    1.20    0.30
  -3   4  -4    4.57    0.44
  -2   4  -4    2.01    0.29
  -2   4  -4    1.85    0.31
  -1   4  -4    6.16    0.48
  -1   4  -4    6.31    0.45
   0   4  -4    5.00    0.42
   0   4  -4    5.37    0.40
   1   4  -4   13.47    0.90
   1   4  -4   13.79    0.88
   2   4  -4    2.11    0.30
   2   4  -4    2.10    0.31
   3   4  -4   12.28    0.84
   3   4  -4   12.36    0.83
  -3  -4   4   10.34    0.80
   4   4  -4    4.00    0.49
  -4  -4   4    4.48    0.49
   5   4  -4   16.55    1.14
  -5  -4   4   15.83    1.13
   6   4  -4    9.76    0.91
   6   4  -4    8.72    0.63
   6   4  -4   10.21    0.62
   6   4  -4    9.93    0.60
   6   4  -4   10.24    0.57
  -6  -4   4   11.62    0.94
   7   4  -4    2.99    0.37
   7   4  -4    2.47    0.59
   7   4  -4    2.68    0.35
   7   4  -4    2.47    0.35
   7   4  -4    2.84    0.33
  -7  -4   4    3.61    0.57
   8   4  -4    1.18    0.23
   8   4  -4    1.11    0.22
   8   4  -4    0.54    0.24
   8   4  -4    0.97    0.23
   9   4  -4    0.27    0.22
   9   4  -4    0.15    0.22
   9   4  -4    0.35    0.25
   9   4  -4    0.29    0.22
  10   4  -4    0.83    0.23
  10   4  -4    0.67    0.22
  10   4  -4    1.16    0.22
  11   4  -4    0.25    0.17
  11   4  -4    0.41    0.21
  11   4  -4   -0.21    0.18
 -11  -4   4    0.56    0.15
 -11   4  -3    0.13    0.16
 -10   4  -3    0.53    0.19
  10  -4   3    0.76    0.31
  -9   4  -3    1.36    0.21
  -9   4  -3    1.28    0.25
   9  -4   3    1.47    0.32
  -8   4  -3    0.17    0.17
  -8   4  -3    0.42    0.20
   8  -4   3    0.06    0.27
  -7   4  -3    1.23    0.18
  -7   4  -3    1.30    0.53
  -7   4  -3    1.56    0.20
   7  -4   3    1.38    0.26
  -6   4  -3    4.95    0.64
  -5   4  -3    1.56    0.30
  -4   4  -3    3.29    0.40
  -4   4  -3    3.47    0.39
  -3   4  -3    9.39    0.64
  -3   4  -3    8.90    0.63
  -2   4  -3    0.01    0.12
  -2   4  -3    0.08    0.12
  -1   4  -3   19.30    1.16
  -1   4  -3   18.77    1.16
   0   4  -3    4.06    0.31
   0   4  -3    3.97    0.35
   1   4  -3   32.08    1.94
   1   4  -3   32.70    1.95
   2   4  -3    2.29    0.30
   2   4  -3    2.13    0.27
  -2  -4   3    1.97    0.25
  -4  -4   3    8.03    0.62
   6   4  -3   12.19    0.94
  -6  -4   3   10.20    0.91
   7   4  -3    2.61    0.31
   7   4  -3    2.00    0.25
   7   4  -3    2.59    0.57
   7   4  -3    2.20    0.32
   7   4  -3    2.36    0.33
  -7  -4   3    2.09    0.54
  -7  -4   3    2.30    0.51
   8   4  -3    0.50    0.21
   8   4  -3    0.39    0.21
   8   4  -3    0.78    0.22
   8   4  -3    0.28    0.21
   9   4  -3    1.38    0.26
   9   4  -3    1.49    0.26
   9   4  -3    2.03    0.25
  -9  -4   3    0.84    0.22
  10   4  -3    1.11    0.25
  10   4  -3    1.16    0.24
  10   4  -3    0.71    0.23
 -10  -4   3    0.89    0.23
  11   4  -3    0.04    0.19
  11   4  -3    0.04    0.18
  11   4  -3    0.26    0.24
 -11  -4   3    0.15    0.16
 -11   4  -2    0.38    0.16
 -10   4  -2    0.29    0.18
   9  -4   2    0.56    0.30
  -8   4  -2    0.80    0.17
   8  -4   2    0.75    0.29
  -7   4  -2    1.53    0.17
  -7   4  -2    1.62    0.50
  -7   4  -2    1.63    0.22
  -6   4  -2    4.72    0.58
  -5   4  -2   27.59    1.80
  -5   4  -2   30.85    1.80
  -4   4  -2   39.06    2.32
  -4   4  -2   37.95    2.30
  -3   4  -2   17.57    1.08
  -3   4  -2   17.35    1.07
  -2   4  -2   26.12    1.57
  -2   4  -2   26.39    1.58
  -1   4  -2   52.32    3.13
  -1   4  -2   53.35    3.11
   0   4  -2    6.33    0.43
   0   4  -2    6.49    0.43
   1   4  -2   50.10    3.01
   1   4  -2   52.21    3.04
   2   4  -2   13.34    0.80
   2   4  -2   12.55    0.80
  -2  -4   2   11.57    0.78
   3   4  -2   11.95    0.85
  -3  -4   2   14.08    0.83
   4   4  -2    6.72    0.58
  -4  -4   2    8.32    0.55
   5   4  -2   19.84    1.33
  -5  -4   2   20.87    1.31
   6   4  -2   18.84    1.31
  -6  -4   2   18.96    1.27
   7   4  -2    4.31    0.38
   7   4  -2    5.08    0.42
   7   4  -2    4.87    0.41
   7   4  -2    4.80    0.37
   7   4  -2    5.15    0.79
  -7  -4   2    4.50    0.68
  -7  -4   2    4.34    0.37
  -7  -4   2    4.14    0.72
   8   4  -2    1.52    0.25
   8   4  -2    1.06    0.66
   8   4  -2    1.99    0.25
   8   4  -2    1.61    0.25
   8   4  -2    1.83    0.24
  -8  -4   2    2.47    0.23
  -8  -4   2    1.52    0.64
  -8  -4   2    2.86    0.63
   9   4  -2    2.22    0.29
   9   4  -2    1.92    0.26
   9   4  -2    2.20    0.28
  10   4  -2    0.57    0.24
  10   4  -2    0.54    0.23
  10   4  -2    0.26    0.27
 -10  -4   2    0.50    0.21
  11   4  -2    1.83    0.23
  11   4  -2    1.31    0.24
 -11  -4   2    1.32    0.20
 -12   4  -1    0.30    0.12
 -11   4  -1    1.70    0.23
 -10   4  -1    0.34    0.18
  -9   4  -1    2.40    0.28
   9  -4   1    1.66    0.37
  -8   4  -1    0.19    0.15
   8  -4   1    0.29    0.19
   8  -4   1    0.00    0.28
  -7   4  -1    1.28    0.47
  -7   4  -1    1.05    0.44
  -7   4  -1    1.33    0.16
   7  -4   1    1.60    0.19
   7  -4   1    1.47    0.28
  -6   4  -1    2.89    0.38
  -6   4  -1    3.44    0.47
  -5   4  -1   23.10    1.46
  -5   4  -1   23.69    1.45
  -4   4  -1   63.33    3.72
  -4   4  -1   63.25    3.77
  -3   4  -1   18.95    1.15
  -3   4  -1   18.34    1.13
  -2   4  -1    7.18    0.46
  -2   4  -1    7.03    0.47
  -1   4  -1   28.29    1.72
  -1   4  -1   29.32    1.70
   0   4  -1    0.22    0.08
   0   4  -1    0.18    0.08
   1   4  -1   25.75    1.50
   1   4  -1   24.17    1.49
   2   4  -1   33.33    2.23
  -2  -4   1   41.43    2.22
   3   4  -1    3.05    0.30
   4   4  -1   39.42    2.36
  -4  -4   1   38.36    2.33
   5   4  -1    5.35    0.50
  -5  -4   1    4.35    0.47
   6   4  -1    4.65    0.61
  -6  -4   1    5.46    0.56
   7   4  -1    1.50    0.50
   7   4  -1    2.20    0.33
   7   4  -1    2.61    0.24
   7   4  -1    2.04    0.22
   7   4  -1    1.91    0.26
  -7  -4   1    2.08    0.28
  -7  -4   1    2.36    0.45
  -7  -4   1    1.78    0.44
   8   4  -1    1.19    0.21
   8   4  -1    1.19    0.24
   8   4  -1    0.80    0.21
   8   4  -1    0.32    0.76
   8   4  -1    1.54    0.25
  -8  -4   1    0.34    0.18
  -8  -4   1    0.73    0.57
  -8  -4   1    0.43    0.67
   9   4  -1    0.90    0.24
   9   4  -1    1.07    0.25
  10   4  -1    1.97    0.27
  10   4  -1    1.42    0.27
  11   4  -1    1.24    0.26
  11   4  -1    1.35    0.23
 -11  -4   1    1.61    0.22
 -11  -4   1    1.74    0.24
 -12  -4   1    0.01    0.14
 -12   4   0    0.24    0.12
 -11   4   0    7.96    0.45
 -10   4   0    2.54    0.29
  -9   4   0   30.51    1.51
   9  -4   0   30.93    1.53
  -8   4   0    3.92    0.31
  -8   4   0    2.64    0.69
   8  -4   0    4.54    0.42
   8  -4   0    4.39    0.36
   8  -4   0    4.43    0.42
  -7   4   0    5.02    0.32
  -7   4   0    5.12    0.65
   7  -4   0    5.50    0.37
   7  -4   0    5.23    0.56
   7  -4   0    4.25    0.44
  -6   4   0    0.78    0.30
  -6   4   0    0.97    0.29
  -5   4   0    1.51    0.24
  -5   4   0    1.56    0.24
  -4   4   0   28.25    1.70
  -4   4   0   27.72    1.67
  -3   4   0   26.22    1.60
  -3   4   0   27.70    1.63
  -2   4   0    0.79    0.13
  -2   4   0    1.12    0.14
  -1   4   0  139.11    7.88
  -1   4   0  131.68    7.97
   0   4   0  103.92    6.19
   0   4   0  107.66    6.27
   0  -4   0  105.68    6.19
   1   4   0  142.80    8.27
  -1  -4   0  138.29    8.18
   2   4   0    1.20    0.19
  -2  -4   0    1.42    0.16
   3   4   0   30.40    1.86
  -3  -4   0   31.38    1.85
   4   4   0   31.91    1.92
  -4  -4   0   31.05    1.90
   5   4   0    1.91    0.29
  -5  -4   0    1.27    0.25
   6   4   0    0.71    0.34
  -6  -4   0    0.75    0.28
   7   4   0    4.77    0.45
   7   4   0    5.23    0.41
   7   4   0    4.48    0.80
   7   4   0    5.18    0.39
  -7  -4   0    5.86    0.65
  -7  -4   0    5.88    0.36
  -7  -4   0    4.13    0.73
   8   4   0    3.49    0.41
   8   4   0    2.82    0.40
  -8  -4   0    4.94    0.79
  -8  -4   0    4.42    0.34
   9   4   0   30.20    1.49
   9   4   0   28.89    1.63
  -9  -4   0   29.68    1.49
  10   4   0    2.70    0.36
  10   4   0    2.67    0.32
 -10  -4   0    2.31    0.30
 -10  -4   0    2.15    0.31
  11   4   0    7.34    0.47
 -11  -4   0    7.66    0.44
 -11  -4   0    7.15    0.45
 -12   4   1    0.20    0.12
 -11   4   1    1.60    0.20
  10  -4  -1    0.81    0.21
  10  -4  -1    0.78    0.27
  10  -4  -1    0.79    0.28
   9  -4  -1    2.89    0.35
   9  -4  -1    2.95    0.34
   9  -4  -1    2.69    0.38
  -8   4   1    1.64    0.59
   8  -4  -1    0.54    0.19
   8  -4  -1   -0.02    0.20
   8  -4  -1    0.45    0.25
  -7   4   1    2.49    0.46
   7  -4  -1    1.93    0.28
   7  -4  -1    2.76    0.38
   7  -4  -1    1.97    0.24
  -6   4   1    4.76    0.52
  -5   4   1    4.55    0.43
  -5   4   1    4.80    0.44
  -4   4   1   33.50    2.00
  -4   4   1   33.72    2.03
  -3   4   1    2.64    0.23
  -3   4   1    2.67    0.25
  -2   4   1   30.91    1.82
  -2   4   1   30.06    1.78
  -1   4   1   20.39    1.23
  -2  -4  -1    2.41    0.22
   3   4   1   19.75    1.21
   4   4   1   66.44    4.15
  -4  -4  -1   73.09    4.12
   5   4   1   23.93    1.43
  -5  -4  -1   20.72    1.39
  -6  -4  -1    3.23    0.48
   7   4   1    1.11    0.24
   7   4   1    1.57    0.25
  -7  -4  -1    1.69    0.42
  -7  -4  -1    1.25    0.17
   8   4   1    0.25    0.26
   8   4   1   -0.28    0.23
  -8  -4  -1    0.01    0.15
  -8  -4  -1    0.86    0.51
   9   4   1    2.75    0.33
   9   4   1    2.83    0.30
  -9  -4  -1    2.20    0.31
  -9  -4  -1    1.86    0.23
 -10  -4  -1    1.06    0.21
 -10  -4  -1    0.92    0.20
 -11  -4  -1    1.45    0.20
 -11  -4  -1    1.61    0.20
  11  -4  -2    0.80    0.25
  11  -4  -2    0.93    0.24
 -10   4   2    0.54    0.19
  10  -4  -2    0.53    0.21
  10  -4  -2    0.71    0.25
  10  -4  -2    0.45    0.25
  -9   4   2    2.31    0.28
   9  -4  -2    1.30    0.24
   9  -4  -2    1.60    0.28
   9  -4  -2    1.52    0.25
  -8   4   2    1.85    0.62
   8  -4  -2    2.42    0.28
   8  -4  -2    2.20    0.26
   8  -4  -2    2.15    0.24
  -7   4   2    4.67    0.66
   7  -4  -2    4.08    0.38
   7  -4  -2    4.39    0.37
   7  -4  -2    4.77    0.43
  -6   4   2   19.38    1.29
  -5   4   2   20.97    1.34
  -4   4   2    6.09    0.47
  -4   4   2    5.68    0.44
  -3   4   2   11.74    0.72
  -3   4   2   11.50    0.74
  -2   4   2   12.15    0.72
  -2   4   2   11.70    0.74
  -1   4   2   49.14    2.92
   1  -4  -2   49.53    2.88
   0  -4  -2    3.51    0.24
   1   4   2   51.22    3.14
  -1  -4  -2   55.19    3.12
   2   4   2   25.25    1.48
  -2  -4  -2   24.25    1.48
   3   4   2   17.40    1.03
  -3  -4  -2   16.27    1.04
   4   4   2   38.57    2.43
  -4  -4  -2   42.19    2.42
  -5  -4  -2   34.00    2.07
  -6  -4  -2    3.25    0.49
   7   4   2    1.83    0.30
  -7  -4  -2    2.27    0.32
  -7  -4  -2    2.34    0.26
  -7  -4  -2    3.36    0.49
   8   4   2    0.68    0.27
  -8  -4  -2    0.84    0.22
  -8  -4  -2    0.61    0.17
   9   4   2    1.59    0.28
  -9  -4  -2    1.10    0.23
  -9  -4  -2    1.30    0.20
 -10  -4  -2    0.12    0.21
 -10  -4  -2    0.01    0.18
 -11  -4  -2    0.13    0.17
 -11   4   3    0.06    0.16
  11  -4  -3    0.19    0.20
  11  -4  -3   -0.06    0.20
 -10   4   3    0.99    0.20
  10  -4  -3    0.33    0.21
  10  -4  -3    0.64    0.23
  10  -4  -3    0.72    0.23
  -9   4   3    1.60    0.22
   9  -4  -3    1.12    0.23
   9  -4  -3    0.90    0.23
   9  -4  -3    1.01    0.25
   8  -4  -3    0.65    0.21
   8  -4  -3    1.10    0.22
   8  -4  -3    1.19    0.24
  -7   4   3    2.75    0.52
   7  -4  -3    2.11    0.32
   7  -4  -3    2.89    0.35
   7  -4  -3    2.43    0.35
  -6   4   3   12.46    0.93
  -5   4   3    0.30    0.21
  -4   4   3   11.32    0.71
   4  -4  -3    8.37    0.73
  -2   4   3    2.31    0.24
  -2   4   3    2.33    0.24
  -1   4   3   29.20    1.75
   1  -4  -3   29.26    1.73
   0   4   3    3.74    0.30
   0  -4  -3    4.70    0.32
   1   4   3   17.22    1.19
  -1  -4  -3   23.02    1.21
  -2  -4  -3    1.53    0.22
  -3  -4  -3    6.36    0.48
  -4  -4  -3    8.89    0.65
  -5  -4  -3    0.49    0.27
  -6  -4  -3    5.25    0.60
  -7  -4  -3    1.87    0.51
  -7  -4  -3    1.86    0.25
  -8  -4  -3    0.26    0.16
  -9  -4  -3    0.91    0.20
 -10  -4  -3    0.55    0.18
 -11  -4  -3   -0.18    0.15
 -11   4   4    0.32    0.16
  11  -4  -4    0.52    0.18
  11  -4  -4    0.59    0.19
 -10   4   4    0.84    0.20
  10  -4  -4    0.54    0.21
  10  -4  -4    0.64    0.22
  10  -4  -4    0.58    0.21
  -9   4   4    0.24    0.20
   9  -4  -4    0.44    0.22
   8  -4  -4    0.52    0.22
   8  -4  -4    0.12    0.21
   8  -4  -4    0.21    0.21
   7  -4  -4    4.56    0.42
   7  -4  -4    4.44    0.41
   7  -4  -4    4.83    0.42
  -6   4   4   10.69    0.84
   6  -4  -4    9.46    0.59
   6  -4  -4    9.96    0.61
   6  -4  -4    9.27    0.58
  -5   4   4   17.41    1.18
  -4   4   4    4.51    0.45
   4  -4  -4    3.64    0.50
  -3   4   4   11.27    0.73
   3  -4  -4    9.77    0.75
  -2   4   4    1.70    0.28
  -2   4   4    2.08    0.32
   2  -4  -4    2.44    0.31
  -1   4   4   12.64    0.72
   1  -4  -4    9.45    0.73
   0   4   4    5.35    0.39
  -1  -4  -4    9.69    0.65
  -2  -4  -4    3.99    0.37
  -3  -4  -4    5.53    0.48
  -4  -4  -4    1.20    0.29
  -5  -4  -4   20.38    1.35
  -6  -4  -4   11.61    0.91
  -6  -4  -4   10.01    0.58
  -7  -4  -4    4.95    0.37
  -7  -4  -4    5.97    0.80
  -8  -4  -4    3.01    0.32
  -9  -4  -4    0.18    0.19
 -10  -4  -4    0.97    0.19
 -11  -4  -4    0.11    0.15
 -11   4   5    0.87    0.16
  11  -4  -5    0.98    0.17
  11  -4  -5    1.26    0.18
 -10   4   5    1.73    0.21
  10  -4  -5    1.34    0.22
  10  -4  -5    1.36    0.22
  10  -4  -5    1.41    0.22
  -9   4   5    0.97    0.22
   9  -4  -5    0.72    0.22
   9  -4  -5    0.54    0.24
   9  -4  -5    0.73    0.23
   8  -4  -5    1.82    0.26
   8  -4  -5    1.74    0.25
   8  -4  -5    1.66    0.26
   7  -4  -5    9.34    0.60
   7  -4  -5    9.03    0.58
   7  -4  -5    8.66    0.57
  -6   4   5   10.02    0.93
   6  -4  -5   11.01    0.66
   6  -4  -5   10.46    0.64
   6  -4  -5   10.72    0.63
  -5   4   5   14.90    1.03
   5  -4  -5   13.05    0.81
  -4   4   5   12.56    0.91
  -3   4   5   20.04    1.28
  -2   4   5    7.36    0.57
   2  -4  -5    7.68    0.63
  -1   4   5   16.08    1.06
   1  -4  -5   17.33    1.09
   0  -4  -5   19.25    1.21
  -1  -4  -5   15.46    1.01
  -2  -4  -5    8.27    0.64
  -3  -4  -5    9.91    0.75
  -4  -4  -5    3.97    0.53
  -5  -4  -5   19.85    1.33
  -5  -4  -5   18.47    0.98
  -6  -4  -5   10.76    0.60
  -6  -4  -5   10.23    0.66
  -6  -4  -5   10.94    0.74
  -6  -4  -5   10.49    0.97
   7   4   5   10.13    0.76
  -7  -4  -5    9.82    0.77
  -7  -4  -5   10.82    0.59
  -8  -4  -5    1.13    0.21
  -9  -4  -5    4.55    0.36
 -10  -4  -5    1.96    0.24
 -11  -4  -5    2.69    0.23
 -10   4   6    0.94    0.19
  10  -4  -6    0.61    0.19
  10  -4  -6    0.55    0.18
  10  -4  -6    0.79    0.21
  -9   4   6    1.60    0.23
   9  -4  -6    2.17    0.27
   9  -4  -6    1.88    0.24
   9  -4  -6    1.70    0.24
   8  -4  -6    0.09    0.22
   8  -4  -6   -0.28    0.25
   8  -4  -6   -0.23    0.22
   7  -4  -6    1.95    0.28
   7  -4  -6    2.01    0.25
   7  -4  -6    1.82    0.26
  -6   4   6    3.72    0.65
   6  -4  -6    3.61    0.39
   6  -4  -6    3.50    0.39
  -5   4   6    5.88    0.76
   5  -4  -6    5.83    0.46
   5  -4  -6    5.74    0.45
  -4   4   6   14.39    1.05
  -3   4   6    5.46    0.59
  -2   4   6    5.48    0.54
   1  -4  -6    0.31    0.31
   0  -4  -6    2.86    0.47
  -1  -4  -6   11.50    0.84
  -2  -4  -6    4.98    0.57
  -3  -4  -6    3.65    0.57
  -4  -4  -6    7.17    0.76
  -5  -4  -6    9.83    0.93
  -5  -4  -6    9.14    0.58
  -5  -4  -6    9.18    0.55
  -5  -4  -6    9.32    0.66
  -6  -4  -6    6.22    0.53
  -6  -4  -6    3.96    0.74
  -6  -4  -6    5.92    0.46
  -6  -4  -6    5.55    0.40
   7   4   6    2.55    0.37
  -7  -4  -6    2.92    0.36
  -7  -4  -6    3.27    0.34
   8   4   6    0.72    0.33
  -8  -4  -6    0.17    0.19
  -9  -4  -6    0.78    0.19
 -10  -4  -6    0.53    0.17
  10  -4  -7    0.62    0.16
  10  -4  -7    0.63    0.16
   9  -4  -7    1.48    0.22
   9  -4  -7    1.65    0.21
   8  -4  -7    0.15    0.21
   8  -4  -7    0.74    0.22
   7  -4  -7    4.69    0.44
   7  -4  -7    4.44    0.43
   6  -4  -7    3.00    0.39
   6  -4  -7    3.23    0.40
  -5   4   7    2.44    0.64
   5  -4  -7    2.95    0.37
   5  -4  -7    3.43    0.38
  -4   4   7    6.00    0.87
   4  -4  -7    7.34    0.52
   0  -4  -7    1.25    0.43
  -1  -4  -7    4.77    0.66
  -2  -4  -7    2.06    0.51
  -3  -4  -7    3.39    0.39
  -3  -4  -7    3.17    0.32
  -3  -4  -7    3.87    0.38
  -3  -4  -7    2.69    0.59
  -4  -4  -7    4.67    0.81
  -4  -4  -7    4.78    0.45
  -4  -4  -7    4.80    0.39
  -4  -4  -7    4.82    0.40
  -5  -4  -7    2.64    0.73
  -5  -4  -7    3.15    0.38
  -5  -4  -7    2.76    0.43
  -5  -4  -7    2.55    0.35
  -6  -4  -7    5.67    0.42
  -6  -4  -7    5.68    0.52
  -6  -4  -7    5.40    0.47
  -7  -4  -7    2.80    0.35
  -7  -4  -7    2.83    0.33
  -7  -4  -7    3.19    0.45
   8   4   7    0.23    0.31
  -8  -4  -7    0.82    0.21
  -9  -4  -7    2.68    0.29
 -10  -4  -7    1.45    0.20
   9  -4  -8    1.71    0.26
   9  -4  -8    1.69    0.24
   8  -4  -8    0.32    0.21
   8  -4  -8    0.22    0.20
   7  -4  -8    0.79    0.25
   7  -4  -8    0.95    0.24
   6  -4  -8    0.28    0.24
   6  -4  -8    0.41    0.24
   5  -4  -8    0.78    0.26
   5  -4  -8    0.58    0.26
   4  -4  -8    4.59    0.50
   3  -4  -8    0.40    0.26
   2  -4  -8    1.85    0.27
   1  -4  -8    8.53    0.56
   1  -4  -8    8.30    0.60
   0  -4  -8    6.81    0.51
   0  -4  -8    6.23    0.46
  -1  -4  -8    9.37    0.62
  -1  -4  -8    9.06    0.56
  -2  -4  -8    1.00    0.65
  -2  -4  -8    0.92    0.21
  -2  -4  -8    1.00    0.28
  -2  -4  -8    0.87    0.20
  -3  -4  -8    2.64    0.33
  -3  -4  -8    2.13    0.75
  -3  -4  -8    3.05    0.38
  -3  -4  -8    2.81    0.38
  -4  -4  -8    2.70    0.34
  -4  -4  -8    2.46    0.29
  -4  -4  -8    1.83    0.85
  -4  -4  -8    2.71    0.39
  -5  -4  -8    0.22    0.22
  -5  -4  -8    0.26    0.24
  -5  -4  -8    0.55    0.25
  -6  -4  -8    0.56    0.26
  -6  -4  -8    0.31    0.23
  -6  -4  -8    0.51    0.25
   7   4   8    0.90    0.31
  -7  -4  -8    1.75    0.31
  -7  -4  -8    1.84    0.31
  -7  -4  -8    1.63    0.25
   8   4   8    0.94    0.30
  -8  -4  -8    0.73    0.21
  -9  -4  -8    2.51    0.24
   8  -4  -9    0.19    0.19
   8  -4  -9    0.06    0.21
   7  -4  -9    1.56    0.25
   7  -4  -9    2.01    0.28
   6  -4  -9    3.12    0.43
   5  -4  -9    2.20    0.33
   3  -4  -9    3.65    0.50
   2  -4  -9    1.23    0.27
   1  -4  -9    1.23    0.26
   1  -4  -9    1.61    0.25
   0  -4  -9    2.99    0.39
   0  -4  -9    3.57    0.41
  -1  -4  -9    4.50    0.44
  -1  -4  -9    4.31    0.41
  -2  -4  -9    0.81    0.22
  -2  -4  -9    0.54    0.23
  -3  -4  -9    4.82    0.45
  -3  -4  -9    4.77    0.41
  -3  -4  -9    4.80    0.46
  -4  -4  -9    3.31    0.39
  -4  -4  -9    2.94    0.42
  -4  -4  -9    3.05    0.39
  -5  -4  -9    3.72    0.42
  -5  -4  -9    5.37    0.42
  -5  -4  -9    4.61    0.47
   6   4   9    2.43    0.38
  -6  -4  -9    1.89    0.29
  -6  -4  -9    1.56    0.29
  -6  -4  -9    1.74    0.25
   7   4   9    1.22    0.29
  -7  -4  -9    1.97    0.29
  -7  -4  -9    1.74    0.24
  -7  -4  -9    1.99    0.29
   8   4   9    0.25    0.25
  -8  -4  -9    0.07    0.17
   2  -4 -10    0.71    0.26
   1  -4 -10    0.70    0.24
   1  -4 -10    1.14    0.27
   0  -4 -10    0.50    0.24
   0  -4 -10    0.70    0.24
  -1  -4 -10    2.70    0.37
  -1  -4 -10    3.56    0.40
  -2  -4 -10    1.43    0.26
  -2  -4 -10    1.43    0.25
  -3  -4 -10    2.58    0.31
  -3  -4 -10    2.43    0.33
  -3  -4 -10    2.55    0.38
  -4  -4 -10    1.81    0.30
  -4  -4 -10    2.66    0.37
  -4  -4 -10    2.86    0.35
  -5  -4 -10    6.09    0.46
  -5  -4 -10    6.44    0.49
  -5  -4 -10    6.76    0.47
   6   4  10    1.90    0.31
  -6  -4 -10    2.35    0.31
  -6  -4 -10    2.72    0.33
  -6  -4 -10    2.45    0.33
   7   4  10    1.38    0.25
  -7  -4 -10    0.98    0.24
  -7  -4 -10    0.98    0.20
  -7  -4 -10    1.22    0.23
   8   4  10    0.04    0.21
  -8  -4 -10   -0.09    0.14
   2  -4 -11    1.17    0.28
   1  -4 -11    1.80    0.30
   1  -4 -11    1.44    0.27
   0  -4 -11    6.31    0.51
   0  -4 -11    6.25    0.48
  -1  -4 -11    3.28    0.37
  -2  -4 -11    0.83    0.24
  -2  -4 -11    0.82    0.25
  -3  -4 -11    1.69    0.27
  -3  -4 -11    1.72    0.26
  -4  -4 -11    0.79    0.23
  -4  -4 -11    0.31    0.25
  -4  -4 -11    0.47    0.22
   5   4  11    1.09    0.26
  -5  -4 -11    1.31    0.23
  -5  -4 -11    1.17    0.24
  -5  -4 -11    1.37    0.23
   6   4  11    1.15    0.25
  -6  -4 -11    1.80    0.26
  -6  -4 -11    1.44    0.21
  -6  -4 -11    1.29    0.21
   1  -4 -12    0.38    0.26
   0  -4 -12    2.04    0.28
   0  -4 -12    2.50    0.35
  -1  -4 -12    2.22    0.34
  -1  -4 -12    2.12    0.32
  -2  -4 -12    0.44    0.22
  -2  -4 -12    0.80    0.23
  -3  -4 -12    0.68    0.21
  -3  -4 -12    0.98    0.22
   4   4  12    0.63    0.24
  -4  -4 -12    0.43    0.18
  -4  -4 -12    0.44    0.19
   5   4  12    0.69    0.21
  -5  -4 -12    0.84    0.17
  -5  -4 -12    0.90    0.17
   0  -4 -13    0.33    0.23
   0  -4 -13    0.82    0.23
  -1  -4 -13    0.55    0.20
  -1  -4 -13    0.12    0.20
  -2  -4 -13    0.10    0.17
  -2  -4 -13    0.54    0.18
   3   4  13    0.09    0.21
  -3  -4 -13    0.21    0.15
  -3  -4 -13    0.04    0.15
  -2   5 -13   -0.17    0.15
  -2   5 -13   -0.37    0.17
  -1   5 -13    0.05    0.16
  -1   5 -13   -0.28    0.18
   0   5 -13    0.74    0.20
   0   5 -13    0.64    0.21
   1   5 -13    0.42    0.19
  -5   5 -12    0.49    0.19
  -5   5 -12    0.67    0.16
   5  -5  12    0.56    0.25
  -4   5 -12    1.24    0.20
   4  -5  12    1.03    0.29
  -3   5 -12    1.67    0.22
  -3   5 -12    0.97    0.21
   3  -5  12    1.04    0.35
  -2   5 -12    0.24    0.19
  -2   5 -12    0.26    0.21
  -1   5 -12    0.56    0.20
  -1   5 -12    0.53    0.22
   0   5 -12    1.27    0.23
   0   5 -12    1.24    0.24
   1   5 -12    1.49    0.24
   1   5 -12    1.38    0.24
   2   5 -12    0.67    0.24
   2   5 -12    0.17    0.23
  -6   5 -11    1.75    0.23
   6  -5  11    2.39    0.29
  -5   5 -11    0.72    0.19
  -5   5 -11    0.95    0.22
   5  -5  11    1.11    0.28
  -4   5 -11    3.37    0.36
  -4   5 -11    3.44    0.31
  -4   5 -11    3.25    0.33
  -3   5 -11    1.56    0.25
  -3   5 -11    1.61    0.24
  -3   5 -11    1.65    0.28
   3  -5  11    1.25    0.33
  -2   5 -11    1.10    0.23
  -2   5 -11    1.24    0.26
  -1   5 -11    4.34    0.40
  -1   5 -11    4.85    0.39
   0   5 -11    2.97    0.35
   0   5 -11    3.02    0.34
   1   5 -11    7.20    0.48
   1   5 -11    6.80    0.48
   2   5 -11    0.38    0.24
   2   5 -11    0.60    0.24
   3   5 -11    1.09    0.26
   3   5 -11    1.44    0.31
  -8   5 -10   -0.06    0.13
  -7   5 -10    1.09    0.18
   7  -5  10    0.89    0.25
  -6   5 -10    2.77    0.29
   6  -5  10    3.38    0.36
  -5   5 -10    3.08    0.36
  -5   5 -10    2.64    0.35
  -5   5 -10    2.32    0.31
   5  -5  10    2.61    0.39
  -4   5 -10    5.92    0.40
  -4   5 -10    5.83    0.43
  -4   5 -10    5.46    0.47
   4  -5  10    4.74    0.49
  -3   5 -10    3.57    0.35
  -3   5 -10    2.97    0.35
  -3   5 -10    3.02    0.39
   3  -5  10    2.55    0.37
  -2   5 -10    0.54    0.27
  -2   5 -10    0.14    0.23
  -2   5 -10    0.38    0.22
   2  -5  10    1.10    0.34
  -1   5 -10    1.55    0.24
  -1   5 -10    1.56    0.26
   0   5 -10    0.20    0.23
   0   5 -10    0.23    0.21
   1   5 -10    0.38    0.22
   1   5 -10    0.34    0.24
   2   5 -10    0.23    0.24
   2   5 -10    1.13    0.24
   3   5 -10    3.48    0.41
   3   5 -10    3.45    0.38
   3   5 -10    3.96    0.40
   4   5 -10    3.53    0.38
   4   5 -10    2.92    0.36
   5   5 -10    3.64    0.37
   6   5 -10    2.62    0.32
   7   5 -10    0.74    0.22
   7   5 -10    0.51    0.22
  -8   5  -9    0.24    0.18
   8  -5   9    0.57    0.23
  -7   5  -9    1.72    0.23
   7  -5   9    1.75    0.29
  -6   5  -9    1.05    0.23
   6  -5   9    1.45    0.29
  -5   5  -9    5.40    0.46
  -5   5  -9    4.44    0.39
  -5   5  -9    5.24    0.46
   5  -5   9    5.32    0.48
  -4   5  -9    6.46    0.45
  -4   5  -9    6.04    0.48
  -4   5  -9    5.80    0.51
  -3   5  -9    3.34    0.41
  -3   5  -9    3.35    0.35
  -3   5  -9    3.12    0.34
   3  -5   9    2.39    0.34
  -2   5  -9    1.13    0.22
  -2   5  -9    1.53    0.28
  -2   5  -9    1.65    0.23
  -1   5  -9    2.20    0.32
  -1   5  -9    2.77    0.32
   0   5  -9    1.09    0.23
   0   5  -9    0.27    0.71
   0   5  -9    0.96    0.20
   1   5  -9    0.97    0.78
   1   5  -9    1.50    0.29
   1   5  -9    1.64    0.24
   1   5  -9    1.59    0.24
   2   5  -9    1.25    0.24
   2   5  -9    0.95    0.26
   2   5  -9    1.19    0.24
   3   5  -9    4.40    0.45
   3   5  -9    5.35    0.43
   3   5  -9    4.49    0.42
   4   5  -9    3.48    0.39
   4   5  -9    4.24    0.41
   5   5  -9    5.21    0.41
   5   5  -9    5.01    0.45
   5   5  -9    4.62    0.46
   6   5  -9    0.85    0.24
   6   5  -9    1.08    0.25
   7   5  -9    1.67    0.24
   7   5  -9    2.03    0.28
   8   5  -9    0.51    0.19
   8   5  -9    0.83    0.21
  -9   5  -8    1.23    0.19
   9  -5   8    1.03    0.24
  -8   5  -8    0.84    0.21
   8  -5   8    1.05    0.26
   7  -5   8    1.68    0.32
  -6   5  -8    2.06    0.30
  -6   5  -8    1.60    0.25
   6  -5   8    2.68    0.32
  -5   5  -8    3.02    0.43
  -5   5  -8    3.10    0.34
  -5   5  -8    2.81    0.41
   5  -5   8    3.75    0.43
  -4   5  -8    2.01    0.28
  -4   5  -8    2.52    0.32
  -4   5  -8    1.84    0.27
   4  -5   8    2.55    0.40
  -3   5  -8   -0.05    0.27
  -3   5  -8    0.14    0.62
  -3   5  -8    0.50    0.20
  -3   5  -8   -0.01    0.19
  -3   5  -8    0.30    0.22
  -2   5  -8    0.05    0.25
  -2   5  -8    0.12    0.18
  -2   5  -8   -0.44    0.56
  -2   5  -8    0.04    0.17
  -2   5  -8    0.37    0.25
  -1   5  -8    2.42    0.28
  -1   5  -8    2.07    0.27
  -1   5  -8    1.43    0.56
  -1   5  -8    1.83    0.22
   0   5  -8    4.83    0.43
   0   5  -8    4.82    0.69
   0   5  -8    4.89    0.36
   0   5  -8    4.26    0.35
   1   5  -8    0.36    0.55
   1   5  -8    1.15    0.21
   1   5  -8    1.06    0.24
   1   5  -8    0.85    0.20
   2   5  -8    1.17    0.61
   2   5  -8    0.49    0.22
   2   5  -8    0.69    0.23
   2   5  -8    0.91    0.22
  -2  -5   8    0.54    0.57
   3   5  -8    0.42    0.67
   3   5  -8    1.38    0.23
   3   5  -8    0.94    0.23
   3   5  -8    0.58    0.27
  -3  -5   8    0.89    0.60
   4   5  -8    5.21    0.48
   4   5  -8    5.21    0.44
   4   5  -8    4.91    0.43
   5   5  -8    1.99    0.31
   5   5  -8    2.50    0.35
   5   5  -8    2.09    0.27
   6   5  -8    1.77    0.26
   6   5  -8    1.49    0.25
   6   5  -8    1.65    0.31
   7   5  -8    0.89    0.22
   7   5  -8    0.87    0.24
   7   5  -8    0.90    0.29
   8   5  -8    1.49    0.23
   8   5  -8    1.38    0.28
   8   5  -8    1.53    0.22
   9   5  -8    0.49    0.21
   9   5  -8    0.42    0.18
   9   5  -8    0.52    0.16
 -10   5  -7    0.48    0.19
  10  -5   7    0.69    0.22
  -9   5  -7    1.15    0.21
   9  -5   7    0.16    0.25
  -8   5  -7    0.56    0.25
  -8   5  -7    0.23    0.21
   8  -5   7    1.14    0.29
  -7   5  -7    6.00    0.46
  -7   5  -7    6.50    0.43
   7  -5   7    4.57    0.50
  -6   5  -7    1.54    0.28
  -6   5  -7    1.61    0.29
  -6   5  -7    1.38    0.23
   6  -5   7    2.11    0.30
  -5   5  -7   14.31    1.28
  -5   5  -7   15.29    0.93
  -5   5  -7   15.46    0.84
  -5   5  -7   14.69    0.89
  -5   5  -7   14.86    0.81
   5  -5   7   15.91    0.93
  -4   5  -7    1.00    0.25
  -4   5  -7    1.04    0.22
  -4   5  -7    1.13    0.26
  -4   5  -7    0.91    0.19
  -4   5  -7    1.89    0.58
   4  -5   7    1.27    0.25
  -3   5  -7    8.67    0.55
  -3   5  -7    8.53    0.60
  -3   5  -7    8.40    0.51
  -3   5  -7    8.87    0.55
  -3   5  -7    9.41    0.84
  -2   5  -7    0.72    0.16
  -2   5  -7    0.38    0.40
  -1   5  -7    0.81    0.44
   0   5  -7    0.76    0.39
   1   5  -7    3.92    0.58
   2   5  -7    0.40    0.43
   2   5  -7    0.19    0.45
  -2  -5   7    1.38    0.48
   3   5  -7    3.39    0.57
   3   5  -7    5.01    0.45
   3   5  -7    4.32    0.35
   3   5  -7    3.28    0.42
   3   5  -7    3.68    0.63
  -3  -5   7    3.05    0.57
   4   5  -7    0.61    0.22
   4   5  -7    0.67    0.21
   4   5  -7    0.13    0.51
   4   5  -7    0.66    0.21
  -4  -5   7    0.84    0.57
   5   5  -7   13.65    1.36
   5   5  -7   15.46    0.86
   5   5  -7   16.53    0.86
   5   5  -7   15.06    0.82
  -5  -5   7   14.73    1.43
   6   5  -7    3.90    0.38
   6   5  -7    4.44    0.39
   6   5  -7    4.00    0.49
   6   5  -7    3.44    0.45
   7   5  -7    6.45    0.48
   7   5  -7    6.06    0.52
   7   5  -7    7.01    0.55
   7   5  -7    7.11    0.48
   8   5  -7    1.45    0.23
   8   5  -7    2.06    0.28
   8   5  -7    1.68    0.25
   9   5  -7    0.42    0.18
   9   5  -7    0.38    0.20
   9   5  -7    0.24    0.22
  10   5  -7    0.88    0.17
  10   5  -7    0.94    0.18
  10   5  -7    0.96    0.16
 -10   5  -6    0.45    0.22
 -10   5  -6    0.35    0.21
  10  -5   6    0.67    0.25
  -9   5  -6    0.81    0.22
  -9   5  -6    1.14    0.23
   9  -5   6    0.85    0.28
  -8   5  -6   -0.33    0.23
  -8   5  -6    0.10    0.22
   8  -5   6    0.60    0.28
  -7   5  -6    2.74    0.33
  -7   5  -6    2.75    0.37
   7  -5   6    2.61    0.43
  -6   5  -6    0.71    0.20
  -6   5  -6    0.72    0.69
  -6   5  -6    0.60    0.24
  -6   5  -6    0.61    0.24
   6  -5   6    1.02    0.25
  -5   5  -6   15.67    1.21
  -5   5  -6   15.79    0.82
  -5   5  -6   15.62    0.82
  -5   5  -6   15.38    0.93
   5  -5   6   14.53    0.92
  -4   5  -6    3.35    0.54
  -4   5  -6    3.14    0.35
  -4   5  -6    2.93    0.30
   4  -5   6    4.00    0.36
  -3   5  -6   13.22    0.99
  -2   5  -6    0.23    0.32
  -1   5  -6    2.23    0.38
   0   5  -6    4.43    0.53
   0   5  -6    4.87    0.55
   1   5  -6    6.01    0.60
   1   5  -6    5.74    0.62
   2   5  -6    3.65    0.52
   2   5  -6    3.60    0.54
   3   5  -6    4.62    0.63
   3   5  -6    5.22    0.65
  -3  -5   6    5.25    0.65
   4   5  -6    3.65    0.61
   4   5  -6    3.10    0.34
   4   5  -6    2.96    0.33
   4   5  -6    3.53    0.32
   5   5  -6    9.52    0.93
   5   5  -6    8.53    0.62
   5   5  -6    9.10    0.57
   5   5  -6    9.45    0.55
   5   5  -6    8.58    0.55
  -5  -5   6    7.57    0.94
   6   5  -6    2.47    0.35
   6   5  -6    3.32    0.71
   6   5  -6    2.86    0.32
   6   5  -6    3.00    0.31
   6   5  -6    3.34    0.35
  -6  -5   6    3.66    0.76
   7   5  -6    9.37    0.64
   7   5  -6    9.86    0.63
   7   5  -6   11.04    0.68
   7   5  -6   10.07    0.62
   8   5  -6    0.89    0.27
   8   5  -6    0.77    0.21
   8   5  -6    1.17    0.26
   8   5  -6    0.97    0.23
   9   5  -6    0.61    0.20
   9   5  -6    0.65    0.22
   9   5  -6    0.52    0.23
  10   5  -6    0.43    0.19
  10   5  -6    0.64    0.18
  10   5  -6    0.42    0.20
 -10   5  -5    0.66    0.19
  10  -5   5    0.33    0.27
  -9   5  -5    3.10    0.34
  -9   5  -5    3.25    0.36
   9  -5   5    3.25    0.43
  -8   5  -5    0.43    0.23
  -8   5  -5    0.61    0.22
   8  -5   5    0.25    0.28
  -7   5  -5    2.86    0.33
  -7   5  -5    3.04    0.35
   7  -5   5    2.87    0.43
  -6   5  -5    2.36    0.31
  -6   5  -5    2.77    0.59
  -6   5  -5    2.80    0.33
   6  -5   5    2.85    0.38
  -5   5  -5   11.49    0.63
  -5   5  -5   11.33    0.72
  -5   5  -5   12.39    0.94
  -5   5  -5   11.65    0.62
   5  -5   5   10.51    0.72
  -4   5  -5   13.91    1.00
  -3   5  -5   11.98    0.87
  -2   5  -5    2.43    0.41
  -1   5  -5   42.83    2.57
  -1   5  -5   42.33    2.57
   0   5  -5    6.09    0.52
   0   5  -5    6.17    0.55
   1   5  -5   50.97    3.11
   1   5  -5   52.33    3.11
   2   5  -5    9.92    0.74
   2   5  -5    9.77    0.77
   3   5  -5    1.80    0.34
   3   5  -5    2.06    0.40
   4   5  -5    3.02    0.53
  -4  -5   5    4.00    0.55
   5   5  -5    7.28    0.45
   5   5  -5    6.15    0.50
   5   5  -5    6.76    0.46
   5   5  -5    6.21    0.73
   5   5  -5    5.77    0.42
  -5  -5   5    5.97    0.77
   6   5  -5    5.34    0.83
   6   5  -5    6.72    0.45
   6   5  -5    6.40    0.49
   6   5  -5    6.51    0.48
   6   5  -5    6.47    0.44
  -6  -5   5    6.64    0.90
   7   5  -5    9.90    0.61
   7   5  -5   10.01    0.67
   7   5  -5    9.50    0.60
   7   5  -5   10.44    0.61
   8   5  -5    1.10    0.26
   8   5  -5    1.17    0.23
   8   5  -5    1.09    0.24
   8   5  -5    0.77    0.23
  -8  -5   5    0.96    0.24
   9   5  -5    6.52    0.52
   9   5  -5    7.53    0.48
   9   5  -5    7.30    0.50
  -9  -5   5    7.39    0.49
  10   5  -5    0.55    0.20
  10   5  -5    0.55    0.20
  10   5  -5    0.50    0.20
  11   5  -5    3.54    0.28
  11   5  -5    3.58    0.26
  11   5  -5    3.67    0.29
 -11  -5   5    3.25    0.24
 -11   5  -4    3.06    0.25
 -10   5  -4    0.05    0.18
  10  -5   4    0.25    0.28
  -9   5  -4    3.51    0.38
  -9   5  -4    3.98    0.35
   9  -5   4    3.36    0.46
  -8   5  -4    0.34    0.22
  -8   5  -4    0.34    0.19
   8  -5   4    0.79    0.28
  -7   5  -4    0.62    0.19
  -7   5  -4    1.29    0.61
  -7   5  -4    0.66    0.17
   7  -5   4    0.65    0.25
  -6   5  -4    0.85    0.17
  -6   5  -4    0.97    0.19
  -6   5  -4    1.37    0.45
   6  -5   4    1.13    0.22
  -5   5  -4    1.83    0.37
  -4   5  -4   12.48    0.88
  -3   5  -4    8.46    0.64
  -3   5  -4    8.38    0.65
  -2   5  -4    3.96    0.41
  -2   5  -4    4.33    0.40
  -1   5  -4    1.58    0.25
  -1   5  -4    1.83    0.27
   0   5  -4    3.27    0.33
   0   5  -4    3.17    0.34
   1   5  -4   16.64    1.05
   1   5  -4   16.20    1.05
   2   5  -4    2.59    0.39
   2   5  -4    2.69    0.34
   3   5  -4    7.05    0.60
   3   5  -4    6.78    0.58
   4   5  -4   19.02    1.38
  -4  -5   4   23.27    1.38
   5   5  -4    1.04    0.35
  -5  -5   4    0.76    0.36
   6   5  -4    3.23    0.29
   6   5  -4    2.71    0.31
   6   5  -4    3.61    0.57
   6   5  -4    2.63    0.37
   6   5  -4    2.22    0.31
  -6  -5   4    3.35    0.54
   7   5  -4    2.75    0.69
   7   5  -4    3.00    0.36
   7   5  -4    3.51    0.38
   7   5  -4    3.89    0.39
   7   5  -4    4.10    0.36
  -7  -5   4    5.11    0.71
   8   5  -4    0.93    0.22
   8   5  -4    0.73    0.23
   8   5  -4    1.30    0.24
   8   5  -4    0.81    0.22
  -8  -5   4    0.16    0.22
   9   5  -4    2.65    0.38
   9   5  -4    2.60    0.29
   9   5  -4    1.99    0.27
   9   5  -4    2.85    0.35
  10   5  -4    0.04    0.20
  10   5  -4    0.31    0.21
  10   5  -4    0.24    0.21
 -10  -5   4    0.15    0.22
  11   5  -4    3.06    0.31
  11   5  -4    2.51    0.25
  11   5  -4    2.84    0.28
 -11  -5   4    2.75    0.23
 -11   5  -3    0.79    0.17
 -10   5  -3    0.56    0.19
  10  -5   3    0.45    0.29
  -9   5  -3    4.96    0.39
   9  -5   3    6.44    0.54
  -8   5  -3    0.90    0.18
  -8   5  -3    1.06    0.24
   8  -5   3    1.40    0.29
  -7   5  -3    4.24    0.32
  -7   5  -3    5.03    0.39
  -7   5  -3    3.99    0.66
   7  -5   3    3.40    0.46
  -6   5  -3    6.97    0.69
  -6   5  -3    6.10    0.40
  -5   5  -3    4.26    0.53
  -4   5  -3    8.66    0.66
  -4   5  -3    8.54    0.64
  -3   5  -3    1.94    0.29
  -2   5  -3    1.62    0.25
  -2   5  -3    1.57    0.23
  -1   5  -3   25.89    1.55
  -1   5  -3   25.22    1.55
   0   5  -3    2.46    0.27
   0   5  -3    2.41    0.25
   1   5  -3    7.90    0.57
   1   5  -3    7.98    0.55
   2   5  -3    0.25    0.18
   2   5  -3    0.32    0.15
   3   5  -3    3.20    0.34
   4   5  -3    9.24    0.76
  -4  -5   3   12.01    0.76
   5   5  -3    2.44    0.38
  -5  -5   3    1.98    0.34
   6   5  -3    2.67    0.48
   6   5  -3    2.54    0.32
   6   5  -3    3.36    0.31
  -6  -5   3    1.89    0.43
   7   5  -3    0.55    0.54
   7   5  -3    1.13    0.21
   7   5  -3    1.29    0.20
   7   5  -3    1.29    0.22
   7   5  -3    1.08    0.20
  -7  -5   3    0.87    0.51
   8   5  -3    3.40    0.40
   8   5  -3    3.21    0.37
   8   5  -3    3.46    0.38
   8   5  -3    3.55    0.40
  -8  -5   3    2.76    0.34
   9   5  -3    6.14    0.50
   9   5  -3    7.30    0.49
   9   5  -3    7.55    0.51
   9   5  -3    6.87    0.52
  -9  -5   3    6.54    0.48
  10   5  -3    0.26    0.23
  10   5  -3    0.34    0.24
  10   5  -3    0.49    0.21
 -10  -5   3    0.57    0.21
  11   5  -3    2.56    0.30
  11   5  -3    2.63    0.28
  11   5  -3    3.42    0.36
 -11   5  -2    1.87    0.22
 -10   5  -2    1.75    0.21
  10  -5   2    1.57    0.32
   9  -5   2    1.80    0.32
  -8   5  -2    1.08    0.18
   8  -5   2    0.72    0.28
  -7   5  -2    9.00    0.94
  -7   5  -2    8.68    0.48
   7  -5   2    8.47    0.63
  -6   5  -2    8.31    0.76
  -6   5  -2    8.45    0.76
  -5   5  -2   16.43    1.10
  -5   5  -2   17.27    1.11
  -4   5  -2    5.80    0.46
  -4   5  -2    5.33    0.46
  -3   5  -2    8.01    0.55
  -3   5  -2    8.20    0.56
  -2   5  -2   13.88    0.87
  -2   5  -2   13.90    0.87
  -1   5  -2   22.79    1.38
  -1   5  -2   22.63    1.37
   0   5  -2    2.63    0.23
   0   5  -2    2.65    0.26
   1   5  -2   17.93    1.10
   1   5  -2   17.80    1.10
   2   5  -2    3.88    0.33
   2   5  -2    3.97    0.34
  -2  -5   2    4.35    0.33
   3   5  -2   20.41    1.17
  -3  -5   2   16.72    1.15
   4   5  -2   20.41    1.28
  -4  -5   2   19.04    1.24
   5   5  -2   25.26    1.57
  -5  -5   2   23.19    1.53
   6   5  -2    1.01    0.37
  -6  -5   2    1.03    0.34
   7   5  -2    2.26    0.35
   7   5  -2    2.03    0.23
   7   5  -2    2.46    0.58
   7   5  -2    2.53    0.33
   7   5  -2    2.32    0.31
   8   5  -2    0.55    0.21
   8   5  -2    0.25    0.21
   8   5  -2    0.65    0.20
   8   5  -2    0.92    0.23
   8   5  -2    1.06    0.71
  -8  -5   2    0.09    0.18
  -8  -5   2   -0.53    0.72
   9   5  -2    2.12    0.29
   9   5  -2    2.78    0.41
   9   5  -2    2.70    0.38
  -9  -5   2    3.27    0.34
  10   5  -2    0.17    0.23
  10   5  -2    0.17    0.27
  10   5  -2    0.36    0.23
 -10  -5   2    0.45    0.20
  11   5  -2    1.29    0.23
  11   5  -2    1.28    0.22
 -11  -5   2    1.20    0.19
 -11  -5   2    1.63    0.22
 -11   5  -1    0.63    0.16
 -10   5  -1    0.01    0.18
  -9   5  -1    1.32    0.19
   9  -5   1    0.66    0.31
   8  -5   1    1.14    0.20
   8  -5   1    1.24    0.29
  -7   5  -1   10.09    0.53
  -7   5  -1   10.38    0.92
   7  -5   1    9.08    0.69
   7  -5   1    9.52    0.56
  -6   5  -1   18.82    1.27
  -6   5  -1   18.89    1.26
  -5   5  -1   16.88    1.14
  -5   5  -1   18.74    1.16
  -4   5  -1   10.15    0.67
  -4   5  -1   10.02    0.68
  -3   5  -1   18.74    1.15
  -3   5  -1   18.57    1.13
  -2   5  -1    3.81    0.29
  -2   5  -1    3.53    0.29
  -1   5  -1   20.76    1.26
  -1   5  -1   20.78    1.24
   0   5  -1   88.08    5.16
   0   5  -1   88.57    5.21
   1   5  -1   40.91    2.51
   1   5  -1   44.12    2.53
   2   5  -1   29.80    1.88
  -2  -5   1   32.61    1.86
   3   5  -1   20.05    1.40
  -3  -5   1   25.64    1.40
   4   5  -1   16.53    1.10
  -4  -5   1   17.53    1.08
   5   5  -1   35.70    2.37
  -5  -5   1   41.58    2.35
   6   5  -1    4.39    0.59
  -6  -5   1    4.26    0.54
   7   5  -1    2.85    0.34
   7   5  -1    2.47    0.31
   7   5  -1    3.01    0.37
   7   5  -1    2.88    0.34
   7   5  -1    3.88    0.59
  -7  -5   1    3.69    0.61
  -7  -5   1    4.03    0.65
   8   5  -1    0.59    0.23
   8   5  -1    0.82    0.26
   8   5  -1    0.46    0.21
   8   5  -1    0.64    0.21
  -8  -5   1    1.20    0.56
  -8  -5   1    0.71    0.18
   9   5  -1    2.64    0.36
   9   5  -1    1.76    0.26
  -9  -5   1    2.08    0.23
  10   5  -1   -0.06    0.23
  10   5  -1    0.51    0.25
 -10  -5   1    0.10    0.19
 -10  -5   1    0.19    0.20
  11   5  -1   -0.10    0.22
  11   5  -1    0.18    0.21
 -11  -5   1    0.03    0.18
 -11  -5   1    0.34    0.18
 -11   5   0    0.41    0.16
 -10   5   0    0.77    0.19
  -9   5   0    6.27    0.41
   9  -5   0    6.33    0.45
   9  -5   0    5.01    0.51
  -8   5   0    0.26    0.15
  -8   5   0    0.42    0.62
   8  -5   0    0.37    0.18
   8  -5   0   -0.23    0.26
   8  -5   0    0.38    0.22
  -7   5   0   39.45    2.41
  -7   5   0   37.72    1.83
   7  -5   0   35.95    1.92
   7  -5   0   38.99    1.85
   7  -5   0   37.38    2.14
  -6   5   0   26.22    1.67
  -5   5   0   15.07    0.97
  -5   5   0   14.07    0.95
  -4   5   0    5.64    0.43
  -4   5   0    5.75    0.44
  -3   5   0   22.38    1.34
  -3   5   0   22.45    1.37
  -2   5   0    2.34    0.23
  -2   5   0    2.42    0.20
  -1   5   0   15.62    0.92
  -1   5   0   15.17    0.95
   0   5   0   -0.17    0.06
   0   5   0   -0.16    0.07
   0  -5   0   -0.15    0.06
   1   5   0   16.49    1.00
  -1  -5   0   15.94    0.98
   2   5   0    2.75    0.25
  -2  -5   0    2.29    0.23
   3   5   0   25.56    1.48
  -3  -5   0   22.81    1.46
   4   5   0    6.15    0.49
  -4  -5   0    5.43    0.46
   5   5   0   15.41    1.02
  -5  -5   0   14.36    0.99
   6   5   0   26.81    1.74
  -6  -5   0   26.33    1.68
   7   5   0   38.42    1.91
   7   5   0   38.05    1.88
   7   5   0   39.43    2.05
  -7  -5   0   37.20    1.89
   8   5   0    0.31    0.25
   8   5   0    0.28    0.22
  -8  -5   0    1.06    0.54
  -8  -5   0    0.09    0.16
   9   5   0    6.47    0.51
   9   5   0    6.42    0.48
  -9  -5   0    4.97    0.42
  10   5   0    0.83    0.27
  10   5   0    0.69    0.24
 -10  -5   0    0.68    0.21
 -10  -5   0    0.62    0.19
  11   5   0   -0.05    0.25
  11   5   0    0.49    0.22
 -11  -5   0    0.52    0.18
 -11  -5   0    0.49    0.17
 -11   5   1    0.06    0.15
 -10   5   1    0.00    0.17
  10  -5  -1    0.20    0.25
  -9   5   1    1.87    0.22
   9  -5  -1    2.08    0.25
   9  -5  -1    2.65    0.32
   9  -5  -1    2.19    0.28
  -8   5   1   -0.33    0.56
  -8   5   1    0.76    0.16
   8  -5  -1    0.12    0.25
   8  -5  -1    0.59    0.20
   8  -5  -1    0.41    0.19
  -7   5   1    2.98    0.50
   7  -5  -1    4.31    0.50
   7  -5  -1    3.90    0.33
   7  -5  -1    4.19    0.44
   7  -5  -1    3.06    0.37
  -6   5   1    5.37    0.57
  -5   5   1   34.00    2.09
  -4   5   1   14.87    0.92
  -4   5   1   14.75    0.95
  -3   5   1   16.81    1.05
  -3   5   1   18.39    1.09
  -2   5   1   28.85    1.68
  -2   5   1   28.58    1.72
  -1   5   1   40.52    2.41
   0   5   1   85.27    4.93
   0  -5  -1   81.92    4.86
   1   5   1   21.20    1.30
  -1  -5  -1   21.95    1.28
   2   5   1    3.77    0.30
  -2  -5  -1    3.77    0.29
   3   5   1   20.20    1.36
  -3  -5  -1   24.47    1.36
   4   5   1   11.07    0.69
  -4  -5  -1    8.62    0.67
   5   5   1   18.76    1.30
  -5  -5  -1   21.56    1.29
  -6  -5  -1   19.82    1.31
   7   5   1   10.08    0.62
   7   5   1   10.60    0.65
  -7  -5  -1    9.12    0.56
  -7  -5  -1   10.64    0.86
   8   5   1    0.66    0.27
   8   5   1    0.44    0.24
  -8  -5  -1    1.10    0.53
  -8  -5  -1    0.93    0.17
   9   5   1    0.89    0.28
   9   5   1    0.97    0.27
  -9  -5  -1    0.80    0.19
  -9  -5  -1    0.97    0.23
  10   5   1    0.08    0.25
 -10  -5  -1    0.27    0.18
 -10  -5  -1    0.68    0.21
 -11  -5  -1    0.54    0.17
 -11  -5  -1    0.17    0.19
 -11   5   2    1.63    0.22
  11  -5  -2    1.13    0.24
 -10   5   2    0.17    0.18
  10  -5  -2    0.39    0.21
  10  -5  -2    0.12    0.24
  10  -5  -2    0.36    0.24
  -9   5   2    3.07    0.32
   9  -5  -2    3.07    0.36
   9  -5  -2    2.79    0.42
   9  -5  -2    3.26    0.37
  -8   5   2    0.58    0.17
   8  -5  -2   -0.08    0.19
   8  -5  -2    0.40    0.19
   8  -5  -2    0.17    0.23
   7  -5  -2    0.88    0.19
   7  -5  -2    0.85    0.19
   7  -5  -2    1.21    0.22
  -6   5   2    1.00    0.33
  -5   5   2   23.64    1.50
  -4   5   2   18.88    1.19
  -3   5   2   16.73    1.04
  -3   5   2   18.14    1.08
  -2   5   2    3.59    0.30
  -1   5   2   15.66    0.96
   0   5   2    2.54    0.21
   0  -5  -2    2.27    0.19
   2   5   2   13.05    0.78
  -2  -5  -2   12.04    0.78
   3   5   2    7.45    0.52
  -3  -5  -2    7.36    0.51
  -4  -5  -2    4.20    0.41
  -5  -5  -2   14.25    0.97
  -6  -5  -2    8.89    0.74
   7   5   2    8.86    0.65
  -7  -5  -2    7.66    0.48
  -7  -5  -2    8.77    0.80
  -8  -5  -2    0.79    0.17
 -10  -5  -2    1.82    0.22
 -11  -5  -2    1.66    0.22
  11  -5  -3    0.92    0.21
  11  -5  -3    0.83    0.22
 -10   5   3    0.59    0.19
  10  -5  -3    0.55    0.21
  10  -5  -3    0.61    0.23
  10  -5  -3    0.77    0.22
  -9   5   3    7.21    0.44
   9  -5  -3    7.09    0.49
   9  -5  -3    6.38    0.53
   9  -5  -3    6.21    0.48
   8  -5  -3    2.04    0.25
   8  -5  -3    2.59    0.26
   8  -5  -3    2.05    0.27
  -7   5   3    1.14    0.48
   7  -5  -3    1.30    0.21
   7  -5  -3    1.28    0.21
   7  -5  -3    1.00    0.21
   6  -5  -3    1.77    0.19
  -5   5   3    2.28    0.35
  -4   5   3    8.77    0.64
  -3   5   3    2.98    0.31
  -2   5   3    0.35    0.13
  -2   5   3    0.33    0.11
  -1   5   3    7.41    0.57
   1  -5  -3   10.12    0.57
   0   5   3    2.18    0.24
   0  -5  -3    3.21    0.25
  -2  -5  -3    0.66    0.15
  -3  -5  -3    1.79    0.28
  -4  -5  -3    6.45    0.51
  -5  -5  -3    3.26    0.42
  -6  -5  -3    9.04    0.75
  -6  -5  -3    8.02    0.47
  -7  -5  -3    3.84    0.31
  -7  -5  -3    4.17    0.62
  -8  -5  -3    1.34    0.19
  -9  -5  -3    7.01    0.46
 -10  -5  -3    0.29    0.18
 -11  -5  -3    1.58    0.18
 -11   5   4    2.71    0.23
  11  -5  -4    2.73    0.28
  11  -5  -4    2.55    0.26
 -10   5   4    0.10    0.18
  10  -5  -4    0.04    0.21
  10  -5  -4    0.06    0.20
  10  -5  -4    0.17    0.21
   9  -5  -4    4.74    0.40
   9  -5  -4    4.35    0.43
   9  -5  -4    4.39    0.40
   8  -5  -4    0.17    0.22
   8  -5  -4    0.20    0.22
   8  -5  -4    0.02    0.22
   7  -5  -4    5.53    0.41
   7  -5  -4    4.86    0.43
   7  -5  -4    4.31    0.42
  -6   5   4    3.55    0.58
   6  -5  -4    2.18    0.34
   6  -5  -4    2.40    0.24
   6  -5  -4    2.60    0.35
  -5   5   4    0.87    0.30
  -4   5   4   17.41    1.14
  -3   5   4    6.28    0.50
  -2   5   4    2.87    0.31
   1  -5  -4    7.64    0.56
   0   5   4    2.60    0.29
   0  -5  -4    2.67    0.29
  -1  -5  -4    7.95    0.56
  -2  -5  -4    1.92    0.32
  -3  -5  -4   14.90    0.99
  -4  -5  -4    9.39    0.73
  -5  -5  -4    3.27    0.47
  -6  -5  -4    1.22    0.16
  -6  -5  -4    1.54    0.45
  -7  -5  -4    0.53    0.17
  -7  -5  -4    1.06    0.56
  -8  -5  -4    0.83    0.19
  -9  -5  -4    3.19    0.33
 -10  -5  -4   -0.06    0.16
 -11  -5  -4    2.63    0.23
 -11   5   5    3.69    0.26
  11  -5  -5    3.52    0.28
  11  -5  -5    3.14    0.26
 -10   5   5    0.82    0.19
  10  -5  -5    0.57    0.21
  10  -5  -5    0.25    0.19
  10  -5  -5    0.46    0.19
  -9   5   5    7.32    0.49
   9  -5  -5    8.11    0.54
   9  -5  -5    8.23    0.52
   9  -5  -5    8.39    0.53
   8  -5  -5    0.44    0.23
   8  -5  -5    0.73    0.25
   8  -5  -5    0.55    0.23
   7  -5  -5    8.67    0.62
   7  -5  -5   10.66    0.62
   7  -5  -5    9.89    0.64
  -6   5   5    7.62    0.79
   6  -5  -5    6.13    0.45
   6  -5  -5    6.23    0.49
   6  -5  -5    6.14    0.50
  -5   5   5    5.80    0.65
   5  -5  -5    5.00    0.42
   5  -5  -5    6.04    0.43
  -4   5   5    2.52    0.38
  -3   5   5    2.24    0.39
  -2   5   5    9.92    0.71
  -1   5   5   48.07    2.82
   1  -5  -5   45.75    2.80
   0  -5  -5    5.15    0.47
  -1  -5  -5   39.02    2.35
  -2  -5  -5    3.60    0.46
  -3  -5  -5   13.37    0.96
  -4  -5  -5   12.83    0.96
  -5  -5  -5   11.12    0.61
  -5  -5  -5   11.15    0.92
  -6  -5  -5    2.63    0.30
  -6  -5  -5    1.72    0.55
  -6  -5  -5    2.65    0.29
  -6  -5  -5    2.50    0.31
  -7  -5  -5    2.93    0.31
  -8  -5  -5    0.44    0.20
  -9  -5  -5    2.27    0.28
 -10  -5  -5    0.20    0.16
 -11  -5  -5    1.99    0.19
 -10   5   6    0.43    0.19
  10  -5  -6    0.41    0.21
  10  -5  -6    0.38    0.18
  10  -5  -6    0.18    0.17
  -9   5   6    0.57    0.22
   9  -5  -6    0.64    0.20
   9  -5  -6    0.61    0.21
   9  -5  -6    0.93    0.25
   8  -5  -6    0.58    0.27
   8  -5  -6    0.29    0.22
   8  -5  -6    0.70    0.22
   7  -5  -6    8.20    0.56
   7  -5  -6    8.85    0.58
  -6   5   6    2.32    0.63
   6  -5  -6    2.88    0.35
   6  -5  -6    2.88    0.36
   5  -5  -6    6.26    0.49
   5  -5  -6    7.53    0.50
   4  -5  -6    6.83    0.48
  -3   5   6    5.84    0.63
  -2   5   6    3.09    0.48
   0  -5  -6    5.50    0.58
  -1  -5  -6    1.06    0.34
  -2  -5  -6    0.50    0.35
  -3  -5  -6   14.47    1.07
  -4  -5  -6    4.06    0.33
  -4  -5  -6    4.09    0.33
  -4  -5  -6    3.25    0.42
  -4  -5  -6    3.09    0.57
  -5  -5  -6   16.33    0.90
  -5  -5  -6   16.72    1.28
  -5  -5  -6   16.51    0.87
  -5  -5  -6   15.96    1.01
  -6  -5  -6    0.83    0.20
  -6  -5  -6    1.05    0.25
  -6  -5  -6    1.04    0.27
  -6  -5  -6    0.51    0.68
   7   5   6    3.56    0.50
  -7  -5  -6    2.73    0.34
  -7  -5  -6    3.14    0.45
  -7  -5  -6    2.22    0.36
  -8  -5  -6    0.37    0.20
  -9  -5  -6    0.79    0.20
 -10  -5  -6    0.28    0.16
  10  -5  -7    0.74    0.16
  10  -5  -7    0.59    0.16
   9  -5  -7    1.67    0.22
   9  -5  -7    1.47    0.21
   8  -5  -7    1.92    0.25
   8  -5  -7    1.64    0.25
   7  -5  -7    8.26    0.57
   7  -5  -7    7.84    0.55
   6  -5  -7    3.19    0.41
   6  -5  -7    3.83    0.41
  -5   5   7   14.46    1.35
   5  -5  -7   14.73    0.89
   5  -5  -7   15.26    0.85
  -4   5   7    0.47    0.56
   4  -5  -7    1.80    0.25
   4  -5  -7    1.28    0.28
   3  -5  -7    3.48    0.44
   3  -5  -7    3.37    0.47
  -1  -5  -7    2.71    0.51
  -2  -5  -7    0.33    0.16
  -2  -5  -7    0.49    0.47
  -2  -5  -7    0.47    0.17
  -3  -5  -7   11.93    0.68
  -3  -5  -7   11.60    0.75
  -3  -5  -7   11.41    0.69
  -3  -5  -7   13.28    1.04
  -4  -5  -7    1.19    0.21
  -4  -5  -7    1.25    0.23
  -4  -5  -7    1.77    0.63
  -4  -5  -7    1.11    0.23
  -5  -5  -7   17.12    1.04
  -5  -5  -7   16.91    0.94
  -5  -5  -7   16.77    0.90
  -5  -5  -7   16.21    1.43
  -6  -5  -7    1.73    0.28
  -6  -5  -7    1.67    0.24
  -6  -5  -7    1.62    0.28
   7   5   7    6.29    0.53
  -7  -5  -7    4.23    0.53
  -7  -5  -7    5.21    0.42
  -7  -5  -7    5.45    0.49
   8   5   7    0.59    0.33
  -8  -5  -7    1.17    0.21
  -9  -5  -7    0.42    0.18
 -10  -5  -7    0.51    0.15
   9  -5  -8    1.09    0.19
   9  -5  -8    0.87    0.20
   8  -5  -8    1.67    0.23
   8  -5  -8    1.36    0.23
   7  -5  -8    2.08    0.27
   7  -5  -8    2.28    0.27
   6  -5  -8    1.87    0.28
   6  -5  -8    2.25    0.28
   5  -5  -8    2.23    0.29
   4  -5  -8    3.67    0.53
   4  -5  -8    3.09    0.47
   3  -5  -8    0.50    0.25
   2  -5  -8    0.28    0.22
   1  -5  -8    2.00    0.25
   1  -5  -8    1.93    0.28
   0  -5  -8    4.43    0.39
   0  -5  -8    4.13    0.42
  -1  -5  -8    3.13    0.33
  -1  -5  -8    2.64    0.38
  -2  -5  -8    0.58    0.20
  -2  -5  -8    0.80    0.20
  -3  -5  -8    0.63    0.26
  -3  -5  -8    1.05    0.23
  -3  -5  -8    0.72    0.21
  -3  -5  -8    0.44    0.76
  -4  -5  -8    2.81    0.42
  -4  -5  -8    2.65    0.35
  -4  -5  -8    2.71    0.31
  -5  -5  -8    3.70    0.41
  -5  -5  -8    3.58    0.47
  -5  -5  -8    3.92    0.41
  -6  -5  -8    2.70    0.38
  -6  -5  -8    2.92    0.42
  -6  -5  -8    2.62    0.37
   7   5   8    2.49    0.35
  -7  -5  -8    1.82    0.30
  -7  -5  -8    1.61    0.30
  -7  -5  -8    1.73    0.25
   8   5   8    0.89    0.30
  -8  -5  -8    1.04    0.21
  -9  -5  -8    0.97    0.17
   8  -5  -9    0.67    0.21
   8  -5  -9    0.62    0.20
   7  -5  -9    1.27    0.25
   7  -5  -9    1.34    0.26
   6  -5  -9    0.97    0.27
   5  -5  -9    3.88    0.47
   3  -5  -9    3.57    0.50
   2  -5  -9    1.52    0.27
   1  -5  -9    1.02    0.27
   1  -5  -9    0.99    0.24
   0  -5  -9    1.35    0.24
   0  -5  -9    1.43    0.25
  -1  -5  -9    1.85    0.25
  -2  -5  -9    2.99    0.37
  -2  -5  -9    3.65    0.40
  -3  -5  -9    3.29    0.39
  -3  -5  -9    2.18    0.32
  -3  -5  -9    3.00    0.37
  -4  -5  -9    3.75    0.42
  -4  -5  -9    3.87    0.40
  -4  -5  -9    4.01    0.44
  -5  -5  -9    4.84    0.44
  -5  -5  -9    4.71    0.48
  -5  -5  -9    4.90    0.43
   6   5   9    1.38    0.31
  -6  -5  -9    1.32    0.27
  -6  -5  -9    1.95    0.28
  -6  -5  -9    1.15    0.24
   7   5   9    1.95    0.31
  -7  -5  -9    1.70    0.28
  -7  -5  -9    1.75    0.28
   8   5   9    0.23    0.25
  -8  -5  -9    0.40    0.17
   7  -5 -10    0.54    0.26
   3  -5 -10    3.95    0.49
   2  -5 -10    0.68    0.26
   1  -5 -10    2.85    0.33
   1  -5 -10    2.80    0.40
   0  -5 -10    0.83    0.25
   0  -5 -10    0.81    0.24
  -1  -5 -10    0.92    0.25
  -1  -5 -10    1.38    0.26
  -2  -5 -10    1.46    0.27
  -2  -5 -10    1.13    0.26
  -3  -5 -10    2.89    0.37
  -3  -5 -10    2.72    0.38
  -4  -5 -10    4.47    0.45
  -4  -5 -10    5.16    0.43
  -4  -5 -10    5.13    0.45
  -5  -5 -10    1.83    0.28
  -5  -5 -10    2.82    0.35
  -5  -5 -10    2.51    0.34
   6   5  10    2.53    0.36
  -6  -5 -10    3.17    0.33
  -6  -5 -10    3.34    0.35
  -6  -5 -10    3.26    0.36
   7   5  10    1.28    0.24
  -7  -5 -10    0.98    0.22
  -7  -5 -10    0.44    0.19
  -7  -5 -10    0.68    0.23
   2  -5 -11    0.88    0.26
   1  -5 -11    7.55    0.54
   1  -5 -11    6.95    0.55
   0  -5 -11    2.79    0.38
   0  -5 -11    2.71    0.37
  -1  -5 -11    4.04    0.41
  -1  -5 -11    4.21    0.41
  -2  -5 -11    0.86    0.25
  -2  -5 -11    1.16    0.25
  -3  -5 -11    1.33    0.26
  -3  -5 -11    1.08    0.25
  -4  -5 -11    2.09    0.28
  -4  -5 -11    2.22    0.30
   5   5  11    0.75    0.26
  -5  -5 -11    0.51    0.21
  -5  -5 -11    0.51    0.20
  -5  -5 -11    0.93    0.23
   6   5  11    1.85    0.27
  -6  -5 -11    2.27    0.26
  -6  -5 -11    1.89    0.26
  -6  -5 -11    2.12    0.27
   1  -5 -12    1.17    0.26
   0  -5 -12    0.87    0.26
   0  -5 -12    1.22    0.25
  -1  -5 -12    1.59    0.25
  -1  -5 -12    1.49    0.25
  -2  -5 -12    0.08    0.21
  -2  -5 -12    0.36    0.21
  -3  -5 -12    1.45    0.22
  -3  -5 -12    1.36    0.22
  -4  -5 -12    0.68    0.19
  -4  -5 -12    0.55    0.18
   5   5  12    0.26    0.20
  -5  -5 -12    0.54    0.16
  -5  -5 -12    0.83    0.16
   0  -5 -13    0.52    0.22
  -1  -5 -13    0.36    0.19
  -1  -5 -13    0.19    0.20
  -2  -5 -13    0.27    0.17
  -2  -5 -13    0.36    0.17
  -2   6 -13   -0.10    0.16
  -2   6 -13    0.16    0.15
  -1   6 -13    0.27    0.17
  -1   6 -13    0.33    0.16
   0   6 -13    0.36    0.19
   0   6 -13    0.10    0.17
   1   6 -13    0.03    0.21
  -4   6 -12    0.61    0.18
  -4   6 -12    0.93    0.18
   4  -6  12    0.66    0.30
  -3   6 -12    0.37    0.19
  -3   6 -12    0.15    0.18
  -2   6 -12    0.75    0.19
  -2   6 -12    1.04    0.22
  -1   6 -12    0.25    0.21
  -1   6 -12    0.42    0.20
   0   6 -12    1.21    0.22
   0   6 -12    0.88    0.23
   1   6 -12    0.71    0.22
   1   6 -12    0.20    0.21
   2   6 -12    0.47    0.23
   2   6 -12    0.60    0.22
   3   6 -12    1.21    0.26
  -6   6 -11    0.19    0.15
   6  -6  11    0.41    0.22
  -5   6 -11    0.35    0.21
  -5   6 -11    0.28    0.18
  -4   6 -11    0.88    0.22
  -4   6 -11    0.80    0.21
   4  -6  11    0.40    0.29
  -3   6 -11    1.93    0.25
  -3   6 -11    1.85    0.25
  -3   6 -11    1.63    0.29
   3  -6  11    1.73    0.34
  -2   6 -11    2.40    0.34
  -2   6 -11    2.55    0.31
  -1   6 -11    1.12    0.25
  -1   6 -11    1.22    0.23
   0   6 -11    4.34    0.37
   0   6 -11    3.57    0.36
   1   6 -11    1.36    0.24
   1   6 -11    1.12    0.25
   2   6 -11    1.57    0.26
   2   6 -11    1.43    0.26
   3   6 -11    0.75    0.25
   3   6 -11    0.88    0.27
   4   6 -11    0.41    0.26
  -7   6 -10    1.14    0.18
   7  -6  10    0.67    0.23
  -6   6 -10    0.87    0.20
   6  -6  10    1.66    0.29
  -5   6 -10    5.16    0.43
  -5   6 -10    5.41    0.38
   5  -6  10    4.95    0.46
  -4   6 -10    0.77    0.23
  -4   6 -10    0.45    0.25
  -4   6 -10    0.60    0.24
   4  -6  10    0.94    0.31
  -3   6 -10    7.20    0.48
  -3   6 -10    6.47    0.53
   3  -6  10    6.59    0.56
  -2   6 -10    1.15    0.24
  -2   6 -10    1.03    0.30
  -2   6 -10    0.70    0.23
   2  -6  10    0.93    0.37
  -1   6 -10    1.22    0.26
  -1   6 -10    1.62    0.24
   0   6 -10    0.23    0.22
   0   6 -10   -0.13    0.22
   1   6 -10    0.50    0.24
   1   6 -10    0.87    0.23
   1   6 -10    0.81    0.29
   2   6 -10    0.97    0.28
   2   6 -10    0.68    0.23
   2   6 -10    0.80    0.23
   3   6 -10    1.54    0.26
   3   6 -10    0.99    0.27
   3   6 -10    1.18    0.28
   4   6 -10    2.91    0.35
   4   6 -10    2.90    0.36
   5   6 -10    3.20    0.34
   5   6 -10    3.60    0.38
   6   6 -10    1.20    0.24
   7   6 -10    1.57    0.22
   7   6 -10    1.49    0.24
  -8   6  -9    0.39    0.17
   8  -6   9    0.42    0.24
  -7   6  -9    0.79    0.21
   7  -6   9    1.19    0.28
  -6   6  -9    2.65    0.32
   6  -6   9    2.81    0.38
  -5   6  -9    3.72    0.42
  -5   6  -9    3.52    0.41
  -5   6  -9    3.94    0.35
   5  -6   9    3.98    0.43
  -4   6  -9    1.82    0.30
  -4   6  -9    2.15    0.28
  -4   6  -9    1.58    0.25
   4  -6   9    2.03    0.33
  -3   6  -9    8.69    0.63
  -3   6  -9    8.26    0.55
  -3   6  -9    8.44    0.54
   3  -6   9    9.19    0.65
  -2   6  -9    1.11    0.22
  -2   6  -9    0.84    0.28
  -2   6  -9    0.85    0.22
  -2   6  -9    1.14    0.28
  -1   6  -9    2.64    0.33
  -1   6  -9    2.69    0.32
  -1   6  -9    2.08    0.31
   0   6  -9    1.52    0.27
   0   6  -9    1.19    0.23
   0   6  -9    1.17    0.21
   1   6  -9    2.88    0.33
   1   6  -9    2.52    0.32
   1   6  -9    2.58    0.30
   2   6  -9    2.57    0.30
   2   6  -9    2.65    0.33
   2   6  -9    2.64    0.35
   3   6  -9    0.99    0.25
   3   6  -9    1.64    0.26
   3   6  -9    0.90    0.26
   4   6  -9    4.04    0.42
   4   6  -9    4.46    0.40
   5   6  -9    1.68    0.29
   5   6  -9    1.44    0.25
   5   6  -9    1.29    0.26
   6   6  -9    0.98    0.29
   6   6  -9    1.33    0.25
   6   6  -9    1.34    0.24
   7   6  -9    1.82    0.24
   7   6  -9    1.95    0.24
   8   6  -9    0.34    0.18
   8   6  -9    0.16    0.17
  -9   6  -8    1.59    0.23
   9  -6   8    2.06    0.27
  -8   6  -8    0.39    0.20
   8  -6   8    0.69    0.25
  -7   6  -8    0.86    0.27
  -7   6  -8    0.75    0.22
   7  -6   8    0.42    0.28
  -6   6  -8    1.37    0.29
  -6   6  -8    1.85    0.25
  -5   6  -8    1.31    0.23
  -5   6  -8    1.69    0.31
  -5   6  -8    1.24    0.28
  -5   6  -8    1.55    0.29
   5  -6   8    1.40    0.30
  -4   6  -8    6.23    0.43
  -4   6  -8    5.48    0.50
  -4   6  -8    5.75    0.48
  -4   6  -8    5.74    0.48
  -3   6  -8    0.93    0.21
  -3   6  -8    0.80    0.26
  -3   6  -8    0.99    0.65
  -3   6  -8    1.08    0.25
  -3   6  -8    0.76    0.22
   3  -6   8    0.95    0.28
  -2   6  -8    0.44    0.24
  -2   6  -8    0.42    0.25
  -2   6  -8    0.13    0.19
  -2   6  -8    0.19    0.18
  -2   6  -8    0.00    0.60
  -1   6  -8    6.69    0.82
  -1   6  -8    6.50    0.48
  -1   6  -8    6.38    0.43
  -1   6  -8    6.34    0.43
   0   6  -8    0.75    0.55
   0   6  -8    0.74    0.18
   0   6  -8    1.28    0.21
   0   6  -8    0.71    0.23
   1   6  -8    5.22    0.39
   1   6  -8    4.95    0.83
   1   6  -8    5.47    0.39
   1   6  -8    5.88    0.42
   2   6  -8    0.50    0.21
   2   6  -8    0.42    0.21
   2   6  -8    1.40    0.63
   2   6  -8    0.46    0.22
  -2  -6   8   -0.22    0.58
   3   6  -8    2.01    0.27
   3   6  -8    2.28    0.32
   3   6  -8    2.09    0.70
   3   6  -8    1.86    0.25
  -3  -6   8    0.74    0.61
   4   6  -8    4.26    0.44
   4   6  -8    4.56    0.40
   4   6  -8    4.57    0.39
   5   6  -8    0.58    0.23
   5   6  -8    1.15    0.24
   5   6  -8    0.68    0.27
   6   6  -8    2.50    0.35
   6   6  -8    2.38    0.32
   6   6  -8    2.80    0.28
   7   6  -8    0.41    0.23
   7   6  -8    0.39    0.29
   7   6  -8    0.15    0.25
   7   6  -8    0.46    0.21
   8   6  -8    0.45    0.19
   8   6  -8    0.48    0.21
   8   6  -8    0.41    0.26
   9   6  -8    2.46    0.24
   9   6  -8    2.12    0.23
   9   6  -8    2.54    0.31
  10  -6   7    0.48    0.21
  -9   6  -7    1.63    0.23
  -9   6  -7    1.55    0.24
   9  -6   7    1.24    0.27
  -8   6  -7    0.71    0.24
  -8   6  -7    0.81    0.22
  -7   6  -7    2.45    0.29
  -7   6  -7    2.39    0.33
   7  -6   7    2.11    0.33
  -6   6  -7    2.41    0.34
  -6   6  -7    1.81    0.28
  -5   6  -7    1.13    0.25
  -5   6  -7    1.36    0.21
  -4   6  -7    5.87    0.46
  -4   6  -7    6.20    0.48
  -4   6  -7    6.23    0.84
  -4   6  -7    5.92    0.42
  -4   6  -7    5.51    0.48
   4  -6   7    4.82    0.49
  -3   6  -7    5.42    0.39
  -3   6  -7    5.22    0.73
  -3   6  -7    5.65    0.47
  -3   6  -7    5.42    0.43
  -3   6  -7    5.47    0.41
   3  -6   7    5.82    0.50
  -2   6  -7    0.60    0.45
  -2   6  -7    0.42    0.17
  -2   6  -7    0.35    0.17
  -1   6  -7    6.96    0.75
   0   6  -7    0.25    0.40
   1   6  -7    2.52    0.51
   2   6  -7    2.57    0.30
   2   6  -7    2.85    0.52
   2   6  -7    2.43    0.31
   2   6  -7    3.34    0.57
   2   6  -7    2.54    0.33
  -2  -6   7    2.93    0.55
   3   6  -7   13.69    1.08
   3   6  -7   11.04    0.73
   3   6  -7   11.35    0.71
   3   6  -7   11.55    0.67
   3   6  -7   13.03    1.07
   3   6  -7   12.59    0.67
   4   6  -7    4.10    0.40
   4   6  -7    3.68    0.67
   4   6  -7    4.01    0.38
   4   6  -7    4.24    0.37
  -4  -6   7    6.05    0.83
   5   6  -7    3.98    0.41
   5   6  -7    3.18    0.73
   5   6  -7    3.90    0.43
   5   6  -7    4.35    0.39
  -5  -6   7    2.38    0.78
   6   6  -7    5.32    0.43
   6   6  -7    5.25    0.54
   6   6  -7    5.30    0.48
   6   6  -7    5.95    0.43
   7   6  -7    0.47    0.21
   7   6  -7    0.73    0.27
   7   6  -7    0.68    0.26
   7   6  -7    0.36    0.23
   8   6  -7    2.61    0.38
   8   6  -7    2.48    0.32
   8   6  -7    2.76    0.33
   8   6  -7    2.67    0.40
   9   6  -7    1.60    0.22
   9   6  -7    1.74    0.26
   9   6  -7    2.11    0.26
  10   6  -7    0.10    0.14
  10   6  -7    0.26    0.16
  10   6  -7   -0.05    0.14
 -10   6  -6    0.30    0.19
  10  -6   6    0.60    0.24
  -9   6  -6    0.69    0.23
  -9   6  -6    0.55    0.22
  -8   6  -6    0.47    0.22
  -8   6  -6    0.11    0.23
   8  -6   6    0.79    0.27
  -7   6  -6    7.45    0.52
  -7   6  -6    7.54    0.52
   7  -6   6    8.39    0.60
  -6   6  -6    2.25    0.27
  -6   6  -6    2.34    0.32
  -5   6  -6    6.69    0.48
  -5   6  -6    5.89    0.43
  -5   6  -6    5.56    0.41
  -5   6  -6    5.48    0.81
  -4   6  -6    5.44    0.37
  -4   6  -6    5.51    0.69
  -4   6  -6    5.74    0.40
  -4   6  -6    5.13    0.46
  -3   6  -6    3.39    0.57
  -2   6  -6    1.93    0.38
  -1   6  -6   12.43    0.93
   0   6  -6    2.61    0.38
   0   6  -6    2.65    0.40
   1   6  -6    1.57    0.35
   1   6  -6    1.53    0.40
   2   6  -6    0.34    0.39
   2   6  -6    0.42    0.33
  -2  -6   6    0.59    0.37
   3   6  -6   15.97    1.20
   3   6  -6   15.05    1.18
  -3  -6   6   17.72    1.19
   4   6  -6    1.31    0.45
   4   6  -6    1.70    0.21
   4   6  -6    1.49    0.20
   4   6  -6    1.79    0.23
  -4  -6   6    2.63    0.52
   5   6  -6   11.64    0.70
   5   6  -6   12.69    0.78
   5   6  -6   10.97    1.06
   5   6  -6   11.62    0.69
   5   6  -6   12.45    0.67
  -5  -6   6   12.42    1.11
   6   6  -6    3.88    0.44
   6   6  -6    4.02    0.37
   6   6  -6    3.42    0.46
   6   6  -6    4.56    0.38
   7   6  -6    1.46    0.26
   7   6  -6    1.91    0.26
   7   6  -6    1.16    0.22
   7   6  -6    1.73    0.27
   8   6  -6    1.08    0.22
   8   6  -6    0.68    0.23
   8   6  -6    0.88    0.25
   8   6  -6    1.15    0.26
   9   6  -6    3.08    0.31
   9   6  -6    3.12    0.36
   9   6  -6    2.98    0.31
  -9  -6   6    2.47    0.34
  10   6  -6    0.24    0.16
  10   6  -6    0.44    0.19
  10   6  -6    0.47    0.18
 -10   6  -5    0.78    0.19
  10  -6   5    0.19    0.26
  -9   6  -5    7.10    0.48
  -9   6  -5    6.89    0.45
   9  -6   5    6.48    0.54
  -8   6  -5    0.03    0.24
  -8   6  -5    0.13    0.21
   8  -6   5   -0.09    0.27
  -7   6  -5   18.25    0.92
  -7   6  -5   17.54    0.94
   7  -6   5   16.77    1.06
  -6   6  -5    1.55    0.23
  -6   6  -5    1.47    0.21
  -6   6  -5    2.22    0.60
   6  -6   5    1.80    0.26
  -5   6  -5   10.62    0.69
  -5   6  -5    9.28    0.62
  -5   6  -5   10.65    0.60
  -5   6  -5   12.22    0.95
   5  -6   5   11.62    0.69
  -4   6  -5    1.36    0.41
  -3   6  -5    3.37    0.49
  -2   6  -5    8.43    0.68
  -1   6  -5   11.44    0.80
  -1   6  -5   10.54    0.77
   0   6  -5   21.85    1.40
   0   6  -5   22.48    1.41
   1   6  -5    9.11    0.71
   1   6  -5    9.25    0.73
   2   6  -5    1.60    0.35
   2   6  -5    1.62    0.31
  -2  -6   5    1.20    0.34
   3   6  -5   21.06    1.47
   3   6  -5   22.32    1.46
  -3  -6   5   23.38    1.45
   4   6  -5    3.07    0.47
  -4  -6   5    2.78    0.46
   5   6  -5   17.30    1.01
   5   6  -5   16.69    0.93
   5   6  -5   17.50    0.90
   5   6  -5   18.53    1.29
   5   6  -5   16.47    0.93
  -5  -6   5   18.88    1.28
   6   6  -5    0.42    0.50
   6   6  -5    0.86    0.19
   6   6  -5    1.11    0.24
   6   6  -5    0.74    0.19
   6   6  -5    0.77    0.22
  -6  -6   5    0.40    0.54
   7   6  -5    8.43    0.56
   7   6  -5    9.44    0.57
   7   6  -5    8.34    0.59
   7   6  -5    9.84    0.61
   8   6  -5    2.69    0.41
   8   6  -5    2.98    0.38
   8   6  -5    3.68    0.38
   8   6  -5    3.35    0.40
   9   6  -5    1.91    0.28
   9   6  -5    1.90    0.28
   9   6  -5    2.71    0.32
   9   6  -5    2.36    0.32
  -9  -6   5    2.67    0.33
  10   6  -5    0.62    0.19
  10   6  -5    0.57    0.20
  10   6  -5    0.95    0.21
  11   6  -5    0.54    0.16
  11   6  -5    0.92    0.18
  11   6  -5    0.52    0.15
 -11   6  -4    0.57    0.15
 -10   6  -4    0.17    0.18
  10  -6   4    0.59    0.27
  -9   6  -4    1.78    0.23
  -8   6  -4    0.05    0.24
  -8   6  -4   -0.04    0.19
   8  -6   4    0.67    0.27
  -7   6  -4   12.97    1.33
  -7   6  -4   13.79    0.77
  -7   6  -4   14.12    0.73
  -6   6  -4    2.36    0.33
  -6   6  -4    1.91    0.53
  -6   6  -4    2.10    0.26
   6  -6   4    2.57    0.27
  -5   6  -4   18.69    1.27
  -4   6  -4    2.12    0.35
  -3   6  -4    6.90    0.59
  -3   6  -4    6.51    0.57
  -2   6  -4    0.61    0.24
  -2   6  -4    0.67    0.22
  -1   6  -4    5.64    0.45
  -1   6  -4    5.79    0.47
   0   6  -4    0.11    0.17
   0   6  -4   -0.04    0.17
   1   6  -4    6.42    0.51
   1   6  -4    6.88    0.55
   2   6  -4    0.71    0.22
   2   6  -4    0.89    0.27
  -2  -6   4    0.38    0.23
   3   6  -4   20.68    1.32
   3   6  -4   20.02    1.33
   4   6  -4    1.85    0.34
  -4  -6   4    2.86    0.46
   5   6  -4   15.94    1.18
  -5  -6   4   16.92    1.17
   6   6  -4    0.74    0.18
   6   6  -4    0.51    0.20
   6   6  -4    0.42    0.42
   6   6  -4    0.88    0.19
   6   6  -4    0.72    0.21
  -6  -6   4    0.87    0.45
   7   6  -4   11.81    1.16
   7   6  -4   11.03    0.66
   7   6  -4   11.82    0.71
   7   6  -4   11.17    0.67
   7   6  -4   10.79    0.68
  -7  -6   4   12.81    1.17
   8   6  -4    1.13    0.23
   8   6  -4    0.97    0.24
   8   6  -4    0.79    0.23
   8   6  -4    0.74    0.23
  -8  -6   4    0.95    0.23
   9   6  -4    1.25    0.25
   9   6  -4    0.54    0.23
   9   6  -4    1.17    0.24
   9   6  -4    1.03    0.24
  10   6  -4    0.67    0.22
  10   6  -4    0.56    0.21
  10   6  -4    0.63    0.22
 -10  -6   4    0.66    0.22
  11   6  -4    0.25    0.17
  11   6  -4    0.48    0.22
  11   6  -4    0.30    0.17
 -11  -6   4    0.28    0.14
 -11   6  -3    0.03    0.15
 -10   6  -3    0.02    0.17
  10  -6   3    0.28    0.27
  -9   6  -3    0.57    0.19
   9  -6   3    0.36    0.28
  -8   6  -3    0.54    0.18
   8  -6   3    0.99    0.27
   7  -6   3    1.71    0.26
  -6   6  -3    1.55    0.45
  -6   6  -3    1.50    0.22
   6  -6   3    1.53    0.23
  -5   6  -3    3.94    0.54
  -4   6  -3    7.77    0.61
  -4   6  -3    7.33    0.62
  -3   6  -3    7.97    0.60
  -3   6  -3    8.70    0.62
  -2   6  -3    0.92    0.18
  -2   6  -3    0.85    0.19
  -1   6  -3    1.67    0.26
  -1   6  -3    1.68    0.27
   0   6  -3    0.65    0.15
   0   6  -3    0.86    0.19
   1   6  -3    6.57    0.49
   1   6  -3    5.89    0.46
   2   6  -3    1.32    0.22
   2   6  -3    1.29    0.23
  -2  -6   3    0.74    0.21
   3   6  -3    1.69    0.26
   4   6  -3    0.98    0.27
  -4  -6   3    1.71    0.29
   6   6  -3    3.73    0.33
   6   6  -3    3.76    0.34
   6   6  -3    3.00    0.35
   6   6  -3    3.10    0.51
   6   6  -3    3.07    0.34
  -6  -6   3    3.76    0.60
   7   6  -3   12.27    0.68
   7   6  -3   12.20    0.70
   7   6  -3   11.45    1.16
   7   6  -3   12.00    0.73
   7   6  -3   11.44    0.68
  -7  -6   3   11.84    1.08
   8   6  -3    2.07    0.25
   8   6  -3    1.64    0.25
   8   6  -3    1.82    0.24
   8   6  -3    2.06    0.26
  -8  -6   3    2.18    0.24
   9   6  -3    1.21    0.24
   9   6  -3    1.13    0.24
   9   6  -3    1.24    0.25
   9   6  -3    0.89    0.24
  -9  -6   3    0.79    0.21
  10   6  -3    0.48    0.21
  10   6  -3    0.44    0.24
  10   6  -3    0.52    0.22
 -10  -6   3    0.29    0.20
  11   6  -3    0.06    0.18
  11   6  -3    0.08    0.18
 -11  -6   3   -0.10    0.21
 -11  -6   3    0.42    0.15
 -11   6  -2    0.62    0.16
 -10   6  -2    0.23    0.18
  10  -6   2    0.05    0.27
  -9   6  -2    3.17    0.31
   9  -6   2    3.17    0.36
  -8   6  -2    0.68    0.17
   8  -6   2    0.90    0.27
  -7   6  -2    1.46    0.17
  -6   6  -2    1.88    0.42
  -6   6  -2    1.83    0.39
  -5   6  -2   22.14    1.41
  -5   6  -2   22.07    1.42
  -4   6  -2    1.14    0.22
  -4   6  -2    1.25    0.23
  -3   6  -2   28.71    1.76
  -3   6  -2   29.16    1.75
  -2   6  -2    5.45    0.43
  -2   6  -2    5.80    0.42
  -1   6  -2    2.51    0.26
  -1   6  -2    2.64    0.25
   0   6  -2   22.97    1.39
   0   6  -2   22.59    1.38
   1   6  -2   12.09    0.77
   1   6  -2   11.72    0.76
   2   6  -2    0.22    0.15
   2   6  -2    0.14    0.14
  -2  -6   2    0.26    0.13
   3   6  -2    8.05    0.57
  -3  -6   2    7.40    0.54
   4   6  -2    9.87    0.77
  -4  -6   2   11.12    0.75
   5   6  -2   17.14    1.29
  -5  -6   2   21.37    1.27
   6   6  -2    3.19    0.49
  -6  -6   2    2.98    0.46
   7   6  -2   16.44    0.89
   7   6  -2   17.15    1.34
   7   6  -2   15.80    0.86
   7   6  -2   16.50    0.94
   7   6  -2   16.20    0.86
  -7  -6   2   16.05    1.24
  -7  -6   2   15.56    0.86
   8   6  -2    5.99    0.44
   8   6  -2    5.53    0.46
   8   6  -2    5.26    0.43
   8   6  -2    5.25    0.47
  -8  -6   2    5.21    0.42
   9   6  -2    1.77    0.27
   9   6  -2    1.79    0.27
   9   6  -2    1.66    0.29
  10   6  -2    1.18    0.24
  10   6  -2    0.70    0.23
  10   6  -2    0.48    0.28
 -10  -6   2    0.86    0.20
  11   6  -2    0.89    0.22
  11   6  -2    1.18    0.21
 -11  -6   2    1.16    0.20
 -11  -6   2    1.05    0.19
 -11   6  -1    1.95    0.22
 -10   6  -1   -0.03    0.17
  -9   6  -1    2.57    0.28
   9  -6   1    1.61    0.31
  -8   6  -1    3.46    0.30
   8  -6   1    3.43    0.35
  -7   6  -1    0.77    0.47
  -7   6  -1    0.90    0.15
   7  -6   1    0.97    0.24
   7  -6   1    0.75    0.18
  -6   6  -1    0.49    0.31
  -5   6  -1   16.79    1.10
  -5   6  -1   16.39    1.09
  -4   6  -1   12.38    0.83
  -4   6  -1   12.58    0.82
  -3   6  -1    7.44    0.49
  -3   6  -1    6.64    0.50
  -2   6  -1    4.24    0.34
  -2   6  -1    4.44    0.34
  -1   6  -1    5.81    0.40
  -1   6  -1    5.85    0.41
   0   6  -1   28.41    1.74
   0   6  -1   29.29    1.72
   1   6  -1   30.62    1.86
   1   6  -1   31.74    1.88
   2   6  -1   10.11    0.68
  -2  -6   1   10.81    0.67
   3   6  -1    7.60    0.55
   4   6  -1   32.15    2.03
  -4  -6   1   33.89    2.00
   5   6  -1    6.80    0.60
  -5  -6   1    5.74    0.52
   6   6  -1    0.69    0.37
  -6  -6   1    0.92    0.34
   7   6  -1    9.48    0.59
   7   6  -1   10.23    0.64
   7   6  -1   10.50    0.65
   7   6  -1   10.48    1.05
   7   6  -1   10.20    0.60
  -7  -6   1   10.49    0.91
  -7  -6   1   10.69    0.58
   8   6  -1    1.15    0.22
   8   6  -1    1.04    0.25
   8   6  -1    1.22    0.28
   8   6  -1    0.97    0.22
  -8  -6   1    0.71    0.18
   9   6  -1    1.43    0.26
   9   6  -1    1.63    0.27
  -9  -6   1    1.34    0.21
  10   6  -1    0.40    0.24
  10   6  -1    0.77    0.24
 -10  -6   1    0.22    0.19
 -10  -6   1    0.39    0.20
  11   6  -1    3.46    0.34
  11   6  -1    3.51    0.38
 -11  -6   1    5.04    0.31
 -11  -6   1    4.52    0.32
 -11   6   0   11.21    0.59
 -10   6   0    1.19    0.20
   9  -6   0   23.41    1.40
   9  -6   0   24.01    1.26
  -8   6   0    2.13    0.68
  -8   6   0    1.75    0.19
   8  -6   0    1.71    0.22
   8  -6   0    1.87    0.26
   8  -6   0    1.76    0.28
  -7   6   0    8.13    0.84
  -7   6   0    7.97    0.46
   7  -6   0    8.08    0.54
   7  -6   0    7.95    0.63
   7  -6   0    8.53    0.49
  -6   6   0    1.78    0.35
  -5   6   0    0.95    0.24
  -5   6   0    1.02    0.26
  -4   6   0   12.85    0.79
  -4   6   0   11.55    0.81
  -3   6   0   12.69    0.84
  -3   6   0   13.56    0.81
  -2   6   0  112.13    6.73
  -2   6   0  115.84    6.64
  -1   6   0  852.40   49.28
  -1   6   0  844.00   49.87
   0   6   0  157.78    9.21
   0   6   0  148.79    9.10
   0  -6   0  162.37    9.10
   1   6   0 1000.00   57.79
  -1  -6   0  964.69   57.14
   2   6   0  117.05    6.87
  -2  -6   0  115.68    6.79
   3   6   0   13.62    0.87
  -3  -6   0   13.23    0.85
   4   6   0   13.43    0.90
  -4  -6   0   13.22    0.87
   5   6   0    1.21    0.29
  -5  -6   0    1.46    0.27
   6   6   0    1.54    0.40
  -6  -6   0    1.52    0.33
   7   6   0    8.42    0.50
   7   6   0    7.35    0.52
   7   6   0    7.36    0.55
  -7  -6   0    8.32    0.47
  -7  -6   0    8.52    0.78
   8   6   0    2.14    0.28
   8   6   0    2.07    0.28
  -8  -6   0    1.98    0.29
   9   6   0   23.04    1.34
   9   6   0   24.04    1.23
  -9  -6   0   24.40    1.22
  10   6   0    0.91    0.25
  10   6   0    0.96    0.27
 -10  -6   0    1.09    0.22
 -10  -6   0    1.23    0.20
  11   6   0   10.61    0.61
  11   6   0    9.45    0.67
 -11  -6   0   11.13    0.58
 -11  -6   0   11.76    0.59
 -11   6   1    3.71    0.28
 -10   6   1    0.23    0.18
  10  -6  -1    0.32    0.25
  -9   6   1    1.45    0.21
   9  -6  -1    1.65    0.26
   9  -6  -1    1.46    0.31
   9  -6  -1    2.07    0.25
  -8   6   1    0.75    0.17
  -8   6   1    0.53    0.61
   8  -6  -1    0.81    0.20
   8  -6  -1    0.96    0.27
   8  -6  -1    0.79    0.29
   8  -6  -1    0.87    0.20
  -7   6   1   10.27    0.90
  -7   6   1    9.98    0.55
   7  -6  -1   10.50    0.69
   7  -6  -1   10.33    0.60
   7  -6  -1   10.57    0.72
   7  -6  -1    9.73    0.57
  -6   6   1    1.30    0.34
  -5   6   1    7.12    0.59
  -4   6   1   30.41    1.86
  -3   6   1    7.20    0.50
  -3   6   1    6.83    0.46
  -2   6   1    9.63    0.63
  -1   6   1   31.48    1.89
   0   6   1   28.85    1.81
   0  -6  -1   31.55    1.77
   1   6   1    5.73    0.41
  -1  -6  -1    6.03    0.39
   2   6   1    4.10    0.33
  -2  -6  -1    4.04    0.32
  -3  -6  -1    3.82    0.32
   4   6   1   12.45    0.83
  -4  -6  -1   11.98    0.82
  -5  -6  -1    9.78    0.73
  -6  -6  -1    0.59    0.32
   7   6   1    0.69    0.26
   7   6   1    0.91    0.23
  -7  -6  -1    0.79    0.16
  -7  -6  -1    0.84    0.42
   8   6   1    2.81    0.33
   8   6   1    3.30    0.42
  -8  -6  -1    3.27    0.33
   9   6   1    1.99    0.31
   9   6   1    2.37    0.30
  -9  -6  -1    1.63    0.22
  -9  -6  -1    1.82    0.26
  10   6   1    0.09    0.25
  10   6   1    0.27    0.28
 -10  -6  -1   -0.14    0.17
 -10  -6  -1   -0.22    0.20
 -11  -6  -1    1.70    0.24
 -11   6   2    0.90    0.17
  11  -6  -2    1.13    0.22
 -10   6   2    0.68    0.19
  10  -6  -2    0.49    0.25
  10  -6  -2    0.81    0.24
   9  -6  -2    0.42    0.26
   9  -6  -2    0.42    0.23
   9  -6  -2    0.34    0.21
  -8   6   2    5.21    0.37
   8  -6  -2    5.43    0.43
   8  -6  -2    5.17    0.48
   8  -6  -2    5.19    0.62
   8  -6  -2    5.01    0.41
  -7   6   2   16.24    0.82
  -7   6   2   17.51    1.22
   7  -6  -2   15.39    1.03
   7  -6  -2   15.45    0.84
   7  -6  -2   15.90    0.93
   7  -6  -2   15.82    0.87
  -6   6   2    3.57    0.54
  -5   6   2   18.15    1.20
  -4   6   2    8.84    0.64
  -3   6   2    8.06    0.57
  -2   6   2    0.15    0.11
  -1   6   2   11.73    0.74
   0   6   2   22.34    1.37
   0  -6  -2   22.92    1.34
   2   6   2    5.28    0.40
  -2  -6  -2    5.54    0.40
   3   6   2   28.37    1.81
  -3  -6  -2   31.75    1.81
  -4  -6  -2    0.81    0.20
  -5  -6  -2   22.74    1.45
  -6  -6  -2    2.35    0.40
  -7  -6  -2    2.81    0.29
  -7  -6  -2    3.71    0.55
   8   6   2    0.55    0.30
  -8  -6  -2    0.86    0.18
  -9  -6  -2    3.16    0.31
 -10  -6  -2   -0.05    0.17
 -11  -6  -2    0.83    0.16
 -11   6   3    0.26    0.16
  11  -6  -3    0.19    0.21
  11  -6  -3    0.30    0.19
 -10   6   3    0.35    0.19
  10  -6  -3    0.27    0.22
  10  -6  -3    0.20    0.21
  10  -6  -3   -0.03    0.22
  -9   6   3    0.66    0.20
   9  -6  -3    0.67    0.22
   9  -6  -3    0.74    0.23
   9  -6  -3    0.90    0.25
  -8   6   3    2.10    0.23
   8  -6  -3    1.65    0.24
   8  -6  -3    1.76    0.27
   8  -6  -3    1.99    0.25
  -7   6   3   11.89    1.11
   7  -6  -3   13.86    0.91
   7  -6  -3   13.69    0.79
   7  -6  -3   12.93    0.76
   7  -6  -3   12.95    0.73
  -6   6   3    3.97    0.57
   6  -6  -3    2.91    0.32
   6  -6  -3    3.06    0.35
  -5   6   3    0.82    0.31
  -4   6   3    1.24    0.25
  -3   6   3    1.88    0.25
  -2   6   3    1.09    0.18
  -1   6   3    5.89    0.43
   1  -6  -3    5.77    0.40
   0   6   3    0.82    0.14
   0  -6  -3    0.84    0.14
  -2  -6  -3    0.53    0.16
  -3  -6  -3    1.61    0.24
  -4  -6  -3    7.60    0.60
  -5  -6  -3    0.41    0.26
  -6  -6  -3    1.60    0.23
  -6  -6  -3    1.40    0.40
  -7  -6  -3    2.28    0.28
  -7  -6  -3    2.62    0.57
  -8  -6  -3    1.06    0.19
  -9  -6  -3    0.51    0.19
 -10  -6  -3    0.06    0.18
 -11  -6  -3    0.31    0.15
 -11   6   4    0.06    0.15
  11  -6  -4    0.15    0.17
  11  -6  -4    0.28    0.18
 -10   6   4    0.71    0.19
  10  -6  -4    0.28    0.21
  10  -6  -4    0.25    0.21
  10  -6  -4    0.28    0.20
   9  -6  -4    1.34    0.26
   9  -6  -4    1.97    0.25
   9  -6  -4    1.83    0.26
  -8   6   4    1.00    0.21
   8  -6  -4    0.83    0.22
   8  -6  -4    1.01    0.24
   8  -6  -4    0.59    0.23
  -7   6   4   11.08    1.15
   7  -6  -4   14.56    0.80
   7  -6  -4   13.20    0.75
   7  -6  -4   12.86    0.75
  -6   6   4    0.86    0.43
   6  -6  -4    0.43    0.17
   6  -6  -4    0.57    0.17
   6  -6  -4    0.11    0.22
   6  -6  -4    0.15    0.28
  -5   6   4   15.69    1.11
  -4   6   4    2.70    0.42
  -3   6   4   19.65    1.25
  -2   6   4    0.82    0.20
  -1   6   4    5.94    0.46
   0   6   4    0.06    0.15
   0  -6  -4    0.17    0.17
  -1  -6  -4    4.67    0.41
  -2  -6  -4    1.89    0.26
  -3  -6  -4    9.16    0.69
  -4  -6  -4    1.16    0.30
  -5  -6  -4   17.55    1.22
  -6  -6  -4    2.67    0.28
  -6  -6  -4    2.50    0.27
  -6  -6  -4    3.02    0.53
  -7  -6  -4   10.21    0.58
  -7  -6  -4    9.89    1.03
  -8  -6  -4    0.42    0.18
  -9  -6  -4    0.37    0.19
 -10  -6  -4    0.18    0.17
 -11  -6  -4    0.08    0.13
  11  -6  -5    1.10    0.18
  11  -6  -5    1.35    0.17
 -10   6   5    0.71    0.20
  10  -6  -5    1.40    0.21
  10  -6  -5    1.19    0.21
  10  -6  -5    1.31    0.22
  -9   6   5    2.54    0.31
   9  -6  -5    2.26    0.34
   9  -6  -5    3.12    0.34
   9  -6  -5    2.16    0.28
  -8   6   5    3.09    0.36
   8  -6  -5    4.33    0.41
   8  -6  -5    4.17    0.41
   8  -6  -5    4.41    0.42
   7  -6  -5    8.44    0.57
   7  -6  -5    8.06    0.57
   7  -6  -5    9.19    0.58
  -6   6   5    0.55    0.50
   6  -6  -5    0.45    0.19
   6  -6  -5    0.41    0.19
  -5   6   5   17.53    1.25
   5  -6  -5   17.37    1.10
   5  -6  -5   17.25    0.94
   5  -6  -5   17.56    0.98
  -4   6   5    2.48    0.40
  -3   6   5   21.40    1.38
  -2   6   5    1.47    0.28
  -1   6   5   10.62    0.75
   0  -6  -5   24.31    1.50
  -1  -6  -5   12.28    0.84
  -2  -6  -5   12.64    0.90
  -3  -6  -5    3.95    0.55
  -4  -6  -5    0.67    0.37
  -5  -6  -5   12.73    0.97
  -5  -6  -5   11.32    0.68
  -5  -6  -5   10.99    0.63
  -6  -6  -5    1.83    0.26
  -6  -6  -5    2.01    0.32
  -6  -6  -5    2.11    0.58
  -6  -6  -5    2.02    0.22
  -7  -6  -5   17.13    0.91
  -8  -6  -5    0.23    0.19
  -9  -6  -5    6.58    0.43
 -10  -6  -5    0.42    0.16
 -11  -6  -5    1.67    0.18
  10  -6  -6    0.20    0.17
  10  -6  -6    0.16    0.17
   9  -6  -6    2.61    0.33
   9  -6  -6    2.92    0.31
   8  -6  -6    0.75    0.23
   8  -6  -6    0.69    0.22
   7  -6  -6    1.68    0.24
   7  -6  -6    1.02    0.24
   6  -6  -6    2.31    0.34
   6  -6  -6    2.11    0.26
  -5   6   6   12.57    1.06
   5  -6  -6   12.49    0.72
   5  -6  -6   11.47    0.83
   5  -6  -6   11.32    0.71
  -4   6   6    1.26    0.47
   4  -6  -6    2.14    0.32
   4  -6  -6    2.37    0.28
   4  -6  -6    2.42    0.28
  -3   6   6   15.66    1.13
  -2   6   6    0.61    0.33
  -1  -6  -6    7.87    0.70
  -2  -6  -6    1.44    0.40
  -3  -6  -6    1.87    0.48
  -4  -6  -6    2.72    0.42
  -4  -6  -6    3.27    0.31
  -4  -6  -6    3.73    0.35
  -4  -6  -6    2.91    0.56
  -5  -6  -6    7.33    0.88
  -5  -6  -6    6.56    0.45
  -5  -6  -6    6.92    0.60
  -5  -6  -6    7.30    0.50
  -6  -6  -6    3.77    0.42
  -6  -6  -6    4.29    0.35
  -6  -6  -6    3.55    0.51
   7   6   6    7.55    0.69
  -7  -6  -6    9.10    0.62
  -7  -6  -6    8.62    0.71
  -7  -6  -6    9.42    0.53
  -8  -6  -6    0.76    0.20
  -9  -6  -6    1.59    0.21
 -10  -6  -6    0.25    0.15
  10  -6  -7    0.09    0.14
  10  -6  -7    0.26    0.15
   9  -6  -7    1.84    0.28
   9  -6  -7    1.90    0.23
   8  -6  -7    1.69    0.24
   8  -6  -7    1.51    0.24
   7  -6  -7    0.85    0.24
   7  -6  -7    1.22    0.24
   6  -6  -7    3.38    0.40
   6  -6  -7    3.02    0.30
  -5   6   7    4.66    0.81
   5  -6  -7    3.98    0.55
   5  -6  -7    2.82    0.43
   5  -6  -7    4.43    0.44
   4  -6  -7    6.34    0.52
   4  -6  -7    6.79    0.59
   3  -6  -7    7.08    0.55
   3  -6  -7    6.49    0.56
   2  -6  -7    2.77    0.42
  -2  -6  -7    0.70    0.17
  -2  -6  -7    0.63    0.52
  -2  -6  -7    0.44    0.17
  -3  -6  -7    7.03    0.53
  -3  -6  -7    6.49    0.89
  -3  -6  -7    7.12    0.46
  -3  -6  -7    6.79    0.53
  -4  -6  -7    4.34    0.44
  -4  -6  -7    4.63    0.38
  -4  -6  -7    3.89    0.76
  -4  -6  -7    4.97    0.43
  -5  -6  -7    2.07    0.29
  -5  -6  -7    1.69    0.25
  -5  -6  -7    1.40    0.80
  -5  -6  -7    1.85    0.26
  -6  -6  -7    3.75    0.37
  -6  -6  -7    3.78    0.50
  -6  -6  -7    4.31    0.43
  -7  -6  -7    2.08    0.25
  -7  -6  -7    1.73    0.30
  -7  -6  -7    1.63    0.33
  -8  -6  -7    2.03    0.24
  -9  -6  -7    1.11    0.19
 -10  -6  -7    0.47    0.14
   9  -6  -8    2.28    0.26
   9  -6  -8    2.71    0.27
   8  -6  -8    0.75    0.21
   8  -6  -8    0.80    0.22
   7  -6  -8    0.55    0.24
   7  -6  -8    1.20    0.23
   6  -6  -8    1.25    0.26
   6  -6  -8    0.85    0.24
   5  -6  -8    0.59    0.26
   4  -6  -8    8.18    0.65
   4  -6  -8    7.57    0.60
   3  -6  -8    1.18    0.29
   3  -6  -8    1.19    0.26
   2  -6  -8    0.03    0.21
   1  -6  -8    4.52    0.44
   1  -6  -8    4.06    0.44
   0  -6  -8    1.14    0.23
   0  -6  -8    0.93    0.20
  -1  -6  -8    5.36    0.41
  -1  -6  -8    4.91    0.46
  -2  -6  -8    0.34    0.19
  -2  -6  -8    0.20    0.20
  -3  -6  -8    1.16    0.24
  -3  -6  -8    1.02    0.21
  -3  -6  -8    1.00    0.29
  -4  -6  -8    2.96    0.36
  -4  -6  -8    3.20    0.42
  -4  -6  -8    3.22    0.43
  -5  -6  -8    1.10    0.27
  -5  -6  -8    1.25    0.26
  -5  -6  -8    1.11    0.25
  -6  -6  -8    0.65    0.24
  -6  -6  -8    0.40    0.24
  -6  -6  -8    0.47    0.26
   7   6   8    0.51    0.31
  -7  -6  -8    0.31    0.23
  -7  -6  -8    0.75    0.28
  -7  -6  -8    0.62    0.27
   8   6   8    0.57    0.30
  -8  -6  -8    0.48    0.19
  -9  -6  -8    1.73    0.21
   8  -6  -9    0.24    0.21
   8  -6  -9    0.79    0.20
   7  -6  -9    3.17    0.37
   7  -6  -9    2.84    0.36
   6  -6  -9    1.51    0.28
   5  -6  -9    1.85    0.30
   4  -6  -9    5.25    0.54
   3  -6  -9    1.14    0.28
   2  -6  -9    1.25    0.26
   1  -6  -9    4.39    0.44
   1  -6  -9    3.43    0.46
   0  -6  -9    0.03    0.22
   0  -6  -9    0.19    0.23
  -1  -6  -9    2.41    0.35
  -1  -6  -9    1.71    0.25
  -2  -6  -9    0.83    0.23
  -2  -6  -9    0.98    0.24
  -3  -6  -9   10.46    0.70
  -3  -6  -9   10.25    0.65
  -4  -6  -9    1.72    0.30
  -4  -6  -9    2.07    0.27
  -4  -6  -9    2.11    0.29
  -5  -6  -9    4.40    0.46
  -5  -6  -9    4.06    0.42
  -5  -6  -9    4.87    0.42
   6   6   9    2.82    0.40
  -6  -6  -9    3.45    0.38
  -6  -6  -9    2.34    0.28
  -6  -6  -9    2.63    0.38
   7   6   9    1.03    0.28
  -7  -6  -9    0.58    0.25
  -7  -6  -9    0.75    0.26
  -7  -6  -9    0.18    0.20
   8   6   9    0.40    0.27
  -8  -6  -9    0.59    0.17
   7  -6 -10    2.96    0.35
   3  -6 -10    1.94    0.31
   2  -6 -10    0.46    0.26
   1  -6 -10    1.25    0.31
   1  -6 -10    0.82    0.24
   0  -6 -10    0.79    0.24
   0  -6 -10    0.66    0.26
  -1  -6 -10    0.40    0.24
  -1  -6 -10    0.04    0.23
  -2  -6 -10    1.09    0.26
  -2  -6 -10    1.13    0.26
  -3  -6 -10    7.32    0.53
  -4  -6 -10    0.17    0.23
  -4  -6 -10    0.58    0.25
  -5  -6 -10    5.23    0.44
  -5  -6 -10    6.06    0.46
  -5  -6 -10    5.46    0.44
   6   6  10    0.93    0.27
  -6  -6 -10    1.05    0.24
  -6  -6 -10    1.11    0.23
  -6  -6 -10    1.68    0.25
   7   6  10    1.02    0.23
  -7  -6 -10    0.66    0.19
  -7  -6 -10    0.69    0.22
  -7  -6 -10    0.31    0.22
   3  -6 -11    1.30    0.29
   2  -6 -11    1.30    0.27
   1  -6 -11    1.44    0.26
   0  -6 -11    4.16    0.42
   0  -6 -11    4.11    0.41
  -1  -6 -11    0.95    0.26
  -1  -6 -11    0.64    0.24
  -2  -6 -11    2.29    0.29
  -2  -6 -11    2.46    0.36
  -3  -6 -11    2.20    0.34
  -3  -6 -11    2.20    0.28
  -4  -6 -11    0.30    0.22
  -4  -6 -11    0.30    0.22
   5   6  11    1.01    0.26
  -5  -6 -11    1.00    0.21
  -5  -6 -11    0.84    0.21
   6   6  11    0.58    0.22
  -6  -6 -11    0.64    0.19
  -6  -6 -11    0.21    0.18
   2  -6 -12    0.27    0.25
   1  -6 -12    0.66    0.23
   0  -6 -12    0.85    0.26
   0  -6 -12    0.92    0.24
  -1  -6 -12    0.47    0.23
  -1  -6 -12    0.35    0.22
  -2  -6 -12    1.38    0.25
  -2  -6 -12    1.48    0.24
  -3  -6 -12    0.59    0.21
  -3  -6 -12    0.38    0.20
  -4  -6 -12    0.40    0.18
  -4  -6 -12    0.08    0.17
   5   6  12    0.09    0.19
  -5  -6 -12    0.65    0.15
  -5  -6 -12    0.26    0.15
   0  -6 -13    0.51    0.21
  -1  -6 -13   -0.23    0.20
  -1  -6 -13    0.02    0.18
  -2  -6 -13    0.57    0.17
  -2  -6 -13    0.57    0.16
  -2   7 -13   -0.45    0.14
  -2   7 -13   -0.05    0.12
  -1   7 -13    0.77    0.17
  -1   7 -13    1.25    0.18
   0   7 -13    0.37    0.16
   0   7 -13    0.50    0.17
   1   7 -13    0.34    0.17
   1   7 -13    0.05    0.19
  -4   7 -12    0.72    0.17
  -4   7 -12    0.60    0.18
  -3   7 -12    1.00    0.20
  -3   7 -12    0.93    0.19
  -2   7 -12    0.18    0.20
  -2   7 -12    0.47    0.18
  -1   7 -12    1.70    0.22
  -1   7 -12    1.43    0.23
   0   7 -12    0.45    0.20
   0   7 -12    0.04    0.20
   1   7 -12    0.61    0.21
   1   7 -12    0.77    0.22
   2   7 -12    1.05    0.22
   2   7 -12    0.82    0.22
   3   7 -12    0.79    0.23
  -6   7 -11    1.82    0.22
   6  -7  11    2.28    0.29
  -5   7 -11    0.27    0.18
  -5   7 -11    0.21    0.22
   5  -7  11    0.25    0.27
  -4   7 -11    1.37    0.22
  -4   7 -11    1.22    0.23
   4  -7  11    0.69    0.31
  -3   7 -11    0.83    0.22
  -3   7 -11    0.80    0.23
  -2   7 -11    0.58    0.23
  -2   7 -11    0.47    0.22
  -1   7 -11    3.28    0.34
  -1   7 -11    2.95    0.33
   0   7 -11    1.19    0.23
   0   7 -11    0.95    0.24
   1   7 -11    1.64    0.26
   1   7 -11    2.36    0.31
   2   7 -11    0.45    0.22
   2   7 -11    0.57    0.24
   3   7 -11    1.12    0.24
   3   7 -11    1.52    0.27
   3   7 -11    0.89    0.29
   4   7 -11    0.38    0.24
   4   7 -11    0.39    0.24
   5   7 -11    0.58    0.23
  -7   7 -10    0.94    0.17
   7  -7  10    0.61    0.23
  -6   7 -10    1.43    0.21
   6  -7  10    2.15    0.32
  -5   7 -10    1.28    0.27
  -5   7 -10    0.88    0.22
   5  -7  10    1.40    0.31
  -4   7 -10    2.97    0.32
  -4   7 -10    3.04    0.35
   4  -7  10    1.89    0.35
  -3   7 -10    3.16    0.35
  -3   7 -10    2.70    0.41
   3  -7  10    3.38    0.45
  -2   7 -10    1.15    0.24
  -2   7 -10    0.97    0.25
  -1   7 -10    5.69    0.44
  -1   7 -10    5.44    0.46
  -1   7 -10    5.51    0.43
   0   7 -10    0.22    0.28
   0   7 -10    0.08    0.22
   0   7 -10    0.16    0.21
   1   7 -10    3.12    0.34
   1   7 -10    2.77    0.35
   1   7 -10    2.71    0.32
   2   7 -10    1.22    0.24
   2   7 -10    1.05    0.27
   2   7 -10    0.94    0.24
   3   7 -10    2.80    0.36
   3   7 -10    2.70    0.37
   3   7 -10    2.75    0.34
   4   7 -10    1.25    0.26
   4   7 -10    1.10    0.25
   5   7 -10    3.32    0.34
   5   7 -10    3.66    0.37
   6   7 -10    3.81    0.33
   6   7 -10    4.10    0.38
   7   7 -10    0.08    0.18
   7   7 -10    0.26    0.20
  -8   7  -9    0.27    0.18
   8  -7   9    0.09    0.22
  -7   7  -9    4.46    0.33
   7  -7   9    3.73    0.39
  -6   7  -9    1.88    0.24
   6  -7   9    2.37    0.38
  -5   7  -9    4.91    0.45
  -5   7  -9    4.39    0.44
   5  -7   9    4.78    0.45
  -4   7  -9    3.85    0.35
  -4   7  -9    3.86    0.41
  -4   7  -9    4.24    0.42
  -4   7  -9    4.39    0.43
   4  -7   9    3.23    0.45
  -3   7  -9    2.91    0.39
  -3   7  -9    1.83    0.27
  -3   7  -9    1.88    0.31
  -3   7  -9    2.23    0.31
   3  -7   9    2.96    0.44
  -2   7  -9    1.23    0.33
  -2   7  -9    0.82    0.27
  -2   7  -9    0.99    0.22
  -2   7  -9    0.82    0.22
  -1   7  -9    3.21    0.35
  -1   7  -9    2.75    0.38
  -1   7  -9    3.05    0.35
   0   7  -9    0.26    0.25
   0   7  -9    0.28    0.20
   0   7  -9    0.17    0.21
   1   7  -9    3.40    0.34
   1   7  -9    3.78    0.38
   1   7  -9    3.49    0.39
   2   7  -9    0.18    0.24
   2   7  -9    0.45    0.23
   2   7  -9    0.29    0.23
   3   7  -9    6.06    0.49
   3   7  -9    6.06    0.45
   3   7  -9    6.33    0.45
   4   7  -9    1.09    0.25
   4   7  -9    0.85    0.26
   5   7  -9    3.20    0.35
   5   7  -9    2.51    0.30
   5   7  -9    3.41    0.38
   6   7  -9    3.36    0.35
   6   7  -9    3.23    0.38
   6   7  -9    3.46    0.37
   7   7  -9    0.76    0.21
   7   7  -9    0.98    0.21
   8   7  -9    0.64    0.18
   8   7  -9    0.59    0.18
  -9   7  -8    0.93    0.19
   9  -7   8    1.07    0.22
  -8   7  -8    0.04    0.20
  -8   7  -8    0.46    0.24
   8  -7   8    0.02    0.25
  -7   7  -8    2.16    0.26
  -7   7  -8    1.89    0.28
  -6   7  -8    0.58    0.26
  -6   7  -8    0.75    0.22
   6  -7   8    1.10    0.30
  -5   7  -8    0.53    0.26
  -5   7  -8    0.66    0.22
  -5   7  -8    0.45    0.26
  -5   7  -8    0.65    0.30
   5  -7   8    0.83    0.28
  -4   7  -8    0.36    0.26
  -4   7  -8    0.45    0.26
  -4   7  -8    0.53    0.21
  -4   7  -8    0.74    0.25
   4  -7   8    0.38    0.27
  -3   7  -8   -0.13    0.25
  -3   7  -8    0.35    0.21
  -3   7  -8    0.14    0.19
  -3   7  -8    0.32    0.68
  -3   7  -8   -0.03    0.24
   3  -7   8    0.62    0.28
  -2   7  -8    1.98    0.30
  -2   7  -8    1.50    0.25
  -2   7  -8    1.69    0.23
  -2   7  -8    0.96    0.63
  -2   7  -8    1.87    0.22
  -1   7  -8    1.70    0.25
  -1   7  -8    1.46    0.20
  -1   7  -8    1.50    0.57
  -1   7  -8    1.45    0.21
   0   7  -8    4.12    0.67
   0   7  -8    3.76    0.37
   0   7  -8    3.81    0.34
   0   7  -8    3.95    0.34
   1   7  -8    1.30    0.22
   1   7  -8    1.67    0.63
   1   7  -8    1.58    0.23
   1   7  -8    2.40    0.30
   2   7  -8    2.43    0.68
   2   7  -8    2.15    0.25
   2   7  -8    1.94    0.26
   2   7  -8    1.94    0.25
  -2  -7   8    1.17    0.62
   3   7  -8    0.76    0.70
   3   7  -8    0.94    0.23
   3   7  -8    0.57    0.24
   3   7  -8    1.01    0.22
  -3  -7   8    1.28    0.64
   4   7  -8    2.62    0.29
   4   7  -8    2.40    0.29
   4   7  -8    2.58    0.34
   5   7  -8    2.54    0.35
   5   7  -8    2.73    0.40
   5   7  -8    3.28    0.39
   6   7  -8    0.67    0.23
   6   7  -8    0.98    0.24
   6   7  -8    0.75    0.28
   7   7  -8    0.32    0.25
   7   7  -8    0.52    0.22
   7   7  -8    0.42    0.21
   8   7  -8    0.54    0.20
   8   7  -8    0.65    0.19
   8   7  -8    0.68    0.27
   9   7  -8    0.62    0.16
   9   7  -8    0.61    0.22
   9   7  -8    0.48    0.15
  -9   7  -7    0.03    0.21
  -9   7  -7    0.36    0.21
   9  -7   7    0.00    0.24
  -8   7  -7    0.03    0.22
  -8   7  -7    0.11    0.23
   8  -7   7    0.22    0.25
  -7   7  -7    2.95    0.33
  -7   7  -7    2.53    0.35
   7  -7   7    1.65    0.32
  -6   7  -7    1.99    0.27
  -6   7  -7    1.27    0.23
   6  -7   7    1.30    0.29
  -5   7  -7    9.94    0.59
  -5   7  -7    9.90    0.68
  -5   7  -7    9.72    0.60
   5  -7   7    9.65    0.67
  -4   7  -7    4.49    0.45
  -4   7  -7    4.60    0.71
  -4   7  -7    4.94    0.46
  -4   7  -7    5.22    0.38
  -4   7  -7    4.55    0.40
   4  -7   7    3.72    0.46
  -3   7  -7   15.97    0.81
  -3   7  -7   14.56    0.91
  -3   7  -7   15.66    0.84
  -3   7  -7   15.17    1.17
  -3   7  -7   14.99    0.79
   3  -7   7   13.00    0.92
  -2   7  -7    1.72    0.22
  -2   7  -7    1.56    0.21
  -2   7  -7    1.89    0.27
  -2   7  -7    1.94    0.52
  -2   7  -7    1.59    0.28
  -1   7  -7    2.07    0.50
  -1   7  -7    2.08    0.26
  -1   7  -7    2.03    0.25
  -1   7  -7    2.00    0.29
   0   7  -7    0.50    0.16
   0   7  -7    0.58    0.17
   0   7  -7    0.40    0.41
   1   7  -7    0.11    0.43
   1   7  -7    0.52    0.18
   1   7  -7    0.25    0.17
   1   7  -7    0.79    0.20
   2   7  -7    0.80    0.50
   2   7  -7    1.03    0.21
   2   7  -7    1.20    0.20
   2   7  -7    0.53    0.47
   2   7  -7    0.90    0.19
   3   7  -7    4.90    0.81
   3   7  -7    5.19    0.38
   3   7  -7    4.52    0.73
   3   7  -7    4.99    0.39
   3   7  -7    4.17    0.43
   3   7  -7    5.03    0.47
  -3  -7   7    6.30    0.79
   4   7  -7    4.67    0.74
   4   7  -7    6.19    0.42
   4   7  -7    5.93    0.48
   4   7  -7    6.02    0.45
   4   7  -7    5.55    0.57
  -4  -7   7    7.45    0.94
   5   7  -7    7.34    0.53
   5   7  -7    7.67    0.54
   5   7  -7    7.93    0.51
   6   7  -7    1.03    0.23
   6   7  -7    0.79    0.22
   6   7  -7    0.45    0.27
   6   7  -7    0.46    0.28
   7   7  -7    4.81    0.49
   7   7  -7    4.31    0.41
   7   7  -7    4.54    0.41
   7   7  -7    4.06    0.43
   8   7  -7    0.41    0.20
   8   7  -7    0.24    0.24
   8   7  -7    0.50    0.22
   8   7  -7    0.24    0.25
   9   7  -7    0.92    0.23
   9   7  -7    0.81    0.19
   9   7  -7    0.84    0.18
  10   7  -7    0.28    0.14
  10   7  -7    0.46    0.17
  10   7  -7    0.28    0.14
 -10   7  -6    0.47    0.19
  10  -7   6    0.47    0.23
  -9   7  -6    0.46    0.23
  -9   7  -6    0.47    0.20
   9  -7   6    0.75    0.27
  -8   7  -6    1.03    0.23
  -8   7  -6    1.28    0.25
   8  -7   6    1.47    0.29
  -7   7  -6    5.26    0.40
  -7   7  -6    4.35    0.40
   7  -7   6    4.27    0.48
  -6   7  -6    2.96    0.35
  -6   7  -6    3.17    0.34
   6  -7   6    3.72    0.44
  -5   7  -6   18.68    0.95
  -5   7  -6   19.18    0.95
  -5   7  -6   17.14    1.39
  -5   7  -6   18.08    1.08
   5  -7   6   17.91    1.07
  -4   7  -6    4.22    0.67
  -4   7  -6    3.57    0.32
  -4   7  -6    3.02    0.44
  -4   7  -6    3.20    0.33
  -4   7  -6    3.11    0.39
   4  -7   6    3.32    0.40
  -3   7  -6   24.52    1.62
  -2   7  -6    1.89    0.42
  -1   7  -6    2.94    0.48
   0   7  -6    0.42    0.34
   0   7  -6    0.30    0.33
   1   7  -6    2.46    0.47
   1   7  -6    2.79    0.41
   2   7  -6    0.98    0.40
   2   7  -6    1.01    0.37
  -2  -7   6    0.69    0.39
   3   7  -6    1.59    0.43
   3   7  -6    1.58    0.50
  -3  -7   6    2.66    0.48
   4   7  -6    6.77    0.44
   4   7  -6    6.44    0.78
   4   7  -6    6.56    0.45
   4   7  -6    6.78    0.47
   5   7  -6   11.20    0.62
   5   7  -6   10.37    0.60
   5   7  -6   10.73    0.62
   5   7  -6    9.51    0.70
   5   7  -6    8.34    1.01
  -5  -7   6   10.63    1.06
   6   7  -6    0.42    0.19
   6   7  -6    0.26    0.24
   6   7  -6    0.47    0.21
   6   7  -6    0.21    0.25
   7   7  -6    7.19    0.49
   7   7  -6    7.08    0.56
   7   7  -6    6.64    0.52
   7   7  -6    7.20    0.49
   8   7  -6    0.33    0.25
   8   7  -6    0.66    0.23
   8   7  -6    0.45    0.25
   8   7  -6    0.89    0.22
   9   7  -6    2.29    0.31
   9   7  -6    2.56    0.30
   9   7  -6    2.37    0.28
   9   7  -6    2.65    0.35
  10   7  -6    0.51    0.16
  10   7  -6    0.81    0.18
  10   7  -6    0.43    0.19
 -10   7  -5    1.06    0.19
  10  -7   5    0.91    0.26
  -9   7  -5    4.50    0.37
   9  -7   5    4.96    0.46
  -8   7  -5    0.85    0.22
  -8   7  -5    0.92    0.26
   8  -7   5    0.75    0.28
  -7   7  -5    1.25    0.25
  -7   7  -5    1.07    0.22
   7  -7   5    1.50    0.29
  -6   7  -5    1.44    0.66
  -6   7  -5    1.41    0.24
  -6   7  -5    1.77    0.23
   6  -7   5    2.13    0.28
  -5   7  -5    7.17    0.46
  -5   7  -5    7.29    0.47
  -5   7  -5    7.53    0.81
   5  -7   5    7.06    0.53
  -4   7  -5    0.80    0.38
  -3   7  -5   23.47    1.52
  -2   7  -5    8.98    0.70
  -2   7  -5    8.48    0.68
  -1   7  -5   44.11    2.70
  -1   7  -5   45.01    2.71
   0   7  -5   22.78    1.48
   0   7  -5   23.75    1.49
   1   7  -5   41.58    2.55
   1   7  -5   41.64    2.55
   2   7  -5   14.16    0.94
   2   7  -5   14.01    0.97
  -2  -7   5   11.44    0.95
   3   7  -5    7.57    0.72
   3   7  -5    7.70    0.69
  -3  -7   5    7.41    0.69
   4   7  -5    3.28    0.57
   5   7  -5    3.51    0.33
   5   7  -5    2.31    0.29
   5   7  -5    2.62    0.52
   5   7  -5    2.86    0.32
   5   7  -5    2.99    0.37
  -5  -7   5    2.41    0.54
   6   7  -5    1.32    0.21
   6   7  -5    1.17    0.24
   6   7  -5    1.15    0.55
   6   7  -5    1.33    0.21
   6   7  -5    1.42    0.25
  -6  -7   5    0.33    0.55
   7   7  -5   10.77    0.63
   7   7  -5   10.57    0.63
   7   7  -5    9.66    0.62
   7   7  -5   10.11    0.69
   8   7  -5    2.61    0.40
   8   7  -5    2.82    0.37
   8   7  -5    2.76    0.38
   8   7  -5    2.91    0.38
   9   7  -5   11.46    0.65
   9   7  -5   10.76    0.60
   9   7  -5    9.71    0.61
   9   7  -5   10.09    0.61
  -9  -7   5    8.57    0.59
  10   7  -5    0.49    0.20
  10   7  -5    0.59    0.20
  10   7  -5    0.50    0.20
 -10  -7   5    0.86    0.21
 -11   7  -4    4.99    0.30
  11  -7   4    3.93    0.41
 -10   7  -4    0.19    0.17
  10  -7   4    0.47    0.26
  -9   7  -4    5.06    0.37
   9  -7   4    4.16    0.47
  -8   7  -4    0.09    0.19
   8  -7   4    0.86    0.27
  -7   7  -4    2.43    0.30
  -7   7  -4    2.79    0.30
   7  -7   4    3.39    0.43
  -6   7  -4    1.95    0.21
  -6   7  -4    2.36    0.58
  -6   7  -4    2.02    0.26
   6  -7   4    2.41    0.37
  -5   7  -4    1.68    0.43
  -4   7  -4   10.17    0.80
  -3   7  -4   10.17    0.78
  -3   7  -4   11.25    0.81
  -2   7  -4    6.81    0.57
  -2   7  -4    7.03    0.58
  -1   7  -4   18.57    1.21
  -1   7  -4   19.71    1.23
   0   7  -4   11.21    0.82
   0   7  -4   12.79    0.82
   1   7  -4   18.17    1.16
   1   7  -4   18.00    1.18
   2   7  -4    6.16    0.54
   2   7  -4    6.20    0.53
  -2  -7   4    5.68    0.52
   3   7  -4   20.37    1.30
   3   7  -4   18.69    1.28
   4   7  -4    8.13    0.80
  -4  -7   4   11.84    0.81
   5   7  -4    2.38    0.46
  -5  -7   4    2.00    0.44
   6   7  -4    4.78    0.40
   6   7  -4    4.08    0.43
   6   7  -4    3.75    0.37
   6   7  -4    3.29    0.59
   6   7  -4    4.88    0.36
   7   7  -4    3.59    0.38
   7   7  -4    2.78    0.37
   7   7  -4    2.93    0.41
   7   7  -4    2.14    0.76
   7   7  -4    3.91    0.38
  -7  -7   4    4.61    0.73
   8   7  -4    2.06    0.28
   8   7  -4    1.92    0.26
   8   7  -4    2.45    0.27
   8   7  -4    2.07    0.27
  -8  -7   4    2.61    0.33
   9   7  -4    8.25    0.55
   9   7  -4    8.75    0.55
   9   7  -4    7.98    0.56
   9   7  -4    8.56    0.59
  -9  -7   4    8.83    0.53
  10   7  -4    0.07    0.21
  10   7  -4    0.32    0.21
  10   7  -4    0.19    0.20
 -10  -7   4    0.18    0.20
  11   7  -4    2.53    0.27
  11   7  -4    3.51    0.31
  11   7  -4    2.39    0.26
 -11  -7   4    3.65    0.23
 -11   7  -3    2.12    0.21
 -10   7  -3    0.39    0.18
  10  -7   3    0.42    0.27
  -9   7  -3    2.96    0.31
  -8   7  -3    0.68    0.18
   8  -7   3    0.73    0.27
  -7   7  -3    6.61    0.40
   7  -7   3    5.60    0.52
  -6   7  -3    5.32    0.37
  -6   7  -3    5.51    0.80
   6  -7   3    7.22    0.48
  -5   7  -3    0.63    0.34
  -5   7  -3    0.57    0.34
  -4   7  -3    8.53    0.68
  -4   7  -3    8.72    0.69
  -3   7  -3    2.05    0.29
  -3   7  -3    2.11    0.34
  -2   7  -3    0.10    0.17
  -2   7  -3    0.44    0.18
  -1   7  -3   14.04    0.92
  -1   7  -3   14.44    0.92
   0   7  -3    8.25    0.58
   0   7  -3    8.43    0.60
   1   7  -3   11.00    0.76
   1   7  -3   11.68    0.77
   2   7  -3    6.94    0.54
   2   7  -3    6.89    0.52
  -2  -7   3    5.83    0.49
   4   7  -3    4.59    0.56
  -4  -7   3    6.88    0.56
   5   7  -3    0.67    0.35
  -5  -7   3    0.81    0.33
   6   7  -3    5.63    0.40
   6   7  -3    5.27    0.43
   6   7  -3    5.19    0.39
   6   7  -3    4.86    0.40
   6   7  -3    5.93    0.72
  -6  -7   3    4.05    0.66
   7   7  -3    0.52    0.19
   7   7  -3    0.65    0.20
   7   7  -3    0.15    0.57
   7   7  -3    0.63    0.21
   7   7  -3    0.83    0.21
  -7  -7   3   -0.12    0.53
   8   7  -3    0.27    0.22
   8   7  -3    0.52    0.21
   8   7  -3    0.73    0.23
   8   7  -3    0.58    0.23
  -8  -7   3    0.17    0.20
   9   7  -3    7.16    0.49
   9   7  -3    6.75    0.48
   9   7  -3    6.62    0.48
   9   7  -3    6.28    0.50
  -9  -7   3    5.45    0.44
  10   7  -3    0.38    0.21
  10   7  -3    0.28    0.22
  10   7  -3    0.24    0.24
 -10  -7   3    0.66    0.20
  11   7  -3    1.29    0.20
  11   7  -3    1.22    0.20
 -11  -7   3    1.00    0.20
 -11  -7   3    1.64    0.20
 -11   7  -2    2.65    0.24
 -10   7  -2    1.06    0.19
  10  -7   2    0.72    0.28
  -9   7  -2    0.71    0.19
   9  -7   2    1.12    0.28
  -8   7  -2    1.52    0.19
   8  -7   2    0.89    0.28
  -7   7  -2   11.63    0.64
   7  -7   2   12.73    0.79
  -6   7  -2    1.02    0.14
  -6   7  -2    1.03    0.39
   6  -7   2    1.64    0.23
  -5   7  -2    9.10    0.74
  -5   7  -2    8.70    0.70
  -4   7  -2   13.10    0.88
  -4   7  -2   12.96    0.88
  -3   7  -2    6.12    0.48
  -3   7  -2    6.08    0.49
  -2   7  -2    7.71    0.54
  -2   7  -2    7.38    0.53
  -1   7  -2    3.64    0.33
  -1   7  -2    3.80    0.34
   0   7  -2   24.91    1.51
   0   7  -2   24.58    1.50
   1   7  -2   14.22    0.89
   1   7  -2   14.57    0.89
  -1  -7   2   12.78    0.88
   2   7  -2    6.04    0.46
   2   7  -2    5.51    0.47
  -2  -7   2    5.85    0.45
   3   7  -2   25.32    1.47
  -3  -7   2   21.20    1.43
   4   7  -2    6.03    0.54
  -4  -7   2    5.10    0.50
   5   7  -2   22.45    1.42
  -5  -7   2   20.19    1.37
   6   7  -2    9.47    0.58
   6   7  -2    9.43    0.54
   6   7  -2    9.23    0.85
  -6  -7   2    8.54    0.78
   7   7  -2    3.09    0.67
   7   7  -2    3.94    0.38
   7   7  -2    4.46    0.37
   7   7  -2    3.69    0.41
   7   7  -2    3.92    0.40
   8   7  -2    0.90    0.25
   8   7  -2    1.17    0.24
   8   7  -2    1.21    0.22
   8   7  -2    0.68    0.24
   9   7  -2    4.68    0.43
   9   7  -2    4.65    0.45
   9   7  -2    4.69    0.44
  -9  -7   2    4.03    0.38
  10   7  -2    0.34    0.23
  10   7  -2    0.32    0.24
 -10  -7   2    0.44    0.20
  11   7  -2    0.82    0.21
  11   7  -2    0.67    0.21
 -11  -7   2    1.18    0.19
 -11  -7   2    0.99    0.18
 -11   7  -1    1.22    0.17
 -10   7  -1    0.07    0.17
  10  -7   1   -0.11    0.27
  -9   7  -1    1.70    0.21
   9  -7   1    0.50    0.26
  -8   7  -1    3.80    0.32
   8  -7   1    3.27    0.48
  -7   7  -1   19.01    1.39
  -7   7  -1   18.57    0.95
   7  -7   1   18.82    1.13
   7  -7   1   19.34    1.04
  -6   7  -1    0.51    0.32
  -5   7  -1   27.70    1.76
  -5   7  -1   28.47    1.75
  -4   7  -1   19.93    1.22
  -4   7  -1   18.93    1.23
  -3   7  -1   24.80    1.47
  -3   7  -1   23.63    1.49
  -2   7  -1    3.65    0.32
  -2   7  -1    3.46    0.32
  -1   7  -1   32.32    1.98
  -1   7  -1   33.38    1.95
   0   7  -1   10.40    0.66
   0   7  -1   10.01    0.66
   1   7  -1    2.91    0.29
   1   7  -1    3.06    0.29
   2   7  -1    0.50    0.15
  -2  -7   1    0.66    0.15
   3   7  -1   62.39    3.70
  -3  -7   1   61.22    3.65
  -4  -7   1    2.34    0.31
   5   7  -1   16.13    1.21
  -5  -7   1   19.59    1.19
   6   7  -1    4.80    0.65
  -6  -7   1    3.91    0.56
   7   7  -1    3.59    0.43
   7   7  -1    3.89    0.36
   7   7  -1    4.57    0.38
   7   7  -1    4.67    0.40
   7   7  -1    4.31    0.70
  -7  -7   1    3.68    0.33
  -7  -7   1    3.73    0.56
   8   7  -1    0.24    0.23
   8   7  -1    0.31    0.20
   8   7  -1    0.05    0.22
   8   7  -1    0.29    0.27
  -8  -7   1    0.28    0.17
   9   7  -1    1.29    0.26
   9   7  -1    1.17    0.26
  -9  -7   1    1.27    0.21
  10   7  -1    0.11    0.24
  10   7  -1    0.20    0.24
 -10  -7   1   -0.07    0.18
 -10  -7   1    0.12    0.21
  11   7  -1    0.40    0.22
  11   7  -1    0.12    0.22
 -11  -7   1    0.50    0.17
 -11  -7   1    0.72    0.18
 -11   7   0    1.06    0.17
 -10   7   0    2.18    0.27
  -9   7   0   10.91    0.58
   9  -7   0   10.38    0.74
   9  -7   0    9.91    0.66
  -8   7   0    2.81    0.29
   8  -7   0    3.30    0.34
   8  -7   0    3.31    0.33
   8  -7   0    2.89    0.40
  -7   7   0   31.22    1.58
  -7   7   0   33.81    2.11
   7  -7   0   34.26    1.60
   7  -7   0   31.79    1.84
   7  -7   0   31.47    1.66
  -6   7   0   -0.10    0.30
  -5   7   0   13.40    0.94
  -4   7   0    0.95    0.21
  -4   7   0    1.00    0.21
  -3   7   0   53.46    3.16
  -3   7   0   54.23    3.22
  -2   7   0    1.66    0.21
  -2   7   0    1.45    0.22
  -1   7   0   13.87    0.88
  -1   7   0   14.12    0.85
   0   7   0    0.10    0.11
   0  -7   0   -0.05    0.08
   1   7   0   13.79    0.92
  -1  -7   0   15.47    0.90
   2   7   0    1.73    0.25
  -2  -7   0    2.03    0.23
   3   7   0   58.93    3.52
  -3  -7   0   59.02    3.49
   4   7   0    0.83    0.23
  -4  -7   0    0.62    0.20
   5   7   0   14.17    1.00
  -5  -7   0   13.56    0.96
   6   7   0   -0.43    0.38
  -6  -7   0    0.58    0.34
   7   7   0   32.93    1.76
   7   7   0   32.12    1.61
   7   7   0   33.52    1.63
  -7  -7   0   31.08    1.62
  -7  -7   0   32.83    2.09
   8   7   0    2.64    0.31
   8   7   0    3.12    0.41
  -8  -7   0    3.10    0.31
   9   7   0   10.67    0.69
   9   7   0    9.71    0.64
  -9  -7   0    9.81    0.58
  10   7   0    1.84    0.29
  10   7   0    1.70    0.28
 -10  -7   0    2.06    0.25
 -10  -7   0    2.04    0.29
  11   7   0    1.16    0.26
 -11  -7   0    1.05    0.17
 -11  -7   0    1.03    0.21
 -11   7   1    0.32    0.15
 -10   7   1    0.14    0.18
  10  -7  -1    0.04    0.24
  -9   7   1    1.15    0.20
   9  -7  -1    1.21    0.23
   9  -7  -1    1.17    0.31
   9  -7  -1    1.39    0.25
  -8   7   1    0.22    0.16
   8  -7  -1    0.24    0.26
   8  -7  -1    0.79    0.27
   8  -7  -1    0.38    0.21
   8  -7  -1    0.45    0.19
  -7   7   1    3.90    0.32
  -7   7   1    4.43    0.73
   7  -7  -1    4.89    0.36
   7  -7  -1    5.19    0.49
   7  -7  -1    4.52    0.38
   7  -7  -1    4.46    0.45
  -6   7   1    4.38    0.56
  -5   7   1   14.57    0.99
  -4   7   1    3.71    0.38
  -3   7   1   60.40    3.60
  -2   7   1    0.48    0.12
  -1   7   1    2.88    0.26
   0   7   1   10.37    0.64
   0  -7  -1    9.32    0.61
   1   7   1   32.74    2.08
  -1  -7  -1   36.59    2.05
   2   7   1    3.53    0.32
  -2  -7  -1    4.07    0.32
   3   7   1   25.35    1.54
  -3  -7  -1   24.61    1.52
   4   7   1   19.72    1.24
  -4  -7  -1   18.46    1.21
   5   7   1   27.29    1.83
  -5  -7  -1   30.73    1.81
  -6  -7  -1    1.08    0.35
   7   7   1   18.66    1.08
  -7  -7  -1   19.33    0.97
  -7  -7  -1   18.72    1.35
   8   7   1    3.69    0.42
  -8  -7  -1    3.05    0.32
   9   7   1    1.59    0.30
  -9  -7  -1    0.78    0.20
  10   7   1   -0.04    0.26
 -10  -7  -1   -0.08    0.17
 -11  -7  -1    1.12    0.18
 -11   7   2    1.19    0.18
  11  -7  -2    1.21    0.22
 -10   7   2   -0.09    0.18
  10  -7  -2    0.18    0.22
  10  -7  -2    0.48    0.26
  -9   7   2    4.43    0.35
   9  -7  -2    3.98    0.41
   9  -7  -2    4.32    0.44
   9  -7  -2    3.92    0.39
  -8   7   2    0.79    0.19
   8  -7  -2    1.39    0.25
   8  -7  -2    1.69    0.30
   8  -7  -2    1.31    0.22
   8  -7  -2    1.24    0.21
  -7   7   2    2.44    0.52
  -7   7   2    3.22    0.27
   7  -7  -2    2.86    0.38
   7  -7  -2    2.59    0.34
   7  -7  -2    2.58    0.33
   7  -7  -2    3.19    0.49
  -6   7   2    9.66    0.78
   6  -7  -2    8.01    0.53
  -5   7   2   21.72    1.41
  -4   7   2    5.20    0.48
  -3   7   2   22.46    1.39
  -2   7   2    6.24    0.45
  -1   7   2   15.11    0.94
   0   7   2   23.59    1.39
   0  -7  -2   22.16    1.35
   2   7   2    7.13    0.53
  -2  -7  -2    8.25    0.53
   3   7   2    6.01    0.46
  -3  -7  -2    5.19    0.44
  -4  -7  -2   11.45    0.79
  -5  -7  -2    9.98    0.76
  -6  -7  -2    2.03    0.40
  -6  -7  -2    1.43    0.17
   7   7   2   12.21    0.79
  -7  -7  -2   12.89    0.68
  -7  -7  -2   12.30    1.03
   8   7   2    1.57    0.31
  -8  -7  -2    1.40    0.20
  -9  -7  -2    1.06    0.19
 -10  -7  -2    0.93    0.19
 -11  -7  -2    1.98    0.22
 -11   7   3    1.35    0.18
  11  -7  -3    1.29    0.20
  11  -7  -3    1.06    0.24
 -10   7   3    0.36    0.19
  10  -7  -3    0.32    0.23
  10  -7  -3    0.58    0.22
  -9   7   3    6.69    0.41
   9  -7  -3    5.09    0.44
   9  -7  -3    5.13    0.47
   9  -7  -3    5.25    0.45
  -8   7   3    0.73    0.19
   8  -7  -3    0.24    0.22
   8  -7  -3    0.63    0.32
   8  -7  -3    0.36    0.22
   8  -7  -3    0.43    0.19
  -7   7   3    0.52    0.19
  -7   7   3    0.81    0.49
   7  -7  -3    0.83    0.21
   7  -7  -3    0.75    0.19
   7  -7  -3    1.00    0.27
   7  -7  -3    0.70    0.21
   6  -7  -3    3.43    0.35
   6  -7  -3    4.04    0.48
   6  -7  -3    3.37    0.38
   6  -7  -3    3.78    0.37
  -5   7   3    1.07    0.32
  -4   7   3    4.32    0.46
  -3   7   3    5.44    0.47
  -2   7   3    7.12    0.53
  -1   7   3   11.21    0.73
   0   7   3    8.78    0.65
   0  -7  -3   10.62    0.62
   1   7   3   12.59    0.82
  -1  -7  -3   13.13    0.81
  -2  -7  -3    1.08    0.19
  -3  -7  -3    1.03    0.21
  -4  -7  -3    5.94    0.53
  -5  -7  -3    0.17    0.28
  -6  -7  -3    8.18    0.76
  -6  -7  -3    7.58    0.46
  -7  -7  -3    5.63    0.79
  -7  -7  -3    5.91    0.39
  -8  -7  -3    0.68    0.18
  -9  -7  -3    4.59    0.36
 -10  -7  -3    0.05    0.17
 -11  -7  -3    2.08    0.21
  11  -7  -4    3.59    0.32
  11  -7  -4    3.45    0.28
 -10   7   4    0.11    0.19
  10  -7  -4    0.13    0.20
  10  -7  -4   -0.05    0.20
  -9   7   4    8.84    0.53
   9  -7  -4    9.36    0.56
   9  -7  -4    8.55    0.59
   9  -7  -4    8.98    0.56
  -8   7   4    2.21    0.25
   8  -7  -4    2.66    0.35
   8  -7  -4    2.74    0.38
   8  -7  -4    2.02    0.28
   7  -7  -4    3.89    0.43
   7  -7  -4    4.47    0.41
   7  -7  -4    4.10    0.40
   7  -7  -4    4.19    0.58
   6  -7  -4    2.31    0.24
   6  -7  -4    2.06    0.23
   6  -7  -4    2.47    0.31
  -5   7   4    2.80    0.44
  -4   7   4    8.37    0.69
  -3   7   4   18.84    1.23
  -2   7   4    5.94    0.51
  -1   7   4   17.74    1.12
   0   7   4   12.18    0.79
   0  -7  -4   11.57    0.77
  -1  -7  -4   20.45    1.26
  -2  -7  -4    6.77    0.53
  -3  -7  -4   17.97    1.17
  -4  -7  -4    6.82    0.63
  -5  -7  -4    2.26    0.44
  -6  -7  -4    2.73    0.28
  -6  -7  -4    2.49    0.53
  -6  -7  -4    2.47    0.27
  -7  -7  -4    3.08    0.32
  -8  -7  -4    0.64    0.19
  -9  -7  -4    4.43    0.36
 -10  -7  -4    0.28    0.16
 -11  -7  -4    3.85    0.26
 -10   7   5    0.22    0.19
  10  -7  -5    0.55    0.19
  10  -7  -5    0.42    0.19
  -9   7   5   10.55    0.58
   9  -7  -5    9.80    0.63
   9  -7  -5   10.03    0.60
   9  -7  -5    9.36    0.59
  -8   7   5    2.50    0.35
   8  -7  -5    3.87    0.38
   8  -7  -5    3.04    0.42
   8  -7  -5    3.63    0.39
   7  -7  -5   12.29    0.75
   7  -7  -5   12.43    0.72
  -6   7   5    1.44    0.55
   6  -7  -5    0.68    0.19
  -5   7   5    2.97    0.51
   5  -7  -5    2.25    0.30
   5  -7  -5    2.28    0.24
   5  -7  -5    2.67    0.31
  -4   7   5    3.62    0.56
  -3   7   5    6.92    0.65
  -2   7   5   13.40    0.93
  -1   7   5   39.58    2.41
  -1  -7  -5   34.87    2.12
  -2  -7  -5    8.45    0.67
  -3  -7  -5   18.87    1.26
  -4  -7  -5    0.57    0.39
  -5  -7  -5    7.24    0.65
  -5  -7  -5    8.02    0.80
  -5  -7  -5    7.37    0.46
  -5  -7  -5    7.42    0.48
  -6  -7  -5    1.98    0.22
  -6  -7  -5    2.08    0.61
  -6  -7  -5    1.66    0.26
  -7  -7  -5    0.93    0.28
  -7  -7  -5    0.50    0.19
  -8  -7  -5    0.88    0.21
  -9  -7  -5    4.51    0.34
 -10  -7  -5    0.66    0.16
  10  -7  -6    1.24    0.20
  10  -7  -6    1.30    0.19
   9  -7  -6    0.67    0.21
   8  -7  -6    0.76    0.23
   8  -7  -6    0.83    0.22
   7  -7  -6    8.20    0.58
   7  -7  -6    8.37    0.56
   6  -7  -6    0.43    0.20
   6  -7  -6    0.47    0.29
   6  -7  -6    0.15    0.20
  -5   7   6   10.88    1.02
   5  -7  -6   10.33    0.64
   5  -7  -6    9.82    0.66
   5  -7  -6   10.31    0.75
  -4   7   6    7.81    0.86
   4  -7  -6    9.78    0.67
   4  -7  -6   10.21    0.61
   4  -7  -6    7.99    0.60
  -3   7   6    2.09    0.43
  -2  -7  -6    2.67    0.48
  -3  -7  -6   21.90    1.49
  -4  -7  -6    3.92    0.35
  -4  -7  -6    3.20    0.33
  -4  -7  -6    2.72    0.43
  -4  -7  -6    3.92    0.62
  -5  -7  -6   19.60    1.52
  -5  -7  -6   19.56    1.03
  -5  -7  -6   19.77    1.19
  -5  -7  -6   19.87    1.07
  -6  -7  -6    3.59    0.37
  -6  -7  -6    4.27    0.42
  -6  -7  -6    3.45    0.54
  -7  -7  -6    4.27    0.39
  -7  -7  -6    4.73    0.46
  -8  -7  -6    2.24    0.30
  -9  -7  -6    0.26    0.18
 -10  -7  -6    0.39    0.15
  10  -7  -7    0.92    0.16
  10  -7  -7    0.68    0.15
   9  -7  -7    0.49    0.19
   9  -7  -7    0.54    0.20
   8  -7  -7    0.31    0.21
   8  -7  -7    0.21    0.21
   7  -7  -7    6.91    0.50
   7  -7  -7    7.34    0.53
   6  -7  -7    0.55    0.23
   6  -7  -7    0.61    0.23
   5  -7  -7    7.51    0.56
   5  -7  -7    7.99    0.58
   5  -7  -7    8.18    0.67
   4  -7  -7    8.73    0.61
   4  -7  -7    8.61    0.66
   3  -7  -7    5.62    0.51
   3  -7  -7    5.26    0.49
   2  -7  -7    1.86    0.30
   1  -7  -7    1.09    0.20
   0  -7  -7    0.78    0.19
  -1  -7  -7    2.02    0.29
  -1  -7  -7    1.18    0.20
  -2  -7  -7    3.62    0.32
  -2  -7  -7    3.11    0.40
  -3  -7  -7   14.42    0.81
  -3  -7  -7   14.21    0.90
  -3  -7  -7   15.48    1.27
  -4  -7  -7    3.93    0.37
  -4  -7  -7    3.34    0.45
  -4  -7  -7    3.89    0.42
  -4  -7  -7    3.40    0.79
  -5  -7  -7   10.42    0.63
  -5  -7  -7   10.11    0.75
  -5  -7  -7   10.56    0.65
  -6  -7  -7    1.43    0.26
  -6  -7  -7    1.53    0.25
  -6  -7  -7    1.21    0.30
  -7  -7  -7    1.66    0.33
  -7  -7  -7    1.30    0.29
  -7  -7  -7    1.90    0.24
  -8  -7  -7    0.49    0.20
  -9  -7  -7    0.03    0.17
 -10  -7  -7    0.28    0.13
   9  -7  -8    0.58    0.17
   9  -7  -8    0.35    0.17
   8  -7  -8    0.50    0.20
   8  -7  -8    0.28    0.20
   7  -7  -8    2.77    0.37
   7  -7  -8    2.43    0.35
   6  -7  -8    1.69    0.26
   6  -7  -8    1.06    0.27
   5  -7  -8    3.53    0.44
   5  -7  -8    3.92    0.54
   4  -7  -8    2.53    0.31
   4  -7  -8    2.23    0.31
   3  -7  -8    0.28    0.28
   3  -7  -8    0.48    0.24
   2  -7  -8    0.70    0.23
   1  -7  -8    3.36    0.40
   0  -7  -8    3.69    0.42
   0  -7  -8    4.62    0.40
  -1  -7  -8    1.28    0.23
  -1  -7  -8    1.17    0.22
  -2  -7  -8    4.07    0.42
  -2  -7  -8    4.37    0.37
  -3  -7  -8    0.85    0.22
  -3  -7  -8    0.92    0.24
  -4  -7  -8    0.46    0.24
  -4  -7  -8    0.47    0.21
  -4  -7  -8    0.21    0.27
  -5  -7  -8    0.66    0.27
  -5  -7  -8    0.91    0.26
  -5  -7  -8    1.03    0.24
  -6  -7  -8    1.00    0.25
  -6  -7  -8    1.04    0.28
  -6  -7  -8    1.04    0.25
  -7  -7  -8    0.35    0.26
  -7  -7  -8    0.38    0.22
  -7  -7  -8    0.71    0.28
  -8  -7  -8    0.24    0.19
  -9  -7  -8    1.40    0.20
   8  -7  -9    0.59    0.19
   8  -7  -9    0.68    0.21
   7  -7  -9    0.98    0.24
   6  -7  -9    3.30    0.40
   5  -7  -9    2.92    0.34
   4  -7  -9    0.73    0.28
   4  -7  -9    0.79    0.28
   3  -7  -9    5.97    0.55
   2  -7  -9    0.11    0.24
   1  -7  -9    4.21    0.46
   0  -7  -9    0.88    0.23
   0  -7  -9    0.84    0.25
  -1  -7  -9    1.99    0.28
  -1  -7  -9    3.03    0.39
  -2  -7  -9    2.00    0.28
  -2  -7  -9    2.78    0.35
  -3  -7  -9    2.79    0.40
  -3  -7  -9    2.60    0.36
  -4  -7  -9    2.81    0.37
  -4  -7  -9    3.20    0.37
  -4  -7  -9    2.67    0.40
  -5  -7  -9    4.70    0.42
  -5  -7  -9    4.50    0.43
  -5  -7  -9    4.73    0.47
  -6  -7  -9    1.85    0.27
  -6  -7  -9    1.51    0.25
  -6  -7  -9    1.54    0.28
   7   7   9    4.20    0.40
  -7  -7  -9    3.18    0.32
  -7  -7  -9    3.83    0.40
  -7  -7  -9    3.76    0.37
  -8  -7  -9    0.01    0.16
   7  -7 -10    0.47    0.22
   6  -7 -10    3.88    0.41
   4  -7 -10    0.67    0.29
   3  -7 -10    2.66    0.43
   2  -7 -10    0.64    0.26
   1  -7 -10    4.36    0.46
   0  -7 -10    0.34    0.27
   0  -7 -10    0.46    0.23
  -1  -7 -10    3.46    0.42
  -1  -7 -10    3.66    0.41
  -2  -7 -10    1.93    0.28
  -2  -7 -10    1.90    0.28
  -3  -7 -10    1.62    0.27
  -4  -7 -10    1.64    0.28
  -4  -7 -10    2.54    0.35
  -5  -7 -10    0.83    0.25
  -5  -7 -10    0.99    0.28
  -5  -7 -10    1.00    0.25
   6   7  10    1.45    0.29
  -6  -7 -10    1.93    0.31
  -6  -7 -10    2.15    0.30
  -6  -7 -10    2.41    0.30
   7   7  10    0.99    0.23
  -7  -7 -10    0.48    0.21
  -7  -7 -10    0.74    0.19
  -7  -7 -10    0.74    0.22
   3  -7 -11    0.56    0.26
   2  -7 -11    0.74    0.25
   1  -7 -11    2.65    0.38
   0  -7 -11    0.90    0.24
   0  -7 -11    0.58    0.27
  -1  -7 -11    2.80    0.36
  -1  -7 -11    2.64    0.37
  -2  -7 -11    1.19    0.26
  -2  -7 -11    0.82    0.24
  -3  -7 -11    1.21    0.25
  -3  -7 -11    1.39    0.26
  -4  -7 -11    0.49    0.22
  -4  -7 -11    0.21    0.22
   5   7  11    0.09    0.24
  -5  -7 -11   -0.02    0.19
  -5  -7 -11    0.39    0.20
   6   7  11    1.43    0.23
  -6  -7 -11    1.88    0.25
  -6  -7 -11    1.67    0.21
   2  -7 -12    0.50    0.24
   1  -7 -12    1.35    0.25
   0  -7 -12    0.41    0.22
   0  -7 -12    0.77    0.26
  -1  -7 -12    0.78    0.23
  -1  -7 -12    0.93    0.24
  -2  -7 -12    0.03    0.21
  -2  -7 -12    0.39    0.21
  -3  -7 -12    1.37    0.21
  -3  -7 -12    1.24    0.22
  -4  -7 -12    0.45    0.18
  -4  -7 -12    0.22    0.16
   0  -7 -13    0.69    0.20
  -1  -7 -13    0.29    0.18
  -1   8 -13    0.72    0.16
  -1   8 -13    0.85    0.16
   0   8 -13    0.40    0.16
   0   8 -13    0.18    0.16
   1   8 -13    0.30    0.18
   1   8 -13    0.37    0.15
  -4   8 -12    1.53    0.20
  -4   8 -12    1.73    0.21
  -3   8 -12    0.97    0.18
  -3   8 -12    0.60    0.18
  -2   8 -12    0.29    0.19
  -2   8 -12    0.20    0.18
  -1   8 -12    0.62    0.20
  -1   8 -12    1.06    0.20
   0   8 -12    0.15    0.19
   0   8 -12    0.73    0.20
   1   8 -12    0.31    0.19
   1   8 -12    0.36    0.20
   2   8 -12    0.21    0.20
   2   8 -12    0.25    0.21
   3   8 -12    1.05    0.22
  -6   8 -11    0.70    0.16
   6  -8  11    0.63    0.23
  -5   8 -11    1.15    0.19
  -5   8 -11    0.92    0.23
   5  -8  11    0.89    0.28
  -4   8 -11    1.11    0.21
  -4   8 -11    1.33    0.23
   4  -8  11    1.50    0.33
  -3   8 -11    2.55    0.29
  -3   8 -11    2.85    0.31
  -2   8 -11    0.68    0.21
  -2   8 -11    0.94    0.23
  -1   8 -11    3.66    0.34
  -1   8 -11    3.35    0.34
   0   8 -11    2.86    0.31
   0   8 -11    2.84    0.33
   1   8 -11    1.68    0.25
   1   8 -11    2.08    0.30
   1   8 -11    1.53    0.29
   2   8 -11    1.41    0.25
   2   8 -11    1.28    0.27
   2   8 -11    1.44    0.24
   3   8 -11    1.63    0.26
   3   8 -11    1.89    0.24
   3   8 -11    1.69    0.27
   4   8 -11    0.24    0.22
   4   8 -11    0.59    0.23
   5   8 -11    0.22    0.21
   5   8 -11    0.96    0.22
   6   8 -11    0.57    0.21
  -7   8 -10    0.22    0.17
   7  -8  10    0.45    0.22
  -6   8 -10    1.59    0.21
   6  -8  10    1.66    0.29
  -5   8 -10    2.14    0.30
  -5   8 -10    2.57    0.28
   5  -8  10    3.06    0.39
  -4   8 -10    2.35    0.30
  -4   8 -10    2.56    0.34
   4  -8  10    2.76    0.40
  -3   8 -10    6.27    0.48
  -3   8 -10    6.86    0.46
   3  -8  10    5.26    0.55
  -2   8 -10    0.79    0.29
  -2   8 -10    0.65    0.23
  -2   8 -10    0.65    0.23
  -1   8 -10    4.85    0.42
  -1   8 -10    4.10    0.40
  -1   8 -10    4.66    0.39
   0   8 -10    1.64    0.25
   0   8 -10    1.04    0.28
   0   8 -10    1.38    0.24
   1   8 -10    1.65    0.25
   1   8 -10    1.45    0.25
   1   8 -10    1.23    0.28
   2   8 -10    0.83    0.26
   2   8 -10    0.96    0.24
   2   8 -10    0.79    0.24
   3   8 -10    1.88    0.28
   3   8 -10    1.80    0.26
   3   8 -10    1.53    0.27
   4   8 -10    4.07    0.38
   4   8 -10    3.88    0.36
   5   8 -10    1.38    0.24
   5   8 -10    1.97    0.27
   6   8 -10    1.06    0.21
   6   8 -10    0.98    0.24
   6   8 -10    0.66    0.24
   7   8 -10    1.54    0.22
   7   8 -10    1.65    0.23
  -8   8  -9    1.17    0.18
   8  -8   9    1.20    0.23
  -7   8  -9    1.00    0.20
   7  -8   9    0.92    0.26
  -6   8  -9    2.81    0.36
  -6   8  -9    3.21    0.32
   6  -8   9    3.32    0.40
  -5   8  -9    3.02    0.33
  -5   8  -9    2.43    0.31
  -5   8  -9    3.61    0.41
   5  -8   9    3.50    0.42
  -4   8  -9    1.68    0.28
  -4   8  -9    1.45    0.28
  -4   8  -9    1.78    0.24
   4  -8   9    2.40    0.34
  -3   8  -9    2.80    0.42
  -3   8  -9    2.80    0.37
  -3   8  -9    2.88    0.38
  -3   8  -9    2.69    0.33
   3  -8   9    3.53    0.46
  -2   8  -9    3.51    0.35
  -2   8  -9    3.68    0.36
  -2   8  -9    3.35    0.40
  -1   8  -9    5.90    0.47
  -1   8  -9    6.02    0.44
  -1   8  -9    5.79    0.43
   0   8  -9    0.68    0.22
   0   8  -9    0.89    0.22
   0   8  -9    1.04    0.25
   1   8  -9    1.95    0.26
   1   8  -9    2.44    0.33
   1   8  -9    1.86    0.27
   2   8  -9    2.38    0.33
   2   8  -9    2.39    0.34
   2   8  -9    2.50    0.32
   3   8  -9    0.96    0.25
   3   8  -9    1.11    0.24
   3   8  -9    0.84    0.26
   4   8  -9    2.65    0.37
   4   8  -9    3.32    0.42
   4   8  -9    2.77    0.35
   4   8  -9    2.74    0.34
   5   8  -9    1.69    0.26
   5   8  -9    2.20    0.29
   5   8  -9    1.92    0.28
   6   8  -9    0.78    0.23
   6   8  -9    0.70    0.26
   6   8  -9    0.63    0.23
   7   8  -9    1.43    0.24
   7   8  -9    1.48    0.22
   7   8  -9    1.38    0.22
   8   8  -9    0.42    0.17
   8   8  -9    0.40    0.17
  -9   8  -8    0.30    0.21
   9  -8   8    0.82    0.21
  -8   8  -8    0.65    0.23
  -8   8  -8    0.54    0.20
   8  -8   8    0.00    0.24
  -7   8  -8    0.51    0.22
  -7   8  -8    0.52    0.24
   7  -8   8    1.00    0.28
  -6   8  -8    0.34    0.24
  -6   8  -8    0.08    0.22
   6  -8   8    0.40    0.29
  -5   8  -8    1.64    0.27
  -5   8  -8    2.00    0.25
   5  -8   8    1.09    0.31
  -4   8  -8    2.37    0.29
  -4   8  -8    2.32    0.26
  -4   8  -8    2.34    0.32
  -4   8  -8    2.25    0.30
  -3   8  -8    0.18    0.22
  -3   8  -8    0.25    0.23
  -3   8  -8    0.40    0.21
  -3   8  -8    0.38    0.27
   3  -8   8    0.77    0.31
  -2   8  -8    2.14    0.26
  -2   8  -8    1.73    0.24
  -2   8  -8    2.07    0.30
  -2   8  -8    1.47    0.67
  -1   8  -8    6.34    0.45
  -1   8  -8    6.30    0.44
  -1   8  -8    5.93    0.87
  -1   8  -8    6.50    0.44
   0   8  -8    3.94    0.34
   0   8  -8    3.61    0.36
   0   8  -8    2.30    0.66
   0   8  -8    3.75    0.33
   1   8  -8    2.96    0.32
   1   8  -8    2.98    0.33
   1   8  -8    2.83    0.32
   1   8  -8    2.18    0.64
   2   8  -8    2.47    0.33
   2   8  -8    2.09    0.26
   2   8  -8    2.28    0.32
   2   8  -8    2.21    0.71
  -2  -8   8    2.34    0.66
   3   8  -8    2.02    0.29
   3   8  -8    1.79    0.26
   3   8  -8    1.20    0.26
   3   8  -8    1.96    0.24
   4   8  -8    0.18    0.28
   4   8  -8    0.64    0.23
   4   8  -8    0.38    0.24
   4   8  -8    0.30    0.23
   5   8  -8    0.84    0.26
   5   8  -8    0.56    0.24
   5   8  -8    1.04    0.24
   6   8  -8    0.75    0.27
   6   8  -8    0.96    0.22
   6   8  -8    0.53    0.23
   7   8  -8    0.73    0.22
   7   8  -8    0.64    0.22
   7   8  -8    0.28    0.24
   8   8  -8    0.70    0.23
   8   8  -8    0.63    0.20
   8   8  -8    0.79    0.19
  -8  -8   8    0.98    0.22
   9   8  -8    1.01    0.17
   9   8  -8    1.22    0.15
  -9   8  -7    0.54    0.21
   9  -8   7    0.58    0.23
  -8   8  -7    0.10    0.22
  -8   8  -7    0.34    0.23
   8  -8   7   -0.04    0.26
  -7   8  -7    2.33    0.27
  -7   8  -7    2.07    0.27
  -6   8  -7    1.68    0.25
  -6   8  -7    1.60    0.26
  -5   8  -7    3.59    0.36
  -5   8  -7    3.30    0.39
   5  -8   7    3.80    0.44
  -4   8  -7    4.61    0.40
  -4   8  -7    5.02    0.39
  -4   8  -7    5.23    0.46
  -4   8  -7    5.22    0.77
  -4   8  -7    5.17    0.46
   4  -8   7    4.06    0.46
  -3   8  -7    5.65    0.40
  -3   8  -7    4.07    0.68
  -3   8  -7    5.53    0.39
  -3   8  -7    5.21    0.49
  -3   8  -7    5.19    0.42
   3  -8   7    6.26    0.53
  -2   8  -7    5.62    0.41
  -2   8  -7    5.82    0.40
  -2   8  -7    6.02    0.78
  -2   8  -7    5.80    0.40
   2  -8   7    5.75    0.59
  -1   8  -7   11.37    0.66
  -1   8  -7   12.06    0.65
  -1   8  -7   11.54    0.99
  -1   8  -7   11.75    0.64
   0   8  -7    2.01    0.22
   0   8  -7    1.47    0.19
   0   8  -7    1.74    0.21
   0   8  -7    1.90    0.48
   1   8  -7    4.13    0.66
   1   8  -7    3.12    0.31
   1   8  -7    3.14    0.31
   1   8  -7    3.27    0.34
   2   8  -7    5.27    0.38
   2   8  -7    5.40    0.49
   2   8  -7    5.50    0.77
   2   8  -7    4.35    0.39
   2   8  -7    5.15    0.38
   2   8  -7    4.65    0.82
  -2  -8   7    6.45    0.80
   3   8  -7    4.04    0.34
   3   8  -7    2.85    0.66
   3   8  -7    3.76    0.34
   3   8  -7    3.29    0.40
   3   8  -7    3.30    0.37
   3   8  -7    4.23    0.67
  -3  -8   7    2.32    0.56
   4   8  -7    2.84    0.39
   4   8  -7    2.32    0.66
   4   8  -7    2.55    0.32
   4   8  -7    2.98    0.32
   4   8  -7    2.74    0.34
  -4  -8   7    1.54    0.64
   5   8  -7    6.24    0.48
   5   8  -7    6.16    0.44
   5   8  -7    5.66    0.48
   6   8  -7    4.38    0.54
   6   8  -7    4.38    0.40
   6   8  -7    4.83    0.43
   6   8  -7    4.63    0.45
   7   8  -7    0.57    0.21
   7   8  -7    0.38    0.23
   7   8  -7    0.73    0.26
   7   8  -7    0.55    0.28
   8   8  -7    1.24    0.21
   8   8  -7    1.20    0.27
   8   8  -7    1.19    0.23
   8   8  -7    1.14    0.25
   9   8  -7    0.22    0.18
   9   8  -7   -0.19    0.23
   9   8  -7    0.57    0.22
   9   8  -7    0.44    0.17
  -9  -8   7    0.17    0.19
 -10   8  -6    0.22    0.17
  10  -8   6    0.48    0.23
   9  -8   6    1.37    0.27
  -8   8  -6    1.05    0.22
  -8   8  -6    1.23    0.26
   8  -8   6    0.51    0.28
  -7   8  -6    9.29    0.59
  -7   8  -6    9.75    0.58
   7  -8   6    9.78    0.67
  -6   8  -6    0.29    0.21
  -6   8  -6    0.49    0.21
   6  -8   6    0.76    0.27
  -5   8  -6    6.20    0.90
  -5   8  -6    5.47    0.41
  -5   8  -6    5.61    0.41
   5  -8   6    5.03    0.46
  -4   8  -6    4.65    0.36
  -4   8  -6    4.47    0.43
  -4   8  -6    4.16    0.37
  -4   8  -6    4.18    0.63
   4  -8   6    3.03    0.42
  -3   8  -6    1.73    0.46
  -3   8  -6    1.69    0.21
  -3   8  -6    1.55    0.21
  -2   8  -6    3.71    0.60
  -1   8  -6    3.89    0.59
   0   8  -6    0.01    0.35
   0   8  -6    0.03    0.35
   1   8  -6    4.98    0.64
   1   8  -6    5.07    0.63
   2   8  -6    3.23    0.53
   2   8  -6    2.19    0.44
   3   8  -6   15.55    1.17
   3   8  -6   13.79    0.82
   3   8  -6   15.58    1.21
   3   8  -6   14.53    0.86
   3   8  -6   15.64    0.81
  -3  -8   6   18.52    1.18
   4   8  -6    3.68    0.59
   4   8  -6    3.36    0.36
   4   8  -6    3.46    0.35
   4   8  -6    3.31    0.45
   4   8  -6    4.13    0.33
  -4  -8   6    2.79    0.54
   5   8  -6    9.37    0.68
   5   8  -6    8.43    0.98
   5   8  -6    9.11    0.60
   5   8  -6    9.79    0.56
   5   8  -6    9.03    0.57
  -5  -8   6    8.07    1.06
   6   8  -6    4.00    0.44
   6   8  -6    3.86    0.41
   6   8  -6    4.73    0.49
   6   8  -6    4.56    0.39
   7   8  -6    1.52    0.23
   7   8  -6    1.96    0.28
   7   8  -6    1.33    0.26
   7   8  -6    1.71    0.29
   8   8  -6    0.81    0.25
   8   8  -6    1.04    0.26
   8   8  -6    0.80    0.22
   8   8  -6    0.93    0.23
   9   8  -6    0.10    0.20
   9   8  -6    0.54    0.19
   9   8  -6   -0.10    0.23
   9   8  -6    0.02    0.22
  -9  -8   6    0.12    0.20
  10   8  -6    0.27    0.16
  10   8  -6    0.47    0.18
  10   8  -6    0.43    0.17
 -10   8  -5    1.32    0.19
  10  -8   5    1.74    0.27
  -9   8  -5    4.30    0.34
   9  -8   5    4.70    0.44
   8  -8   5    2.00    0.31
  -7   8  -5   17.41    0.97
  -7   8  -5   18.94    0.94
   7  -8   5   18.26    1.10
  -6   8  -5    3.33    0.75
  -6   8  -5    3.21    0.39
  -6   8  -5    3.60    0.33
   6  -8   5    2.89    0.42
  -5   8  -5    4.72    0.35
  -5   8  -5    5.39    0.81
  -5   8  -5    4.46    0.40
   5  -8   5    3.88    0.43
  -4   8  -5    9.43    0.84
  -3   8  -5    4.19    0.57
  -2   8  -5    9.48    0.80
  -2   8  -5   10.64    0.80
  -1   8  -5    7.77    0.66
  -1   8  -5    7.94    0.68
   0   8  -5   19.84    1.31
   0   8  -5   20.35    1.33
   1   8  -5   31.37    1.99
   1   8  -5   32.45    2.00
   2   8  -5    6.38    0.64
   2   8  -5    6.15    0.60
  -2  -8   5    5.88    0.63
   3   8  -5   13.13    0.98
   3   8  -5   12.69    1.00
   4   8  -5    6.87    0.72
   4   8  -5    6.34    0.44
  -4  -8   5    6.81    0.71
   5   8  -5   10.31    0.60
   5   8  -5    9.71    0.61
   5   8  -5   10.41    0.61
   5   8  -5   10.94    0.97
   5   8  -5    9.79    0.67
  -5  -8   5   11.41    0.96
   6   8  -5    7.64    0.49
   6   8  -5    7.76    0.52
   6   8  -5    7.82    0.51
   6   8  -5    6.06    0.95
   6   8  -5    7.56    0.58
  -6  -8   5    7.12    0.95
   7   8  -5    3.29    0.38
   7   8  -5    3.09    0.40
   7   8  -5    2.15    0.28
   7   8  -5    2.73    0.37
   8   8  -5    3.48    0.40
   8   8  -5    3.04    0.38
   8   8  -5    3.23    0.38
   8   8  -5    3.58    0.38
   9   8  -5    1.98    0.26
   9   8  -5    1.45    0.24
   9   8  -5    1.73    0.26
   9   8  -5    1.91    0.25
  -9  -8   5    1.79    0.23
  10   8  -5    2.46    0.28
  10   8  -5    2.38    0.29
  10   8  -5    2.49    0.28
 -10  -8   5    2.94    0.29
 -11   8  -4    0.59    0.14
  11  -8   4    0.27    0.25
 -10   8  -4    0.34    0.18
  10  -8   4    0.83    0.26
  -9   8  -4    2.14    0.29
   9  -8   4    2.05    0.31
  -8   8  -4    0.12    0.19
   8  -8   4    0.18    0.27
  -7   8  -4   17.88    0.85
   7  -8   4   14.59    1.00
  -6   8  -4    2.21    0.22
  -6   8  -4    1.82    0.66
   6  -8   4    2.67    0.37
  -5   8  -4    7.14    0.80
  -5   8  -4    6.32    0.40
  -4   8  -4    9.02    0.76
  -3   8  -4   19.09    1.29
  -3   8  -4   19.78    1.27
  -2   8  -4    2.40    0.42
  -2   8  -4    2.35    0.40
  -1   8  -4    4.17    0.47
  -1   8  -4    4.12    0.44
   0   8  -4    9.82    0.72
   0   8  -4   10.62    0.76
   1   8  -4   10.34    0.75
   1   8  -4   10.38    0.75
   2   8  -4    0.94    0.30
   2   8  -4    1.07    0.26
  -2  -8   4    0.59    0.28
   3   8  -4    6.84    0.62
   3   8  -4    7.04    0.63
   4   8  -4    6.90    0.69
  -4  -8   4    7.19    0.68
   5   8  -4    7.10    0.47
   5   8  -4    8.02    0.52
   5   8  -4    6.62    0.48
   5   8  -4    7.34    0.77
   5   8  -4    7.77    0.47
  -5  -8   4    6.66    0.73
   6   8  -4    2.87    0.36
   6   8  -4    2.65    0.36
   6   8  -4    1.88    0.52
   6   8  -4    2.97    0.33
   6   8  -4    2.71    0.33
  -6  -8   4    1.79    0.53
   7   8  -4    3.25    0.39
   7   8  -4    3.23    0.40
   7   8  -4    3.72    0.38
   7   8  -4    2.96    0.39
   8   8  -4    3.18    0.40
   8   8  -4    2.58    0.37
   8   8  -4    2.49    0.36
   8   8  -4    2.52    0.28
  -8  -8   4    1.86    0.26
   9   8  -4    2.55    0.37
   9   8  -4    3.50    0.38
   9   8  -4    2.95    0.37
   9   8  -4    3.13    0.36
  -9  -8   4    2.54    0.33
  10   8  -4    0.75    0.22
  10   8  -4    0.22    0.21
  10   8  -4    0.53    0.21
 -10  -8   4    0.66    0.20
  11   8  -4    0.22    0.17
  11   8  -4    0.05    0.16
 -11  -8   4    0.51    0.14
 -11   8  -3    0.08    0.14
  11  -8   3    0.30    0.25
 -10   8  -3   -0.13    0.17
  10  -8   3    0.11    0.25
  -9   8  -3   -0.01    0.19
   9  -8   3    0.11    0.26
  -8   8  -3    1.36    0.20
   8  -8   3    1.77    0.30
  -7   8  -3    8.07    0.46
   7  -8   3    7.49    0.59
  -6   8  -3    0.89    0.15
  -5   8  -3    3.39    0.61
  -5   8  -3    4.40    0.62
  -4   8  -3    0.76    0.30
  -4   8  -3    0.43    0.28
  -3   8  -3   14.33    0.96
  -3   8  -3   13.97    0.95
  -2   8  -3    1.65    0.25
  -2   8  -3    1.69    0.25
  -1   8  -3    1.77    0.30
  -1   8  -3    2.27    0.33
   0   8  -3    4.88    0.42
   0   8  -3    5.14    0.44
   1   8  -3    5.68    0.47
   1   8  -3    5.58    0.49
   2   8  -3    6.81    0.58
   2   8  -3    7.04    0.56
   3   8  -3    1.37    0.29
   4   8  -3    5.10    0.53
  -4  -8   3    3.57    0.45
   5   8  -3    1.47    0.40
   6   8  -3    1.21    0.20
   6   8  -3    1.20    0.21
   6   8  -3    1.24    0.20
   6   8  -3    1.44    0.22
   6   8  -3    1.63    0.51
  -6  -8   3    1.22    0.47
   7   8  -3    3.33    0.74
   7   8  -3    4.47    0.40
   7   8  -3    4.82    0.40
   7   8  -3    4.36    0.44
   7   8  -3    4.47    0.42
  -7  -8   3    5.83    0.85
   8   8  -3    2.02    0.28
   8   8  -3    2.12    0.26
   8   8  -3    1.71    0.25
   8   8  -3    2.13    0.26
  -8  -8   3    1.81    0.24
   9   8  -3    4.07    0.42
   9   8  -3    4.60    0.41
   9   8  -3    4.10    0.42
   9   8  -3    3.81    0.40
  -9  -8   3    4.39    0.37
  10   8  -3    0.25    0.22
  10   8  -3    0.10    0.24
  10   8  -3    0.34    0.21
 -10  -8   3    0.85    0.20
  11   8  -3    0.04    0.19
  11   8  -3   -0.09    0.17
 -11  -8   3    0.49    0.16
 -11  -8   3    0.22    0.17
 -11   8  -2    1.78    0.20
 -10   8  -2    0.11    0.17
  10  -8   2   -0.10    0.25
  -9   8  -2    2.29    0.28
   9  -8   2    1.78    0.30
  -8   8  -2    3.31    0.30
   8  -8   2    2.63    0.33
  -7   8  -2    1.03    0.16
   7  -8   2    0.55    0.24
  -6   8  -2   17.07    0.87
  -6   8  -2   18.42    1.26
   6  -8   2   16.46    1.02
  -5   8  -2   11.93    0.87
  -5   8  -2   11.19    0.90
  -4   8  -2   22.11    1.39
  -4   8  -2   21.98    1.41
  -3   8  -2   50.55    3.12
  -3   8  -2   53.16    3.08
  -2   8  -2    2.42    0.30
  -2   8  -2    2.23    0.32
  -1   8  -2    3.84    0.33
  -1   8  -2    3.93    0.36
   0   8  -2    5.08    0.44
   0   8  -2    6.03    0.44
   1   8  -2    1.29    0.20
   1   8  -2    1.05    0.20
  -1  -8   2    1.59    0.26
   2   8  -2   21.18    1.24
   2   8  -2   20.76    1.23
  -2  -8   2   16.61    1.20
   3   8  -2    1.02    0.22
   4   8  -2   20.97    1.45
  -4  -8   2   23.86    1.43
   5   8  -2    9.09    0.78
  -5  -8   2    8.73    0.73
   6   8  -2    1.19    0.17
   6   8  -2    0.97    0.20
   6   8  -2    1.05    0.44
   6   8  -2    1.29    0.21
   6   8  -2    0.94    0.19
  -6  -8   2    0.87    0.39
   7   8  -2    6.94    1.04
   7   8  -2    8.22    0.53
   7   8  -2    8.31    0.55
   7   8  -2    7.44    0.55
   7   8  -2    8.15    0.52
  -7  -8   2    8.91    0.90
   8   8  -2    1.12    0.25
   8   8  -2    1.39    0.23
   8   8  -2    1.39    0.26
   8   8  -2    0.98    0.25
   9   8  -2    1.79    0.26
   9   8  -2    2.81    0.39
   9   8  -2    2.35    0.29
   9   8  -2    2.55    0.29
  -9  -8   2    1.59    0.23
  10   8  -2    0.94    0.24
  10   8  -2    0.62    0.24
  11   8  -2    0.33    0.20
  11   8  -2    0.35    0.20
 -11  -8   2    0.32    0.17
 -11  -8   2    0.05    0.16
 -11   8  -1    2.79    0.24
 -10   8  -1   -0.04    0.17
  10  -8   1    0.05    0.26
  -9   8  -1    2.79    0.31
   9  -8   1    2.78    0.43
  -8   8  -1    0.10    0.16
   8  -8   1    0.13    0.24
   8  -8   1    0.32    0.26
  -7   8  -1    0.81    0.49
  -7   8  -1    0.15    0.13
   7  -8   1    0.08    0.22
   7  -8   1    0.34    0.22
  -6   8  -1   10.72    0.85
  -6   8  -1    9.88    0.55
   6  -8   1   10.90    0.69
  -5   8  -1    0.55    0.26
  -4   8  -1    9.51    0.70
  -4   8  -1    9.47    0.70
  -3   8  -1   21.27    1.39
  -3   8  -1   23.48    1.37
  -2   8  -1   27.99    1.66
  -2   8  -1   27.38    1.69
  -1   8  -1    8.53    0.57
  -1   8  -1    7.77    0.56
   0   8  -1    7.70    0.55
   0   8  -1    8.14    0.54
   1   8  -1   15.50    1.02
   1   8  -1   15.68    1.03
  -1  -8   1   17.75    1.01
   2   8  -1    9.47    0.64
  -2  -8   1    9.01    0.62
   3   8  -1    4.13    0.40
  -3  -8   1    3.29    0.34
   4   8  -1    6.99    0.62
  -4  -8   1    8.08    0.60
   5   8  -1    8.05    0.70
  -5  -8   1    6.92    0.64
   6   8  -1    0.93    0.44
   6   8  -1    1.09    0.17
  -6  -8   1    1.25    0.40
   7   8  -1    2.74    0.69
   7   8  -1    3.15    0.38
   7   8  -1    2.62    0.36
   7   8  -1    2.92    0.34
   7   8  -1    3.28    0.42
  -7  -8   1    4.34    0.61
  -7  -8   1    3.75    0.31
   8   8  -1    4.00    0.38
   8   8  -1    3.61    0.42
   8   8  -1    3.67    0.43
  -8  -8   1    3.68    0.33
   9   8  -1    6.14    0.48
   9   8  -1    5.52    0.48
  -9  -8   1    5.57    0.42
  10   8  -1    0.63    0.25
  10   8  -1    0.58    0.24
 -10  -8   1    0.17    0.21
 -10  -8   1    0.26    0.18
  11   8  -1    5.38    0.40
  11   8  -1    4.71    0.37
 -11  -8   1    5.36    0.35
 -11  -8   1    5.30    0.34
 -11   8   0    9.61    0.51
 -10   8   0    5.03    0.36
  10  -8   0    5.13    0.51
  -9   8   0   17.78    0.89
   9  -8   0   16.79    1.05
   9  -8   0   16.63    0.95
  -8   8   0    9.09    0.53
   8  -8   0    9.02    0.67
   8  -8   0    9.46    0.61
  -7   8   0    0.95    0.48
   7  -8   0    0.51    0.18
   7  -8   0    0.43    0.21
   7  -8   0    0.61    0.20
  -6   8   0    7.87    0.72
  -5   8   0    0.21    0.24
  -4   8   0    0.48    0.19
  -3   8   0   50.49    3.03
  -2   8   0   81.10    4.70
  -2   8   0   79.97    4.78
  -1   8   0  371.84   22.46
  -1   8   0  388.49   22.72
   1  -8   0  399.41   22.45
   0   8   0  471.21   27.49
   0  -8   0  464.83   27.18
   1   8   0  406.13   23.67
  -1  -8   0  399.27   23.40
   2   8   0   85.34    5.00
  -2  -8   0   83.08    4.94
   3   8   0   54.90    3.13
  -3  -8   0   49.36    3.09
   4   8   0    0.56    0.23
  -4  -8   0    0.22    0.19
   5   8   0    0.14    0.29
  -5  -8   0   -0.01    0.24
   6   8   0    7.45    0.77
  -6  -8   0    6.24    0.67
   7   8   0    0.81    0.25
   7   8   0    0.94    0.21
   7   8   0    1.08    0.19
  -7  -8   0    0.58    0.43
  -7  -8   0    0.51    0.15
   8   8   0    8.37    0.58
   8   8   0    7.92    0.61
  -8  -8   0    9.63    0.53
   9   8   0   16.11    0.98
   9   8   0   15.85    0.91
  -9  -8   0   17.89    0.89
  10   8   0    4.88    0.44
  10   8   0    4.41    0.44
 -10  -8   0    4.63    0.37
 -10  -8   0    5.09    0.35
  11   8   0    8.59    0.59
 -11  -8   0    9.86    0.51
 -11   8   1    5.17    0.33
 -10   8   1    0.43    0.19
  10  -8  -1    0.30    0.23
  -9   8   1    5.83    0.41
   9  -8  -1    5.90    0.56
   9  -8  -1    5.94    0.48
  -8   8   1    3.92    0.33
   8  -8  -1    4.29    0.47
   8  -8  -1    4.33    0.51
   8  -8  -1    3.93    0.39
   8  -8  -1    4.16    0.41
  -7   8   1    3.04    0.28
  -7   8   1    3.77    0.57
   7  -8  -1    3.18    0.34
   7  -8  -1    3.67    0.46
   7  -8  -1    3.40    0.34
   7  -8  -1    3.09    0.43
  -6   8   1    0.95    0.35
   6  -8  -1    0.82    0.21
   6  -8  -1    0.73    0.16
  -5   8   1    7.76    0.65
  -4   8   1    6.95    0.56
  -3   8   1    3.63    0.36
  -2   8   1    8.58    0.59
  -1   8   1   15.35    0.96
   0  -8  -1   14.09    0.85
   2   8   1   27.24    1.67
  -2  -8  -1   27.45    1.64
   3   8   1   23.68    1.45
  -3  -8  -1   23.00    1.43
   4   8   1    9.77    0.81
  -4  -8  -1   12.97    0.79
   6   8   1    9.53    0.60
  -6  -8  -1   10.86    0.58
  -6  -8  -1   12.08    0.87
   7   8   1    0.27    0.21
  -7  -8  -1    0.35    0.45
  -7  -8  -1    0.23    0.15
   8   8   1    0.60    0.25
  -8  -8  -1    0.16    0.17
   9   8   1    2.36    0.34
  -9  -8  -1    2.81    0.31
  10   8   1    0.37    0.27
 -10  -8  -1    0.38    0.17
 -11  -8  -1    1.68    0.21
 -11   8   2    0.02    0.20
 -11   8   2    0.29    0.15
  11  -8  -2    0.28    0.19
 -10   8   2    0.67    0.20
  10  -8  -2    1.34    0.23
  10  -8  -2    1.29    0.27
  -9   8   2    2.24    0.23
   9  -8  -2    1.71    0.29
   9  -8  -2    2.11    0.33
   9  -8  -2    1.57    0.26
   8  -8  -2    2.73    0.40
   8  -8  -2    2.58    0.32
   8  -8  -2    1.95    0.25
   8  -8  -2    2.10    0.25
  -7   8   2    8.21    0.53
  -7   8   2    8.50    0.94
   7  -8  -2   10.29    0.57
   7  -8  -2    9.95    0.56
   7  -8  -2    9.61    0.70
   7  -8  -2    9.36    0.63
  -6   8   2    1.09    0.20
  -6   8   2    0.89    0.39
   6  -8  -2    1.03    0.21
   6  -8  -2    1.10    0.16
   6  -8  -2    0.84    0.22
   6  -8  -2    1.44    0.23
  -5   8   2    9.12    0.73
  -4   8   2   21.37    1.37
  -3   8   2    1.25    0.22
  -2   8   2   19.70    1.23
  -1   8   2    1.25    0.18
   0  -8  -2    2.28    0.22
   3   8   2   51.38    3.07
  -3  -8  -2   51.08    3.04
  -4  -8  -2   22.01    1.39
  -5  -8  -2   13.45    0.96
   6   8   2   16.87    1.00
  -6  -8  -2   17.51    1.21
  -6  -8  -2   16.91    0.88
   7   8   2    1.08    0.26
  -7  -8  -2    0.46    0.16
  -7  -8  -2    0.54    0.49
  -8  -8  -2    2.28    0.31
   9   8   2    2.00    0.36
  -9  -8  -2    2.20    0.28
 -10  -8  -2    0.10    0.17
 -11  -8  -2    1.90    0.21
 -11   8   3    0.29    0.19
 -11   8   3   -0.04    0.15
  11  -8  -3    0.47    0.17
 -10   8   3    0.16    0.19
  10  -8  -3    0.74    0.21
  10  -8  -3    0.75    0.24
  -9   8   3    4.06    0.37
   9  -8  -3    4.43    0.41
   9  -8  -3    4.84    0.44
   9  -8  -3    4.79    0.41
  -8   8   3    1.98    0.24
   8  -8  -3    2.18    0.27
   8  -8  -3    2.43    0.26
   8  -8  -3    2.21    0.28
   8  -8  -3    2.40    0.34
   7  -8  -3    6.86    0.48
   7  -8  -3    7.53    0.62
   7  -8  -3    6.19    0.49
   7  -8  -3    6.79    0.52
  -6   8   3    1.16    0.20
  -6   8   3    1.08    0.42
   6  -8  -3    0.79    0.17
   6  -8  -3    0.80    0.22
   6  -8  -3    1.04    0.23
   6  -8  -3    0.68    0.19
  -5   8   3    1.93    0.35
  -4   8   3    4.75    0.47
  -3   8   3    0.99    0.22
  -2   8   3    6.66    0.52
  -1   8   3    5.71    0.45
   0  -8  -3    3.10    0.30
   1   8   3    1.85    0.24
  -2  -8  -3    3.01    0.35
  -3  -8  -3   18.31    1.17
  -4  -8  -3    2.53    0.35
  -5  -8  -3    0.41    0.33
  -6  -8  -3    1.81    0.44
  -6  -8  -3    2.43    0.35
  -6  -8  -3    1.47    0.18
  -7  -8  -3    7.77    0.46
  -7  -8  -3    6.93    0.89
  -8  -8  -3    1.73    0.21
  -9  -8  -3    0.06    0.18
 -10  -8  -3    0.04    0.17
 -11  -8  -3    0.43    0.14
 -11   8   4    0.54    0.16
 -11   8   4    0.19    0.17
  11  -8  -4    0.73    0.20
  11  -8  -4    0.53    0.15
 -10   8   4    0.64    0.20
  10  -8  -4    0.72    0.19
  10  -8  -4    0.79    0.22
  -9   8   4    2.78    0.34
   9  -8  -4    3.57    0.37
   9  -8  -4    2.87    0.36
   9  -8  -4    3.13    0.36
  -8   8   4    2.36    0.33
   8  -8  -4    2.26    0.37
   8  -8  -4    2.00    0.28
   8  -8  -4    1.61    0.25
   8  -8  -4    1.66    0.26
   7  -8  -4    5.04    0.59
   7  -8  -4    6.15    0.47
   7  -8  -4    5.12    0.42
   7  -8  -4    5.04    0.47
  -6   8   4    2.79    0.52
   6  -8  -4    1.89    0.22
   6  -8  -4    1.94    0.29
   6  -8  -4    1.84    0.22
  -5   8   4    7.79    0.72
   5  -8  -4    7.32    0.47
   5  -8  -4    6.45    0.46
   5  -8  -4    6.61    0.55
  -4   8   4    6.46    0.62
  -3   8   4    6.92    0.59
  -2   8   4    0.94    0.23
  -1   8   4   10.63    0.74
   0   8   4    9.67    0.70
  -1  -8  -4    3.70    0.41
  -2  -8  -4    3.13    0.41
  -3  -8  -4   16.90    1.12
  -4  -8  -4    7.78    0.69
  -5  -8  -4    3.83    0.60
  -5  -8  -4    3.97    0.34
  -5  -8  -4    3.51    0.31
  -6  -8  -4    2.91    0.35
  -6  -8  -4    2.96    0.32
  -6  -8  -4    3.04    0.56
  -7  -8  -4   14.81    0.89
  -7  -8  -4   15.81    0.81
  -8  -8  -4    0.03    0.19
  -9  -8  -4    1.89    0.27
 -10  -8  -4    0.56    0.17
 -11  -8  -4    0.44    0.13
  10  -8  -5    3.08    0.31
  10  -8  -5    3.10    0.29
  -9   8   5    1.97    0.27
   9  -8  -5    1.55    0.24
   9  -8  -5    1.50    0.24
   8  -8  -5    3.04    0.39
   8  -8  -5    2.55    0.36
   7  -8  -5    3.26    0.37
   7  -8  -5    1.99    0.35
   7  -8  -5    3.07    0.37
  -6   8   5    7.21    0.91
   6  -8  -5    7.29    0.65
   6  -8  -5    7.38    0.52
   6  -8  -5    7.11    0.50
  -5   8   5   10.42    0.98
   5  -8  -5   10.91    0.74
   5  -8  -5    9.71    0.63
   5  -8  -5   11.02    0.65
  -4   8   5    6.43    0.71
  -3   8   5   11.99    0.92
  -2   8   5    6.00    0.57
  -1   8   5   31.33    1.94
  -2  -8  -5   14.39    1.01
  -3  -8  -5    3.53    0.58
  -4  -8  -5    6.83    0.76
  -5  -8  -5    3.99    0.34
  -5  -8  -5    3.34    0.37
  -5  -8  -5    4.32    0.61
  -5  -8  -5    4.02    0.61
  -6  -8  -5    3.10    0.38
  -6  -8  -5    3.75    0.70
  -6  -8  -5    2.58    0.31
  -7  -8  -5   18.29    1.04
  -7  -8  -5   18.72    0.97
  -8  -8  -5    1.91    0.23
  -9  -8  -5    4.94    0.37
 -10  -8  -5    1.56    0.21
  10  -8  -6    0.67    0.18
  10  -8  -6    0.43    0.16
   9  -8  -6    0.26    0.20
   9  -8  -6    0.19    0.19
   8  -8  -6    0.40    0.22
   8  -8  -6    0.37    0.22
   7  -8  -6    1.80    0.25
   7  -8  -6    1.38    0.25
   6  -8  -6    2.69    0.38
   6  -8  -6    2.52    0.37
   6  -8  -6    3.40    0.52
  -5   8   6    8.79    0.99
   5  -8  -6    9.01    0.67
   5  -8  -6    9.02    0.60
   5  -8  -6    8.49    0.58
  -4   8   6    3.42    0.58
   4  -8  -6    2.71    0.44
   4  -8  -6    3.11    0.34
   4  -8  -6    2.52    0.28
  -3   8   6   16.26    1.27
   3  -8  -6   17.20    1.03
   3  -8  -6   17.68    0.98
  -3  -8  -6    1.64    0.55
  -3  -8  -6    2.04    0.27
  -3  -8  -6    2.63    0.39
  -4  -8  -6    2.20    0.30
  -4  -8  -6    2.49    0.34
  -4  -8  -6    3.06    0.63
  -4  -8  -6    2.81    0.45
  -5  -8  -6    3.95    0.78
  -5  -8  -6    4.57    0.40
  -5  -8  -6    3.90    0.38
  -5  -8  -6    4.52    0.54
  -6  -8  -6    0.98    0.24
  -6  -8  -6    1.01    0.22
  -6  -8  -6    0.90    0.32
  -7  -8  -6    9.74    0.59
  -7  -8  -6    9.98    0.64
  -8  -8  -6    0.64    0.20
  -9  -8  -6    1.43    0.19
 -10  -8  -6    0.02    0.14
   9  -8  -7    0.17    0.18
   9  -8  -7    0.22    0.18
   8  -8  -7    0.54    0.22
   8  -8  -7    0.56    0.20
   7  -8  -7    1.13    0.23
   7  -8  -7    1.10    0.24
   6  -8  -7    3.07    0.40
   6  -8  -7    3.36    0.42
   6  -8  -7    3.39    0.54
   5  -8  -7    5.26    0.46
   5  -8  -7    5.31    0.57
   5  -8  -7    4.96    0.48
   4  -8  -7    3.02    0.46
   4  -8  -7    2.12    0.28
   3  -8  -7    2.82    0.41
   3  -8  -7    2.61    0.37
   2  -8  -7    5.17    0.46
   2  -8  -7    3.75    0.47
   1  -8  -7    5.03    0.45
   0  -8  -7    2.35    0.35
   0  -8  -7    2.64    0.35
  -1  -8  -7    9.29    0.64
  -1  -8  -7    9.62    0.57
  -2  -8  -7    6.31    0.43
  -2  -8  -7    5.68    0.51
  -3  -8  -7    6.18    0.52
  -3  -8  -7    5.79    0.43
  -4  -8  -7    3.73    0.47
  -4  -8  -7    3.96    0.44
  -4  -8  -7    4.18    0.37
  -5  -8  -7    3.05    0.48
  -5  -8  -7    3.13    0.39
  -5  -8  -7    3.53    0.37
  -6  -8  -7    3.12    0.39
  -6  -8  -7    2.36    0.35
  -6  -8  -7    2.58    0.36
  -7  -8  -7    1.05    0.23
  -7  -8  -7    1.28    0.27
  -8  -8  -7    0.17    0.19
  -9  -8  -7    0.44    0.16
   9  -8  -8    1.09    0.18
   9  -8  -8    1.08    0.18
   8  -8  -8    1.31    0.22
   8  -8  -8    0.85    0.21
   7  -8  -8    1.22    0.25
   7  -8  -8    1.42    0.25
   6  -8  -8   -0.08    0.24
   6  -8  -8   -0.28    0.23
   5  -8  -8    0.45    0.28
   5  -8  -8    0.23    0.25
   4  -8  -8    0.86    0.26
   4  -8  -8    1.13    0.26
   3  -8  -8    1.85    0.29
   3  -8  -8    2.31    0.29
   2  -8  -8    3.21    0.44
   1  -8  -8    3.29    0.40
   0  -8  -8    3.71    0.42
   0  -8  -8    3.91    0.42
  -1  -8  -8    3.53    0.40
  -1  -8  -8    3.66    0.39
  -2  -8  -8    1.15    0.22
  -2  -8  -8    1.28    0.23
  -3  -8  -8    0.48    0.21
  -3  -8  -8    0.79    0.24
  -4  -8  -8    1.21    0.27
  -4  -8  -8    0.91    0.23
  -5  -8  -8    1.69    0.28
  -5  -8  -8    1.58    0.25
  -5  -8  -8    1.02    0.29
  -6  -8  -8    0.33    0.27
  -6  -8  -8    0.57    0.24
  -6  -8  -8    0.31    0.24
   7   8   8    0.44    0.32
  -7  -8  -8    0.67    0.22
  -7  -8  -8    0.83    0.26
  -7  -8  -8    1.04    0.29
  -8  -8  -8    0.18    0.19
  -9  -8  -8    0.72    0.15
   8  -8  -9    1.22    0.19
   7  -8  -9    3.14    0.35
   6  -8  -9    1.02    0.25
   5  -8  -9    2.64    0.41
   5  -8  -9    2.99    0.47
   4  -8  -9    2.73    0.43
   4  -8  -9    3.35    0.36
   3  -8  -9    1.10    0.27
   2  -8  -9    0.93    0.26
   1  -8  -9    2.85    0.42
   0  -8  -9    0.87    0.23
   0  -8  -9    0.69    0.27
  -1  -8  -9    3.39    0.42
  -1  -8  -9    3.37    0.39
  -2  -8  -9    2.67    0.39
  -2  -8  -9    2.64    0.36
  -3  -8  -9    3.42    0.41
  -3  -8  -9    3.31    0.38
  -4  -8  -9    2.53    0.36
  -4  -8  -9    2.11    0.30
  -5  -8  -9    3.98    0.41
  -5  -8  -9    4.16    0.38
  -5  -8  -9    3.71    0.45
  -6  -8  -9    2.72    0.38
  -6  -8  -9    2.02    0.26
   7   8   9    0.66    0.29
  -7  -8  -9    0.21    0.20
  -7  -8  -9    0.87    0.26
  -7  -8  -9    0.55    0.24
  -8  -8  -9    1.15    0.18
   7  -8 -10    2.03    0.27
   6  -8 -10    0.67    0.23
   4  -8 -10    3.64    0.47
   3  -8 -10    1.92    0.30
   2  -8 -10    0.73    0.25
   1  -8 -10    1.12    0.26
   0  -8 -10    1.45    0.26
   0  -8 -10    1.26    0.29
  -1  -8 -10    3.39    0.40
  -1  -8 -10    3.53    0.42
  -2  -8 -10    0.94    0.27
  -2  -8 -10    1.39    0.26
  -3  -8 -10    6.31    0.48
  -3  -8 -10    6.28    0.50
  -4  -8 -10    3.27    0.39
  -4  -8 -10    3.18    0.37
  -5  -8 -10    2.40    0.36
  -5  -8 -10    2.83    0.34
   6   8  10    1.42    0.27
  -6  -8 -10    1.30    0.24
  -6  -8 -10    1.50    0.24
   7   8  10    0.56    0.24
  -7  -8 -10    0.43    0.22
  -7  -8 -10    0.33    0.20
  -7  -8 -10    0.71    0.22
   3  -8 -11    1.08    0.26
   2  -8 -11    0.90    0.24
   1  -8 -11    2.19    0.36
   0  -8 -11    2.73    0.39
   0  -8 -11    3.36    0.37
  -1  -8 -11    3.09    0.36
  -1  -8 -11    2.81    0.38
  -2  -8 -11    1.53    0.26
  -2  -8 -11    1.45    0.25
  -3  -8 -11    3.92    0.36
  -3  -8 -11    3.49    0.38
  -4  -8 -11    1.07    0.23
  -4  -8 -11    1.03    0.24
   5   8  11    1.25    0.24
  -5  -8 -11    0.89    0.20
  -5  -8 -11    0.58    0.20
   6   8  11    0.57    0.21
  -6  -8 -11    0.74    0.18
  -6  -8 -11    0.30    0.17
   2  -8 -12    0.53    0.23
   1  -8 -12    0.44    0.22
   0  -8 -12    0.78    0.22
  -1  -8 -12    0.50    0.21
  -1  -8 -12    0.29    0.23
  -2  -8 -12    0.84    0.21
  -2  -8 -12    0.73    0.22
  -3  -8 -12    0.69    0.19
  -3  -8 -12    0.51    0.19
  -4  -8 -12    0.72    0.17
  -4  -8 -12    0.56    0.17
   0  -8 -13    0.18    0.18
  -1  -8 -13    0.49    0.17
  -4   9 -12    0.52    0.15
  -4   9 -12    0.69    0.18
  -3   9 -12    0.75    0.19
  -3   9 -12    0.92    0.18
  -2   9 -12    1.45    0.20
  -2   9 -12    1.21    0.20
  -1   9 -12    1.86    0.24
  -1   9 -12    1.84    0.23
   0   9 -12    0.99    0.20
   0   9 -12    0.68    0.19
   1   9 -12    0.81    0.19
   1   9 -12    0.95    0.20
   2   9 -12    0.53    0.21
   2   9 -12    0.69    0.19
   3   9 -12    0.33    0.19
   3   9 -12    0.29    0.23
  -6   9 -11    0.47    0.15
  -5   9 -11    1.09    0.26
  -5   9 -11    1.25    0.19
   5  -9  11    1.51    0.29
  -4   9 -11    1.09    0.20
  -4   9 -11    0.56    0.21
  -3   9 -11    1.07    0.23
  -3   9 -11    1.10    0.22
  -2   9 -11    2.90    0.30
  -2   9 -11    2.74    0.31
  -1   9 -11    2.05    0.30
  -1   9 -11    2.30    0.29
  -1   9 -11    1.51    0.31
   0   9 -11    3.83    0.38
   0   9 -11    3.90    0.35
   0   9 -11    4.18    0.35
   1   9 -11    1.32    0.24
   1   9 -11    1.50    0.22
   1   9 -11    1.15    0.27
   2   9 -11    2.35    0.31
   2   9 -11    1.87    0.28
   2   9 -11    2.36    0.30
   3   9 -11    1.76    0.25
   3   9 -11    1.95    0.27
   3   9 -11    1.32    0.26
   4   9 -11    0.49    0.21
   4   9 -11    0.59    0.21
   5   9 -11    0.22    0.21
   5   9 -11    0.92    0.21
  -7   9 -10    0.69    0.17
   7  -9  10    0.19    0.21
  -6   9 -10    0.33    0.18
   6  -9  10    0.75    0.26
  -5   9 -10    3.85    0.33
  -5   9 -10    4.74    0.40
   5  -9  10    3.96    0.44
  -4   9 -10    1.16    0.26
  -4   9 -10    1.24    0.23
  -4   9 -10    1.74    0.29
   4  -9  10    2.04    0.35
  -3   9 -10    2.71    0.33
  -3   9 -10    2.41    0.32
  -3   9 -10    1.98    0.31
  -2   9 -10    0.95    0.28
  -2   9 -10    0.47    0.23
  -2   9 -10    0.99    0.23
  -1   9 -10    4.67    0.42
  -1   9 -10    4.94    0.40
  -1   9 -10    5.22    0.40
   0   9 -10    0.71    0.24
   0   9 -10    0.67    0.27
   0   9 -10    0.62    0.23
   1   9 -10    3.48    0.36
   1   9 -10    2.89    0.37
   1   9 -10    3.29    0.35
   2   9 -10    0.67    0.25
   2   9 -10    1.02    0.24
   2   9 -10    1.14    0.23
   3   9 -10    2.86    0.35
   3   9 -10    3.31    0.38
   3   9 -10    3.29    0.35
   4   9 -10    2.11    0.31
   4   9 -10    2.29    0.33
   4   9 -10    2.43    0.31
   5   9 -10    2.46    0.31
   5   9 -10    1.96    0.27
   6   9 -10    1.93    0.26
   6   9 -10    1.44    0.25
   6   9 -10    2.00    0.27
   7   9 -10    0.32    0.20
   7   9 -10    0.66    0.17
  -8   9  -9    0.00    0.18
   8  -9   9    0.61    0.21
  -7   9  -9    3.57    0.30
  -7   9  -9    2.68    0.32
   7  -9   9    3.60    0.37
  -6   9  -9    0.68    0.24
  -6   9  -9    1.21    0.22
   6  -9   9    0.92    0.30
  -5   9  -9    3.13    0.42
  -5   9  -9    3.39    0.38
  -5   9  -9    4.38    0.35
   5  -9   9    3.39    0.44
  -4   9  -9    2.77    0.36
  -4   9  -9    2.57    0.33
  -4   9  -9    2.62    0.37
   4  -9   9    1.66    0.35
  -3   9  -9    3.06    0.37
  -3   9  -9    2.75    0.35
  -3   9  -9    3.43    0.38
   3  -9   9    3.37    0.48
  -2   9  -9    0.58    0.25
  -2   9  -9    0.36    0.22
  -2   9  -9    0.78    0.23
  -1   9  -9    1.04    0.23
  -1   9  -9    1.48    0.24
  -1   9  -9    1.15    0.26
   0   9  -9    1.64    0.24
   0   9  -9    1.35    0.26
   0   9  -9    1.42    0.24
   1   9  -9    4.66    0.40
   1   9  -9    4.80    0.41
   1   9  -9    4.46    0.42
   2   9  -9    1.01    0.23
   2   9  -9    0.73    0.23
   2   9  -9    0.64    0.25
   3   9  -9    5.91    0.45
   3   9  -9    5.79    0.44
   3   9  -9    5.80    0.47
   4   9  -9    3.66    0.42
   4   9  -9    3.54    0.39
   4   9  -9    4.00    0.38
   4   9  -9    3.29    0.42
   5   9  -9    0.59    0.24
   5   9  -9    0.79    0.23
   5   9  -9    0.85    0.26
   6   9  -9    3.27    0.32
   6   9  -9    3.15    0.34
   6   9  -9    3.14    0.36
   7   9  -9    0.99    0.22
   7   9  -9    1.05    0.20
   7   9  -9    1.07    0.21
   8   9  -9    0.30    0.16
   8   9  -9    0.38    0.16
   9  -9   8    1.05    0.20
  -8   9  -8    1.31    0.22
  -8   9  -8    1.06    0.22
   8  -9   8    1.62    0.26
  -7   9  -8    0.45    0.22
  -7   9  -8    0.67    0.23
   7  -9   8    0.54    0.27
  -6   9  -8    0.10    0.23
  -6   9  -8   -0.11    0.22
   6  -9   8    0.69    0.30
  -5   9  -8    0.95    0.25
  -5   9  -8    1.20    0.23
  -4   9  -8    1.13    0.28
  -4   9  -8    0.91    0.24
  -4   9  -8    0.84    0.22
  -3   9  -8    0.64    0.29
  -3   9  -8    0.69    0.24
  -3   9  -8    0.87    0.21
  -3   9  -8    0.88    0.24
  -2   9  -8    0.80    0.68
  -2   9  -8    1.56    0.24
  -2   9  -8    1.76    0.24
  -2   9  -8    1.55    0.21
  -1   9  -8    1.89    0.24
  -1   9  -8    1.40    0.22
  -1   9  -8    1.52    0.62
  -1   9  -8    1.25    0.22
   0   9  -8    5.00    0.40
   0   9  -8    5.23    0.39
   0   9  -8    4.81    0.40
   1   9  -8    2.95    0.33
   1   9  -8    2.50    0.69
   1   9  -8    3.48    0.35
   1   9  -8    2.93    0.35
   2   9  -8    0.55    0.21
   2   9  -8    0.53    0.21
   2   9  -8    0.64    0.21
   2   9  -8    0.19    0.73
  -2  -9   8    0.59    0.66
   3   9  -8    1.34    0.26
   3   9  -8    1.41    0.25
   3   9  -8    1.10    0.28
   3   9  -8    1.43    0.25
   4   9  -8    1.90    0.27
   4   9  -8    1.56    0.27
   4   9  -8    1.69    0.25
   4   9  -8    1.21    0.29
   5   9  -8    0.58    0.23
   5   9  -8    0.51    0.26
   5   9  -8   -0.02    0.23
   6   9  -8    0.33    0.26
   6   9  -8    0.29    0.22
   6   9  -8    0.14    0.21
   7   9  -8    0.31    0.21
   7   9  -8    0.16    0.23
   7   9  -8    0.07    0.20
   8   9  -8    0.48    0.18
   8   9  -8    0.59    0.19
   8   9  -8    0.61    0.21
  -8  -9   8    0.12    0.20
   9   9  -8    0.76    0.15
   9   9  -8    1.02    0.16
  -9   9  -7    1.12    0.20
   9  -9   7    1.45    0.25
  -8   9  -7    0.65    0.24
  -8   9  -7    0.53    0.21
   8  -9   7    0.23    0.24
  -7   9  -7   -0.04    0.23
  -7   9  -7    0.38    0.23
  -6   9  -7    8.49    0.55
  -6   9  -7    8.84    0.55
   6  -9   7    8.42    0.63
  -5   9  -7    4.52    0.42
  -5   9  -7    5.04    0.40
  -4   9  -7    6.38    0.45
  -4   9  -7    6.74    0.52
  -4   9  -7    6.08    0.45
  -4   9  -7    6.17    0.98
   4  -9   7    6.13    0.53
  -3   9  -7   14.59    0.82
  -3   9  -7   15.18    0.78
  -3   9  -7   14.87    0.79
  -3   9  -7   14.84    1.23
  -3   9  -7   13.66    0.91
   3  -9   7   14.40    0.92
  -2   9  -7    1.67    0.23
  -2   9  -7    1.49    0.56
  -2   9  -7    1.11    0.20
  -2   9  -7    1.65    0.21
  -1   9  -7    8.92    0.52
  -1   9  -7    9.71    0.90
  -1   9  -7    8.66    0.54
  -1   9  -7    8.38    0.52
   0   9  -7    1.18    0.20
   0   9  -7    0.71    0.52
   0   9  -7    1.06    0.20
   0   9  -7    1.00    0.19
   1   9  -7    4.13    0.66
   1   9  -7    4.08    0.34
   1   9  -7    4.19    0.34
   1   9  -7    4.06    0.64
   1   9  -7    4.12    0.36
   2   9  -7    1.20    0.58
   2   9  -7    1.25    0.21
   2   9  -7    1.23    0.24
   2   9  -7    1.19    0.58
   2   9  -7    1.16    0.20
   2   9  -7    1.00    0.20
  -2  -9   7    0.66    0.52
   3   9  -7    7.43    0.50
   3   9  -7    7.63    0.53
   3   9  -7    7.74    0.56
   3   9  -7    7.61    0.50
   3   9  -7    8.11    0.95
   3   9  -7    7.74    0.99
  -3  -9   7    9.58    0.92
   4   9  -7    7.55    0.55
   4   9  -7    6.86    1.03
   4   9  -7    8.39    0.54
   4   9  -7    7.64    0.52
   4   9  -7    7.23    0.50
  -4  -9   7    9.58    0.99
   5   9  -7    1.84    0.26
   5   9  -7    1.57    0.25
   5   9  -7    1.74    0.28
   6   9  -7    6.17    0.46
   6   9  -7    5.82    0.47
   6   9  -7    5.70    0.48
   7   9  -7    2.04    0.28
   7   9  -7    2.29    0.33
   7   9  -7    2.34    0.33
   7   9  -7    1.80    0.28
   8   9  -7    0.66    0.26
   8   9  -7    0.76    0.21
   8   9  -7    0.48    0.19
   8   9  -7    0.53    0.23
   9   9  -7    0.62    0.18
   9   9  -7    0.49    0.22
   9   9  -7    0.74    0.19
   9   9  -7    1.02    0.23
  -9  -9   7    1.09    0.19
 -10   9  -6    0.54    0.16
  10  -9   6    0.43    0.21
  -9   9  -6    0.51    0.19
   9  -9   6    0.39    0.25
  -8   9  -6    1.48    0.23
   8  -9   6    1.11    0.28
  -7   9  -6    2.82    0.38
  -7   9  -6    2.27    0.26
   7  -9   6    2.68    0.42
  -6   9  -6    7.25    0.51
  -6   9  -6    7.95    0.50
   6  -9   6    7.56    0.59
  -5   9  -6    8.04    0.48
  -5   9  -6    6.79    1.09
  -5   9  -6    8.36    0.52
   5  -9   6    6.34    0.57
  -4   9  -6    9.14    0.94
  -4   9  -6    8.87    0.52
  -4   9  -6    8.34    0.54
   4  -9   6    9.13    0.62
  -3   9  -6    8.07    0.54
  -3   9  -6    8.79    0.50
  -3   9  -6    8.69    0.85
  -3   9  -6    8.51    0.52
  -3   9  -6    7.70    0.61
   3  -9   6    8.12    0.61
  -2   9  -6    7.21    0.77
  -1   9  -6    7.03    0.73
   0   9  -6    0.46    0.41
   0   9  -6    0.14    0.39
   1   9  -6    0.49    0.43
   1   9  -6    0.35    0.40
   2   9  -6    3.58    0.55
   2   9  -6    3.05    0.50
  -2  -9   6    2.78    0.54
   3   9  -6    6.70    0.44
   3   9  -6    4.76    0.74
   3   9  -6    6.14    0.41
   3   9  -6    5.53    0.46
   3   9  -6    5.98    0.41
   3   9  -6    5.01    0.75
  -3  -9   6    5.56    0.74
   4   9  -6    3.90    0.36
   4   9  -6    2.65    0.58
   4   9  -6    3.10    0.41
   4   9  -6    4.43    0.40
   4   9  -6    4.10    0.35
  -4  -9   6    5.27    0.73
   5   9  -6    6.37    0.57
   5   9  -6    5.68    0.92
   5   9  -6    6.63    0.47
   5   9  -6    5.99    0.45
   5   9  -6    6.15    0.48
   6   9  -6    1.70    0.28
   6   9  -6    2.14    0.25
   6   9  -6    1.85    0.30
   6   9  -6    1.67    0.25
   7   9  -6    2.43    0.30
   7   9  -6    2.60    0.30
   7   9  -6    2.43    0.32
   7   9  -6    2.41    0.35
   8   9  -6    0.41    0.21
   8   9  -6    0.33    0.23
   8   9  -6    0.50    0.22
   8   9  -6    0.39    0.25
   9   9  -6    1.21    0.24
   9   9  -6    1.16    0.23
   9   9  -6    1.12    0.21
   9   9  -6    1.25    0.20
  -9  -9   6    1.09    0.20
  10   9  -6    0.25    0.17
  10   9  -6    0.44    0.17
  10   9  -6    0.02    0.15
 -10  -9   6    0.57    0.19
 -10   9  -5    1.28    0.18
  10  -9   5    1.47    0.25
  -9   9  -5    1.11    0.21
   9  -9   5    1.77    0.29
  -8   9  -5    0.82    0.22
   8  -9   5    0.88    0.28
  -7   9  -5    2.88    0.35
   7  -9   5    3.55    0.44
  -6   9  -5    6.89    0.47
  -6   9  -5    7.35    0.53
   6  -9   5    8.10    0.58
  -5   9  -5    1.66    0.25
  -5   9  -5    2.11    0.61
  -5   9  -5    2.12    0.28
   5  -9   5    1.90    0.27
  -4   9  -5    8.96    0.51
  -4   9  -5    9.47    0.87
   4  -9   5    8.72    0.62
  -3   9  -5   13.18    1.01
  -2   9  -5   40.53    2.51
  -2   9  -5   40.24    2.49
  -1   9  -5   53.50    3.29
  -1   9  -5   55.00    3.28
   0   9  -5   30.26    1.93
   0   9  -5   31.14    1.94
   1   9  -5   17.66    1.23
   1   9  -5   18.81    1.25
   2   9  -5   14.31    1.04
   2   9  -5   15.01    1.07
  -2  -9   5   14.04    1.06
   3   9  -5    2.27    0.43
   3   9  -5    2.76    0.47
  -3  -9   5    3.49    0.53
   4   9  -5    1.48    0.21
   4   9  -5    0.63    0.41
   4   9  -5    1.44    0.19
  -4  -9   5    1.96    0.45
   5   9  -5    4.02    0.40
   5   9  -5    2.99    0.47
   5   9  -5    4.16    0.37
   5   9  -5    3.69    0.36
   5   9  -5    3.80    0.62
  -5  -9   5    4.52    0.73
   6   9  -5    1.03    0.21
   6   9  -5    0.70    0.25
   6   9  -5    0.98    0.20
   6   9  -5    1.02    0.24
  -6  -9   5    2.06    0.64
   7   9  -5    7.56    0.57
   7   9  -5    7.58    0.52
   7   9  -5    6.85    0.51
   7   9  -5    7.70    0.52
   8   9  -5    3.77    0.40
   8   9  -5    4.16    0.39
   8   9  -5    4.43    0.40
   8   9  -5    3.69    0.43
   9   9  -5    2.30    0.33
   9   9  -5    1.90    0.25
   9   9  -5    2.14    0.26
   9   9  -5    1.80    0.26
  -9  -9   5    2.28    0.29
  10   9  -5    3.85    0.33
  10   9  -5    3.40    0.31
  10   9  -5    3.88    0.31
 -10  -9   5    3.36    0.30
 -11   9  -4    1.66    0.19
 -10   9  -4    0.75    0.18
  10  -9   4    1.13    0.25
  -9   9  -4    1.63    0.22
   9  -9   4    2.01    0.30
  -8   9  -4    2.36    0.31
   8  -9   4    2.98    0.42
  -7   9  -4    3.18    0.31
   7  -9   4    2.87    0.42
  -6   9  -4    1.63    0.20
   6  -9   4    2.36    0.28
  -5   9  -4    0.10    0.48
  -5   9  -4    0.44    0.14
  -4   9  -4    3.93    0.64
  -3   9  -4    2.52    0.40
  -3   9  -4    2.70    0.41
  -2   9  -4   47.62    2.92
  -2   9  -4   49.36    2.95
  -1   9  -4   56.10    3.36
  -1   9  -4   55.99    3.38
   0   9  -4   19.23    1.25
   0   9  -4   19.48    1.27
   1   9  -4   16.99    1.14
   1   9  -4   17.45    1.16
   2   9  -4   26.80    1.80
   2   9  -4   27.39    1.81
  -2  -9   4   31.72    1.80
   3   9  -4    1.09    0.30
  -3  -9   4    0.56    0.32
   4   9  -4    6.15    0.68
  -4  -9   4    6.63    0.66
   5   9  -4    2.09    0.23
   5   9  -4    2.49    0.25
   5   9  -4    2.20    0.24
   5   9  -4    1.94    0.26
   5   9  -4    2.04    0.52
  -5  -9   4    1.97    0.48
   6   9  -4    2.59    0.28
   6   9  -4    3.83    0.66
   6   9  -4    3.14    0.41
   6   9  -4    2.42    0.35
   6   9  -4    3.42    0.35
   7   9  -4    4.63    0.42
   7   9  -4    4.39    0.43
   7   9  -4    5.07    0.42
   7   9  -4    4.80    0.48
   8   9  -4    1.25    0.23
   8   9  -4    1.15    0.26
   8   9  -4    1.33    0.25
   8   9  -4    1.04    0.25
  -8  -9   4    0.74    0.23
   9   9  -4    1.41    0.25
   9   9  -4    1.42    0.25
   9   9  -4    1.68    0.25
   9   9  -4    1.06    0.25
  -9  -9   4    1.57    0.22
  10   9  -4    2.53    0.32
  10   9  -4    3.06    0.31
  10   9  -4    3.11    0.31
 -10  -9   4    2.43    0.28
  11   9  -4    2.57    0.25
  11   9  -4    2.59    0.26
 -11  -9   4    3.50    0.23
 -11   9  -3    1.26    0.16
  11  -9   3    1.21    0.25
 -10   9  -3    1.89    0.23
  10  -9   3    0.42    0.26
  -9   9  -3    1.51    0.21
   9  -9   3    1.36    0.29
  -8   9  -3    3.96    0.33
   8  -9   3    3.71    0.46
   7  -9   3    0.04    0.24
  -6   9  -3    0.96    0.16
  -5   9  -3   -0.54    0.37
  -5   9  -3    0.32    0.43
  -4   9  -3    2.92    0.50
  -4   9  -3    3.17    0.54
  -3   9  -3    1.20    0.29
  -3   9  -3    1.01    0.27
  -2   9  -3   12.83    0.89
  -2   9  -3   12.97    0.88
  -1   9  -3    6.68    0.55
  -1   9  -3    7.21    0.58
   0   9  -3   14.36    0.95
   0   9  -3   14.39    0.95
   1   9  -3    8.69    0.65
   1   9  -3    8.20    0.64
  -1  -9   3    9.46    0.64
   2   9  -3    6.70    0.57
   2   9  -3    6.86    0.60
   3   9  -3    1.44    0.32
  -3  -9   3    2.21    0.33
   4   9  -3    0.15    0.30
  -4  -9   3    1.39    0.33
   5   9  -3    1.66    0.43
  -5  -9   3    2.10    0.43
   6   9  -3    1.08    0.52
   6   9  -3    1.07    0.19
   6   9  -3    1.34    0.21
   6   9  -3    1.37    0.21
   6   9  -3    1.46    0.21
  -6  -9   3    1.44    0.50
   7   9  -3    0.45    0.66
   7   9  -3    0.38    0.21
   7   9  -3    0.04    0.22
   7   9  -3    0.04    0.19
   7   9  -3    0.01    0.21
   8   9  -3    0.59    0.24
   8   9  -3    0.69    0.22
   8   9  -3    0.66    0.24
   8   9  -3    0.78    0.23
  -8  -9   3    0.37    0.20
   9   9  -3    0.60    0.24
   9   9  -3    0.02    0.23
   9   9  -3    0.37    0.23
   9   9  -3    0.34    0.23
  10   9  -3    1.86    0.25
  10   9  -3    1.55    0.24
  10   9  -3    1.16    0.26
  11   9  -3    1.12    0.20
  11   9  -3    1.01    0.18
 -11  -9   3    1.54    0.21
  11  -9   2    0.28    0.24
 -10   9  -2    0.49    0.17
  10  -9   2    0.07    0.25
   9  -9   2    0.41    0.26
  -8   9  -2    6.90    0.42
   8  -9   2    5.73    0.56
  -7   9  -2    0.98    0.17
   7  -9   2    1.60    0.25
  -6   9  -2    3.55    0.27
  -6   9  -2    4.40    0.70
   6  -9   2    2.97    0.37
  -5   9  -2    4.49    0.56
  -4   9  -2    6.63    0.60
  -4   9  -2    6.00    0.60
  -3   9  -2    7.47    0.61
  -3   9  -2    7.69    0.60
  -2   9  -2   37.91    2.34
  -2   9  -2   39.41    2.32
  -1   9  -2    1.18    0.22
  -1   9  -2    1.33    0.22
   0   9  -2    6.08    0.49
   0   9  -2    6.54    0.51
   2   9  -2    7.47    0.62
  -2  -9   2    9.34    0.60
   3   9  -2    6.39    0.50
  -3  -9   2    4.45    0.48
   4   9  -2   62.45    3.70
  -4  -9   2   59.53    3.64
   5   9  -2   10.77    0.89
  -5  -9   2   10.16    0.83
   6   9  -2   12.37    0.70
   6   9  -2   12.15    0.70
   6   9  -2   12.81    1.07
   6   9  -2   12.27    0.72
   6   9  -2   12.74    0.74
  -6  -9   2   12.48    0.99
   7   9  -2    0.16    0.19
   7   9  -2    0.05    0.20
   7   9  -2    0.26    0.19
   7   9  -2    0.38    0.65
   7   9  -2    0.34    0.22
  -7  -9   2    0.92    0.53
   8   9  -2    2.93    0.40
   8   9  -2    2.88    0.40
   8   9  -2    2.59    0.37
   8   9  -2    2.52    0.30
  -8  -9   2    1.86    0.24
   9   9  -2    0.27    0.27
   9   9  -2    0.06    0.24
   9   9  -2   -0.09    0.22
   9   9  -2    0.22    0.25
  -9  -9   2    0.35    0.19
  10   9  -2    1.59    0.25
  10   9  -2    0.91    0.24
 -10  -9   2    1.55    0.20
  11   9  -2    0.74    0.21
  11   9  -2    1.06    0.20
 -11  -9   2    1.15    0.19
 -11  -9   2    0.74    0.17
 -11   9  -1    0.25    0.14
 -10   9  -1    0.15    0.17
  10  -9   1    0.39    0.26
  -9   9  -1    6.79    0.42
   9  -9   1    6.10    0.55
  -8   9  -1    3.37    0.31
   8  -9   1    3.73    0.48
   8  -9   1    3.78    0.44
  -7   9  -1   11.63    1.11
  -7   9  -1   12.51    0.64
   7  -9   1   11.63    0.71
   7  -9   1   11.56    0.77
  -6   9  -1    5.99    0.67
  -6   9  -1    5.40    0.32
   6  -9   1    3.87    0.42
   6  -9   1    3.93    0.43
  -5   9  -1   12.74    0.93
  -4   9  -1   21.61    1.38
  -3   9  -1    9.74    0.70
  -3   9  -1   10.22    0.71
  -2   9  -1   34.74    2.06
  -2   9  -1   34.31    2.10
  -1   9  -1    7.62    0.56
  -1   9  -1    7.80    0.55
   0   9  -1   23.69    1.38
   0   9  -1   22.87    1.36
   0  -9   1   20.21    1.34
   1   9  -1   49.94    2.99
  -1  -9   1   49.71    2.94
  -2  -9   1   12.27    0.80
   3   9  -1   44.21    2.65
  -3  -9   1   43.08    2.61
   4   9  -1   43.95    2.62
  -4  -9   1   41.33    2.57
  -5  -9   1    3.66    0.50
   6   9  -1   20.52    1.13
   6   9  -1   20.13    1.48
   6   9  -1   20.91    1.05
  -6  -9   1   19.75    1.39
   7   9  -1    0.05    0.67
   7   9  -1    0.56    0.23
   7   9  -1    0.46    0.20
   7   9  -1    0.41    0.24
   7   9  -1    0.57    0.20
  -7  -9   1    0.73    0.18
  -7  -9   1    0.72    0.50
   8   9  -1    4.02    0.38
   8   9  -1    4.15    0.41
   8   9  -1    3.80    0.41
  -8  -9   1    2.74    0.33
   9   9  -1    1.74    0.29
   9   9  -1    1.53    0.29
  -9  -9   1    1.61    0.22
  10   9  -1    1.62    0.26
  10   9  -1    1.46    0.27
 -10  -9   1    1.99    0.28
 -10  -9   1    2.23    0.27
  11   9  -1    0.46    0.21
 -11  -9   1    0.81    0.16
 -11   9   0    0.29    0.14
 -10   9   0    0.70    0.18
  10  -9   0    0.82    0.28
  -9   9   0   14.86    0.77
   9  -9   0   14.49    0.92
   9  -9   0   14.32    0.83
  -8   9   0   31.84    1.60
   8  -9   0   32.74    1.69
   8  -9   0   33.58    1.86
  -7   9   0    6.41    0.84
  -7   9   0    6.57    0.40
   7  -9   0    6.31    0.48
   7  -9   0    6.00    0.53
  -6   9   0   18.58    1.27
  -6   9   0   17.42    0.92
   6  -9   0   18.40    1.08
   6  -9   0   18.58    0.97
  -5   9   0    2.32    0.35
  -4   9   0   12.44    0.86
  -3   9   0   23.96    1.49
  -2   9   0    0.37    0.14
  -1   9   0   29.58    1.84
  -1   9   0   31.38    1.89
   1  -9   0   32.30    1.84
   0   9   0    0.11    0.12
   0  -9   0    0.02    0.11
   1   9   0   31.18    1.97
  -1  -9   0   33.76    1.94
   2   9   0    0.71    0.18
  -2  -9   0    0.63    0.17
   3   9   0   24.67    1.47
  -3  -9   0   21.84    1.43
   4   9   0   13.47    1.02
  -4  -9   0   16.67    1.01
   5   9   0    1.97    0.39
  -5  -9   0    1.40    0.33
   6   9   0   18.37    1.05
   6   9   0   19.01    1.40
   6   9   0   18.60    0.98
  -6  -9   0   18.98    0.96
  -6  -9   0   19.08    1.30
   7   9   0    6.79    0.50
   7   9   0    7.18    0.46
  -7  -9   0    6.12    0.43
   8   9   0   32.27    1.64
   8   9   0   33.28    1.78
  -8  -9   0   32.21    1.63
   9   9   0   14.56    0.86
   9   9   0   12.83    0.82
  -9  -9   0   14.13    0.76
  10   9   0    0.56    0.25
 -10  -9   0    0.75    0.18
  11   9   0    0.23    0.23
 -11  -9   0    0.05    0.14
 -11   9   1    0.82    0.16
 -10   9   1    1.40    0.21
  10  -9  -1    2.24    0.26
  10  -9  -1    1.75    0.30
  -9   9   1    1.54    0.21
   9  -9  -1    1.67    0.30
   9  -9  -1    1.79    0.26
  -8   9   1    3.78    0.34
   8  -9  -1    3.59    0.48
   8  -9  -1    3.51    0.40
  -7   9   1    0.59    0.50
  -7   9   1    0.60    0.16
   7  -9  -1    0.63    0.20
   7  -9  -1    0.75    0.23
   7  -9  -1    0.73    0.26
   7  -9  -1    0.43    0.19
  -6   9   1   19.09    0.97
  -6   9   1   21.83    1.35
   6  -9  -1   18.93    0.99
   6  -9  -1   18.84    1.02
   6  -9  -1   18.66    1.13
  -5   9   1    7.33    0.64
  -3   9   1   39.84    2.41
  -2   9   1   16.10    1.03
  -1   9   1   48.43    2.90
   0   9   1   23.16    1.29
   0  -9  -1   18.33    1.24
   1   9   1    7.46    0.54
  -1  -9  -1    7.61    0.52
   2   9   1   34.49    2.13
  -2  -9  -1   35.72    2.10
  -3  -9  -1    6.96    0.54
   4   9   1   22.19    1.39
  -4  -9  -1   20.58    1.35
  -5  -9  -1   13.39    0.96
   6   9   1    5.62    0.41
  -6  -9  -1    3.80    0.32
  -6  -9  -1    4.34    0.60
   7   9   1   12.51    0.76
  -7  -9  -1   11.53    1.05
  -7  -9  -1   12.47    0.67
   8   9   1    3.74    0.45
  -8  -9  -1    3.73    0.34
   9   9   1    5.71    0.54
  -9  -9  -1    6.63    0.43
  10   9   1    0.38    0.26
 -10  -9  -1    0.26    0.17
 -11  -9  -1    0.19    0.14
 -11   9   2    1.13    0.16
 -11   9   2    1.05    0.20
  11  -9  -2    0.59    0.19
 -10   9   2    1.10    0.20
  10  -9  -2    1.56    0.23
  -9   9   2    0.32    0.19
   9  -9  -2    0.41    0.28
   9  -9  -2    0.47    0.22
   9  -9  -2    0.53    0.27
  -8   9   2    2.29    0.31
   8  -9  -2    2.10    0.29
   8  -9  -2    2.22    0.30
   8  -9  -2    1.71    0.25
   8  -9  -2    2.24    0.26
  -7   9   2   -0.07    0.48
  -7   9   2    0.01    0.17
   7  -9  -2    0.67    0.23
   7  -9  -2    0.51    0.21
   7  -9  -2    0.46    0.24
   7  -9  -2    0.39    0.18
  -6   9   2   10.49    0.65
  -6   9   2   12.83    0.99
   6  -9  -2   12.62    0.69
   6  -9  -2   12.86    0.79
   6  -9  -2   12.63    0.69
   6  -9  -2   13.10    0.75
  -5   9   2   10.32    0.81
  -4   9   2   60.89    3.67
  -3   9   2    5.58    0.48
  -2   9   2    7.50    0.55
  -1   9   2    0.54    0.17
   0   9   2    6.72    0.57
   0  -9  -2    9.18    0.53
   1   9   2    1.21    0.21
   2   9   2   38.99    2.44
  -2  -9  -2   42.11    2.42
   3   9   2    7.93    0.65
  -3  -9  -2    8.92    0.62
  -4  -9  -2    5.09    0.50
  -5  -9  -2    4.51    0.55
   6   9   2    3.28    0.38
  -6  -9  -2    3.72    0.58
  -6  -9  -2    2.65    0.28
  -6  -9  -2    2.31    0.28
   7   9   2    1.39    0.26
  -7  -9  -2    0.96    0.18
  -7  -9  -2    1.23    0.51
   8   9   2    6.51    0.56
  -8  -9  -2    6.26    0.43
   9   9   2    1.15    0.33
  -9  -9  -2    1.19    0.20
 -10  -9  -2    0.11    0.16
 -11  -9  -2    0.71    0.15
 -11   9   3    1.13    0.17
 -11   9   3    1.35    0.19
  11  -9  -3    1.47    0.22
 -10   9   3    1.69    0.23
  10  -9  -3    2.30    0.34
  10  -9  -3    2.71    0.30
   9  -9  -3    1.36    0.33
   9  -9  -3    1.02    0.26
   9  -9  -3    1.16    0.23
  -8   9   3    0.21    0.20
   8  -9  -3    0.23    0.28
   8  -9  -3    0.25    0.22
   8  -9  -3    0.46    0.24
   8  -9  -3    0.70    0.24
  -7   9   3   -0.34    0.20
   7  -9  -3    0.15    0.21
   7  -9  -3    0.22    0.23
   7  -9  -3    0.28    0.24
   7  -9  -3    0.15    0.19
  -6   9   3    1.28    0.44
  -6   9   3    1.30    0.23
   6  -9  -3    1.04    0.22
   6  -9  -3    0.90    0.17
   6  -9  -3    1.13    0.21
  -5   9   3    1.47    0.37
  -4   9   3    0.28    0.29
  -3   9   3    1.00    0.25
  -2   9   3    7.65    0.59
  -1   9   3    8.51    0.61
   0   9   3   14.88    0.97
   1   9   3    6.27    0.52
  -1  -9  -3    6.73    0.50
  -2  -9  -3   12.85    0.85
  -3  -9  -3    2.54    0.38
  -4  -9  -3    1.49    0.32
  -5  -9  -3    0.06    0.33
  -6  -9  -3    2.19    0.47
  -6  -9  -3    2.09    0.25
  -6  -9  -3    2.13    0.27
   7   9   3    1.27    0.30
  -8  -9  -3    3.76    0.35
  -9  -9  -3    1.50    0.21
 -10  -9  -3    0.91    0.18
 -11  -9  -3    0.79    0.14
 -11   9   4    2.82    0.23
  11  -9  -4    2.87    0.23
 -10   9   4    2.73    0.28
  10  -9  -4    2.23    0.29
  10  -9  -4    2.41    0.32
  -9   9   4    1.61    0.24
   9  -9  -4    1.35    0.25
   9  -9  -4    1.80    0.24
   8  -9  -4    0.37    0.24
   8  -9  -4    0.46    0.27
   8  -9  -4    0.88    0.31
   8  -9  -4    0.33    0.22
   7  -9  -4    4.44    0.43
   7  -9  -4    4.75    0.42
   7  -9  -4    4.27    0.56
  -6   9   4    2.77    0.57
   6  -9  -4    1.71    0.27
   6  -9  -4    1.86    0.24
   6  -9  -4    1.65    0.22
  -5   9   4    2.06    0.47
   5  -9  -4    1.69    0.20
   5  -9  -4    1.37    0.20
   5  -9  -4    1.48    0.24
  -4   9   4    5.64    0.62
  -3   9   4    1.14    0.30
  -2   9   4   26.70    1.68
  -1   9   4   16.21    1.07
   0   9   4   18.09    1.17
  -2  -9  -4   42.74    2.57
  -3  -9  -4    2.84    0.46
  -4  -9  -4    2.53    0.43
  -5  -9  -4    0.95    0.44
  -5  -9  -4    1.63    0.20
  -5  -9  -4    1.32    0.20
  -6  -9  -4    1.82    0.56
  -6  -9  -4    1.95    0.25
  -6  -9  -4    2.70    0.30
  -7  -9  -4    2.00    0.29
  -7  -9  -4    2.64    0.29
  -8  -9  -4    2.81    0.32
  -9  -9  -4    2.05    0.27
 -10  -9  -4    1.04    0.17
 -11  -9  -4    1.26    0.16
  10  -9  -5    3.99    0.34
  10  -9  -5    3.73    0.31
   9  -9  -5    2.42    0.32
   9  -9  -5    2.13    0.32
   8  -9  -5    4.87    0.41
   8  -9  -5    4.85    0.44
   7  -9  -5    9.86    0.60
   7  -9  -5    8.88    0.63
   7  -9  -5    9.09    0.73
  -6   9   5    0.33    0.61
   6  -9  -5    2.60    0.35
   6  -9  -5    1.60    0.23
   6  -9  -5    1.55    0.29
   5  -9  -5    5.82    0.44
   5  -9  -5    5.37    0.44
   5  -9  -5    5.22    0.54
  -4   9   5    0.94    0.42
   4  -9  -5    1.52    0.24
   4  -9  -5    2.26    0.30
  -3   9   5    2.82    0.44
  -2   9   5   14.56    1.04
  -2  -9  -5   41.00    2.50
  -3  -9  -5   12.80    1.00
  -4  -9  -5   10.99    0.63
  -4  -9  -5   10.63    0.96
  -5  -9  -5    2.23    0.24
  -5  -9  -5    2.19    0.30
  -5  -9  -5    1.98    0.58
  -6  -9  -5    7.71    1.03
  -6  -9  -5    8.41    0.55
  -6  -9  -5    8.26    0.51
  -7  -9  -5    3.39    0.43
  -7  -9  -5    3.48    0.35
  -8  -9  -5    0.75    0.21
  -9  -9  -5    1.19    0.20
 -10  -9  -5    1.13    0.16
  10  -9  -6    0.48    0.17
  10  -9  -6    0.40    0.15
   9  -9  -6    0.90    0.21
   9  -9  -6    1.07    0.20
   8  -9  -6    1.65    0.25
   8  -9  -6    1.79    0.26
   7  -9  -6    3.41    0.52
   7  -9  -6    3.92    0.41
   7  -9  -6    2.75    0.39
   6  -9  -6    4.30    0.42
   6  -9  -6    4.33    0.42
   6  -9  -6    3.64    0.52
   5  -9  -6    9.92    0.71
   5  -9  -6    9.38    0.61
   5  -9  -6    9.54    0.62
  -4   9   6    4.13    0.69
   4  -9  -6    6.15    0.51
   4  -9  -6    5.54    0.45
   4  -9  -6    5.32    0.44
  -3   9   6    5.96    0.77
   3  -9  -6    5.47    0.49
   3  -9  -6    4.75    0.45
  -3  -9  -6   10.03    0.58
  -3  -9  -6    9.47    0.68
  -4  -9  -6    9.67    0.61
  -4  -9  -6   10.14    0.74
  -4  -9  -6   10.70    1.09
  -4  -9  -6   10.55    0.61
  -5  -9  -6    6.93    0.62
  -5  -9  -6    5.42    0.91
  -5  -9  -6    6.87    0.48
  -5  -9  -6    6.10    0.48
  -6  -9  -6    7.46    0.51
  -6  -9  -6    6.81    0.49
  -7  -9  -6    2.93    0.40
  -7  -9  -6    2.82    0.34
  -8  -9  -6    0.62    0.20
  -9  -9  -6    0.26    0.17
 -10  -9  -6    0.22    0.14
   9  -9  -7    1.24    0.20
   9  -9  -7    1.28    0.20
   8  -9  -7    0.89    0.22
   8  -9  -7    0.88    0.21
   7  -9  -7    2.19    0.26
   7  -9  -7    2.39    0.29
   6  -9  -7    6.45    0.58
   6  -9  -7    6.27    0.50
   6  -9  -7    6.29    0.53
   5  -9  -7    3.88    0.50
   5  -9  -7    3.65    0.43
   5  -9  -7    2.91    0.43
   4  -9  -7    9.35    0.65
   4  -9  -7    9.89    0.70
   3  -9  -7    8.59    0.61
   3  -9  -7    9.41    0.66
   2  -9  -7    0.99    0.21
   2  -9  -7    0.69    0.22
   1  -9  -7    3.85    0.45
   1  -9  -7    3.39    0.42
   0  -9  -7    2.64    0.37
   0  -9  -7    1.75    0.24
  -1  -9  -7    8.35    0.60
  -1  -9  -7    8.84    0.55
  -2  -9  -7    2.27    0.29
  -2  -9  -7    1.48    0.24
  -3  -9  -7   15.65    0.85
  -3  -9  -7   15.05    0.95
  -4  -9  -7    5.94    0.46
  -4  -9  -7    6.26    0.56
  -5  -9  -7    1.78    0.27
  -5  -9  -7    1.31    0.24
  -5  -9  -7    1.28    0.32
  -6  -9  -7    7.57    0.66
  -6  -9  -7    8.93    0.55
  -6  -9  -7    8.07    0.53
  -7  -9  -7    1.21    0.26
  -7  -9  -7    1.10    0.23
  -8  -9  -7    0.33    0.19
  -8  -9  -7    0.12    0.27
  -9  -9  -7    1.03    0.18
   9  -9  -8    1.13    0.17
   9  -9  -8    0.85    0.16
   8  -9  -8    0.43    0.20
   8  -9  -8    0.66    0.20
   7  -9  -8    0.43    0.23
   7  -9  -8    0.47    0.22
   6  -9  -8    0.49    0.25
   6  -9  -8    0.16    0.29
   6  -9  -8    0.29    0.24
   5  -9  -8    0.72    0.28
   5  -9  -8    0.61    0.25
   4  -9  -8    1.14    0.27
   4  -9  -8    0.91    0.26
   3  -9  -8    0.79    0.24
   3  -9  -8    0.74    0.24
   2  -9  -8    0.24    0.23
   2  -9  -8    0.63    0.22
   1  -9  -8    3.28    0.43
   0  -9  -8    5.19    0.48
   0  -9  -8    5.58    0.50
  -1  -9  -8    2.79    0.37
  -1  -9  -8    2.62    0.41
  -2  -9  -8    3.60    0.41
  -2  -9  -8    3.26    0.37
  -3  -9  -8    2.63    0.34
  -3  -9  -8    1.98    0.29
  -4  -9  -8    1.98    0.29
  -4  -9  -8    2.38    0.27
  -5  -9  -8   -0.01    0.26
  -5  -9  -8    0.00    0.27
  -5  -9  -8    0.43    0.22
  -6  -9  -8    0.37    0.24
  -6  -9  -8    0.82    0.24
  -6  -9  -8    0.32    0.28
  -7  -9  -8    1.07    0.32
  -7  -9  -8    0.52    0.24
  -7  -9  -8    0.69    0.22
  -8  -9  -8    1.82    0.29
  -8  -9  -8    1.87    0.25
  -9  -9  -8    0.76    0.15
   7  -9  -9    0.66    0.20
   6  -9  -9    2.55    0.35
   5  -9  -9    1.02    0.30
   5  -9  -9    1.12    0.26
   4  -9  -9    2.84    0.44
   4  -9  -9    3.54    0.46
   3  -9  -9    6.36    0.54
   3  -9  -9    6.68    0.57
   2  -9  -9    1.37    0.27
   1  -9  -9    5.16    0.49
   0  -9  -9    1.99    0.28
   0  -9  -9    2.85    0.32
  -1  -9  -9    1.04    0.24
  -1  -9  -9    1.37    0.26
  -2  -9  -9    2.28    0.29
  -2  -9  -9    1.92    0.28
  -3  -9  -9    2.86    0.39
  -3  -9  -9    2.22    0.29
  -4  -9  -9    1.44    0.27
  -4  -9  -9    1.67    0.26
  -5  -9  -9    3.31    0.36
  -5  -9  -9    3.56    0.44
  -6  -9  -9    0.66    0.26
  -6  -9  -9    1.09    0.23
  -6  -9  -9    0.33    0.23
   7   9   9    2.74    0.40
  -7  -9  -9    3.88    0.41
  -7  -9  -9    4.31    0.35
  -7  -9  -9    3.74    0.32
  -8  -9  -9    0.45    0.17
   7  -9 -10    0.47    0.19
   6  -9 -10    1.26    0.23
   5  -9 -10    2.20    0.28
   4  -9 -10    0.99    0.28
   3  -9 -10    2.11    0.30
   2  -9 -10    0.17    0.25
   1  -9 -10    2.85    0.41
   0  -9 -10    0.51    0.23
   0  -9 -10    0.33    0.28
  -1  -9 -10    3.37    0.43
  -1  -9 -10    3.81    0.39
  -2  -9 -10    0.63    0.26
  -2  -9 -10    0.55    0.24
  -3  -9 -10    2.45    0.37
  -3  -9 -10    1.73    0.28
  -4  -9 -10    1.52    0.26
  -4  -9 -10    1.30    0.26
  -5  -9 -10    4.02    0.37
  -5  -9 -10    4.16    0.41
   6   9  10    0.69    0.25
  -6  -9 -10    0.35    0.22
  -6  -9 -10    0.11    0.19
   7   9  10    0.09    0.26
  -7  -9 -10    0.01    0.23
  -7  -9 -10    0.37    0.19
   4  -9 -11    0.42    0.25
   3  -9 -11    0.38    0.24
   2  -9 -11    1.65    0.25
   1  -9 -11    1.12    0.24
   0  -9 -11    3.56    0.41
   0  -9 -11    3.83    0.38
  -1  -9 -11    1.66    0.27
  -1  -9 -11    1.24    0.25
  -2  -9 -11    2.96    0.37
  -3  -9 -11    0.92    0.23
  -3  -9 -11    1.09    0.24
  -4  -9 -11    1.42    0.22
  -4  -9 -11    0.86    0.24
   5   9  11    1.26    0.24
  -5  -9 -11    1.63    0.21
  -5  -9 -11    1.01    0.20
   6   9  11    0.26    0.21
  -6  -9 -11    0.46    0.18
  -6  -9 -11    0.02    0.15
   3  -9 -12    0.35    0.23
   2  -9 -12    0.66    0.21
   1  -9 -12    0.85    0.22
   0  -9 -12    0.60    0.21
  -1  -9 -12    1.15    0.21
  -1  -9 -12    0.99    0.24
  -2  -9 -12    0.48    0.21
  -2  -9 -12    0.65    0.20
  -3  -9 -12    0.41    0.19
  -3  -9 -12    0.37    0.19
  -4  -9 -12    0.14    0.15
  -4  -9 -12    0.46    0.16
  -3  10 -12    1.29    0.19
  -3  10 -12    1.45    0.20
  -2  10 -12    0.71    0.17
  -2  10 -12    0.78    0.18
  -1  10 -12    0.61    0.18
  -1  10 -12    0.83    0.18
   0  10 -12    0.94    0.19
   0  10 -12    0.97    0.19
   1  10 -12    1.55    0.21
   1  10 -12    1.32    0.20
   2  10 -12    0.83    0.18
   2  10 -12    0.39    0.19
   3  10 -12    0.67    0.22
   3  10 -12    0.42    0.18
  -5  10 -11    0.83    0.17
  -4  10 -11    1.15    0.20
  -4  10 -11    1.02    0.23
  -3  10 -11    2.47    0.27
  -3  10 -11    2.68    0.30
  -2  10 -11    1.16    0.22
  -2  10 -11    1.38    0.22
  -2  10 -11    1.38    0.27
  -1  10 -11    2.89    0.36
  -1  10 -11    3.65    0.32
  -1  10 -11    3.71    0.33
   0  10 -11    1.85    0.24
   0  10 -11    1.66    0.28
   0  10 -11    2.46    0.30
   1  10 -11    4.10    0.35
   1  10 -11    4.47    0.34
   1  10 -11    3.60    0.36
   2  10 -11    1.51    0.24
   2  10 -11    1.29    0.25
   2  10 -11    1.38    0.22
   3  10 -11    1.12    0.25
   3  10 -11    1.54    0.24
   3  10 -11    1.54    0.22
   4  10 -11    0.40    0.19
   4  10 -11    0.93    0.20
   5  10 -11    0.41    0.19
   5  10 -11    0.13    0.19
  -7  10 -10    0.45    0.17
   7 -10  10   -0.01    0.21
  -6  10 -10    1.69    0.24
   6 -10  10    1.43    0.28
  -5  10 -10    0.35    0.24
  -5  10 -10    0.49    0.20
   5 -10  10    0.91    0.30
  -4  10 -10    4.36    0.39
  -4  10 -10    4.43    0.35
  -4  10 -10    4.59    0.40
   4 -10  10    4.31    0.49
  -3  10 -10    4.25    0.37
  -3  10 -10    3.52    0.39
  -3  10 -10    3.88    0.35
  -2  10 -10    1.01    0.28
  -2  10 -10    0.79    0.23
  -2  10 -10    0.94    0.24
  -1  10 -10    2.82    0.35
  -1  10 -10    2.48    0.33
  -1  10 -10    2.95    0.34
   0  10 -10    1.26    0.24
   0  10 -10    0.98    0.26
   0  10 -10    0.80    0.23
   1  10 -10    1.59    0.26
   1  10 -10    1.09    0.27
   1  10 -10    1.77    0.24
   2  10 -10    2.81    0.33
   2  10 -10    2.56    0.33
   2  10 -10    2.49    0.34
   3  10 -10    2.88    0.35
   3  10 -10    2.32    0.33
   3  10 -10    2.86    0.33
   4  10 -10    3.36    0.33
   4  10 -10    2.81    0.31
   4  10 -10    2.20    0.31
   5  10 -10    0.87    0.21
   5  10 -10    1.13    0.23
   6  10 -10    1.63    0.23
   6  10 -10    1.32    0.22
   6  10 -10    0.99    0.24
   7  10 -10    0.77    0.16
   8 -10   9    1.88    0.25
  -7  10  -9    0.35    0.21
  -7  10  -9    0.46    0.20
   7 -10   9    0.49    0.25
  -6  10  -9    1.11    0.22
  -6  10  -9    1.06    0.24
   6 -10   9    1.95    0.31
  -5  10  -9    0.44    0.24
  -5  10  -9    0.88    0.22
   5 -10   9    1.55    0.33
  -4  10  -9    4.38    0.40
  -4  10  -9    4.37    0.38
  -4  10  -9    4.70    0.42
   4 -10   9    4.13    0.48
  -3  10  -9    1.54    0.27
  -3  10  -9    1.53    0.24
  -3  10  -9    1.22    0.26
  -2  10  -9    2.71    0.36
  -2  10  -9    2.99    0.36
  -2  10  -9    3.50    0.34
  -1  10  -9    4.30    0.38
  -1  10  -9    4.47    0.39
  -1  10  -9    4.05    0.40
   0  10  -9    2.13    0.27
   0  10  -9    1.99    0.26
   0  10  -9    1.63    0.26
   1  10  -9    2.80    0.38
   1  10  -9    3.58    0.36
   1  10  -9    3.27    0.36
   2  10  -9    3.33    0.37
   2  10  -9    2.43    0.30
   2  10  -9    3.25    0.34
   3  10  -9    3.77    0.38
   3  10  -9    3.63    0.40
   3  10  -9    4.52    0.39
   4  10  -9    1.20    0.25
   4  10  -9    1.47    0.26
   4  10  -9    1.16    0.28
   4  10  -9    1.37    0.28
   5  10  -9    2.63    0.35
   5  10  -9    2.27    0.32
   5  10  -9    2.20    0.28
   6  10  -9    0.71    0.22
   6  10  -9    0.86    0.24
   6  10  -9    0.49    0.21
   7  10  -9    0.86    0.19
   7  10  -9    0.47    0.19
   7  10  -9    0.49    0.19
   8  10  -9    0.60    0.15
   8  10  -9    0.26    0.15
  -8  10  -8    0.61    0.19
  -8  10  -8    0.48    0.22
   8 -10   8    0.90    0.24
  -7  10  -8    0.56    0.22
  -7  10  -8    0.56    0.21
   7 -10   8    0.38    0.27
  -6  10  -8    0.33    0.22
  -6  10  -8    0.18    0.23
   6 -10   8    0.77    0.30
  -5  10  -8    0.02    0.21
  -5  10  -8    0.26    0.23
   5 -10   8    0.49    0.31
  -4  10  -8    1.43    0.29
  -4  10  -8    1.50    0.23
  -4  10  -8    1.05    0.25
  -3  10  -8    1.23    0.26
  -3  10  -8    1.75    0.24
  -3  10  -8    1.86    0.25
  -2  10  -8    3.63    0.39
  -2  10  -8    4.24    0.36
  -2  10  -8    4.12    0.37
  -1  10  -8    2.53    0.26
  -1  10  -8    1.92    0.25
  -1  10  -8    2.41    0.30
  -1  10  -8    2.40    0.76
   0  10  -8    6.82    0.46
   0  10  -8    5.97    0.95
   0  10  -8    6.86    0.46
   0  10  -8    6.82    0.46
   1  10  -8    0.83    0.21
   1  10  -8    0.74    0.22
   1  10  -8    0.79    0.22
   2  10  -8    2.52    0.34
   2  10  -8    2.59    0.36
   2  10  -8    3.45    0.33
   3  10  -8    0.41    0.26
   3  10  -8    0.57    0.22
   3  10  -8    0.52    0.23
   3  10  -8    0.39    0.24
   4  10  -8    0.49    0.25
   4  10  -8    0.69    0.23
   4  10  -8    0.71    0.27
   4  10  -8    0.49    0.25
   5  10  -8    0.84    0.25
   5  10  -8    1.33    0.27
   5  10  -8    1.20    0.25
   6  10  -8    0.38    0.26
   6  10  -8    0.37    0.22
   6  10  -8    0.42    0.22
   7  10  -8    1.38    0.22
   7  10  -8    1.22    0.24
   7  10  -8    1.47    0.23
   8  10  -8    1.38    0.19
   8  10  -8    1.56    0.22
   8  10  -8    1.52    0.20
  -8 -10   8    1.22    0.21
  -9  10  -7   -0.05    0.17
   9 -10   7    0.36    0.22
  -8  10  -7    3.21    0.31
   8 -10   7    3.27    0.37
  -7  10  -7    2.93    0.34
  -7  10  -7    3.04    0.37
  -6  10  -7    1.03    0.25
  -6  10  -7    0.99    0.24
   6 -10   7    1.29    0.30
  -5  10  -7    1.25    0.25
  -5  10  -7    1.31    0.24
   5 -10   7    1.76    0.31
  -4  10  -7    3.73    0.39
  -4  10  -7    3.40    0.46
  -4  10  -7    4.49    0.40
   4 -10   7    4.87    0.48
  -3  10  -7    2.39    0.28
  -3  10  -7    2.32    0.33
  -3  10  -7    1.08    0.66
  -3  10  -7    1.67    0.23
   3 -10   7    2.11    0.33
  -2  10  -7    6.50    0.44
  -2  10  -7    7.06    0.92
  -2  10  -7    6.59    0.46
  -2  10  -7    6.77    0.45
  -1  10  -7    4.21    0.68
  -1  10  -7    4.10    0.35
  -1  10  -7    4.06    0.35
  -1  10  -7    4.07    0.34
   0  10  -7    5.99    0.42
   0  10  -7    6.33    0.41
   0  10  -7    5.52    0.82
   0  10  -7    6.22    0.42
   1  10  -7    3.66    0.67
   1  10  -7    3.30    0.35
   1  10  -7    3.58    0.33
   1  10  -7    3.87    0.65
   1  10  -7    3.46    0.33
   2  10  -7    6.71    0.90
   2  10  -7    6.61    0.52
   2  10  -7    6.31    0.46
   2  10  -7    6.02    0.44
   2  10  -7    6.77    0.44
   2  10  -7    6.56    0.98
  -2 -10   7    7.71    0.87
   3  10  -7    2.00    0.68
   3  10  -7    2.48    0.33
   3  10  -7    2.19    0.27
   3  10  -7    2.43    0.73
   3  10  -7    2.99    0.33
  -3 -10   7    1.37    0.61
   4  10  -7    7.00    0.51
   4  10  -7    6.68    0.53
   4  10  -7    7.41    0.55
   4  10  -7    7.42    0.49
   5  10  -7    4.06    0.43
   5  10  -7    4.26    0.41
   5  10  -7    4.03    0.39
   6  10  -7    1.95    0.29
   6  10  -7    2.09    0.27
   6  10  -7    2.72    0.35
   7  10  -7    1.21    0.25
   7  10  -7    1.25    0.22
   7  10  -7    0.99    0.30
   7  10  -7    0.97    0.26
   8  10  -7    1.03    0.27
   8  10  -7    1.04    0.22
   8  10  -7    0.84    0.20
   8  10  -7    1.09    0.21
   9  10  -7    0.03    0.21
   9  10  -7    0.07    0.15
   9  10  -7   -0.02    0.16
   9  10  -7   -0.38    0.20
  -9 -10   7    0.46    0.17
 -10  10  -6    0.84    0.16
  10 -10   6    0.39    0.19
  -9  10  -6    1.12    0.20
   9 -10   6    1.27    0.26
  -8  10  -6    0.38    0.21
   8 -10   6    1.48    0.28
  -7  10  -6    3.04    0.34
  -7  10  -6    3.25    0.40
  -6  10  -6    2.05    0.28
  -6  10  -6    2.67    0.33
  -5  10  -6    6.17    0.41
  -5  10  -6    6.16    0.47
  -5  10  -6    4.70    0.91
   5 -10   6    5.36    0.53
  -4  10  -6    0.86    0.19
  -4  10  -6    0.90    0.60
  -4  10  -6    1.18    0.22
   4 -10   6    1.06    0.27
  -3  10  -6    5.80    0.50
  -3  10  -6    6.10    0.41
  -3  10  -6    6.39    0.44
  -3  10  -6    6.34    0.83
   3 -10   6    6.81    0.54
  -2  10  -6    2.64    0.33
  -2  10  -6    3.53    0.32
  -2  10  -6    3.19    0.29
  -2  10  -6    2.61    0.54
  -1  10  -6    2.74    0.49
  -1  10  -6    2.01    0.23
   0  10  -6    9.21    0.88
   0  10  -6    8.45    0.84
   1  10  -6   12.60    0.68
   1  10  -6   12.70    1.04
   1  10  -6   12.07    1.01
   2  10  -6    7.82    0.81
   2  10  -6    7.98    0.47
   2  10  -6    7.88    0.48
   2  10  -6    7.25    0.49
   2  10  -6    8.25    0.83
   2  10  -6    7.70    0.51
  -2 -10   6    7.30    0.80
   3  10  -6   11.27    0.67
   3  10  -6   11.27    0.70
   3  10  -6   12.06    0.71
   3  10  -6   12.23    1.09
   3  10  -6   12.66    0.67
   3  10  -6   12.18    1.08
  -3 -10   6   13.57    1.04
   4  10  -6   10.13    1.03
   4  10  -6   10.27    0.63
   4  10  -6    9.71    0.60
   4  10  -6    9.30    0.60
   4  10  -6    9.91    0.57
  -4 -10   6    8.53    0.99
   5  10  -6    3.58    0.40
   5  10  -6    4.02    0.39
   5  10  -6    3.80    0.40
   6  10  -6    3.22    0.37
   6  10  -6    3.07    0.39
   6  10  -6    3.43    0.49
   6  10  -6    2.98    0.42
   7  10  -6    1.81    0.28
   7  10  -6    2.05    0.26
   7  10  -6    2.15    0.31
   7  10  -6    2.03    0.28
   8  10  -6    0.19    0.23
   8  10  -6    0.40    0.22
   8  10  -6    0.33    0.20
   8  10  -6    0.11    0.25
   9  10  -6    0.02    0.17
   9  10  -6    0.04    0.22
   9  10  -6   -0.03    0.21
   9  10  -6   -0.13    0.19
  10  10  -6    0.18    0.15
  10  10  -6    0.57    0.16
  10  10  -6    0.57    0.17
 -10  10  -5    2.49    0.23
  10 -10   5    3.07    0.31
  -9  10  -5    3.30    0.31
   9 -10   5    3.66    0.40
  -8  10  -5    6.60    0.47
   8 -10   5    8.35    0.57
  -7  10  -5    1.48    0.23
  -6  10  -5   10.38    0.59
  -5  10  -5    5.02    0.36
  -5  10  -5    5.28    0.46
  -5  10  -5    4.47    0.76
   5 -10   5    3.52    0.44
  -4  10  -5   11.58    0.97
  -4  10  -5    9.88    0.63
  -4  10  -5   11.56    0.58
   4 -10   5    9.18    0.70
  -3  10  -5    4.49    0.68
  -2  10  -5    1.73    0.41
  -2  10  -5    0.88    0.41
  -1  10  -5    5.34    0.63
  -1  10  -5    6.04    0.64
   0  10  -5   15.46    1.11
   0  10  -5   15.13    1.10
   1  10  -5   15.21    1.10
   1  10  -5   15.15    1.08
   2  10  -5   18.70    1.33
   2  10  -5   19.65    1.35
  -2 -10   5   19.46    1.32
   3  10  -5   17.68    1.23
  -3 -10   5   16.28    1.21
   4  10  -5   17.49    0.97
   4  10  -5   17.57    1.02
   4  10  -5   18.67    0.98
   4  10  -5   19.84    1.38
   4  10  -5   18.81    0.96
  -4 -10   5   19.16    1.33
   5  10  -5    0.57    0.25
   5  10  -5    0.85    0.22
   5  10  -5    0.51    0.53
   5  10  -5    0.21    0.28
   5  10  -5    0.32    0.20
   5  10  -5    0.69    0.19
  -5 -10   5    0.36    0.51
   6  10  -5   11.32    0.68
   6  10  -5   11.17    0.66
   6  10  -5   11.48    0.75
   6  10  -5   11.18    0.69
   7  10  -5    1.68    0.27
   7  10  -5    1.95    0.26
   7  10  -5    1.43    0.28
   7  10  -5    1.64    0.26
   8  10  -5    6.20    0.50
   8  10  -5    5.76    0.46
   8  10  -5    6.26    0.47
   8  10  -5    6.23    0.47
   9  10  -5    1.20    0.24
   9  10  -5    1.05    0.24
   9  10  -5    0.97    0.24
   9  10  -5    1.12    0.22
  -9 -10   5    1.77    0.22
  10  10  -5    0.48    0.18
  10  10  -5    0.33    0.18
  10  10  -5    0.21    0.18
 -10 -10   5    0.60    0.17
 -10  10  -4    0.19    0.15
  10 -10   4   -0.09    0.22
  -9  10  -4    5.28    0.38
   9 -10   4    5.40    0.48
  -8  10  -4    1.75    0.23
  -7  10  -4    0.13    0.18
   7 -10   4    0.42    0.25
  -6  10  -4    6.95    0.43
   6 -10   4    6.38    0.54
  -5  10  -4    1.35    0.17
   5 -10   4    0.39    0.22
  -4  10  -4   20.05    1.38
  -3  10  -4    3.99    0.60
  -3  10  -4    3.61    0.55
  -2  10  -4    0.76    0.32
  -2  10  -4    0.97    0.34
  -1  10  -4   18.68    1.22
  -1  10  -4   18.37    1.24
   0  10  -4    2.77    0.39
   0  10  -4    3.48    0.43
   1  10  -4   26.63    1.68
   1  10  -4   25.07    1.67
  -1 -10   4   27.10    1.66
   2  10  -4    5.30    0.59
   2  10  -4    4.57    0.54
  -2 -10   4    4.71    0.53
   3  10  -4   19.06    1.33
  -3 -10   4   20.07    1.31
   4  10  -4   15.94    1.24
  -4 -10   4   18.51    1.22
   5  10  -4    0.21    0.21
   5  10  -4    0.25    0.47
   5  10  -4    0.32    0.27
   5  10  -4    0.12    0.19
   5  10  -4    0.54    0.21
   5  10  -4    0.49    0.16
  -5 -10   4    1.21    0.28
   6  10  -4    6.59    0.52
   6  10  -4    7.04    0.48
   6  10  -4    6.29    0.93
   6  10  -4    7.24    0.49
   6  10  -4    6.61    0.50
  -6 -10   4    7.99    0.90
   7  10  -4    0.78    0.22
   7  10  -4    0.67    0.25
   7  10  -4    0.77    0.25
   7  10  -4    0.66    0.23
   8  10  -4    4.05    0.41
   8  10  -4    4.07    0.40
   8  10  -4    3.99    0.43
   8  10  -4    3.75    0.41
  -8 -10   4    3.27    0.37
   9  10  -4    1.95    0.27
   9  10  -4    2.29    0.28
   9  10  -4    2.29    0.27
   9  10  -4    2.28    0.34
  -9 -10   4    3.12    0.31
  10  10  -4    0.10    0.21
  10  10  -4    0.40    0.21
  10  10  -4    0.16    0.19
 -10 -10   4    0.18    0.18
 -11  10  -3    0.37    0.13
  11 -10   3    0.31    0.22
 -10  10  -3    0.37    0.16
  10 -10   3   -0.05    0.23
  -9  10  -3    5.39    0.37
   9 -10   3    5.09    0.49
  -8  10  -3    1.53    0.21
  -7  10  -3    0.99    0.19
   7 -10   3    1.64    0.27
  -6  10  -3    3.18    0.29
   6 -10   3    3.91    0.41
  -5  10  -3    0.54    0.42
  -5  10  -3    0.68    0.13
  -4  10  -3    1.66    0.39
  -4  10  -3    1.39    0.36
  -3  10  -3    6.34    0.61
  -3  10  -3    6.44    0.64
  -2  10  -3    3.41    0.47
  -2  10  -3    4.51    0.46
  -1  10  -3   47.02    2.86
  -1  10  -3   48.23    2.89
   0  10  -3    2.65    0.38
   0  10  -3    2.50    0.40
   1  10  -3   11.24    0.80
   1  10  -3   11.48    0.82
  -1 -10   3   11.02    0.79
   2  10  -3    2.44    0.40
  -2 -10   3    1.55    0.29
   3  10  -3   16.24    1.07
  -3 -10   3   14.17    1.03
   4  10  -3    3.29    0.46
  -4 -10   3    2.38    0.40
   5  10  -3    1.20    0.18
   5  10  -3    1.26    0.22
   5  10  -3    0.97    0.21
   5  10  -3    0.77    0.44
   5  10  -3    0.67    0.17
  -5 -10   3    0.38    0.38
   6  10  -3    1.26    0.58
   6  10  -3    1.33    0.23
   6  10  -3    0.91    0.20
   6  10  -3    1.09    0.22
   6  10  -3    1.09    0.21
  -6 -10   3    1.41    0.50
   7  10  -3    0.99    0.23
   7  10  -3    1.30    0.26
   7  10  -3    1.20    0.24
   7  10  -3    0.82    0.22
   8  10  -3    3.26    0.43
   8  10  -3    2.98    0.39
   8  10  -3    3.61    0.40
   8  10  -3    3.55    0.41
  -8 -10   3    2.99    0.35
   9  10  -3    0.91    0.25
   9  10  -3    1.01    0.24
   9  10  -3    1.17    0.25
   9  10  -3    0.90    0.26
  10  10  -3    1.12    0.23
  10  10  -3    0.66    0.25
 -10 -10   3    0.66    0.19
  11  10  -3   -0.10    0.16
  11  10  -3   -0.02    0.19
 -11 -10   3    0.30    0.15
 -11 -10   3   -0.09    0.16
 -11  10  -2    0.80    0.15
  11 -10   2    0.40    0.23
 -10  10  -2    1.08    0.18
  10 -10   2    1.32    0.26
  -9  10  -2    1.46    0.21
   9 -10   2    1.15    0.27
  -8  10  -2    0.59    0.18
   8 -10   2    0.73    0.27
  -7  10  -2    4.53    0.34
   7 -10   2    4.78    0.46
  -6  10  -2   17.91    1.30
  -6  10  -2   16.84    0.85
  -6  10  -2   16.90    0.91
   6 -10   2   16.72    0.93
   6 -10   2   16.29    1.01
  -5  10  -2    2.12    0.41
  -4  10  -2   50.44    3.07
  -3  10  -2   10.58    0.78
  -3  10  -2   10.52    0.78
  -2  10  -2   35.75    2.14
  -2  10  -2   34.94    2.16
  -1  10  -2   27.14    1.82
  -1  10  -2   32.15    1.81
   0  10  -2    8.76    0.67
   0  10  -2    9.28    0.64
   1  10  -2    3.69    0.36
   1  10  -2    3.61    0.40
  -1 -10   2    2.70    0.37
   2  10  -2   16.55    1.02
  -2 -10   2   13.90    0.97
   3  10  -2    7.85    0.65
  -3 -10   2    7.41    0.59
  -4 -10   2   11.19    0.82
   5  10  -2   -0.06    0.39
  -5 -10   2    1.00    0.35
   6  10  -2    7.31    0.96
   6  10  -2    7.82    0.57
   6  10  -2    9.66    0.53
   6  10  -2    8.40    0.57
   6  10  -2    8.40    0.55
  -6 -10   2    9.34    0.84
   7  10  -2    4.44    0.44
   7  10  -2    4.39    0.41
   7  10  -2    2.96    0.82
   7  10  -2    4.22    0.39
   7  10  -2    4.14    0.44
   8  10  -2    2.44    0.30
   8  10  -2    2.07    0.29
   8  10  -2    2.31    0.29
   8  10  -2    2.51    0.28
  -8 -10   2    3.32    0.33
   9  10  -2    0.28    0.27
   9  10  -2   -0.26    0.24
   9  10  -2   -0.36    0.23
   9  10  -2   -0.12    0.22
  10  10  -2    1.80    0.26
  10  10  -2    1.71    0.25
 -10 -10   2    1.57    0.20
  11  10  -2    0.27    0.19
  11  10  -2    0.09    0.22
 -11 -10   2   -0.16    0.13
 -11 -10   2    0.28    0.19
 -11  10  -1    0.04    0.13
  11 -10   1    0.15    0.25
 -10  10  -1    1.19    0.19
  -9  10  -1    0.36    0.19
   9 -10   1    0.42    0.25
  -8  10  -1    0.44    0.23
  -8  10  -1    0.12    0.17
   8 -10   1    0.12    0.24
   8 -10   1   -0.06    0.23
  -7  10  -1    4.03    0.73
  -7  10  -1    4.62    0.34
   7 -10   1    4.52    0.46
   7 -10   1    4.11    0.42
  -6  10  -1    9.20    0.84
  -6  10  -1    8.37    0.50
   6 -10   1    9.23    0.61
   6 -10   1    9.33    0.58
  -5  10  -1    3.96    0.53
  -4  10  -1   40.13    2.46
  -3  10  -1    1.21    0.25
  -2  10  -1   49.40    2.97
  -2  10  -1   48.98    2.92
  -1  10  -1   24.51    1.47
  -1  10  -1   23.52    1.49
   0  10  -1    8.22    0.60
   0  10  -1    8.60    0.60
   1  10  -1   13.84    0.99
  -1 -10   1   16.54    0.97
   2  10  -1   30.74    2.00
  -2 -10   1   34.30    1.97
  -3 -10   1    2.52    0.36
   4  10  -1   14.07    1.00
  -4 -10   1   13.45    0.95
   5  10  -1    1.73    0.45
  -5 -10   1    2.66    0.40
   6  10  -1    1.20    0.23
   6  10  -1    1.17    0.53
   6  10  -1    1.09    0.28
   6  10  -1    0.96    0.20
   7  10  -1    2.80    0.31
   7  10  -1    3.23    0.37
   7  10  -1    3.18    0.44
   7  10  -1    2.88    0.35
  -7 -10   1    3.11    0.60
  -7 -10   1    2.52    0.31
   8  10  -1    2.41    0.35
   8  10  -1    2.49    0.30
   8  10  -1    2.55    0.39
  -8 -10   1    2.32    0.30
   9  10  -1    0.58    0.28
   9  10  -1    0.79    0.27
  -9 -10   1    0.46    0.19
  10  10  -1    2.47    0.29
 -10 -10   1    1.68    0.21
 -10 -10   1    1.67    0.25
  11  10  -1    2.81    0.30
 -11 -10   1    2.71    0.23
 -11  10   0    1.67    0.20
 -10  10   0   14.64    0.77
 -10  10   0   14.26    0.73
  10 -10   0   14.10    0.87
  10 -10   0   13.15    0.78
  -9  10   0    0.49    0.23
  -9  10   0    0.43    0.19
   9 -10   0    0.69    0.24
   9 -10   0    0.71    0.25
  -8  10   0    9.09    0.53
   8 -10   0    9.05    0.60
   8 -10   0    9.30    0.66
  -7  10   0    2.16    0.57
  -7  10   0    2.06    0.27
   7 -10   0    1.76    0.24
   7 -10   0    1.67    0.25
  -6  10   0    1.72    0.42
  -6  10   0    1.71    0.18
   6 -10   0    1.30    0.22
   6 -10   0    1.53    0.21
  -5  10   0    1.77    0.36
  -4  10   0    9.44    0.70
  -3  10   0    1.15    0.24
  -2  10   0   82.68    4.92
  -1  10   0   71.35    4.16
   1 -10   0   68.27    4.08
   0  10   0  124.99    7.31
   0 -10   0  122.25    7.21
   1  10   0   73.38    4.35
  -1 -10   0   72.55    4.28
   2  10   0   81.77    4.97
  -2 -10   0   85.31    4.91
   3  10   0    1.35    0.27
   4  10   0   10.24    0.80
  -4 -10   0   10.38    0.76
   5  10   0    1.72    0.43
  -5 -10   0    1.96    0.38
   6  10   0    1.29    0.19
  -6 -10   0    1.40    0.18
  -6 -10   0    1.21    0.42
  -6 -10   0    1.70    0.26
   7  10   0    1.59    0.22
   7  10   0    2.26    0.27
  -7 -10   0    1.86    0.50
  -7 -10   0    1.56    0.20
   8  10   0    8.33    0.62
  -8 -10   0    9.37    0.53
   9  10   0    0.36    0.27
  -9 -10   0    0.41    0.18
  10  10   0   13.86    0.84
 -10 -10   0   14.49    0.75
  11  10   0    1.04    0.24
 -11 -10   0    1.17    0.15
 -11  10   1    3.06    0.24
 -10  10   1    2.18    0.29
 -10  10   1    2.29    0.26
  10 -10  -1    1.28    0.24
  10 -10  -1    1.59    0.29
  -9  10   1    0.95    0.20
   9 -10  -1    0.37    0.26
   9 -10  -1    0.25    0.23
  -8  10   1    2.78    0.31
   8 -10  -1    1.87    0.29
   8 -10  -1    2.05    0.26
  -7  10   1    3.19    0.29
  -7  10   1    2.17    0.57
   7 -10  -1    3.00    0.44
   7 -10  -1    3.06    0.35
   7 -10  -1    2.96    0.45
   6 -10  -1    2.76    0.43
   6 -10  -1    3.63    0.41
   6 -10  -1    3.34    0.33
  -5  10   1    1.60    0.34
  -4  10   1   13.07    0.92
  -3  10   1    4.01    0.42
  -2  10   1   30.30    1.86
  -1  10   1   13.30    0.88
   0  10   1    8.52    0.67
   0 -10  -1   11.03    0.64
   1  10   1   24.10    1.47
  -1 -10  -1   23.25    1.43
   2  10   1   49.06    3.06
  -2 -10  -1   52.85    3.02
   4  10   1   42.34    2.56
  -4 -10  -1   40.60    2.51
  -5 -10  -1    5.38    0.59
   6  10   1    9.02    0.60
   6  10   1    8.58    0.56
  -6 -10  -1   10.01    0.83
  -6 -10  -1    9.31    0.52
  -6 -10  -1    9.43    0.60
   7  10   1    4.00    0.44
  -7 -10  -1    4.36    0.76
  -7 -10  -1    4.25    0.34
   8  10   1   -0.01    0.25
  -8 -10  -1    0.11    0.18
   9  10   1    0.08    0.28
  -9 -10  -1    0.41    0.18
 -10 -10  -1    1.89    0.25
 -11 -10  -1    0.39    0.14
 -11  10   2    0.15    0.17
 -11  10   2    0.35    0.15
  11 -10  -2    0.22    0.18
 -10  10   2    1.83    0.25
 -10  10   2    2.32    0.28
  10 -10  -2    1.47    0.23
   9 -10  -2    0.76    0.28
   9 -10  -2    0.95    0.28
   9 -10  -2    0.70    0.23
  -8  10   2    2.72    0.34
   8 -10  -2    3.10    0.36
   8 -10  -2    3.10    0.43
   8 -10  -2    2.98    0.46
  -7  10   2    3.86    0.38
  -7  10   2    4.04    0.70
   7 -10  -2    5.31    0.41
   7 -10  -2    4.58    0.51
   7 -10  -2    5.27    0.48
   7 -10  -2    5.49    0.44
  -6  10   2    9.20    0.87
  -6  10   2    8.19    0.54
   6 -10  -2    9.29    0.65
   6 -10  -2   10.10    0.67
   6 -10  -2    9.79    0.60
   6 -10  -2   10.72    0.58
  -5  10   2    0.61    0.32
  -4  10   2    8.07    0.67
  -3  10   2    7.13    0.59
  -2  10   2   16.01    1.04
  -1  10   2    3.92    0.39
   0  10   2    8.67    0.63
   1  10   2   32.36    1.83
  -1 -10  -2   27.12    1.78
   2  10   2   34.07    1.95
  -2 -10  -2   29.59    1.91
   3  10   2   10.32    0.76
  -3 -10  -2    9.59    0.71
  -4 -10  -2   47.46    2.86
  -5 -10  -2    3.66    0.55
   6  10   2   17.57    0.99
  -6 -10  -2   18.11    1.24
  -6 -10  -2   17.04    0.89
  -6 -10  -2   16.26    0.94
   7  10   2    5.14    0.48
  -7 -10  -2    4.26    0.37
   8  10   2    0.56    0.28
  -8 -10  -2    0.82    0.19
   9  10   2    1.56    0.32
  -9 -10  -2    1.39    0.21
 -10 -10  -2    1.25    0.18
 -11 -10  -2    0.84    0.14
 -11  10   3    0.27    0.16
  11 -10  -3    0.22    0.15
 -10  10   3    0.95    0.19
  10 -10  -3    0.33    0.19
  10 -10  -3    0.84    0.25
   9 -10  -3    1.89    0.28
   9 -10  -3    1.97    0.33
   9 -10  -3    1.56    0.25
  -8  10   3    3.34    0.36
   8 -10  -3    3.63    0.43
   8 -10  -3    3.35    0.39
   8 -10  -3    3.15    0.50
   7 -10  -3    1.92    0.24
   7 -10  -3    2.01    0.28
   7 -10  -3    1.87    0.28
   7 -10  -3    1.85    0.27
  -6  10   3    1.28    0.48
   6 -10  -3    1.63    0.24
   6 -10  -3    1.59    0.24
   6 -10  -3    1.35    0.21
  -5  10   3    0.64    0.35
   5 -10  -3    0.35    0.18
   5 -10  -3    0.29    0.16
   5 -10  -3    0.15    0.18
  -4  10   3    2.79    0.48
  -3  10   3   16.05    1.08
  -2  10   3    2.61    0.38
  -1  10   3   11.36    0.80
   0  10   3    2.56    0.38
   1  10   3   45.49    2.74
  -2 -10  -3    0.81    0.23
  -3 -10  -3    5.98    0.54
  -4 -10  -3    3.39    0.53
  -5 -10  -3    2.05    0.27
  -5 -10  -3    2.12    0.30
  -5 -10  -3    2.33    0.44
   6  10   3    3.42    0.44
  -6 -10  -3    3.32    0.56
  -6 -10  -3    3.53    0.32
  -6 -10  -3    3.79    0.37
   7  10   3    1.50    0.29
  -7 -10  -3    1.34    0.20
  -7 -10  -3    1.50    0.27
  -8 -10  -3    2.85    0.32
  -9 -10  -3    4.95    0.37
 -10 -10  -3    0.30    0.16
 -11 -10  -3   -0.04    0.11
  10 -10  -4    0.34    0.21
  10 -10  -4    0.36    0.18
  -9  10   4    2.45    0.35
   9 -10  -4    3.25    0.37
   9 -10  -4    2.96    0.33
   8 -10  -4    3.35    0.41
   8 -10  -4    3.46    0.51
   8 -10  -4    3.18    0.38
   7 -10  -4    0.60    0.23
   7 -10  -4    0.29    0.27
   7 -10  -4    0.50    0.22
  -6  10   4    7.08    0.94
   6 -10  -4    8.03    0.56
   6 -10  -4    8.31    0.52
   6 -10  -4    7.58    0.63
   5 -10  -4    1.91    0.22
   5 -10  -4    1.86    0.25
   5 -10  -4    1.68    0.22
  -4  10   4   16.05    1.16
  -3  10   4   19.28    1.29
  -2  10   4    5.61    0.57
  -1  10   4   26.77    1.68
   0  10   4    3.96    0.48
  -2 -10  -4    2.36    0.35
  -3 -10  -4    3.12    0.53
  -4 -10  -4   20.34    1.37
   5  10   4    1.29    0.32
  -5 -10  -4    0.71    0.18
  -5 -10  -4    0.71    0.18
  -5 -10  -4    0.70    0.46
  -6 -10  -4    6.98    0.45
  -6 -10  -4    6.28    0.47
  -6 -10  -4    7.52    0.94
  -7 -10  -4    0.46    0.19
  -7 -10  -4    0.32    0.24
  -8 -10  -4    4.25    0.36
  -9 -10  -4    5.57    0.38
 -10 -10  -4    0.07    0.15
  10 -10  -5    0.60    0.17
  10 -10  -5    0.62    0.19
   9 -10  -5    1.46    0.22
   9 -10  -5    1.79    0.26
   8 -10  -5    5.59    0.56
   8 -10  -5    5.72    0.48
   8 -10  -5    5.23    0.44
   7 -10  -5    0.65    0.24
   7 -10  -5    0.56    0.29
   7 -10  -5    0.88    0.23
   6 -10  -5   10.55    0.65
   6 -10  -5   10.51    0.67
   6 -10  -5   10.30    0.78
  -5  10   5    0.67    0.53
   5 -10  -5    1.25    0.21
   5 -10  -5    0.78    0.24
   5 -10  -5    0.94    0.21
  -4  10   5   20.12    1.32
   4 -10  -5   18.13    1.02
   4 -10  -5   17.21    1.08
   4 -10  -5   16.89    0.98
  -3  10   5   16.61    1.19
  -2  10   5   19.65    1.33
  -3 -10  -5    4.02    0.69
  -4 -10  -5    9.09    0.54
  -4 -10  -5    8.34    0.93
  -5 -10  -5    3.84    0.35
  -5 -10  -5    3.72    0.37
  -5 -10  -5    3.03    0.68
  -6 -10  -5    6.35    0.44
  -6 -10  -5    6.37    0.47
  -7 -10  -5    0.25    0.25
  -7 -10  -5    0.71    0.20
  -8 -10  -5    8.38    0.51
  -9 -10  -5    3.14    0.28
 -10 -10  -5    2.97    0.23
 -10  10   6    0.61    0.16
  10 -10  -6    0.50    0.15
  10 -10  -6    0.70    0.14
   9 -10  -6    0.76    0.20
   9 -10  -6    0.85    0.21
   8 -10  -6    0.37    0.21
   8 -10  -6    0.42    0.23
   7 -10  -6    1.52    0.31
   7 -10  -6    1.57    0.27
   7 -10  -6    1.60    0.24
   6 -10  -6    2.85    0.41
   6 -10  -6    2.54    0.32
   6 -10  -6    2.68    0.38
  -5  10   6    3.71    0.75
   5 -10  -6    1.95    0.27
   5 -10  -6    3.10    0.47
   5 -10  -6    2.31    0.28
   4 -10  -6    8.08    0.62
   4 -10  -6    8.93    0.57
   4 -10  -6    7.26    0.58
   3 -10  -6   11.92    0.80
   3 -10  -6   12.85    0.75
   2 -10  -6    7.45    0.54
   2 -10  -6    7.21    0.52
   1 -10  -6   10.85    0.71
  -2 -10  -6    5.68    0.42
  -2 -10  -6    6.54    0.54
  -3 -10  -6    7.63    0.58
  -3 -10  -6    7.05    0.47
  -4 -10  -6    0.81    0.19
  -4 -10  -6    1.16    0.28
  -5 -10  -6    5.48    0.44
  -5 -10  -6    5.75    0.60
  -5 -10  -6    5.48    0.46
  -6 -10  -6    0.68    0.23
  -6 -10  -6    0.58    0.23
  -7 -10  -6    1.65    0.23
  -7 -10  -6    1.61    0.27
  -8 -10  -6    1.14    0.21
  -8 -10  -6    1.24    0.29
  -9 -10  -6    1.28    0.19
 -10 -10  -6    0.42    0.13
   9 -10  -7    0.43    0.17
   9 -10  -7    0.74    0.18
   8 -10  -7    1.32    0.23
   8 -10  -7    1.42    0.22
   7 -10  -7    1.15    0.31
   7 -10  -7    1.64    0.26
   7 -10  -7    1.35    0.24
   6 -10  -7    1.98    0.29
   6 -10  -7    2.31    0.32
   6 -10  -7    2.64    0.37
   5 -10  -7    3.63    0.41
   5 -10  -7    3.73    0.49
   5 -10  -7    3.29    0.43
   4 -10  -7    6.13    0.57
   4 -10  -7    6.85    0.53
   3 -10  -7    1.64    0.25
   3 -10  -7    1.34    0.24
   2 -10  -7    6.82    0.53
   2 -10  -7    6.81    0.56
   1 -10  -7    5.33    0.47
   1 -10  -7    5.67    0.47
   0 -10  -7    4.52    0.42
   0 -10  -7    4.76    0.46
  -1 -10  -7    3.59    0.44
  -1 -10  -7    3.71    0.37
  -2 -10  -7    6.30    0.43
  -2 -10  -7    5.49    0.51
  -3 -10  -7    1.77    0.26
  -3 -10  -7    1.46    0.22
  -4 -10  -7    5.08    0.54
  -4 -10  -7    4.88    0.43
  -5 -10  -7    2.16    0.29
  -5 -10  -7    1.77    0.33
  -5 -10  -7    1.68    0.25
  -6 -10  -7    0.75    0.23
  -6 -10  -7    0.42    0.32
  -6 -10  -7    0.52    0.24
  -7 -10  -7    1.38    0.26
  -7 -10  -7    1.09    0.23
  -8 -10  -7    2.93    0.30
  -8 -10  -7    3.12    0.38
  -9 -10  -7    0.19    0.17
   8 -10  -8    1.02    0.21
   8 -10  -8    1.52    0.21
   7 -10  -8    0.94    0.24
   7 -10  -8    1.11    0.23
   6 -10  -8    0.22    0.23
   6 -10  -8    0.04    0.28
   6 -10  -8    0.01    0.24
   5 -10  -8    1.05    0.29
   5 -10  -8    0.95    0.26
   4 -10  -8    0.90    0.25
   4 -10  -8    0.74    0.26
   3 -10  -8   -0.30    0.23
   3 -10  -8    0.56    0.24
   2 -10  -8    3.85    0.45
   2 -10  -8    3.84    0.46
   1 -10  -8    1.16    0.24
   0 -10  -8    6.17    0.52
   0 -10  -8    6.03    0.52
  -1 -10  -8    1.64    0.26
  -1 -10  -8    1.79    0.26
  -2 -10  -8    1.74    0.26
  -2 -10  -8    2.13    0.27
  -3 -10  -8    0.63    0.22
  -3 -10  -8    0.59    0.25
  -4 -10  -8    0.29    0.22
  -4 -10  -8    0.25    0.25
  -5 -10  -8    0.47    0.28
  -5 -10  -8    0.54    0.23
  -6 -10  -8    0.95    0.24
  -6 -10  -8    0.89    0.29
  -6 -10  -8    0.86    0.26
  -7 -10  -8    0.39    0.23
  -7 -10  -8    0.68    0.22
  -8 -10  -8    1.14    0.25
  -8 -10  -8    1.05    0.19
   8 -10  -9    0.84    0.16
   7 -10  -9    1.56    0.23
   6 -10  -9    2.37    0.34
   5 -10  -9    3.35    0.47
   5 -10  -9    3.72    0.41
   4 -10  -9    1.41    0.28
   4 -10  -9    0.78    0.25
   3 -10  -9    4.39    0.45
   3 -10  -9    4.57    0.49
   2 -10  -9    3.28    0.44
   1 -10  -9    3.77    0.45
   0 -10  -9    1.07    0.25
   0 -10  -9    1.54    0.30
  -1 -10  -9    2.99    0.40
  -1 -10  -9    2.96    0.40
  -2 -10  -9    2.42    0.29
  -2 -10  -9    1.95    0.28
  -3 -10  -9    0.29    0.25
  -3 -10  -9    0.58    0.24
  -4 -10  -9    4.49    0.41
  -4 -10  -9    4.35    0.47
  -5 -10  -9    1.59    0.25
  -5 -10  -9    1.53    0.29
   6  10   9    1.58    0.31
  -6 -10  -9    1.16    0.27
  -6 -10  -9    1.40    0.24
  -7 -10  -9    0.62    0.22
   7 -10 -10    1.32    0.21
   6 -10 -10    1.76    0.27
   5 -10 -10    1.34    0.30
   5 -10 -10    1.48    0.24
   4 -10 -10    2.90    0.42
   3 -10 -10    2.16    0.30
   2 -10 -10    2.08    0.30
   1 -10 -10    1.03    0.26
   0 -10 -10    1.12    0.30
   0 -10 -10    1.16    0.25
  -1 -10 -10    2.91    0.33
  -1 -10 -10    2.65    0.37
  -2 -10 -10    2.38    0.29
  -2 -10 -10    1.63    0.29
  -3 -10 -10    3.90    0.40
  -3 -10 -10    3.67    0.40
  -4 -10 -10    5.02    0.41
  -4 -10 -10    4.73    0.45
  -5 -10 -10    0.68    0.21
  -5 -10 -10    0.40    0.23
   6  10  10    1.05    0.26
  -6 -10 -10    1.26    0.22
  -6 -10 -10    1.12    0.23
  -7 -10 -10    0.11    0.18
   4 -10 -11    0.74    0.25
   3 -10 -11    0.77    0.23
   2 -10 -11    1.44    0.25
   1 -10 -11    3.27    0.37
   0 -10 -11    2.19    0.32
  -1 -10 -11    4.08    0.39
  -1 -10 -11    4.53    0.41
  -2 -10 -11    1.91    0.28
  -2 -10 -11    2.04    0.31
  -3 -10 -11    2.89    0.33
  -3 -10 -11    2.85    0.34
  -4 -10 -11    0.45    0.21
  -4 -10 -11    0.82    0.21
   5  10  11    0.64    0.22
  -5 -10 -11    0.17    0.18
  -5 -10 -11    0.52    0.18
   3 -10 -12    0.28    0.21
   2 -10 -12    0.74    0.21
   1 -10 -12    1.43    0.22
   0 -10 -12    1.18    0.21
  -1 -10 -12    1.14    0.24
  -1 -10 -12    1.09    0.21
  -2 -10 -12    0.87    0.21
  -2 -10 -12    0.95    0.20
  -3 -10 -12    1.48    0.20
  -3 -10 -12    1.27    0.20
  -3  11 -12    0.67    0.17
  -2  11 -12    1.58    0.21
  -2  11 -12    1.11    0.17
  -1  11 -12    1.08    0.17
  -1  11 -12    1.26    0.18
   0  11 -12    1.20    0.19
   0  11 -12    0.95    0.18
   1  11 -12    1.29    0.19
   1  11 -12    1.44    0.21
   2  11 -12    0.61    0.17
   2  11 -12    0.80    0.18
   2  11 -12    0.62    0.24
   3  11 -12    1.95    0.21
  -5  11 -11    0.72    0.17
  -4  11 -11    1.33    0.20
  -3  11 -11    1.96    0.26
  -3  11 -11    1.14    0.25
  -3  11 -11    1.52    0.21
  -2  11 -11    4.84    0.34
  -2  11 -11    4.96    0.38
  -2  11 -11    4.65    0.37
  -1  11 -11    0.65    0.25
  -1  11 -11    1.20    0.22
  -1  11 -11    0.55    0.21
   0  11 -11    4.76    0.37
   0  11 -11    4.69    0.38
   0  11 -11    4.70    0.34
   1  11 -11    1.19    0.21
   1  11 -11    0.55    0.23
   1  11 -11    1.14    0.21
   2  11 -11    3.94    0.32
   2  11 -11    3.50    0.33
   2  11 -11    3.83    0.34
   3  11 -11    2.27    0.29
   3  11 -11    2.49    0.27
   3  11 -11    2.08    0.27
   4  11 -11    1.00    0.20
   4  11 -11    0.62    0.19
   5  11 -11    1.12    0.19
   5  11 -11    0.94    0.19
  -6  11 -10    0.79    0.23
  -6  11 -10    0.89    0.19
   6 -11  10    0.46    0.26
  -5  11 -10    0.90    0.24
  -5  11 -10    1.25    0.21
   5 -11  10    0.66    0.32
  -4  11 -10    0.55    0.24
  -4  11 -10    0.77    0.25
  -4  11 -10    0.82    0.22
  -3  11 -10    5.02    0.42
  -3  11 -10    5.32    0.40
  -3  11 -10    5.46    0.42
  -2  11 -10    1.73    0.26
  -2  11 -10    1.70    0.28
  -2  11 -10    1.96    0.25
  -1  11 -10    0.43    0.24
  -1  11 -10    0.96    0.23
  -1  11 -10    1.04    0.23
   0  11 -10    0.98    0.23
   0  11 -10    0.77    0.24
   0  11 -10    0.75    0.25
   1  11 -10    1.16    0.25
   1  11 -10    1.11    0.23
   1  11 -10    0.79    0.25
   2  11 -10    1.40    0.25
   2  11 -10    1.34    0.23
   2  11 -10    1.15    0.25
   3  11 -10    1.93    0.27
   3  11 -10    2.12    0.28
   3  11 -10    2.51    0.30
   4  11 -10    2.55    0.35
   4  11 -10    3.07    0.31
   4  11 -10    2.99    0.33
   5  11 -10    2.77    0.28
   5  11 -10    1.78    0.26
   6  11 -10    0.64    0.19
   6  11 -10    0.77    0.18
  -7  11  -9    1.54    0.23
  -7  11  -9    2.51    0.27
   7 -11   9    1.88    0.31
  -6  11  -9    1.19    0.22
  -6  11  -9    1.01    0.22
   6 -11   9    1.02    0.29
  -5  11  -9    1.02    0.22
  -5  11  -9    0.76    0.24
   5 -11   9    1.05    0.32
  -4  11  -9    1.95    0.31
  -4  11  -9    1.63    0.26
  -4  11  -9    1.63    0.24
   4 -11   9    1.66    0.38
  -3  11  -9    5.09    0.44
  -3  11  -9    4.97    0.42
  -3  11  -9    5.06    0.41
  -2  11  -9    0.26    0.24
  -2  11  -9    0.20    0.23
  -2  11  -9    0.28    0.24
  -1  11  -9    1.87    0.26
  -1  11  -9    1.30    0.27
  -1  11  -9    1.81    0.25
   0  11  -9    1.20    0.25
   0  11  -9    1.49    0.26
   0  11  -9    1.43    0.25
   1  11  -9    3.82    0.40
   1  11  -9    4.26    0.38
   1  11  -9    3.97    0.39
   2  11  -9    5.38    0.41
   2  11  -9    5.24    0.43
   2  11  -9    5.43    0.44
   3  11  -9    3.71    0.39
   3  11  -9    4.08    0.36
   3  11  -9    3.56    0.37
   4  11  -9    5.19    0.49
   4  11  -9    5.14    0.45
   4  11  -9    5.76    0.42
   4  11  -9    5.38    0.43
   5  11  -9    0.38    0.22
   5  11  -9    0.35    0.23
   5  11  -9    0.88    0.25
   6  11  -9    1.81    0.25
   6  11  -9    1.85    0.23
   6  11  -9    1.93    0.25
   7  11  -9    0.46    0.18
   7  11  -9    0.72    0.19
   7  11  -9    0.77    0.19
  -8  11  -8    2.27    0.26
   8 -11   8    2.90    0.31
  -7  11  -8    1.40    0.22
  -7  11  -8    1.80    0.25
   7 -11   8    1.14    0.29
  -6  11  -8    0.30    0.22
  -6  11  -8    0.08    0.22
   6 -11   8    0.80    0.30
  -5  11  -8    0.60    0.23
  -5  11  -8    0.60    0.23
  -4  11  -8    0.34    0.22
  -4  11  -8    0.07    0.22
  -4  11  -8   -0.12    0.29
  -3  11  -8    1.05    0.23
  -3  11  -8    1.08    0.23
  -3  11  -8    1.50    0.27
  -2  11  -8    0.75    0.23
  -2  11  -8    0.80    0.22
  -2  11  -8    0.51    0.22
  -1  11  -8    1.02    0.23
  -1  11  -8    0.88    0.21
  -1  11  -8    1.05    0.22
   0  11  -8    0.82    0.22
   0  11  -8    1.07    0.23
   0  11  -8    1.23    0.22
   1  11  -8    4.66    0.41
   1  11  -8    4.47    0.39
   1  11  -8    4.90    0.40
   2  11  -8    1.29    0.24
   2  11  -8    1.33    0.30
   2  11  -8    1.09    0.23
   2  11  -8    1.30    0.23
   3  11  -8    2.14    0.26
   3  11  -8    1.43    0.29
   3  11  -8    1.82    0.26
   3  11  -8    1.88    0.28
   4  11  -8    0.27    0.24
   4  11  -8    0.24    0.24
   4  11  -8    0.12    0.26
   4  11  -8    0.25    0.23
   5  11  -8    1.09    0.27
   5  11  -8    1.03    0.25
   5  11  -8    1.14    0.25
   6  11  -8    0.03    0.22
   6  11  -8   -0.09    0.21
   6  11  -8    0.32    0.25
   7  11  -8    0.52    0.20
   7  11  -8    0.07    0.21
   7  11  -8    0.65    0.20
   8  11  -8    1.68    0.19
   8  11  -8    1.11    0.18
   8  11  -8    1.31    0.20
  -8 -11   8    0.88    0.18
  -9  11  -7    1.04    0.17
   9 -11   7    1.07    0.23
  -8  11  -7    1.74    0.22
   8 -11   7    1.69    0.28
  -7  11  -7    0.60    0.25
  -7  11  -7    0.81    0.23
   7 -11   7    0.59    0.27
  -6  11  -7    2.53    0.33
  -6  11  -7    2.70    0.37
  -5  11  -7    0.79    0.24
  -5  11  -7    0.62    0.23
   5 -11   7    1.14    0.30
  -4  11  -7    9.78    0.63
  -4  11  -7   10.37    0.60
   4 -11   7   11.12    0.74
  -3  11  -7    4.67    0.41
  -3  11  -7    4.82    0.39
  -3  11  -7    3.20    0.79
  -3  11  -7    5.22    0.41
   3 -11   7    3.76    0.54
  -2  11  -7    1.84    0.24
  -2  11  -7    0.94    0.20
  -2  11  -7    1.65    0.64
  -2  11  -7    1.30    0.21
  -1  11  -7    5.80    0.88
  -1  11  -7    6.72    0.46
  -1  11  -7    6.63    0.44
  -1  11  -7    6.29    0.45
   0  11  -7    2.10    0.29
   0  11  -7    2.10    0.30
   0  11  -7    2.00    0.61
   0  11  -7    1.89    0.24
   1  11  -7    8.37    0.49
   1  11  -7    7.43    0.50
   1  11  -7    7.92    0.50
   1  11  -7    7.81    0.92
   1  11  -7    7.74    0.61
   1  11  -7    7.93    1.07
  -1 -11   7    7.12    0.93
   2  11  -7    1.52    0.25
   2  11  -7    1.76    0.23
   2  11  -7    2.12    0.31
   2  11  -7    2.34    0.30
   2  11  -7    1.20    0.69
   2  11  -7    2.05    0.69
  -2 -11   7    1.22    0.60
   3  11  -7    1.99    0.72
   3  11  -7    1.86    0.26
   3  11  -7    1.88    0.26
   3  11  -7    2.45    0.28
   3  11  -7    2.34    0.26
  -3 -11   7    2.72    0.66
   4  11  -7    9.77    0.59
   4  11  -7    9.97    0.63
   4  11  -7    9.53    0.64
   4  11  -7    9.27    0.59
   5  11  -7    0.01    0.24
   5  11  -7   -0.07    0.30
   5  11  -7    0.16    0.22
   5  11  -7    0.41    0.23
   6  11  -7    7.12    0.49
   6  11  -7    7.77    0.53
   6  11  -7    6.84    0.50
   7  11  -7    1.33    0.24
   7  11  -7    0.83    0.21
   7  11  -7    0.98    0.31
   7  11  -7    1.05    0.24
   8  11  -7    1.69    0.24
   8  11  -7    2.14    0.28
   8  11  -7    2.21    0.29
   8  11  -7    1.54    0.22
   9  11  -7    0.57    0.22
   9  11  -7    0.29    0.15
   9  11  -7    0.36    0.16
   9  11  -7    0.22    0.19
  -9  11  -6    0.99    0.18
   9 -11   6    0.47    0.24
  -8  11  -6    2.08    0.28
   8 -11   6    2.04    0.31
  -7  11  -6    0.46    0.21
   7 -11   6    0.33    0.27
  -6  11  -6    2.98    0.34
  -6  11  -6    2.78    0.32
   6 -11   6    2.69    0.43
  -5  11  -6    0.37    0.23
  -5  11  -6    0.17    0.19
  -4  11  -6   11.39    0.70
  -4  11  -6   12.10    1.23
  -4  11  -6   12.92    0.67
   4 -11   6   12.40    0.81
  -3  11  -6    2.14    0.29
  -3  11  -6    2.93    0.35
  -3  11  -6    2.73    0.36
  -3  11  -6    1.50    0.63
   3 -11   6    2.29    0.35
  -2  11  -6    6.00    0.40
  -2  11  -6    6.37    0.44
  -2  11  -6    6.66    0.80
  -2  11  -6    5.51    0.43
  -1  11  -6    6.68    0.86
  -1  11  -6    8.00    0.80
  -1  11  -6    6.14    0.45
  -1  11  -6    6.53    0.42
  -1  11  -6    6.87    0.45
   0  11  -6    4.84    0.37
   0  11  -6    4.90    0.71
   0  11  -6    5.27    0.36
   0  11  -6    4.67    0.76
   0  11  -6    4.84    0.37
   1  11  -6    4.81    0.36
   1  11  -6    4.32    0.76
   1  11  -6    4.85    0.38
   1  11  -6    4.93    0.39
   1  11  -6    5.02    0.46
   1  11  -6    4.68    0.74
  -1 -11   6    5.60    0.74
   2  11  -6    3.60    0.32
   2  11  -6    2.27    0.56
   2  11  -6    3.04    0.35
   2  11  -6    2.63    0.58
   2  11  -6    3.42    0.32
   2  11  -6    3.24    0.33
  -2 -11   6    2.49    0.55
   3  11  -6    9.05    0.58
   3  11  -6    9.60    0.55
   3  11  -6    9.51    0.58
   3  11  -6    9.74    0.97
   3  11  -6    8.94    0.56
  -3 -11   6    8.50    0.91
   4  11  -6    2.58    0.34
   4  11  -6    3.07    0.33
   4  11  -6    1.49    0.61
   4  11  -6    2.05    0.27
   4  11  -6    2.11    0.29
  -4 -11   6    1.81    0.62
   5  11  -6    3.49    0.40
   5  11  -6    3.54    0.40
   5  11  -6    3.32    0.40
   5  11  -6    3.10    0.46
   6  11  -6    3.33    0.49
   6  11  -6    4.04    0.43
   6  11  -6    3.49    0.40
   6  11  -6    3.39    0.38
   7  11  -6    0.70    0.25
   7  11  -6    0.99    0.25
   7  11  -6    1.12    0.23
   7  11  -6    0.89    0.29
   8  11  -6    1.23    0.24
   8  11  -6    1.29    0.24
   8  11  -6    1.12    0.27
   8  11  -6    1.60    0.22
   9  11  -6    0.04    0.19
   9  11  -6   -0.05    0.17
   9  11  -6    0.01    0.21
   9  11  -6   -0.02    0.20
 -10  11  -5    1.73    0.19
  10 -11   5    1.23    0.23
   9 -11   5    0.94    0.27
  -8  11  -5    3.24    0.32
   8 -11   5    4.05    0.43
  -7  11  -5    0.24    0.20
   7 -11   5    0.25    0.26
  -6  11  -5    2.01    0.24
   6 -11   5    3.06    0.43
  -5  11  -5    1.56    0.21
  -4  11  -5   19.67    1.05
  -4  11  -5   18.89    1.47
  -4  11  -5   19.42    0.99
   4 -11   5   20.57    1.17
  -3  11  -5    4.98    0.75
  -3  11  -5    4.44    0.33
  -2  11  -5   27.64    1.86
  -2  11  -5   28.87    1.85
  -1  11  -5    2.86    0.46
  -1  11  -5    2.57    0.47
   0  11  -5   40.65    2.55
   0  11  -5   41.17    2.55
   1  11  -5    5.65    0.68
   1  11  -5    6.12    0.64
  -1 -11   5    5.06    0.67
   2  11  -5    9.59    0.87
   2  11  -5   10.47    0.90
  -2 -11   5    9.91    0.84
   3  11  -5    6.68    0.44
   3  11  -5    6.60    0.44
   3  11  -5    6.90    0.44
   3  11  -5    5.99    0.46
   3  11  -5    7.17    0.75
  -3 -11   5    5.60    0.72
   4  11  -5    2.46    0.31
   4  11  -5    2.81    0.32
   4  11  -5    2.32    0.33
   4  11  -5    1.74    0.27
   4  11  -5    1.50    0.54
  -4 -11   5    2.49    0.51
   5  11  -5    3.33    0.66
   5  11  -5    4.46    0.38
   5  11  -5    3.92    0.39
   5  11  -5    3.20    0.48
   5  11  -5    3.81    0.41
   5  11  -5    3.68    0.48
  -5 -11   5    2.96    0.63
   6  11  -5    2.02    0.31
   6  11  -5    2.29    0.26
   6  11  -5    2.85    0.40
   6  11  -5    2.42    0.28
   7  11  -5    2.36    0.29
   7  11  -5    1.95    0.27
   7  11  -5    2.12    0.30
   7  11  -5    2.04    0.28
   8  11  -5    5.26    0.44
   8  11  -5    5.39    0.48
   8  11  -5    5.63    0.43
   8  11  -5    5.72    0.44
   9  11  -5   -0.05    0.21
   9  11  -5    0.10    0.19
   9  11  -5    0.19    0.22
   9  11  -5   -0.03    0.21
  -9 -11   5    0.57    0.19
  10  11  -5    3.52    0.28
  10  11  -5    3.05    0.28
  10  11  -5    2.83    0.28
 -10 -11   5    3.15    0.26
 -10  11  -4    2.01    0.22
  10 -11   4    2.62    0.30
  -9  11  -4    1.18    0.20
   9 -11   4    1.07    0.27
  -8  11  -4    0.42    0.20
   8 -11   4    1.05    0.28
  -7  11  -4   -0.08    0.18
   7 -11   4    0.29    0.25
  -6  11  -4    0.66    0.18
   6 -11   4    0.59    0.24
  -5  11  -4    0.93    0.18
  -4  11  -4   12.00    1.07
  -4  11  -4   12.53    1.06
  -4  11  -4   12.03    0.64
   4 -11   4   11.87    0.77
  -3  11  -4    3.06    0.50
  -3  11  -4    2.78    0.47
  -2  11  -4   16.73    1.19
  -2  11  -4   17.02    1.20
  -1  11  -4    7.58    0.64
  -1  11  -4    6.43    0.66
   0  11  -4   22.05    1.44
   0  11  -4   22.16    1.45
   1  11  -4   11.52    0.93
   1  11  -4   11.79    0.92
  -1 -11   4   14.22    0.93
   2  11  -4   23.73    1.59
   2  11  -4   23.67    1.59
  -2 -11   4   25.43    1.56
   3  11  -4    0.63    0.38
  -3 -11   4    0.44    0.35
   4  11  -4    4.84    0.38
   4  11  -4    5.36    0.43
   4  11  -4    5.54    0.40
   4  11  -4    6.11    0.69
   4  11  -4    4.05    0.38
  -4 -11   4    4.95    0.66
   5  11  -4    0.62    0.22
   5  11  -4    0.74    0.27
   5  11  -4    0.49    0.50
   5  11  -4    0.54    0.20
   5  11  -4    0.72    0.18
   5  11  -4    0.53    0.23
  -5 -11   4    0.21    0.46
   6  11  -4    0.69    0.68
   6  11  -4    0.89    0.23
   6  11  -4    0.49    0.20
   6  11  -4    0.74    0.24
   6  11  -4    0.61    0.23
   7  11  -4    0.39    0.24
   7  11  -4    0.55    0.26
   7  11  -4    0.60    0.23
   7  11  -4    0.58    0.23
   8  11  -4    0.57    0.25
   8  11  -4    0.73    0.22
   8  11  -4    0.50    0.23
   8  11  -4    0.62    0.24
   9  11  -4    0.21    0.22
   9  11  -4    0.39    0.23
   9  11  -4    0.20    0.22
   9  11  -4    0.30    0.22
  -9 -11   4    0.38    0.19
  10  11  -4    2.05    0.24
  10  11  -4    1.44    0.23
  10  11  -4    1.81    0.26
 -10 -11   4    1.16    0.19
 -10  11  -3    1.61    0.23
  10 -11   3    2.31    0.32
  -9  11  -3    1.76    0.21
  -8  11  -3    1.21    0.20
   8 -11   3    0.70    0.27
  -7  11  -3    0.36    0.17
   7 -11   3    0.37    0.24
  -6  11  -3    2.02    0.26
   6 -11   3    1.47    0.26
  -5  11  -3    0.77    0.47
   5 -11   3    1.14    0.22
  -4  11  -3    1.79    0.40
  -3  11  -3    0.21    0.29
  -3  11  -3    0.66    0.35
  -2  11  -3    6.67    0.59
  -2  11  -3    6.25    0.61
  -1  11  -3    1.14    0.28
  -1  11  -3    0.81    0.28
   0  11  -3   21.26    1.36
   0  11  -3   20.87    1.36
   1  11  -3   19.88    1.33
   1  11  -3   20.12    1.34
  -1 -11   3   21.81    1.32
   2  11  -3   17.99    1.22
   2  11  -3   17.23    1.22
  -2 -11   3   18.97    1.19
  -3 -11   3    1.05    0.31
  -4 -11   3    2.29    0.41
   5  11  -3    0.90    0.22
   5  11  -3    0.56    0.18
   5  11  -3    0.35    0.25
   5  11  -3    0.61    0.20
   5  11  -3    0.45    0.46
   5  11  -3    0.82    0.18
  -5 -11   3    1.01    0.23
  -5 -11   3    1.05    0.40
   6  11  -3    0.32    0.19
   6  11  -3    0.25    0.21
   6  11  -3    0.57    0.57
   6  11  -3    0.63    0.23
   6  11  -3    0.25    0.20
  -6 -11   3    0.84    0.51
   7  11  -3    1.29    0.24
   7  11  -3    1.01    0.23
   7  11  -3    1.19    0.25
   7  11  -3    1.14    0.27
   8  11  -3    0.76    0.24
   8  11  -3    0.78    0.25
   8  11  -3    0.86    0.25
   8  11  -3    0.73    0.26
   9  11  -3    0.74    0.25
   9  11  -3    1.03    0.25
   9  11  -3    1.74    0.25
   9  11  -3    1.09    0.25
  10  11  -3    1.45    0.24
  10  11  -3    1.18    0.22
  10  11  -3    0.93    0.26
 -10 -11   3    1.29    0.19
 -11  11  -2    0.42    0.13
  11 -11   2    0.38    0.22
 -10  11  -2    2.19    0.25
  10 -11   2    2.93    0.35
  -9  11  -2    0.85    0.19
   9 -11   2   -0.05    0.25
  -8  11  -2    1.66    0.21
   8 -11   2    0.97    0.26
  -7  11  -2    0.54    0.17
  -7  11  -2    0.79    0.23
   7 -11   2    0.18    0.23
   7 -11   2    0.12    0.24
  -6  11  -2    9.12    0.56
  -6  11  -2    9.16    0.99
  -6  11  -2    9.00    0.51
  -5  11  -2    1.89    0.19
  -5  11  -2    2.62    0.44
  -4  11  -2    0.90    0.33
  -3  11  -2    2.76    0.43
  -2  11  -2    3.79    0.48
  -2  11  -2    3.83    0.44
  -1  11  -2    6.90    0.60
  -1  11  -2    8.25    0.63
   0  11  -2   19.89    1.30
   0  11  -2   20.77    1.31
   0 -11   2   20.42    1.28
   1  11  -2   11.06    0.80
   1  11  -2   10.49    0.76
  -1 -11   2   10.83    0.75
   2  11  -2   56.08    3.42
  -2 -11   2   57.08    3.37
  -3 -11   2    1.36    0.31
   4  11  -2   25.81    1.69
  -4 -11   2   25.76    1.64
   5  11  -2   -0.05    0.17
   5  11  -2   -0.07    0.42
   5  11  -2    0.40    0.17
   5  11  -2    0.31    0.18
  -5 -11   2    0.63    0.38
   6  11  -2    8.70    0.55
   6  11  -2    9.06    0.59
   6  11  -2    8.98    0.58
   6  11  -2    8.34    0.56
   6  11  -2    8.87    1.01
  -6 -11   2    7.50    0.84
   7  11  -2    0.93    0.23
   7  11  -2    0.74    0.24
   7  11  -2    1.17    0.22
   7  11  -2    1.13    0.27
  -7 -11   2    1.16    0.21
   8  11  -2    0.65    0.26
   8  11  -2    0.48    0.23
   8  11  -2    0.26    0.24
   8  11  -2    0.61    0.27
  -8 -11   2    0.36    0.20
   9  11  -2    1.06    0.24
   9  11  -2    0.56    0.26
   9  11  -2    0.95    0.26
   9  11  -2    0.68    0.28
  -9 -11   2    1.20    0.21
  10  11  -2    0.37    0.24
  10  11  -2    0.09    0.21
 -10 -11   2    0.46    0.17
  11  11  -2    0.01    0.17
 -11 -11   2   -0.11    0.13
 -11  11  -1    0.13    0.14
  11 -11   1   -0.39    0.22
 -10  11  -1    0.65    0.17
  10 -11   1    1.25    0.26
  -9  11  -1    1.57    0.21
   9 -11   1    1.40    0.27
  -8  11  -1    0.57    0.18
  -8  11  -1    0.90    0.23
  -7  11  -1    3.05    0.71
  -7  11  -1    3.34    0.30
  -7  11  -1    3.60    0.35
   7 -11   1    2.99    0.32
   7 -11   1    3.26    0.38
  -6  11  -1   12.56    0.64
  -6  11  -1   12.40    0.67
  -6  11  -1   13.13    1.02
   6 -11   1   10.87    0.69
   6 -11   1   11.44    0.77
  -5  11  -1    2.49    0.42
  -4  11  -1    6.72    0.61
  -3  11  -1    0.46    0.25
  -2  11  -1    2.07    0.36
  -1  11  -1    9.17    0.69
  -1  11  -1    9.18    0.68
   1 -11   1    9.76    0.66
   0  11  -1   15.40    0.99
   0  11  -1   15.26    0.97
   0 -11   1   13.91    0.94
   1  11  -1   32.52    1.90
  -1 -11   1   28.93    1.85
   2  11  -1   32.78    1.91
  -2 -11   1   28.56    1.86
   3  11  -1   11.39    0.80
  -3 -11   1    9.80    0.75
   4  11  -1   21.91    1.57
  -4 -11   1   26.03    1.54
   5  11  -1    0.85    0.44
  -5 -11   1    0.19    0.34
   6  11  -1   14.53    0.83
   6  11  -1   14.48    0.77
   6  11  -1   13.67    0.82
   6  11  -1   13.99    1.27
  -6 -11   1   14.85    1.11
  -6 -11   1   13.27    0.80
   7  11  -1    2.05    0.30
   7  11  -1    2.05    0.24
   7  11  -1    1.95    0.30
   7  11  -1    2.08    0.26
  -7 -11   1    1.67    0.22
   8  11  -1    1.06    0.24
   8  11  -1    1.21    0.26
   8  11  -1    0.81    0.29
   9  11  -1    2.03    0.30
  -9 -11   1    2.10    0.30
  10  11  -1    0.31    0.23
 -10 -11   1    0.36    0.17
  11  11  -1    0.14    0.19
 -11 -11   1    0.34    0.13
 -11  11   0   -0.12    0.14
 -10  11   0    1.72    0.24
 -10  11   0    2.34    0.25
  10 -11   0    1.89    0.26
  10 -11   0    1.93    0.28
  -9  11   0    1.14    0.20
  -9  11   0    1.24    0.24
   9 -11   0    1.25    0.24
   9 -11   0    1.17    0.27
  -8  11   0   15.87    0.82
   8 -11   0   15.45    0.88
   8 -11   0   15.52    0.97
  -7  11   0    0.40    0.17
  -7  11   0    0.07    0.60
   7 -11   0    0.09    0.21
   7 -11   0    0.34    0.21
  -6  11   0   33.19    1.70
  -6  11   0   34.47    2.25
   6 -11   0   37.20    1.79
   6 -11   0   34.96    1.97
  -5  11   0   -0.15    0.31
  -4  11   0   16.85    1.14
  -3  11   0    3.17    0.42
  -2  11   0   30.11    1.86
  -1  11   0   30.35    1.87
   0  11   0   -0.10    0.18
   0 -11   0    0.12    0.16
   1  11   0   30.77    1.90
  -1 -11   0   31.01    1.86
   2  11   0   30.34    1.87
  -2 -11   0   29.91    1.82
   3  11   0    2.91    0.45
  -3 -11   0    3.59    0.41
   4  11   0   17.18    1.19
  -4 -11   0   16.03    1.11
   5  11   0    0.76    0.44
  -5 -11   0    0.09    0.33
   6  11   0   35.07    1.76
   6  11   0   34.71    1.89
  -6 -11   0   33.23    1.83
  -6 -11   0   35.60    1.75
  -6 -11   0   37.57    2.25
   7  11   0    0.28    0.22
   7  11   0    0.63    0.21
  -7 -11   0    0.08    0.17
   8  11   0   15.97    0.94
  -8 -11   0   15.47    0.83
   9  11   0    1.25    0.29
  -9 -11   0    1.14    0.20
  10  11   0    2.24    0.33
 -10 -11   0    1.66    0.24
  11  11   0   -0.21    0.21
 -11 -11   0    0.21    0.12
 -11  11   1    0.18    0.15
 -10  11   1    0.49    0.18
 -10  11   1    0.59    0.21
  10 -11  -1    0.34    0.20
  10 -11  -1    0.31    0.25
  -9  11   1    1.88    0.24
   9 -11  -1    2.66    0.30
   9 -11  -1    2.40    0.27
  -8  11   1    0.75    0.20
   8 -11  -1    0.23    0.23
   8 -11  -1    0.25    0.25
  -7  11   1    2.44    0.30
   7 -11  -1    1.62    0.26
   7 -11  -1    1.62    0.24
  -6  11   1   13.62    0.77
  -6  11   1   14.56    1.14
   6 -11  -1   15.34    0.82
   6 -11  -1   15.16    0.90
   6 -11  -1   14.68    0.90
  -5  11   1    0.83    0.33
  -4  11   1   21.52    1.40
  -3  11   1   11.35    0.81
  -2  11   1   32.01    1.97
  -1  11   1   32.75    2.01
   0  11   1   15.29    1.00
   1  11   1    8.44    0.66
  -1 -11  -1    9.02    0.61
   2  11   1    2.89    0.44
  -2 -11  -1    4.04    0.40
   3  11   1   -0.02    0.26
  -3 -11  -1    0.64    0.25
   4  11   1    5.91    0.68
  -4 -11  -1    6.79    0.60
  -5 -11  -1    0.80    0.35
   6  11   1   12.92    0.73
   6  11   1   13.24    0.68
  -6 -11  -1   10.49    0.70
  -6 -11  -1   11.18    0.65
  -6 -11  -1   11.71    0.98
   7  11   1    3.44    0.43
  -7 -11  -1    3.44    0.32
   8  11   1    0.38    0.26
   9  11   1    1.35    0.30
  -9 -11  -1    1.81    0.22
  10  11   1    0.45    0.26
 -10 -11  -1    0.61    0.16
 -11 -11  -1    0.12    0.11
 -11  11   2    0.19    0.16
 -11  11   2   -0.15    0.16
  11 -11  -2   -0.07    0.17
 -10  11   2   -0.03    0.19
 -10  11   2    0.02    0.18
  10 -11  -2    0.00    0.28
  10 -11  -2    0.16    0.19
  -9  11   2    0.48    0.21
   9 -11  -2    0.95    0.30
   9 -11  -2    1.12    0.27
   9 -11  -2    1.08    0.23
  -8  11   2    0.36    0.20
   8 -11  -2    0.48    0.25
   8 -11  -2    0.29    0.28
   8 -11  -2    0.20    0.21
   7 -11  -2    0.71    0.25
   7 -11  -2    0.61    0.21
   7 -11  -2    0.93    0.25
  -6  11   2    9.05    0.84
  -6  11   2    7.98    0.51
   6 -11  -2    8.13    0.58
   6 -11  -2    7.78    0.51
   6 -11  -2    7.05    0.60
  -5  11   2   -0.34    0.31
   5 -11  -2    0.26    0.17
   5 -11  -2    0.22    0.16
  -4  11   2   24.62    1.59
  -3  11   2    2.13    0.36
  -2  11   2   54.00    3.26
  -1  11   2   10.73    0.76
   0  11   2   19.58    1.25
   1  11   2    6.66    0.62
  -1 -11  -2    9.24    0.61
   2  11   2    4.57    0.48
  -2 -11  -2    3.67    0.44
   3  11   2    3.06    0.51
  -3 -11  -2    3.04    0.44
  -4 -11  -2    1.26    0.33
  -5 -11  -2    0.77    0.38
  -5 -11  -2    1.04    0.19
  -5 -11  -2    0.82    0.18
  -6 -11  -2    5.30    0.43
  -6 -11  -2    5.98    0.76
  -6 -11  -2    5.59    0.40
   7  11   2    0.77    0.24
  -7 -11  -2    0.12    0.17
  -7 -11  -2    0.25    0.25
   8  11   2    1.41    0.30
  -8 -11  -2    1.19    0.20
   9  11   2    0.65    0.30
  -9 -11  -2    0.04    0.17
 -10 -11  -2    3.33    0.28
 -11 -11  -2    0.26    0.12
 -10  11   3    1.57    0.22
 -10  11   3    0.91    0.21
  10 -11  -3    1.12    0.26
  10 -11  -3    1.11    0.20
   9 -11  -3    2.32    0.34
   9 -11  -3    2.60    0.34
   9 -11  -3    2.85    0.39
  -8  11   3    0.87    0.24
   8 -11  -3    1.29    0.29
   8 -11  -3    1.37    0.28
   8 -11  -3    1.68    0.24
   7 -11  -3    0.78    0.21
   7 -11  -3    1.02    0.25
   7 -11  -3    1.02    0.25
  -6  11   3    0.21    0.50
   6 -11  -3    0.60    0.21
   6 -11  -3    0.85    0.20
   6 -11  -3    0.90    0.22
  -5  11   3    0.08    0.39
   5 -11  -3    0.94    0.19
   5 -11  -3    0.44    0.19
   5 -11  -3    0.55    0.17
  -4  11   3    0.45    0.32
  -3  11   3    1.84    0.32
  -2  11   3   16.99    1.13
  -1  11   3   19.60    1.27
   0  11   3   19.74    1.28
   1  11   3    1.03    0.28
  -2 -11  -3    2.44    0.32
  -3 -11  -3    0.51    0.28
  -4 -11  -3    1.34    0.37
   5  11   3    0.70    0.26
  -5 -11  -3    0.88    0.19
  -5 -11  -3    0.72    0.18
  -5 -11  -3    0.67    0.41
  -6 -11  -3    1.68    0.54
  -6 -11  -3    1.46    0.23
  -6 -11  -3    1.28    0.19
   7  11   3    0.78    0.27
  -7 -11  -3    0.30    0.24
  -7 -11  -3    0.62    0.18
   8  11   3    1.16    0.32
  -8 -11  -3    1.13    0.20
  -9 -11  -3    0.84    0.18
 -10 -11  -3    2.37    0.24
  10 -11  -4    1.11    0.24
  10 -11  -4    1.32    0.19
   9 -11  -4    0.20    0.20
   9 -11  -4    0.48    0.24
   9 -11  -4    0.80    0.30
   8 -11  -4    1.26    0.24
   8 -11  -4    1.10    0.30
   8 -11  -4    1.42    0.27
   7 -11  -4    0.41    0.21
   7 -11  -4    0.27    0.23
   7 -11  -4    0.26    0.26
  -6  11   4    0.70    0.60
   6 -11  -4    0.72    0.22
   6 -11  -4    0.47    0.23
   6 -11  -4    0.45    0.20
  -5  11   4    0.77    0.47
   5 -11  -4    0.28    0.19
   5 -11  -4    0.02    0.19
   5 -11  -4   -0.09    0.18
  -4  11   4    5.10    0.65
   4 -11  -4    4.29    0.39
   4 -11  -4    4.34    0.38
   4 -11  -4    4.05    0.44
  -3  11   4    0.30    0.33
  -2  11   4   23.07    1.50
  -1  11   4   11.31    0.86
   0  11   4   21.08    1.38
  -3 -11  -4    1.29    0.38
  -4 -11  -4   12.75    1.05
  -4 -11  -4   13.46    0.73
  -5 -11  -4    2.20    0.55
  -5 -11  -4    2.10    0.23
  -5 -11  -4    2.36    0.32
   6  11   4    1.25    0.32
  -6 -11  -4    0.87    0.62
  -6 -11  -4    0.20    0.20
  -6 -11  -4    0.65    0.19
  -7 -11  -4    0.10    0.24
  -7 -11  -4    0.30    0.19
  -8 -11  -4    1.14    0.21
  -9 -11  -4    0.58    0.18
 -10 -11  -4    2.62    0.23
 -10  11   5    3.62    0.26
  10 -11  -5    3.20    0.31
  10 -11  -5    3.32    0.26
   9 -11  -5    0.30    0.19
   9 -11  -5    0.39    0.22
   8 -11  -5    6.01    0.57
   8 -11  -5    6.28    0.50
   8 -11  -5    6.96    0.47
   7 -11  -5    3.03    0.39
   7 -11  -5    3.15    0.35
   7 -11  -5    2.64    0.39
   6 -11  -5    3.41    0.43
   6 -11  -5    3.88    0.39
   6 -11  -5    3.29    0.51
  -5  11   5    3.84    0.69
   5 -11  -5    3.75    0.41
   5 -11  -5    4.21    0.41
   5 -11  -5    4.07    0.49
  -4  11   5    1.51    0.53
   4 -11  -5    2.89    0.38
   4 -11  -5    2.55    0.35
   4 -11  -5    2.58    0.39
  -3  11   5    7.76    0.78
   3 -11  -5    5.72    0.50
   3 -11  -5    5.72    0.46
  -2  11   5   10.06    0.89
  -3 -11  -5    4.71    0.36
  -4 -11  -5   22.68    1.20
  -5 -11  -5    3.05    0.37
  -5 -11  -5    3.33    0.73
  -5 -11  -5    2.78    0.33
  -6 -11  -5    3.00    0.36
  -6 -11  -5    3.10    0.36
  -7 -11  -5    0.33    0.25
  -7 -11  -5    0.63    0.20
  -8 -11  -5    3.01    0.42
  -8 -11  -5    3.83    0.33
  -9 -11  -5    0.68    0.18
 -10 -11  -5    1.23    0.17
   9 -11  -6    0.90    0.19
   9 -11  -6    0.80    0.21
   8 -11  -6    2.57    0.34
   8 -11  -6    2.69    0.33
   8 -11  -6    2.65    0.35
   7 -11  -6    1.93    0.26
   7 -11  -6    2.09    0.28
   7 -11  -6    2.06    0.31
   6 -11  -6    5.14    0.54
   6 -11  -6    4.93    0.45
   6 -11  -6    4.83    0.48
   5 -11  -6    4.44    0.45
   5 -11  -6    5.32    0.51
   5 -11  -6    4.78    0.44
  -4  11   6    1.96    0.68
   4 -11  -6    1.95    0.25
   4 -11  -6    1.66    0.24
   4 -11  -6    2.23    0.27
   3 -11  -6    8.83    0.64
   3 -11  -6    8.81    0.59
   2 -11  -6    2.35    0.35
   2 -11  -6    2.99    0.38
   1 -11  -6    4.38    0.43
   1 -11  -6    4.71    0.42
   0 -11  -6    2.95    0.42
   0 -11  -6    4.30    0.42
  -1 -11  -6    8.18    0.52
  -1 -11  -6    7.73    0.58
  -2 -11  -6    3.41    0.34
  -2 -11  -6    3.91    0.47
  -3 -11  -6    2.01    0.23
  -3 -11  -6    2.20    0.28
  -4 -11  -6   14.36    0.80
  -4 -11  -6   13.68    0.94
  -5 -11  -6    0.91    0.22
  -5 -11  -6    1.15    0.26
  -6 -11  -6    2.93    0.37
  -6 -11  -6    3.32    0.36
  -7 -11  -6    0.26    0.24
  -7 -11  -6    0.33    0.21
  -8 -11  -6    1.73    0.22
  -8 -11  -6    1.75    0.29
  -9 -11  -6    0.52    0.16
   9 -11  -7    0.92    0.17
   9 -11  -7    1.02    0.17
   8 -11  -7    2.45    0.30
   8 -11  -7    2.70    0.32
   7 -11  -7    1.27    0.30
   7 -11  -7    1.53    0.24
   7 -11  -7    1.38    0.25
   6 -11  -7    7.99    0.64
   6 -11  -7    7.99    0.58
   6 -11  -7    8.10    0.55
   5 -11  -7    0.41    0.25
   5 -11  -7    0.55    0.23
   5 -11  -7    0.28    0.24
   4 -11  -7    9.20    0.65
   4 -11  -7    9.64    0.69
   3 -11  -7    2.74    0.43
   3 -11  -7    2.73    0.40
   2 -11  -7    0.61    0.21
   2 -11  -7    0.84    0.21
   1 -11  -7    6.19    0.53
   1 -11  -7    6.68    0.52
   0 -11  -7    1.61    0.28
   0 -11  -7    1.91    0.28
   0 -11  -7    1.23    0.23
  -1 -11  -7    9.84    0.59
  -1 -11  -7    8.55    0.66
  -2 -11  -7    1.44    0.25
  -2 -11  -7    1.29    0.22
  -3 -11  -7    4.85    0.49
  -3 -11  -7    4.26    0.40
  -4 -11  -7   11.53    0.68
  -4 -11  -7   11.07    0.80
  -5 -11  -7    0.80    0.23
  -5 -11  -7    0.63    0.32
  -6 -11  -7    4.33    0.40
  -6 -11  -7    4.62    0.42
  -7 -11  -7    0.40    0.21
  -7 -11  -7    0.31    0.24
  -8 -11  -7    1.40    0.21
  -8 -11  -7    1.44    0.27
  -9 -11  -7    0.90    0.17
  -8  11   8    1.47    0.23
   8 -11  -8    1.71    0.24
   8 -11  -8    1.38    0.21
   7 -11  -8    0.26    0.21
   7 -11  -8    0.24    0.22
   6 -11  -8   -0.02    0.27
   6 -11  -8    0.65    0.23
   5 -11  -8    1.19    0.28
   5 -11  -8    1.43    0.26
   4 -11  -8    0.98    0.26
   4 -11  -8    0.77    0.24
   3 -11  -8    1.05    0.24
   3 -11  -8    1.42    0.26
   2 -11  -8    1.47    0.25
   2 -11  -8    1.33    0.25
   1 -11  -8    3.69    0.46
   1 -11  -8    3.59    0.46
   0 -11  -8    1.34    0.29
   0 -11  -8    1.31    0.25
  -1 -11  -8    2.85    0.43
  -1 -11  -8    2.98    0.39
  -2 -11  -8    1.15    0.24
  -2 -11  -8    1.37    0.24
  -3 -11  -8    2.70    0.32
  -3 -11  -8    2.61    0.37
  -4 -11  -8    2.11    0.27
  -4 -11  -8    1.64    0.29
  -5 -11  -8    1.75    0.25
  -5 -11  -8    1.17    0.30
  -6 -11  -8    0.36    0.22
  -6 -11  -8    0.55    0.29
  -7 -11  -8    0.97    0.23
  -7 -11  -8    1.08    0.24
  -8 -11  -8    2.97    0.27
  -8 -11  -8    2.62    0.32
   7 -11  -9    0.15    0.17
   6 -11  -9    1.17    0.22
   6 -11  -9    0.98    0.28
   5 -11  -9    0.51    0.27
   5 -11  -9    0.43    0.22
   4 -11  -9    4.82    0.50
   4 -11  -9    5.09    0.44
   3 -11  -9    3.94    0.42
   3 -11  -9    3.96    0.46
   2 -11  -9    5.71    0.51
   1 -11  -9    3.43    0.44
   0 -11  -9    1.28    0.31
   0 -11  -9    1.85    0.28
  -1 -11  -9    2.79    0.41
  -1 -11  -9    2.33    0.37
  -2 -11  -9    0.50    0.25
  -2 -11  -9    0.62    0.25
  -3 -11  -9    4.39    0.44
  -3 -11  -9    4.49    0.42
  -4 -11  -9    1.70    0.28
  -4 -11  -9    1.07    0.25
  -5 -11  -9    0.62    0.27
  -5 -11  -9    0.49    0.22
  -6 -11  -9    0.30    0.25
  -6 -11  -9    0.70    0.21
  -7 -11  -9    2.10    0.27
   6 -11 -10    0.46    0.19
   5 -11 -10    1.77    0.29
   5 -11 -10    1.51    0.25
   4 -11 -10    2.12    0.31
   4 -11 -10    2.09    0.29
   3 -11 -10    1.90    0.29
   2 -11 -10    1.65    0.27
   1 -11 -10    0.63    0.26
   0 -11 -10    0.28    0.29
   0 -11 -10    0.33    0.23
  -1 -11 -10    1.17    0.29
  -1 -11 -10    1.01    0.24
  -2 -11 -10    0.89    0.25
  -2 -11 -10    1.40    0.27
  -3 -11 -10    5.91    0.45
  -3 -11 -10    5.55    0.47
  -4 -11 -10    0.68    0.23
  -4 -11 -10    0.77    0.24
  -5 -11 -10    0.87    0.21
  -5 -11 -10    0.62    0.23
   6  11  10    0.60    0.26
  -6 -11 -10    0.17    0.19
  -6 -11 -10    0.35    0.21
   4 -11 -11    0.35    0.22
   3 -11 -11    1.46    0.25
   2 -11 -11    3.76    0.37
   1 -11 -11    0.69    0.22
   0 -11 -11    4.46    0.39
  -1 -11 -11    1.14    0.26
  -1 -11 -11    1.02    0.23
  -2 -11 -11    3.82    0.38
  -2 -11 -11    3.75    0.36
  -3 -11 -11    1.89    0.30
  -3 -11 -11    1.68    0.25
  -4 -11 -11    0.96    0.22
  -4 -11 -11    1.29    0.21
   5  11  11    0.44    0.21
  -5 -11 -11    0.69    0.17
  -5 -11 -11    0.22    0.17
   3 -11 -12    1.35    0.23
   2 -11 -12    0.71    0.19
   1 -11 -12    1.06    0.20
   0 -11 -12    0.57    0.16
  -1 -11 -12    0.84    0.19
  -1 -11 -12    0.68    0.25
  -2 -11 -12    0.09    0.20
  -2 -11 -12    0.65    0.18
  -3 -11 -12    0.21    0.16
  -3 -11 -12    0.12    0.17
  -2  12 -12    0.03    0.14
  -2  12 -12    0.19    0.15
  -1  12 -12    1.73    0.21
  -1  12 -12    1.21    0.17
   0  12 -12    0.25    0.15
   0  12 -12    0.29    0.16
   0  12 -12    0.42    0.24
   1  12 -12    2.15    0.23
   1  12 -12    2.36    0.22
   1  12 -12    1.85    0.25
   2  12 -12    0.76    0.18
   2  12 -12    1.02    0.22
   2  12 -12    0.69    0.16
  -5  12 -11    0.28    0.15
  -4  12 -11    0.07    0.21
  -4  12 -11    0.58    0.17
  -4  12 -11    0.93    0.21
  -3  12 -11    1.32    0.21
  -3  12 -11    1.61    0.23
  -3  12 -11    1.14    0.23
  -2  12 -11    0.95    0.19
  -2  12 -11    0.97    0.23
  -2  12 -11    0.98    0.21
  -1  12 -11    2.42    0.26
  -1  12 -11    2.37    0.30
  -1  12 -11    2.37    0.28
   0  12 -11    0.88    0.21
   0  12 -11    0.91    0.19
   0  12 -11    0.57    0.23
   1  12 -11    4.34    0.34
   1  12 -11    4.10    0.34
   1  12 -11    4.26    0.33
   2  12 -11    0.72    0.21
   2  12 -11    0.82    0.20
   2  12 -11    0.65    0.22
   3  12 -11    1.68    0.24
   3  12 -11    1.68    0.24
   3  12 -11    1.81    0.25
   4  12 -11    0.79    0.18
   5  12 -11    0.29    0.16
   5  12 -11    0.48    0.16
  -6  12 -10    0.94    0.20
  -6  12 -10    1.13    0.19
   6 -12  10    1.09    0.27
  -5  12 -10    0.52    0.19
  -5  12 -10    0.42    0.21
  -4  12 -10    2.90    0.32
  -4  12 -10    2.80    0.35
  -4  12 -10    3.14    0.31
  -3  12 -10    0.82    0.24
  -3  12 -10    0.61    0.21
  -3  12 -10    0.58    0.24
  -2  12 -10    2.27    0.28
  -2  12 -10    2.52    0.32
  -2  12 -10    1.89    0.25
  -1  12 -10    1.18    0.24
  -1  12 -10    0.80    0.25
  -1  12 -10    1.30    0.23
   0  12 -10    1.17    0.25
   0  12 -10    1.11    0.23
   0  12 -10    1.31    0.25
   1  12 -10    2.19    0.29
   1  12 -10    1.80    0.27
   1  12 -10    2.12    0.27
   2  12 -10    0.79    0.23
   2  12 -10    0.57    0.21
   2  12 -10    0.48    0.23
   3  12 -10    2.48    0.33
   3  12 -10    2.37    0.31
   3  12 -10    2.57    0.31
   4  12 -10    1.91    0.24
   4  12 -10    1.49    0.27
   4  12 -10    1.96    0.27
   5  12 -10    1.07    0.21
   5  12 -10    0.50    0.19
   6  12 -10    1.74    0.22
   6  12 -10    1.35    0.23
   6  12 -10    2.10    0.22
  -7  12  -9    0.81    0.23
  -7  12  -9    0.22    0.18
   7 -12   9    0.82    0.24
  -6  12  -9    1.88    0.24
  -6  12  -9    1.17    0.22
   6 -12   9    1.30    0.30
  -5  12  -9    0.39    0.21
  -5  12  -9    0.59    0.22
   5 -12   9    0.30    0.32
  -4  12  -9    2.54    0.34
  -4  12  -9    2.94    0.34
  -4  12  -9    3.04    0.40
  -3  12  -9    0.92    0.24
  -3  12  -9    0.92    0.24
  -3  12  -9    1.17    0.27
  -2  12  -9    1.77    0.26
  -2  12  -9    1.72    0.27
  -2  12  -9    2.39    0.34
  -1  12  -9    1.35    0.25
  -1  12  -9    1.04    0.25
  -1  12  -9    1.31    0.25
   0  12  -9    1.28    0.25
   0  12  -9    1.12    0.24
   0  12  -9    1.64    0.26
   1  12  -9    4.49    0.41
   1  12  -9    5.19    0.39
   1  12  -9    4.17    0.39
   2  12  -9    1.43    0.26
   2  12  -9    1.72    0.26
   2  12  -9    1.59    0.25
   3  12  -9    7.26    0.49
   3  12  -9    7.18    0.59
   3  12  -9    7.17    0.51
   3  12  -9    7.23    0.49
   4  12  -9    0.97    0.27
   4  12  -9    1.44    0.28
   4  12  -9    1.25    0.24
   4  12  -9    1.60    0.25
   5  12  -9    1.32    0.26
   5  12  -9    1.84    0.24
   5  12  -9    1.73    0.25
   6  12  -9    0.66    0.21
   6  12  -9    0.48    0.20
   6  12  -9    0.58    0.21
   7  12  -9    0.48    0.17
   7  12  -9    0.39    0.15
   7  12  -9    0.45    0.18
  -8  12  -8    0.84    0.18
   8 -12   8    0.92    0.23
  -7  12  -8    0.14    0.18
   7 -12   8    0.68    0.26
  -6  12  -8    0.35    0.21
  -6  12  -8    0.25    0.23
   6 -12   8    0.31    0.29
  -5  12  -8    2.35    0.28
  -5  12  -8    2.27    0.32
  -4  12  -8    0.45    0.23
  -4  12  -8    0.21    0.22
  -4  12  -8    0.21    0.30
   4 -12   8    0.81    0.35
  -3  12  -8    1.43    0.25
  -3  12  -8    1.97    0.29
  -3  12  -8    1.48    0.24
  -2  12  -8    3.88    0.36
  -2  12  -8    3.38    0.37
  -2  12  -8    3.70    0.38
  -1  12  -8    0.51    0.23
  -1  12  -8    0.51    0.21
  -1  12  -8    0.59    0.23
   0  12  -8    6.23    0.45
   0  12  -8    6.04    0.46
   0  12  -8    6.32    0.45
   1  12  -8    0.70    0.22
   1  12  -8    1.09    0.23
   1  12  -8    0.65    0.24
   2  12  -8    1.86    0.27
   2  12  -8    2.20    0.31
   2  12  -8    2.30    0.27
   2  12  -8    2.35    0.34
   3  12  -8    0.58    0.24
   3  12  -8    0.81    0.26
   3  12  -8    0.75    0.23
   3  12  -8    0.83    0.24
   4  12  -8    0.54    0.25
   4  12  -8    0.67    0.25
   4  12  -8    0.78    0.24
   4  12  -8    0.36    0.26
   5  12  -8    1.16    0.30
   5  12  -8    0.49    0.24
   5  12  -8    1.10    0.26
   5  12  -8    0.60    0.24
   6  12  -8    0.03    0.21
   6  12  -8    0.62    0.24
   6  12  -8    0.20    0.22
   7  12  -8    0.84    0.20
   7  12  -8    0.32    0.20
   7  12  -8    0.93    0.20
   8  12  -8    0.93    0.18
   8  12  -8    0.88    0.17
   8  12  -8    0.73    0.17
  -8 -12   8    0.59    0.16
  -9  12  -7    0.29    0.15
   9 -12   7    0.43    0.20
  -8  12  -7    1.25    0.20
   8 -12   7    1.73    0.28
  -7  12  -7    0.25    0.20
   7 -12   7    1.16    0.28
  -6  12  -7    0.83    0.26
  -6  12  -7    0.53    0.23
   6 -12   7    0.33    0.28
  -5  12  -7    0.75    0.24
  -5  12  -7    0.43    0.22
   5 -12   7    0.08    0.30
  -4  12  -7    2.69    0.34
  -4  12  -7    3.10    0.38
  -3  12  -7    2.32    0.26
  -3  12  -7    2.13    0.31
  -3  12  -7    2.41    0.26
  -2  12  -7    9.18    0.61
  -2  12  -7    9.13    1.11
  -2  12  -7   10.15    0.59
  -2  12  -7   10.30    0.57
  -1  12  -7    2.32    0.26
  -1  12  -7    1.27    0.68
  -1  12  -7    2.71    0.32
  -1  12  -7    2.26    0.33
   0  12  -7    4.59    0.38
   0  12  -7    3.60    0.71
   0  12  -7    5.04    0.40
   0  12  -7    4.37    0.37
   1  12  -7    1.10    0.72
   1  12  -7    0.57    0.20
   1  12  -7    0.82    0.25
   1  12  -7    0.47    0.20
   1  12  -7    0.63    0.64
   1  12  -7    0.64    0.20
  -1 -12   7    0.13    0.62
   2  12  -7    8.83    0.54
   2  12  -7    8.98    0.57
   2  12  -7   10.82    1.21
   2  12  -7    8.22    0.54
   2  12  -7    8.39    0.60
   2  12  -7    9.45    1.09
  -2 -12   7    8.64    0.99
   3  12  -7    1.91    0.25
   3  12  -7    1.79    0.24
   3  12  -7    1.59    0.26
   3  12  -7    1.86    0.27
   4  12  -7    4.73    0.46
   4  12  -7    5.38    0.43
   4  12  -7    5.24    0.45
   4  12  -7    4.32    0.42
   5  12  -7   -0.06    0.29
   5  12  -7    0.33    0.23
   5  12  -7    0.27    0.25
   5  12  -7    0.35    0.24
   6  12  -7    0.87    0.23
   6  12  -7    0.40    0.23
   6  12  -7    1.08    0.27
   7  12  -7    2.03    0.26
   7  12  -7    1.49    0.23
   7  12  -7    2.08    0.26
   8  12  -7    1.31    0.20
   8  12  -7    1.42    0.22
   8  12  -7    1.41    0.21
   8  12  -7    1.08    0.27
  -8 -12   7    1.36    0.20
   9  12  -7    0.31    0.17
   9  12  -7    0.41    0.16
   9  12  -7    0.18    0.15
  -9 -12   7    0.54    0.14
  -9  12  -6    0.71    0.16
   9 -12   6    0.54    0.24
  -8  12  -6    2.64    0.29
   8 -12   6    2.99    0.38
  -7  12  -6    1.72    0.24
   7 -12   6    2.37    0.32
  -6  12  -6    2.60    0.32
  -5  12  -6    5.32    0.42
  -5  12  -6    6.00    0.48
  -4  12  -6    0.89    0.21
  -4  12  -6    1.33    0.24
  -4  12  -6   -0.04    0.80
   4 -12   6    1.52    0.31
  -3  12  -6    6.77    0.55
  -3  12  -6    7.36    0.45
  -3  12  -6    7.37    0.50
  -3  12  -6    7.41    0.98
   3 -12   6    7.07    0.63
  -2  12  -6    4.25    0.69
  -2  12  -6    5.22    0.42
  -2  12  -6    4.37    0.41
  -2  12  -6    4.79    0.35
  -1  12  -6    2.54    0.27
  -1  12  -6    2.51    0.25
  -1  12  -6    1.20    0.62
  -1  12  -6    1.95    0.58
  -1  12  -6    2.41    0.33
   0  12  -6    7.45    0.47
   0  12  -6    8.28    0.56
   0  12  -6    7.74    0.88
   0  12  -6    7.47    0.49
   0  12  -6    7.06    0.91
   0  12  -6    8.24    0.50
   1  12  -6    5.94    0.41
   1  12  -6    6.24    0.82
   1  12  -6    5.52    0.85
   1  12  -6    5.67    0.42
   1  12  -6    5.65    0.47
   1  12  -6    5.82    0.42
  -1 -12   6    6.16    0.81
   2  12  -6   20.40    1.07
   2  12  -6   20.88    1.10
   2  12  -6   20.19    1.54
   2  12  -6   20.81    1.05
   2  12  -6   20.02    1.53
   2  12  -6   21.07    1.12
  -2 -12   6   21.94    1.48
   3  12  -6    5.21    0.41
   3  12  -6    4.50    0.72
   3  12  -6    4.36    0.39
   3  12  -6    5.20    0.42
   3  12  -6    4.57    0.41
   4  12  -6   11.99    0.68
   4  12  -6   12.61    0.73
   4  12  -6   11.04    0.69
   4  12  -6   12.05    1.22
   4  12  -6   11.76    0.70
   5  12  -6    1.16    0.26
   5  12  -6    0.71    0.29
   5  12  -6    1.28    0.23
   5  12  -6    1.08    0.26
   6  12  -6    1.81    0.29
   6  12  -6    1.90    0.33
   6  12  -6    1.77    0.27
   6  12  -6    1.21    0.25
   7  12  -6    1.41    0.24
   7  12  -6    1.77    0.27
   7  12  -6    1.65    0.27
   7  12  -6    1.70    0.31
   8  12  -6    0.43    0.22
   8  12  -6    0.33    0.21
   8  12  -6    0.41    0.25
   8  12  -6    0.40    0.19
   9  12  -6    0.35    0.18
   9  12  -6    0.35    0.21
   9  12  -6    0.13    0.17
   9  12  -6    0.37    0.18
 -10  12  -5    1.58    0.18
  10 -12   5    2.09    0.24
  -9  12  -5   -0.15    0.16
   9 -12   5    0.28    0.23
  -8  12  -5    8.68    0.49
   8 -12   5    7.80    0.60
  -7  12  -5    0.92    0.21
   7 -12   5    0.76    0.28
  -6  12  -5    4.08    0.36
   6 -12   5    5.39    0.50
  -5  12  -5    2.69    0.29
   5 -12   5    2.03    0.30
  -4  12  -5    5.21    0.37
   4 -12   5    5.41    0.53
  -3  12  -5    4.46    0.67
  -3  12  -5    4.09    0.33
  -3  12  -5    4.46    0.44
   3 -12   5    4.26    0.51
  -2  12  -5    3.69    0.30
  -2  12  -5    2.76    0.55
  -2  12  -5    4.12    0.70
  -1  12  -5    4.97    0.72
  -1  12  -5    6.35    0.72
   0  12  -5    6.70    0.73
   0  12  -5    6.11    0.74
   1  12  -5    6.28    0.73
   1  12  -5    5.20    0.67
  -1 -12   5    4.94    0.69
   2  12  -5   29.29    1.55
   2  12  -5   29.76    1.96
   2  12  -5   30.87    1.97
   2  12  -5   29.04    1.50
   2  12  -5   29.51    1.47
   2  12  -5   30.71    1.53
   3  12  -5    1.03    0.18
   3  12  -5    0.88    0.20
   3  12  -5    0.90    0.20
   3  12  -5    0.93    0.21
   3  12  -5    0.86    0.47
  -3 -12   5    0.20    0.44
   4  12  -5   19.87    0.98
   4  12  -5   18.53    1.04
   4  12  -5   19.26    1.45
   4  12  -5   18.98    1.01
   4  12  -5   18.70    0.99
  -4 -12   5   17.63    1.38
   5  12  -5    0.34    0.25
   5  12  -5    0.28    0.28
   5  12  -5    0.75    0.20
   5  12  -5    0.11    0.23
   5  12  -5    0.33    0.22
  -5 -12   5    0.23    0.26
   6  12  -5   12.65    0.73
   6  12  -5   12.37    0.76
   6  12  -5   13.25    0.84
   6  12  -5   13.06    0.76
   7  12  -5    0.96    0.24
   7  12  -5    1.53    0.26
   7  12  -5    0.81    0.27
   7  12  -5    1.28    0.27
   8  12  -5    3.34    0.36
   8  12  -5    3.57    0.39
   8  12  -5    2.80    0.35
   8  12  -5    3.44    0.36
  -8 -12   5    2.36    0.33
   9  12  -5    0.49    0.21
   9  12  -5    0.68    0.20
   9  12  -5    0.60    0.21
   9  12  -5    1.04    0.22
  10  12  -5    0.06    0.17
  10  12  -5    0.04    0.16
  10  12  -5   -0.11    0.16
 -10 -12   5    0.34    0.14
 -10  12  -4    0.16    0.14
  10 -12   4    0.36    0.20
  -9  12  -4    0.56    0.19
   9 -12   4    0.48    0.25
  -8  12  -4    5.29    0.38
   8 -12   4    4.50    0.48
  -7  12  -4    0.06    0.19
   7 -12   4    0.25    0.26
  -6  12  -4    4.22    0.36
   6 -12   4    5.37    0.48
  -5  12  -4    0.49    0.16
   5 -12   4    0.55    0.23
  -4  12  -4    6.69    0.42
  -4  12  -4    6.51    0.87
   4 -12   4    7.27    0.56
  -3  12  -4    0.82    0.47
  -3  12  -4    1.05    0.45
  -2  12  -4    3.45    0.61
  -2  12  -4    4.07    0.67
  -1  12  -4    1.32    0.35
  -1  12  -4    0.91    0.39
   0  12  -4    0.39    0.35
   0  12  -4    0.57    0.32
   1  12  -4   10.15    0.82
   1  12  -4   10.40    0.79
  -1 -12   4    8.16    0.79
   2  12  -4    5.88    0.67
   2  12  -4    7.19    0.73
  -2 -12   4    7.17    0.66
   3  12  -4    0.93    0.42
  -3 -12   4    0.98    0.38
   4  12  -4   15.74    0.83
   4  12  -4   15.55    0.84
   4  12  -4   15.40    0.84
   4  12  -4   15.59    1.21
   4  12  -4   14.97    0.88
   4  12  -4   15.51    0.95
  -4 -12   4   16.23    1.17
   5  12  -4    0.28    0.20
   5  12  -4    0.31    0.52
   5  12  -4    0.37    0.25
   5  12  -4    0.22    0.23
   5  12  -4    0.11    0.22
   5  12  -4    0.25    0.18
  -5 -12   4    0.70    0.51
  -5 -12   4    0.35    0.23
   6  12  -4    9.07    0.57
   6  12  -4    9.41    0.59
   6  12  -4    8.31    0.58
   6  12  -4    9.07    0.64
   7  12  -4    0.43    0.23
   7  12  -4    0.58    0.26
   7  12  -4    1.09    0.24
   7  12  -4    0.69    0.26
   8  12  -4    1.45    0.27
   8  12  -4    1.78    0.27
   8  12  -4    1.37    0.25
   8  12  -4    1.70    0.26
  -8 -12   4    1.46    0.24
   9  12  -4    1.18    0.23
   9  12  -4    0.84    0.23
   9  12  -4    1.11    0.23
   9  12  -4    1.01    0.24
  10  12  -4   -0.01    0.20
  10  12  -4    0.08    0.17
  10  12  -4    0.10    0.20
 -10 -12   4    0.17    0.17
 -10  12  -3    0.33    0.15
  10 -12   3    0.01    0.21
  -9  12  -3    0.91    0.19
   9 -12   3    0.45    0.25
  -8  12  -3    3.93    0.35
   8 -12   3    4.42    0.46
  -7  12  -3    0.96    0.19
   7 -12   3    0.62    0.26
  -6  12  -3    0.86    0.18
   6 -12   3    1.25    0.24
  -5  12  -3    0.13    0.50
  -5  12  -3    0.05    0.15
  -5  12  -3    0.23    0.22
   5 -12   3    0.01    0.20
  -4  12  -3    3.27    0.29
  -4  12  -3    3.41    0.60
  -3  12  -3    8.54    0.77
  -2  12  -3    3.06    0.43
  -2  12  -3    3.12    0.49
  -1  12  -3    5.44    0.60
  -1  12  -3    6.14    0.58
   0  12  -3    4.74    0.58
   0  12  -3    4.94    0.52
   0 -12   3    4.06    0.51
   1  12  -3   11.92    0.85
   1  12  -3   11.15    0.83
  -1 -12   3   10.09    0.82
   2  12  -3    0.51    0.29
  -2 -12   3    0.46    0.30
   3  12  -3    1.61    0.40
  -3 -12   3    1.08    0.34
   4  12  -3    2.84    0.28
   4  12  -3    2.93    0.30
   4  12  -3    3.44    0.52
  -4 -12   3    2.00    0.46
   5  12  -3    1.77    0.26
   5  12  -3    1.36    0.54
   5  12  -3    1.99    0.22
   5  12  -3    1.78    0.25
   5  12  -3    1.45    0.22
   5  12  -3    1.35    0.26
  -5 -12   3    0.89    0.45
  -5 -12   3    1.17    0.23
   6  12  -3    5.92    0.48
   6  12  -3    5.39    0.45
   6  12  -3    5.89    0.48
   6  12  -3    5.41    0.83
   6  12  -3    5.48    0.45
  -6 -12   3    5.23    0.49
  -6 -12   3    6.74    0.84
   7  12  -3   -0.09    0.25
   7  12  -3    0.19    0.23
   7  12  -3   -0.01    0.22
   7  12  -3   -0.01    0.22
   8  12  -3    3.01    0.40
   8  12  -3    2.68    0.39
   8  12  -3    2.61    0.36
   8  12  -3    2.69    0.29
  -8 -12   3    1.80    0.25
   9  12  -3    0.82    0.23
   9  12  -3    0.63    0.25
   9  12  -3    0.56    0.25
   9  12  -3    0.74    0.23
  10  12  -3    0.75    0.20
  10  12  -3    0.80    0.23
 -10 -12   3    0.26    0.16
 -10  12  -2    0.17    0.16
  10 -12   2    0.14    0.22
  -9  12  -2    0.18    0.18
   9 -12   2    0.05    0.24
  -8  12  -2    2.30    0.30
   8 -12   2    2.40    0.31
  -7  12  -2    0.44    0.18
  -7  12  -2    0.60    0.22
   7 -12   2    0.15    0.24
   7 -12   2    0.50    0.24
  -6  12  -2    0.40    0.58
  -6  12  -2    1.00    0.18
  -6  12  -2    0.93    0.21
   6 -12   2    1.07    0.23
   6 -12   2    1.01    0.23
  -5  12  -2    2.30    0.29
  -5  12  -2    2.41    0.49
  -5  12  -2    1.94    0.25
   5 -12   2    2.44    0.37
   5 -12   2    2.54    0.33
  -4  12  -2   22.71    1.50
  -3  12  -2    5.04    0.55
  -2  12  -2   32.59    2.00
  -2  12  -2   31.76    2.00
  -1  12  -2   13.39    0.94
  -1  12  -2   13.72    0.95
   0  12  -2   23.82    1.55
   0  12  -2   22.88    1.54
   0 -12   2   26.35    1.52
   1  12  -2   14.34    0.97
  -1 -12   2   13.29    0.93
   2  12  -2    2.72    0.44
  -2 -12   2    2.73    0.41
   3  12  -2    3.35    0.54
  -3 -12   2    4.19    0.49
   4  12  -2    1.98    0.43
   5  12  -2    1.67    0.52
   5  12  -2    1.72    0.23
   5  12  -2    1.44    0.28
   5  12  -2    1.87    0.26
   5  12  -2    2.48    0.32
   5  12  -2    1.45    0.21
  -5 -12   2    2.24    0.24
  -5 -12   2    2.37    0.45
   6  12  -2    9.80    0.62
   6  12  -2   10.20    0.59
   6  12  -2    9.63    0.62
   6  12  -2    8.53    1.11
   6  12  -2    9.70    0.65
  -6 -12   2   10.77    0.97
  -6 -12   2    9.44    0.64
   7  12  -2    0.53    0.26
   7  12  -2    0.46    0.24
   7  12  -2    0.65    0.22
   7  12  -2    0.36    0.23
  -7 -12   2    0.61    0.20
   8  12  -2    3.92    0.44
   8  12  -2    4.35    0.39
   8  12  -2    3.57    0.42
   8  12  -2    4.25    0.44
  -8 -12   2    2.69    0.35
   9  12  -2    0.53    0.27
   9  12  -2    0.62    0.24
  -9 -12   2    0.66    0.19
  10  12  -2    1.28    0.23
 -10 -12   2    1.67    0.23
 -11  12  -1    0.20    0.13
  10 -12   1    0.90    0.24
  -9  12  -1    0.22    0.19
  -9  12  -1    0.45    0.22
   9 -12   1    0.31    0.24
   9 -12   1    0.27    0.23
  -8  12  -1    2.31    0.34
  -8  12  -1    2.20    0.31
   8 -12   1    2.79    0.41
   8 -12   1    2.74    0.37
  -7  12  -1    0.48    0.17
  -7  12  -1    0.29    0.20
   7 -12   1   -0.24    0.22
   7 -12   1    0.55    0.21
  -6  12  -1    0.46    0.18
  -6  12  -1    0.79    0.50
  -6  12  -1    0.55    0.16
   6 -12   1    0.18    0.20
   6 -12   1    0.33    0.19
  -5  12  -1    1.03    0.40
  -5  12  -1    1.35    0.19
  -5  12  -1    0.84    0.17
   5 -12   1    1.57    0.19
   5 -12   1    1.41    0.21
  -4  12  -1   18.58    1.26
  -3  12  -1    6.22    0.58
  -2  12  -1   21.58    1.38
  -1  12  -1    1.88    0.33
  -1  12  -1    1.57    0.29
   0  12  -1   35.87    2.21
   0 -12   1   35.81    2.15
   1  12  -1    1.52    0.29
  -1 -12   1    2.12    0.35
   2  12  -1   24.98    1.67
  -2 -12   1   27.61    1.63
   3  12  -1   10.78    0.86
  -3 -12   1   11.76    0.82
   4  12  -1    3.54    0.60
  -4 -12   1    4.08    0.54
   5  12  -1    3.67    0.58
   5  12  -1    3.13    0.34
   5  12  -1    3.23    0.34
  -5 -12   1    3.45    0.50
  -5 -12   1    3.00    0.36
   6  12  -1    0.91    0.21
   6  12  -1    0.98    0.20
   6  12  -1    0.46    0.23
   6  12  -1    0.43    0.65
  -6 -12   1    1.95    0.48
   7  12  -1    0.27    0.27
   7  12  -1    0.12    0.22
   7  12  -1    0.20    0.22
  -7 -12   1    0.19    0.18
   8  12  -1    1.31    0.25
   8  12  -1    1.28    0.26
   9  12  -1    1.03    0.26
  -9 -12   1    0.97    0.19
  10  12  -1    2.18    0.32
 -10 -12   1    2.14    0.24
  11  12  -1    0.27    0.18
 -11 -12   1    0.40    0.12
 -11  12   0    0.35    0.14
 -10  12   0    6.52    0.39
 -10  12   0    6.40    0.42
  10 -12   0    6.05    0.44
  10 -12   0    5.95    0.47
  -9  12   0    1.18    0.22
  -9  12   0    1.05    0.21
   9 -12   0    1.58    0.27
   9 -12   0    1.29    0.23
  -8  12   0    1.82    0.24
  -8  12   0    1.38    0.21
   8 -12   0    2.00    0.27
   8 -12   0    1.77    0.25
  -7  12   0    0.28    0.20
  -7  12   0    0.64    0.18
   7 -12   0    0.60    0.21
   7 -12   0    0.88    0.23
  -6  12   0    1.41    0.20
  -6  12   0    1.65    0.52
   6 -12   0    1.52    0.22
   6 -12   0    1.43    0.22
  -5  12   0    0.32    0.37
   5 -12   0   -0.09    0.16
   5 -12   0    0.32    0.17
  -4  12   0    5.48    0.58
  -3  12   0    0.89    0.27
  -2  12   0   34.63    2.14
  -1  12   0   24.66    1.55
   0  12   0  115.81    6.88
   1  12   0   24.58    1.59
  -1 -12   0   25.87    1.54
   2  12   0   35.68    2.01
  -2 -12   0   28.65    1.95
   3  12   0    1.28    0.33
  -3 -12   0    1.11    0.28
   4  12   0    5.27    0.69
  -4 -12   0    5.60    0.57
   5  12   0    0.06    0.18
   5  12   0    0.05    0.47
   5  12   0    0.21    0.19
  -5 -12   0    0.20    0.16
  -5 -12   0    0.05    0.36
   6  12   0    0.95    0.21
   6  12   0    0.92    0.22
  -6 -12   0    1.36    0.18
  -6 -12   0    1.10    0.23
  -6 -12   0    1.27    0.49
   7  12   0    0.58    0.22
   7  12   0    0.52    0.22
  -7 -12   0    0.66    0.18
  -8 -12   0    2.27    0.31
   9  12   0    1.13    0.28
  -9 -12   0    1.57    0.20
  10  12   0    5.23    0.45
 -10 -12   0    6.24    0.37
  11  12   0   -0.01    0.20
 -11 -12   0    0.48    0.13
 -11  12   1    0.29    0.16
 -10  12   1    2.93    0.27
 -10  12   1    2.61    0.27
  10 -12  -1    2.07    0.29
  10 -12  -1    1.96    0.29
  -9  12   1    1.12    0.22
  -9  12   1    0.97    0.20
   9 -12  -1    0.72    0.22
   9 -12  -1    0.43    0.25
   8 -12  -1    0.29    0.24
   8 -12  -1    0.34    0.22
  -7  12   1    0.22    0.19
   7 -12  -1   -0.08    0.21
   7 -12  -1    0.00    0.21
  -6  12   1    1.06    0.21
  -6  12   1    0.94    0.49
   6 -12  -1    2.45    0.24
   6 -12  -1    1.84    0.31
   6 -12  -1    1.76    0.23
  -5  12   1    3.76    0.59
   5 -12  -1    4.04    0.38
   5 -12  -1    3.82    0.35
  -4  12   1    3.76    0.47
  -3  12   1   10.56    0.80
  -2  12   1   23.86    1.52
  -1  12   1    1.77    0.30
   0  12   1   35.71    2.19
   1  12   1    1.70    0.30
  -1 -12  -1    2.64    0.36
   2  12   1   22.43    1.33
  -2 -12  -1   17.85    1.26
   3  12   1    6.85    0.65
  -3 -12  -1    7.28    0.63
   4  12   1   18.12    1.30
  -4 -12  -1   18.09    1.22
   5  12   1    1.00    0.21
   5  12   1    1.20    0.22
  -5 -12  -1    1.11    0.19
  -5 -12  -1    1.51    0.40
   6  12   1    0.63    0.22
   6  12   1    0.42    0.21
  -6 -12  -1    0.14    0.20
  -6 -12  -1    0.33    0.45
  -6 -12  -1    0.24    0.16
   7  12   1    0.58    0.24
  -7 -12  -1    0.16    0.25
  -7 -12  -1    0.16    0.17
   8  12   1    2.24    0.31
  -8 -12  -1    2.34    0.29
   9  12   1    0.34    0.27
  -9 -12  -1    0.35    0.18
  10  12   1    0.27    0.25
 -11 -12  -1    0.50    0.12
 -10  12   2    1.39    0.21
 -10  12   2    1.65    0.21
  10 -12  -2    1.18    0.20
  10 -12  -2    1.22    0.28
  -9  12   2    0.65    0.23
  -9  12   2    0.46    0.20
   9 -12  -2    0.65    0.26
   9 -12  -2    0.80    0.22
   8 -12  -2    2.84    0.44
   8 -12  -2    3.05    0.37
   8 -12  -2    2.47    0.35
  -7  12   2    0.56    0.22
   7 -12  -2    0.46    0.22
   7 -12  -2    0.54    0.23
   7 -12  -2    0.57    0.27
  -6  12   2   10.17    1.00
   6 -12  -2   10.93    0.73
   6 -12  -2   11.07    0.74
   6 -12  -2   11.96    0.66
  -5  12   2    2.07    0.45
   5 -12  -2    2.11    0.24
   5 -12  -2    2.46    0.30
   5 -12  -2    2.00    0.27
  -4  12   2    3.33    0.51
  -3  12   2    3.09    0.46
  -2  12   2    2.66    0.43
  -1  12   2   14.75    1.00
   0  12   2   22.38    1.44
   1  12   2   12.03    0.86
   2  12   2   26.75    1.88
  -2 -12  -2   33.27    1.84
  -3 -12  -2    4.64    0.53
  -4 -12  -2   22.35    1.46
   5  12   2    2.91    0.36
  -5 -12  -2    2.23    0.31
  -5 -12  -2    2.06    0.46
  -5 -12  -2    2.21    0.30
   6  12   2    1.33    0.26
  -6 -12  -2    2.08    0.53
  -6 -12  -2    1.15    0.22
  -6 -12  -2    1.30    0.20
   7  12   2    0.45    0.24
  -7 -12  -2    0.29    0.24
  -7 -12  -2    0.09    0.17
   8  12   2    2.58    0.34
  -8 -12  -2    3.21    0.31
   9  12   2    0.42    0.28
  -9 -12  -2   -0.12    0.17
  10  12   2   -0.06    0.27
 -10 -12  -2   -0.14    0.15
 -10  12   3    0.48    0.18
  10 -12  -3    0.07    0.17
   9 -12  -3    1.57    0.24
   9 -12  -3    1.61    0.28
   9 -12  -3    1.41    0.30
   8 -12  -3    1.78    0.30
   8 -12  -3    2.27    0.31
   8 -12  -3    2.10    0.27
   7 -12  -3    0.01    0.24
   7 -12  -3    0.20    0.21
   7 -12  -3    0.24    0.24
  -6  12   3    5.58    0.86
   6 -12  -3    6.07    0.45
   6 -12  -3    6.40    0.54
   6 -12  -3    5.66    0.51
  -5  12   3    1.35    0.44
   5 -12  -3    1.11    0.21
   5 -12  -3    0.57    0.18
  -4  12   3    3.16    0.54
   4 -12  -3    2.49    0.35
   4 -12  -3    2.00    0.25
   4 -12  -3    2.21    0.32
  -3  12   3    2.18    0.38
  -2  12   3    1.01    0.31
  -1  12   3   11.76    0.86
   0  12   3    4.34    0.53
   1  12   3    5.43    0.60
  -3 -12  -3    8.22    0.72
  -4 -12  -3    1.92    0.42
  -4 -12  -3    2.31    0.28
   5  12   3   -0.02    0.24
  -5 -12  -3    0.08    0.17
  -5 -12  -3    0.09    0.43
  -5 -12  -3   -0.06    0.18
   6  12   3    0.99    0.28
  -6 -12  -3    1.09    0.22
  -6 -12  -3    1.18    0.19
  -6 -12  -3    1.27    0.59
   7  12   3    0.73    0.27
  -7 -12  -3    0.33    0.24
  -7 -12  -3    0.68    0.19
   8  12   3    3.80    0.49
  -8 -12  -3    4.50    0.36
  -9 -12  -3    0.69    0.18
 -10 -12  -3    0.19    0.14
 -10  12   4   -0.02    0.16
  10 -12  -4    0.01    0.15
  10 -12  -4    0.40    0.20
   9 -12  -4    1.71    0.23
   9 -12  -4    1.87    0.27
   9 -12  -4    2.22    0.31
   8 -12  -4    1.46    0.29
   8 -12  -4    1.11    0.27
   8 -12  -4    1.05    0.23
   7 -12  -4    0.29    0.24
   7 -12  -4    0.46    0.27
   7 -12  -4    0.59    0.22
   6 -12  -4   10.39    0.73
   6 -12  -4    9.98    0.67
   6 -12  -4   10.62    0.63
  -5  12   4    0.14    0.48
   5 -12  -4    0.42    0.19
   5 -12  -4    0.19    0.21
   5 -12  -4    0.27    0.20
  -4  12   4   17.69    1.17
   4 -12  -4   14.27    0.93
   4 -12  -4   14.76    0.84
   4 -12  -4   14.93    0.88
  -3  12   4    0.85    0.41
  -2  12   4    6.79    0.71
  -1  12   4   10.63    0.87
   4  12   4    7.94    0.59
  -4 -12  -4    7.60    0.85
  -4 -12  -4    7.05    0.48
   5  12   4    0.57    0.29
  -5 -12  -4    0.70    0.20
  -5 -12  -4    0.81    0.56
  -5 -12  -4    0.60    0.19
   6  12   4    4.15    0.54
  -6 -12  -4    5.51    0.44
  -6 -12  -4    5.86    0.41
   7  12   4    0.41    0.31
  -7 -12  -4    0.21    0.18
  -7 -12  -4   -0.16    0.24
  -8 -12  -4    5.18    0.39
  -8 -12  -4    5.33    0.49
  -9 -12  -4    0.10    0.17
 -10 -12  -4    0.13    0.13
 -10  12   5    0.27    0.14
  10 -12  -5    0.20    0.13
  10 -12  -5    0.56    0.17
   9 -12  -5    1.93    0.34
   9 -12  -5    2.06    0.31
   9 -12  -5    2.03    0.27
   8 -12  -5    2.97    0.34
   8 -12  -5    3.49    0.39
   8 -12  -5    2.78    0.44
   7 -12  -5    0.76    0.25
   7 -12  -5    0.91    0.28
   7 -12  -5    0.85    0.22
   6 -12  -5   12.75    0.75
   6 -12  -5   13.12    0.79
   6 -12  -5   12.54    0.87
  -5  12   5    0.53    0.62
   5 -12  -5    0.10    0.22
   5 -12  -5    0.32    0.20
   5 -12  -5    0.32    0.21
  -4  12   5   20.47    1.42
   4 -12  -5   17.01    1.09
   4 -12  -5   17.08    0.99
   4 -12  -5   18.42    1.04
  -3  12   5    1.25    0.50
   3 -12  -5    0.77    0.19
   3 -12  -5    0.71    0.23
   3 -12  -5    0.56    0.19
  -2  12   5   31.58    2.20
   2 -12  -5   34.71    1.92
   2 -12  -5   36.20    1.85
  -2 -12  -5    2.94    0.31
   3  12   5    3.57    0.51
  -3 -12  -5    4.81    0.35
  -3 -12  -5    3.87    0.55
  -4 -12  -5    4.31    0.38
  -5 -12  -5    1.49    0.22
  -5 -12  -5    1.90    0.26
  -6 -12  -5    4.17    0.42
  -6 -12  -5    4.00    0.38
  -7 -12  -5    0.30    0.25
  -7 -12  -5    0.60    0.21
  -8 -12  -5    7.79    0.46
  -8 -12  -5    6.59    0.53
  -9 -12  -5   -0.23    0.16
 -10 -12  -5    2.43    0.20
   9 -12  -6    1.64    0.20
   9 -12  -6    1.35    0.21
   8 -12  -6    0.39    0.28
   8 -12  -6    0.48    0.22
   8 -12  -6    0.61    0.21
   7 -12  -6    1.07    0.25
   7 -12  -6    0.59    0.23
   7 -12  -6    0.44    0.28
   6 -12  -6    1.99    0.26
   6 -12  -6    2.28    0.29
   6 -12  -6    2.30    0.31
   5 -12  -6    0.97    0.24
   5 -12  -6    0.98    0.24
   5 -12  -6    1.05    0.25
   4 -12  -6    9.84    0.66
   4 -12  -6    9.81    0.71
   4 -12  -6   10.42    0.67
   3 -12  -6    4.19    0.47
   3 -12  -6    4.51    0.41
   2 -12  -6   21.02    1.25
   2 -12  -6   21.69    1.19
   1 -12  -6    5.28    0.48
   1 -12  -6    5.39    0.44
   0 -12  -6    7.17    0.53
   0 -12  -6    7.15    0.56
   0 -12  -6    7.63    0.56
   1  12   6    2.72    0.42
  -1 -12  -6    2.90    0.35
  -1 -12  -6    3.11    0.30
  -1 -12  -6    2.67    0.43
  -2 -12  -6    3.64    0.44
  -2 -12  -6    3.65    0.36
  -2 -12  -6    3.84    0.49
  -3 -12  -6    7.65    0.63
  -3 -12  -6    7.22    0.50
  -4 -12  -6    1.42    0.32
  -4 -12  -6    1.28    0.22
  -5 -12  -6    3.99    0.40
  -6 -12  -6    4.60    0.40
  -6 -12  -6    4.04    0.43
  -7 -12  -6    2.07    0.25
  -7 -12  -6    2.24    0.28
  -8 -12  -6    2.31    0.29
  -8 -12  -6    2.47    0.28
  -9 -12  -6    0.28    0.16
  -9  12   7    0.23    0.16
   9 -12  -7    0.64    0.16
   9 -12  -7    0.38    0.14
   8 -12  -7    1.04    0.20
   8 -12  -7    1.29    0.20
   7 -12  -7    1.30    0.23
   7 -12  -7    1.22    0.24
   7 -12  -7    1.21    0.28
   6 -12  -7    0.91    0.25
   6 -12  -7    1.06    0.27
   6 -12  -7    1.06    0.24
   5 -12  -7    1.24    0.27
   5 -12  -7    1.06    0.25
   5 -12  -7    1.23    0.26
   4 -12  -7    4.18    0.42
   4 -12  -7    3.57    0.48
   3 -12  -7    0.97    0.23
   3 -12  -7    0.95    0.22
   2 -12  -7    8.03    0.63
   2 -12  -7    8.84    0.59
   1 -12  -7    0.54    0.21
   1 -12  -7    0.54    0.23
   0 -12  -7    3.16    0.45
   0 -12  -7    4.07    0.45
   0 -12  -7    4.15    0.46
   1  12   7    2.21    0.38
  -1 -12  -7    1.68    0.28
  -1 -12  -7    2.57    0.37
  -1 -12  -7    2.13    0.27
  -2 -12  -7    9.70    0.70
  -2 -12  -7    9.14    0.61
  -3 -12  -7    2.65    0.31
  -3 -12  -7    2.42    0.35
  -4 -12  -7    3.84    0.51
  -4 -12  -7    3.55    0.37
  -5 -12  -7   -0.02    0.32
  -5 -12  -7    0.20    0.22
  -6 -12  -7    0.64    0.23
  -7 -12  -7    0.94    0.24
  -7 -12  -7    0.90    0.22
  -8 -12  -7    1.39    0.21
  -8 -12  -7    1.26    0.25
  -9 -12  -7    0.64    0.17
   8 -12  -8    0.14    0.17
   8 -12  -8    0.36    0.16
  -7  12   8    0.38    0.25
   7 -12  -8    0.30    0.27
   7 -12  -8    0.40    0.22
   7 -12  -8    0.51    0.20
   6 -12  -8    0.10    0.25
   6 -12  -8    0.40    0.21
   5 -12  -8    1.15    0.28
   5 -12  -8    1.21    0.25
   4 -12  -8    0.75    0.25
   4 -12  -8    0.81    0.24
   3 -12  -8    1.74    0.25
   3 -12  -8    2.26    0.29
   2 -12  -8    3.59    0.45
   2 -12  -8    3.28    0.43
   1 -12  -8    0.20    0.23
   1 -12  -8    0.70    0.25
   0 -12  -8    5.53    0.53
   0 -12  -8    6.34    0.52
  -1 -12  -8    0.60    0.24
  -1 -12  -8    0.83    0.24
  -2 -12  -8    1.81    0.26
  -2 -12  -8    2.79    0.41
  -3 -12  -8    0.96    0.23
  -3 -12  -8    1.03    0.27
  -4 -12  -8    0.35    0.26
  -4 -12  -8    0.52    0.22
  -5 -12  -8    0.81    0.29
  -5 -12  -8    0.77    0.23
  -6 -12  -8    0.04    0.21
  -7 -12  -8    0.63    0.22
  -8 -12  -8    0.40    0.21
   7 -12  -9    0.48    0.17
   6 -12  -9    1.20    0.21
   6 -12  -9    1.42    0.28
   5 -12  -9    1.47    0.24
   5 -12  -9    1.63    0.28
   4 -12  -9    1.23    0.27
   4 -12  -9    1.16    0.23
   3 -12  -9    7.84    0.59
   3 -12  -9    7.82    0.56
   2 -12  -9    2.65    0.41
   2 -12  -9    2.15    0.30
   1 -12  -9    4.26    0.46
   0 -12  -9    1.78    0.28
   0 -12  -9    1.53    0.32
  -1 -12  -9    0.98    0.27
  -1 -12  -9    1.08    0.24
  -2 -12  -9    1.47    0.27
  -2 -12  -9    1.57    0.27
  -3 -12  -9    1.05    0.25
  -3 -12  -9    0.68    0.25
  -4 -12  -9    4.55    0.40
  -4 -12  -9    4.25    0.45
  -5 -12  -9    0.37    0.26
  -5 -12  -9    0.41    0.21
  -6 -12  -9    1.03    0.21
  -7 -12  -9    0.48    0.19
   6 -12 -10    2.04    0.26
   5 -12 -10    0.73    0.21
   5 -12 -10    0.51    0.25
   4 -12 -10    1.65    0.26
   4 -12 -10    1.91    0.28
   3 -12 -10    2.21    0.36
   2 -12 -10    0.17    0.23
   1 -12 -10    1.27    0.26
   0 -12 -10    1.11    0.25
  -1 -12 -10    2.39    0.34
  -1 -12 -10    2.88    0.40
  -2 -12 -10    2.08    0.29
  -2 -12 -10    2.03    0.28
  -3 -12 -10    0.68    0.24
  -3 -12 -10    0.81    0.23
  -4 -12 -10    3.87    0.39
  -4 -12 -10    3.78    0.35
  -5 -12 -10    0.21    0.22
  -5 -12 -10    0.38    0.20
  -6 -12 -10    0.54    0.18
   4 -12 -11    0.99    0.22
   3 -12 -11    1.04    0.22
   2 -12 -11    1.33    0.23
   1 -12 -11    3.41    0.35
   0 -12 -11    0.50    0.20
  -1 -12 -11    2.73    0.32
  -1 -12 -11    3.01    0.37
  -2 -12 -11    0.65    0.20
  -2 -12 -11    0.80    0.24
  -3 -12 -11    1.30    0.23
  -3 -12 -11    1.28    0.22
  -4 -12 -11    1.15    0.20
  -4 -12 -11    0.92    0.21
   5  12  11    0.07    0.22
  -5 -12 -11    0.08    0.18
   2 -12 -12    0.33    0.17
   1 -12 -12    1.86    0.25
   0 -12 -12    0.55    0.18
  -1 -12 -12    1.43    0.23
  -2 -12 -12   -0.05    0.20
  -2 -12 -12    0.32    0.16
  -1  13 -12    0.26    0.15
  -1  13 -12    0.28    0.14
   0  13 -12    0.37    0.14
   0  13 -12    0.41    0.15
   1  13 -12    1.45    0.18
   1  13 -12    1.18    0.17
  -4  13 -11    0.48    0.20
  -4  13 -11    0.77    0.16
  -4  13 -11    0.81    0.24
  -3  13 -11    0.96    0.18
  -3  13 -11    1.00    0.21
  -2  13 -11    1.18    0.19
  -2  13 -11    1.51    0.23
  -2  13 -11    1.67    0.24
  -1  13 -11    0.44    0.22
  -1  13 -11    0.91    0.19
  -1  13 -11    0.27    0.18
   0  13 -11    2.29    0.29
   0  13 -11    2.73    0.27
   0  13 -11    2.61    0.27
   1  13 -11    0.91    0.19
   1  13 -11    0.68    0.21
   1  13 -11    1.10    0.20
   2  13 -11    2.68    0.28
   2  13 -11    2.09    0.27
   2  13 -11    2.47    0.25
   3  13 -11    1.77    0.23
   3  13 -11    1.49    0.23
   3  13 -11    1.75    0.23
   4  13 -11    1.02    0.17
   4  13 -11    0.66    0.16
  -6  13 -10    0.03    0.19
  -6  13 -10    0.23    0.20
  -5  13 -10    0.72    0.20
  -5  13 -10    1.42    0.20
  -4  13 -10    0.31    0.21
  -4  13 -10    0.77    0.25
  -4  13 -10    0.73    0.20
  -3  13 -10    2.95    0.32
  -3  13 -10    2.81    0.30
  -3  13 -10    2.87    0.33
  -2  13 -10    1.63    0.26
  -2  13 -10    2.09    0.24
  -2  13 -10    1.79    0.26
  -1  13 -10    1.34    0.23
  -1  13 -10    1.33    0.24
  -1  13 -10    1.36    0.25
   0  13 -10    1.30    0.24
   0  13 -10    1.34    0.25
   0  13 -10    0.81    0.22
   1  13 -10    0.45    0.20
   1  13 -10    0.57    0.23
   1  13 -10    0.49    0.22
   2  13 -10    1.59    0.22
   2  13 -10    1.04    0.23
   2  13 -10    1.15    0.23
   3  13 -10    0.93    0.22
   3  13 -10    1.07    0.22
   3  13 -10    1.10    0.23
   4  13 -10    2.28    0.27
   4  13 -10    1.97    0.28
   4  13 -10    2.33    0.31
   5  13 -10    1.11    0.19
   5  13 -10    0.87    0.18
   6  13 -10    0.39    0.15
   6  13 -10    0.25    0.15
  -7  13  -9    0.77    0.17
   7 -13   9    1.17    0.24
  -6  13  -9    1.74    0.24
  -6  13  -9    1.39    0.21
   6 -13   9    2.10    0.31
  -5  13  -9    1.61    0.23
  -5  13  -9    2.13    0.29
   5 -13   9    1.05    0.34
  -4  13  -9    0.82    0.23
  -4  13  -9    0.60    0.28
  -4  13  -9    0.86    0.23
  -3  13  -9    3.18    0.39
  -3  13  -9    3.29    0.35
  -3  13  -9    2.95    0.36
  -2  13  -9    0.07    0.22
  -2  13  -9   -0.28    0.23
  -2  13  -9    0.48    0.24
  -1  13  -9    2.53    0.35
  -1  13  -9    2.24    0.28
  -1  13  -9    2.66    0.33
   0  13  -9    1.11    0.25
   0  13  -9    1.26    0.24
   0  13  -9    1.10    0.24
   1  13  -9    1.41    0.26
   1  13  -9    1.83    0.27
   1  13  -9    2.32    0.31
   2  13  -9    6.46    0.45
   2  13  -9    6.93    0.47
   2  13  -9    6.44    0.46
   3  13  -9    1.07    0.25
   3  13  -9    1.12    0.24
   3  13  -9    0.68    0.28
   3  13  -9    0.64    0.23
   4  13  -9    6.01    0.45
   4  13  -9    6.03    0.47
   4  13  -9    6.19    0.44
   4  13  -9    6.41    0.48
   5  13  -9    0.11    0.27
   5  13  -9    0.56    0.22
   5  13  -9    0.36    0.20
   5  13  -9    0.17    0.23
  -5 -13   9    0.70    0.29
   6  13  -9    0.67    0.20
   6  13  -9    0.62    0.19
   6  13  -9    0.20    0.18
   7  13  -9    0.71    0.17
   7  13  -9    0.69    0.16
   7  13  -9    0.54    0.16
  -8  13  -8    0.91    0.16
  -7  13  -8    0.45    0.19
   7 -13   8    0.48    0.26
  -6  13  -8    0.80    0.25
  -6  13  -8    0.48    0.20
   6 -13   8    0.84    0.30
  -5  13  -8    1.45    0.24
  -5  13  -8    1.11    0.25
  -4  13  -8   -0.19    0.23
  -4  13  -8    0.12    0.22
   4 -13   8    1.32    0.37
  -3  13  -8    0.15    0.23
  -3  13  -8    0.28    0.21
  -3  13  -8    0.55    0.27
  -2  13  -8    0.56    0.23
  -2  13  -8    0.74    0.26
  -2  13  -8    1.04    0.23
  -1  13  -8    2.03    0.27
  -1  13  -8    2.26    0.26
  -1  13  -8    1.89    0.27
   0  13  -8    0.88    0.23
   0  13  -8    0.76    0.23
   0  13  -8    0.71    0.22
   1  13  -8    2.51    0.34
   1  13  -8    2.85    0.33
   1  13  -8    2.58    0.30
   2  13  -8    3.47    0.38
   2  13  -8    3.93    0.38
   2  13  -8    3.36    0.39
   2  13  -8    4.14    0.47
   3  13  -8    1.34    0.26
   3  13  -8    1.59    0.28
   3  13  -8    1.56    0.26
   3  13  -8    1.59    0.26
   4  13  -8    2.96    0.36
   4  13  -8    2.85    0.31
   4  13  -8    2.64    0.39
   4  13  -8    3.03    0.37
   5  13  -8    2.74    0.34
   5  13  -8    2.42    0.29
   5  13  -8    2.96    0.36
   5  13  -8    2.67    0.39
   6  13  -8   -0.10    0.20
   6  13  -8    0.30    0.23
   6  13  -8   -0.05    0.20
   7  13  -8    0.33    0.18
   7  13  -8    0.38    0.18
   7  13  -8    0.36    0.19
   8  13  -8    0.90    0.16
   8  13  -8    0.59    0.16
   8  13  -8    1.15    0.17
  -8 -13   8    1.05    0.15
  -8  13  -7    1.03    0.18
   8 -13   7    1.30    0.26
  -7  13  -7    0.16    0.20
   7 -13   7    0.47    0.27
  -6  13  -7    1.70    0.24
   6 -13   7    1.53    0.32
  -5  13  -7    0.91    0.26
  -5  13  -7    0.48    0.22
   5 -13   7    0.41    0.31
  -4  13  -7    6.07    0.45
  -4  13  -7    6.72    0.50
   4 -13   7    7.12    0.61
  -3  13  -7    1.05    0.25
  -3  13  -7    1.09    0.29
  -3  13  -7    0.61    0.20
  -2  13  -7    5.38    0.43
  -2  13  -7    5.28    0.38
  -2  13  -7    4.36    0.42
  -1  13  -7    2.51    0.76
  -1  13  -7    3.29    0.33
  -1  13  -7    3.36    0.35
  -1  13  -7    3.49    0.36
   0  13  -7    1.80    0.24
   0  13  -7    1.39    0.70
   0  13  -7    1.22    0.22
   0  13  -7    1.20    0.23
   0 -13   7    2.45    0.70
   1  13  -7    4.78    0.45
   1  13  -7    3.80    0.35
   1  13  -7    3.68    0.37
   1  13  -7    3.85    0.39
   1  13  -7    3.27    0.89
   1  13  -7    3.90    0.80
  -1 -13   7    2.02    0.79
   2  13  -7    0.74    0.23
   2  13  -7    0.95    0.21
   2  13  -7    0.93    0.22
   2  13  -7    0.72    0.23
   3  13  -7    2.76    0.37
   3  13  -7    2.70    0.39
   3  13  -7    2.90    0.35
   3  13  -7    3.38    0.42
   4  13  -7    4.40    0.40
   4  13  -7    4.38    0.45
   4  13  -7    4.48    0.39
   4  13  -7    3.80    0.45
   5  13  -7   -0.20    0.27
   5  13  -7    0.46    0.24
   5  13  -7    0.09    0.23
   5  13  -7    0.09    0.25
  -5 -13   7   -0.09    0.29
   6  13  -7    4.16    0.39
   6  13  -7    3.75    0.38
   6  13  -7    3.72    0.40
   7  13  -7   -0.10    0.19
   7  13  -7    0.10    0.21
   7  13  -7    0.31    0.21
   8  13  -7    3.21    0.27
   8  13  -7    2.82    0.28
   8  13  -7    2.85    0.28
  -8 -13   7    2.58    0.26
  -9  13  -6    0.36    0.15
   9 -13   6    0.33    0.22
  -8  13  -6    0.75    0.19
   8 -13   6    0.69    0.26
  -7  13  -6   -0.05    0.20
   7 -13   6    0.87    0.28
  -6  13  -6    3.80    0.35
   6 -13   6    2.99    0.45
  -5  13  -6    0.24    0.20
   5 -13   6    0.28    0.28
  -4  13  -6    8.93    0.55
  -4  13  -6    8.68    0.61
   4 -13   6   10.52    0.71
  -3  13  -6    1.07    0.75
  -3  13  -6    1.81    0.25
  -3  13  -6    1.22    0.21
  -3  13  -6    1.17    0.30
  -2  13  -6    2.81    0.39
  -2  13  -6    5.69    0.77
  -2  13  -6    3.97    0.33
  -2  13  -6    4.02    0.41
  -1  13  -6    2.53    0.35
  -1  13  -6    2.74    0.29
  -1  13  -6    1.95    0.65
  -1  13  -6    1.48    0.68
  -1  13  -6    2.31    0.26
   0  13  -6    2.18    0.25
   0  13  -6    1.69    0.63
   0  13  -6    2.71    0.61
   0  13  -6    1.71    0.26
   0  13  -6    2.35    0.29
   0  13  -6    2.28    0.31
   1  13  -6    6.92    0.46
   1  13  -6    7.10    0.49
   1  13  -6    7.58    0.48
   1  13  -6    7.56    0.51
   1  13  -6    7.12    0.94
   1  13  -6    6.85    0.93
  -1 -13   6    6.69    0.90
   2  13  -6    3.07    0.34
   2  13  -6    2.90    0.35
   2  13  -6    2.86    0.68
   2  13  -6    2.78    0.35
   2  13  -6    3.12    0.33
  -2 -13   6    2.67    0.58
   3  13  -6    8.21    1.05
   3  13  -6    7.57    0.55
   3  13  -6    8.04    0.53
   3  13  -6    7.78    0.54
   3  13  -6    7.42    0.51
  -3 -13   6    8.78    0.96
   4  13  -6    4.78    0.41
   4  13  -6    5.15    0.42
   4  13  -6    4.31    0.46
   4  13  -6    4.90    0.43
   5  13  -6    1.04    0.28
   5  13  -6    1.15    0.26
   5  13  -6    1.27    0.24
   5  13  -6    1.15    0.26
  -5 -13   6    1.12    0.29
   6  13  -6    2.84    0.38
   6  13  -6    2.76    0.32
   6  13  -6    3.16    0.38
   6  13  -6    3.00    0.37
   7  13  -6    0.38    0.23
   7  13  -6    0.57    0.22
   7  13  -6    0.54    0.29
   7  13  -6    0.63    0.24
   8  13  -6    3.49    0.39
   8  13  -6    3.21    0.32
   8  13  -6    3.72    0.34
   8  13  -6    3.23    0.33
   9  13  -6    0.31    0.16
   9  13  -6    0.10    0.20
   9  13  -6    0.29    0.17
   9  13  -6    0.55    0.18
  -9 -13   6    0.62    0.15
  -9  13  -5    1.82    0.22
   9 -13   5    1.29    0.26
  -8  13  -5    0.56    0.19
   8 -13   5    0.62    0.26
  -7  13  -5    0.43    0.20
   7 -13   5    1.13    0.29
  -6  13  -5    5.35    0.39
   6 -13   5    4.65    0.50
  -5  13  -5    1.89    0.21
   5 -13   5    1.65    0.29
  -4  13  -5   10.25    0.59
   4 -13   5   11.08    0.76
  -3  13  -5    1.80    0.65
  -3  13  -5    1.03    0.18
   3 -13   5    1.52    0.33
  -2  13  -5   20.53    1.01
  -2  13  -5   20.33    1.09
  -2  13  -5   21.84    1.47
  -2  13  -5   19.82    1.08
  -2  13  -5   18.52    1.07
  -2  13  -5   19.09    1.49
  -1  13  -5    0.95    0.17
  -1  13  -5    0.91    0.46
  -1  13  -5    1.30    0.52
  -1  13  -5    1.47    0.23
   0  13  -5   17.42    0.92
   0  13  -5   19.04    1.37
   0  13  -5   17.88    0.98
   0  13  -5   18.37    1.33
   1  13  -5    8.41    0.49
   1  13  -5    7.92    0.90
   1  13  -5    8.48    0.51
   1  13  -5    8.14    0.51
   1  13  -5    8.48    0.82
   1  13  -5    7.98    0.50
  -1 -13   5    5.99    0.79
   2  13  -5    4.58    0.73
   2  13  -5    4.92    0.39
   2  13  -5    6.11    0.80
   2  13  -5    3.92    0.38
   2  13  -5    5.32    0.38
   2  13  -5    4.63    0.39
  -2 -13   5    5.55    0.69
   3  13  -5    6.34    0.49
   3  13  -5    7.25    0.47
   3  13  -5    6.80    0.46
   3  13  -5    6.82    0.83
   3  13  -5    6.43    0.46
  -3 -13   5    6.95    0.78
   4  13  -5    1.86    0.24
   4  13  -5    1.22    0.20
   4  13  -5    1.53    0.23
   4  13  -5    1.35    0.59
   4  13  -5    1.49    0.25
  -4 -13   5    1.13    0.53
   5  13  -5    2.03    0.33
   5  13  -5    2.56    0.27
   5  13  -5    2.59    0.29
   5  13  -5    2.59    0.31
   5  13  -5    1.94    0.28
  -5 -13   5    2.43    0.30
   6  13  -5    2.97    0.39
   6  13  -5    3.63    0.40
   6  13  -5    3.13    0.36
   6  13  -5    3.36    0.46
   6  13  -5    2.96    0.39
  -6 -13   5    3.24    0.43
   7  13  -5    1.34    0.25
   7  13  -5    1.10    0.29
   7  13  -5    1.31    0.27
   7  13  -5    1.85    0.26
   8  13  -5    4.26    0.39
   8  13  -5    4.47    0.40
   8  13  -5    4.70    0.43
   8  13  -5    4.95    0.39
  -8 -13   5    4.79    0.37
   9  13  -5    1.36    0.22
   9  13  -5    1.38    0.21
   9  13  -5    0.98    0.20
   9  13  -5    0.97    0.22
  -9 -13   5    1.21    0.18
 -10  13  -4    1.17    0.15
  10 -13   4    0.96    0.20
  -9  13  -4    0.52    0.17
   9 -13   4    0.11    0.24
  -8  13  -4    1.36    0.21
   8 -13   4    1.26    0.29
  -7  13  -4    0.46    0.20
   7 -13   4    1.61    0.30
  -6  13  -4    2.70    0.30
   6 -13   4    2.81    0.43
  -5  13  -4    0.88    0.18
   5 -13   4   -0.09    0.23
  -4  13  -4    7.40    1.01
  -4  13  -4    7.76    0.49
   4 -13   4   10.00    0.64
  -3  13  -4    3.27    0.54
  -3  13  -4    1.93    0.26
  -2  13  -4   13.38    1.06
  -2  13  -4   13.41    1.10
  -1  13  -4   -0.51    0.39
  -1  13  -4    0.06    0.36
   0  13  -4    9.45    0.88
   0  13  -4   10.25    0.85
   0 -13   4   11.25    0.87
   1  13  -4    3.58    0.59
   1  13  -4    3.62    0.53
  -1 -13   4    3.34    0.48
   2  13  -4   14.07    1.03
  -2 -13   4   12.24    1.01
   3  13  -4    2.21    0.25
   3  13  -4    2.49    0.31
   3  13  -4    2.95    0.35
   3  13  -4    2.34    0.33
   3  13  -4    2.37    0.50
  -3 -13   4    3.52    0.59
   4  13  -4    7.82    0.50
   4  13  -4    7.17    0.49
   4  13  -4    7.49    0.60
   4  13  -4    7.94    0.90
   4  13  -4    7.06    0.53
   4  13  -4    7.01    0.49
  -4 -13   4    6.38    0.79
   5  13  -4    0.26    0.21
   5  13  -4    0.15    0.57
   5  13  -4    0.32    0.25
   5  13  -4    0.46    0.24
   5  13  -4    0.87    0.25
   5  13  -4    0.40    0.19
  -5 -13   4    1.66    0.56
   6  13  -4    1.29    0.31
   6  13  -4    1.26    0.26
   6  13  -4    1.85    0.26
   6  13  -4    1.66    0.25
   6  13  -4    1.39    0.27
  -6 -13   4    2.31    0.30
   7  13  -4    0.04    0.24
   7  13  -4    0.10    0.22
   7  13  -4   -0.23    0.25
   7  13  -4    0.17    0.26
   8  13  -4    1.42    0.26
   8  13  -4    1.99    0.28
   8  13  -4    2.00    0.28
   8  13  -4    1.99    0.26
  -8 -13   4    2.11    0.30
   9  13  -4    0.19    0.21
   9  13  -4    0.38    0.21
   9  13  -4    0.12    0.23
   9  13  -4    0.14    0.21
  -9 -13   4    0.00    0.17
  10  13  -4    1.18    0.21
  10  13  -4    0.63    0.21
  10  13  -4    0.83    0.18
 -10  13  -3    0.53    0.15
  -9  13  -3   -0.03    0.17
   9 -13   3    0.10    0.23
  -8  13  -3    4.05    0.32
   8 -13   3    3.33    0.44
  -7  13  -3    2.23    0.31
   7 -13   3    2.60    0.42
  -6  13  -3    0.09    0.17
   6 -13   3    0.14    0.23
  -5  13  -3    0.81    0.57
  -5  13  -3    1.64    0.24
  -5  13  -3    1.62    0.20
   5 -13   3    1.03    0.24
  -4  13  -3    2.30    0.26
  -4  13  -3    2.19    0.47
  -4  13  -3    2.27    0.31
   4 -13   3    1.87    0.27
  -3  13  -3    4.90    0.66
  -2  13  -3    8.65    0.77
  -2  13  -3    8.03    0.82
  -1  13  -3    0.82    0.36
  -1  13  -3    0.82    0.33
   0  13  -3    6.87    0.65
   0  13  -3    7.52    0.72
   1  13  -3    1.37    0.39
   1  13  -3    1.08    0.33
  -1 -13   3    1.93    0.36
   2  13  -3    8.83    0.75
  -2 -13   3    7.63    0.72
   3  13  -3    6.48    0.75
  -3 -13   3    8.25    0.72
   4  13  -3    6.53    0.46
   4  13  -3    6.75    0.50
   4  13  -3    6.84    0.77
   4  13  -3    6.21    0.47
   4  13  -3    4.81    0.46
   4  13  -3    6.01    0.42
  -4 -13   3    6.03    0.69
  -4 -13   3    5.13    0.42
   5  13  -3    0.39    0.22
   5  13  -3    0.60    0.21
   5  13  -3    0.18    0.56
   5  13  -3    0.41    0.18
   5  13  -3    0.49    0.24
   5  13  -3    0.63    0.25
  -5 -13   3    1.45    0.51
   6  13  -3    0.65    0.25
   6  13  -3    0.47    0.23
   6  13  -3    0.57    0.21
   6  13  -3    0.88    0.22
  -6 -13   3    0.68    0.25
   7  13  -3    0.58    0.24
   7  13  -3    0.13    0.23
   7  13  -3    0.32    0.27
   7  13  -3    0.79    0.24
   8  13  -3    1.48    0.28
   8  13  -3    2.12    0.29
   8  13  -3    1.99    0.27
   8  13  -3    1.46    0.28
  -8 -13   3    1.42    0.22
   9  13  -3    0.58    0.25
   9  13  -3    0.98    0.22
   9  13  -3    0.56    0.23
   9  13  -3    0.60    0.25
  -9 -13   3    0.73    0.18
  10  13  -3    1.15    0.20
  10  13  -3    1.22    0.26
 -10 -13   3    0.93    0.16
 -10  13  -2    1.57    0.19
  10 -13   2    2.35    0.31
  -9  13  -2    0.52    0.19
   9 -13   2    0.41    0.23
  -8  13  -2    3.21    0.32
   8 -13   2    2.92    0.41
  -7  13  -2    1.76    0.24
  -7  13  -2    1.58    0.20
   7 -13   2    1.53    0.27
   7 -13   2    1.62    0.27
  -6  13  -2   -0.15    0.64
  -6  13  -2    0.50    0.17
  -6  13  -2    0.21    0.19
   6 -13   2    0.91    0.23
   6 -13   2    1.04    0.23
  -5  13  -2    3.90    0.30
  -5  13  -2    3.29    0.56
  -5  13  -2    3.64    0.34
   5 -13   2    2.74    0.37
   5 -13   2    3.35    0.41
  -4  13  -2    1.08    0.39
  -3  13  -2    4.63    0.57
  -2  13  -2   11.76    0.87
  -1  13  -2    2.66    0.45
  -1  13  -2    2.70    0.39
   1 -13   2    2.12    0.36
   0  13  -2    9.02    0.70
   0  13  -2    8.66    0.73
   0 -13   2    7.67    0.66
   1  13  -2    3.06    0.47
  -1 -13   2    2.85    0.43
   2  13  -2   13.56    1.00
  -2 -13   2   14.10    0.98
   3  13  -2    1.47    0.39
  -3 -13   2    0.92    0.34
   4  13  -2   19.26    1.33
   4  13  -2   17.87    0.98
   4  13  -2   16.86    0.96
   4  13  -2   19.43    0.97
   4  13  -2   18.06    1.04
  -4 -13   2   18.91    1.25
  -4 -13   2   16.37    0.97
   5  13  -2    0.45    0.26
   5  13  -2    1.03    0.54
   5  13  -2    0.27    0.18
   5  13  -2    0.55    0.20
   5  13  -2    0.37    0.19
   5  13  -2    0.84    0.24
  -5 -13   2    0.50    0.20
  -5 -13   2    0.74    0.46
   6  13  -2    1.75    0.24
   6  13  -2    1.39    0.24
   6  13  -2    1.75    0.31
   6  13  -2    1.95    0.75
   6  13  -2    2.02    0.26
   7  13  -2    0.38    0.29
   7  13  -2    0.23    0.24
   7  13  -2    0.37    0.24
   7  13  -2    0.43    0.22
  -7 -13   2    0.96    0.21
   8  13  -2    2.25    0.31
   8  13  -2    1.68    0.30
   8  13  -2    1.91    0.28
   8  13  -2    1.79    0.26
  -8 -13   2    1.48    0.22
   9  13  -2    0.26    0.23
  -9 -13   2    0.04    0.18
  10  13  -2   -0.12    0.19
 -10 -13   2    0.41    0.15
 -10  13  -1    0.71    0.17
  10 -13   1    0.66    0.22
  -9  13  -1    0.23    0.21
  -9  13  -1    0.36    0.19
   9 -13   1    0.00    0.22
  -8  13  -1    9.47    0.55
  -8  13  -1    9.65    0.59
   8 -13   1   10.02    0.67
   8 -13   1    9.69    0.61
  -7  13  -1    4.21    0.37
  -7  13  -1    4.57    0.38
   7 -13   1    4.45    0.40
   7 -13   1    4.51    0.46
  -6  13  -1    4.66    0.38
  -6  13  -1    5.16    0.83
  -6  13  -1    4.31    0.37
   6 -13   1    6.28    0.41
   6 -13   1    6.00    0.49
  -5  13  -1    0.71    0.43
  -5  13  -1    0.76    0.16
  -5  13  -1    0.76    0.17
   5 -13   1    0.69    0.19
   5 -13   1    0.82    0.21
  -4  13  -1    7.22    0.70
  -3  13  -1    3.87    0.51
  -2  13  -1    1.32    0.30
  -1  13  -1    4.76    0.50
   0  13  -1    1.46    0.31
   0 -13   1    1.27    0.26
   1  13  -1    6.16    0.57
  -1 -13   1    5.89    0.54
   2  13  -1   47.72    3.09
  -2 -13   1   53.70    3.04
   3  13  -1    1.60    0.38
  -3 -13   1    2.51    0.37
   4  13  -1   33.49    2.28
  -4 -13   1   37.90    2.23
   5  13  -1    0.60    0.53
   5  13  -1    0.21    0.19
   5  13  -1    0.32    0.19
   5  13  -1    0.21    0.20
  -5 -13   1   -0.08    0.41
  -5 -13   1    0.11    0.18
   6  13  -1   -0.28    0.72
   6  13  -1    0.65    0.24
   6  13  -1    0.85    0.21
   6  13  -1    0.32    0.20
  -6 -13   1    0.92    0.52
  -6 -13   1    1.34    0.22
   7  13  -1    0.78    0.23
   7  13  -1    1.41    0.27
   7  13  -1    1.10    0.31
  -7 -13   1    1.77    0.22
   8  13  -1    2.90    0.39
   8  13  -1    3.54    0.41
  -8 -13   1    3.12    0.32
   9  13  -1    0.37    0.25
  -9 -13   1    0.82    0.19
  10  13  -1   -0.12    0.21
 -10 -13   1    0.10    0.15
 -10  13   0    0.37    0.20
 -10  13   0    0.91    0.18
  10 -13   0    0.55    0.22
  -9  13   0    1.12    0.22
  -9  13   0    1.63    0.21
   9 -13   0    1.39    0.24
   9 -13   0    1.87    0.27
  -8  13   0   18.49    0.95
  -8  13   0   18.43    0.98
   8 -13   0   17.88    0.99
   8 -13   0   18.79    1.10
  -7  13   0    0.08    0.18
  -7  13   0    0.10    0.19
   7 -13   0    0.13    0.22
   7 -13   0    0.26    0.20
  -6  13   0    6.10    0.44
  -6  13   0    7.15    0.84
  -6  13   0    6.63    0.43
   6 -13   0    6.74    0.52
   6 -13   0    6.24    0.45
  -5  13   0    0.25    0.16
  -5  13   0    0.30    0.39
  -5  13   0   -0.04    0.18
   5 -13   0    0.15    0.17
   5 -13   0    0.16    0.16
  -4  13   0   36.66    2.30
  -3  13   0    1.71    0.34
  -2  13   0   22.81    1.47
  -1  13   0    0.83    0.27
   0  13   0    0.03    0.24
   1  13   0    1.36    0.30
  -1 -13   0    1.12    0.25
   2  13   0   22.90    1.49
  -2 -13   0   22.90    1.45
   3  13   0    1.71    0.38
  -3 -13   0    2.12    0.35
   4  13   0   37.06    2.30
  -4 -13   0   34.68    2.22
   5  13   0   -0.11    0.18
   5  13   0    0.42    0.57
   5  13   0   -0.09    0.20
  -5 -13   0    0.22    0.16
  -5 -13   0    0.33    0.18
  -5 -13   0    0.28    0.42
   6  13   0    6.57    0.51
   6  13   0    6.89    0.49
  -6 -13   0    6.43    0.49
  -6 -13   0    5.65    0.87
  -6 -13   0    6.67    0.44
   7  13   0    0.20    0.23
   7  13   0    0.15    0.23
  -7 -13   0   -0.08    0.25
  -7 -13   0    0.30    0.18
   8  13   0   19.49    1.09
  -8 -13   0   18.63    0.99
   9  13   0    1.30    0.28
  -9 -13   0    1.81    0.26
  10  13   0    0.93    0.24
 -10 -13   0    0.63    0.16
 -10  13   1    0.03    0.17
 -10  13   1    0.11    0.17
  10 -13  -1   -0.05    0.18
  10 -13  -1    0.34    0.22
  -9  13   1    0.69    0.20
  -9  13   1    0.43    0.20
   9 -13  -1    0.49    0.24
   9 -13  -1    0.50    0.20
  -8  13   1    2.28    0.33
  -8  13   1    2.96    0.33
   8 -13  -1    2.72    0.35
   8 -13  -1    2.87    0.41
  -7  13   1    1.30    0.22
   7 -13  -1    1.38    0.25
   7 -13  -1    1.32    0.24
  -6  13   1    0.79    0.21
  -6  13   1    0.52    0.52
   6 -13  -1    1.00    0.21
   6 -13  -1    0.98    0.21
  -5  13   1    0.24    0.40
   5 -13  -1   -0.03    0.26
   5 -13  -1    0.33    0.17
   5 -13  -1    0.32    0.17
  -4  13   1   34.36    2.18
  -3  13   1    1.85    0.34
  -2  13   1   47.77    2.92
  -1  13   1    6.52    0.59
   0  13   1    1.67    0.31
   1  13   1    4.33    0.50
   2  13   1    1.01    0.32
  -2 -13  -1    0.94    0.28
   3  13   1    4.82    0.63
  -3 -13  -1    4.03    0.51
   4  13   1    6.46    0.84
  -4 -13  -1    6.48    0.66
   5  13   1    1.02    0.22
   5  13   1    0.88    0.22
  -5 -13  -1    0.83    0.19
  -5 -13  -1    0.91    0.42
  -5 -13  -1    0.83    0.18
   6  13   1    5.02    0.45
   6  13   1    4.89    0.47
  -6 -13  -1    6.26    0.44
  -6 -13  -1    6.75    0.40
  -6 -13  -1    6.31    0.85
   7  13   1    4.66    0.47
  -7 -13  -1    4.02    0.45
  -7 -13  -1    4.85    0.36
   8  13   1    9.48    0.65
  -8 -13  -1    9.61    0.57
   9  13   1    0.38    0.27
  -9 -13  -1    0.22    0.17
  10  13   1    0.92    0.25
 -10 -13  -1    0.78    0.16
 -10  13   2    0.11    0.20
 -10  13   2    0.15    0.17
  10 -13  -2    0.16    0.17
  10 -13  -2    0.15    0.23
  -9  13   2    0.29    0.21
  -9  13   2    0.12    0.21
   9 -13  -2    0.07    0.20
   9 -13  -2    0.42    0.24
  -8  13   2    2.07    0.25
   8 -13  -2    1.59    0.25
   8 -13  -2    1.66    0.32
   8 -13  -2    1.76    0.28
   7 -13  -2    0.76    0.24
   7 -13  -2    0.69    0.22
   7 -13  -2    0.65    0.29
  -6  13   2    1.33    0.55
   6 -13  -2    1.31    0.27
   6 -13  -2    1.04    0.22
   6 -13  -2    1.24    0.23
  -5  13   2   -0.21    0.43
   5 -13  -2    0.29    0.18
   5 -13  -2    0.38    0.18
   5 -13  -2    0.21    0.23
  -4  13   2   19.38    1.25
   4 -13  -2   15.99    1.03
   4 -13  -2   17.27    0.93
  -3  13   2    1.10    0.34
  -2  13   2   13.41    0.97
  -1  13   2    3.34    0.47
   0  13   2    8.72    0.72
   1  13   2    2.84    0.50
   2  13   2   11.79    0.91
  -3 -13  -2    3.92    0.55
  -4 -13  -2    2.06    0.25
  -4 -13  -2    2.15    0.42
   5  13   2    3.70    0.41
  -5 -13  -2    2.70    0.32
  -5 -13  -2    3.32    0.53
  -5 -13  -2    3.11    0.34
   6  13   2    0.71    0.25
  -6 -13  -2    1.27    0.58
  -6 -13  -2    0.77    0.21
  -6 -13  -2    1.16    0.19
   7  13   2    2.00    0.29
  -7 -13  -2    2.10    0.23
  -7 -13  -2    1.82    0.27
   8  13   2    3.13    0.43
  -8 -13  -2    2.98    0.32
   9  13   2    0.64    0.29
  -9 -13  -2    0.37    0.17
  10  13   2    1.39    0.29
 -10 -13  -2    2.15    0.21
 -10  13   3    1.30    0.18
  10 -13  -3    0.58    0.25
  10 -13  -3    0.86    0.17
  -9  13   3    0.56    0.21
   9 -13  -3    0.60    0.20
   9 -13  -3    0.53    0.26
   9 -13  -3    0.83    0.26
   8 -13  -3    0.67    0.26
   8 -13  -3    1.06    0.22
   8 -13  -3    0.91    0.27
   7 -13  -3   -0.01    0.24
   7 -13  -3    0.21    0.25
   7 -13  -3    0.14    0.21
   6 -13  -3    0.26    0.24
   6 -13  -3    0.61    0.23
   6 -13  -3    0.58    0.21
  -5  13   3    1.10    0.49
   5 -13  -3    0.90    0.19
   5 -13  -3    0.75    0.22
   5 -13  -3    0.76    0.20
  -4  13   3    6.94    0.75
   4 -13  -3    5.99    0.44
   4 -13  -3    6.26    0.50
   4 -13  -3    6.17    0.48
  -3  13   3    6.80    0.70
  -2  13   3    8.93    0.76
  -1  13   3    0.82    0.34
   0  13   3    6.38    0.65
   1  13   3    1.20    0.36
   4  13   3    2.75    0.38
  -4 -13  -3    1.76    0.26
  -4 -13  -3    1.66    0.46
  -5 -13  -3    0.80    0.52
  -5 -13  -3    0.70    0.20
  -5 -13  -3    0.79    0.19
   6  13   3    0.21    0.27
  -6 -13  -3    0.08    0.18
  -6 -13  -3    0.01    0.20
  -7 -13  -3    2.87    0.32
  -7 -13  -3    2.99    0.40
   8  13   3    4.18    0.47
  -8 -13  -3    4.02    0.34
  -8 -13  -3    3.56    0.44
   9  13   3    0.29    0.31
  -9 -13  -3    0.41    0.17
 -10 -13  -3    1.49    0.19
 -10  13   4    1.06    0.17
  10 -13  -4    1.23    0.22
  10 -13  -4    1.44    0.20
  -9  13   4    0.26    0.20
   9 -13  -4    0.26    0.25
   9 -13  -4    0.19    0.18
   9 -13  -4    0.52    0.24
   8 -13  -4    1.83    0.28
   8 -13  -4    2.03    0.25
   8 -13  -4    1.63    0.30
   7 -13  -4    0.27    0.26
   7 -13  -4    0.17    0.24
   7 -13  -4    0.27    0.22
   6 -13  -4    1.77    0.27
   6 -13  -4    2.03    0.29
   6 -13  -4    2.45    0.35
  -5  13   4    1.00    0.59
   5 -13  -4    1.57    0.23
   5 -13  -4    1.33    0.23
   5 -13  -4    1.84    0.26
  -4  13   4    7.43    0.81
   4 -13  -4    6.81    0.52
   4 -13  -4    6.41    0.50
   4 -13  -4    6.15    0.47
   3 -13  -4    4.82    0.45
   3 -13  -4    4.23    0.40
   3 -13  -4    4.07    0.43
  -2  13   4   13.18    1.05
  -1  13   4    3.00    0.48
  -3 -13  -4    1.22    0.18
   4  13   4    8.07    0.63
  -4 -13  -4   10.25    0.56
   5  13   4    1.14    0.29
  -5 -13  -4    0.54    0.22
  -5 -13  -4    0.38    0.19
   6  13   4    2.98    0.36
  -6 -13  -4    2.77    0.34
  -6 -13  -4    2.72    0.35
   7  13   4    0.76    0.32
  -7 -13  -4    1.07    0.25
  -7 -13  -4    1.26    0.21
  -8 -13  -4    1.34    0.29
  -8 -13  -4    1.04    0.20
  -9 -13  -4    0.02    0.16
 -10 -13  -4    0.82    0.14
  -9  13   5    0.95    0.20
   9 -13  -5    1.08    0.27
   9 -13  -5    0.88    0.18
   9 -13  -5    1.08    0.21
   8 -13  -5    5.23    0.40
   8 -13  -5    4.49    0.47
   8 -13  -5    5.09    0.44
   7 -13  -5    1.52    0.25
   7 -13  -5    1.76    0.29
   7 -13  -5    1.83    0.28
   6 -13  -5    3.67    0.44
   6 -13  -5    3.34    0.50
   6 -13  -5    4.17    0.42
   5 -13  -5    2.26    0.30
   5 -13  -5    2.47    0.27
   5 -13  -5    2.88    0.30
  -4  13   5    1.75    0.63
   4 -13  -5    1.37    0.23
   4 -13  -5    1.43    0.23
   4 -13  -5    1.14    0.24
  -3  13   5    7.11    0.90
   3 -13  -5    6.42    0.54
   3 -13  -5    7.07    0.53
   3 -13  -5    7.33    0.52
   2 -13  -5    4.37    0.44
   2 -13  -5    4.58    0.40
   1 -13  -5    6.06    0.45
   1 -13  -5    5.87    0.49
   0 -13  -5   18.21    1.00
   0 -13  -5   16.97    1.05
  -1 -13  -5    1.28    0.22
  -1 -13  -5    0.97    0.23
  -1 -13  -5    0.65    0.21
   2  13   5   22.05    1.24
  -2 -13  -5   21.94    1.23
  -2 -13  -5   22.73    1.17
  -2 -13  -5   21.02    1.32
   3  13   5    1.63    0.29
  -3 -13  -5    1.10    0.20
   4  13   5   10.71    0.77
  -4 -13  -5   11.55    0.66
  -5 -13  -5    1.14    0.22
  -6 -13  -5    4.68    0.42
  -6 -13  -5    4.67    0.42
  -7 -13  -5    1.04    0.22
  -7 -13  -5    0.63    0.25
  -8 -13  -5    0.49    0.19
  -8 -13  -5    0.21    0.24
  -9 -13  -5    0.60    0.16
  -9  13   6    0.28    0.17
   9 -13  -6    0.38    0.15
   9 -13  -6    0.77    0.17
   8 -13  -6    2.36    0.32
   8 -13  -6    2.25    0.29
   8 -13  -6    1.93    0.30
   7 -13  -6    0.24    0.23
   7 -13  -6    0.46    0.22
   7 -13  -6    0.22    0.26
   6 -13  -6    2.46    0.38
   6 -13  -6    2.84    0.32
   6 -13  -6    2.83    0.29
   5 -13  -6    1.08    0.25
   5 -13  -6    1.03    0.25
   5 -13  -6    1.15    0.24
   4 -13  -6    3.87    0.44
   4 -13  -6    3.47    0.46
   4 -13  -6    3.75    0.43
   3 -13  -6    7.26    0.55
   3 -13  -6    8.46    0.61
   2 -13  -6    3.36    0.37
   2 -13  -6    3.01    0.40
   1 -13  -6    6.90    0.51
   1 -13  -6    6.89    0.55
   0 -13  -6    3.08    0.32
   0 -13  -6    3.25    0.42
   0 -13  -6    2.68    0.38
   1  13   6    2.83    0.36
  -1 -13  -6    3.94    0.45
  -1 -13  -6    2.76    0.40
  -1 -13  -6    3.77    0.40
   2  13   6    5.09    0.50
  -2 -13  -6    4.75    0.47
  -2 -13  -6    5.35    0.55
  -2 -13  -6    4.96    0.41
   3  13   6    1.25    0.30
  -3 -13  -6    1.18    0.27
  -3 -13  -6    0.66    0.21
  -4 -13  -6   11.44    0.68
  -5 -13  -6   -0.06    0.20
  -6 -13  -6    2.62    0.37
  -7 -13  -6    0.18    0.21
  -7 -13  -6    0.46    0.23
  -8 -13  -6    0.74    0.19
  -8 -13  -6    0.65    0.24
  -9 -13  -6    0.14    0.15
  -8  13   7    2.83    0.28
   8 -13  -7    2.93    0.28
   8 -13  -7    2.83    0.40
   8 -13  -7    3.09    0.29
  -7  13   7    0.49    0.24
   7 -13  -7    0.57    0.21
   7 -13  -7    0.35    0.25
   7 -13  -7    0.35    0.20
   6 -13  -7    3.86    0.47
   6 -13  -7    3.82    0.40
   6 -13  -7    4.46    0.42
   5 -13  -7    0.17    0.25
   5 -13  -7    0.19    0.23
   5 -13  -7    0.06    0.23
   4 -13  -7    3.01    0.41
   4 -13  -7    3.88    0.46
   3 -13  -7    5.12    0.46
   3 -13  -7    4.85    0.50
   2 -13  -7    0.78    0.23
   2 -13  -7    0.58    0.21
   1 -13  -7    1.89    0.26
   1 -13  -7    2.46    0.37
   0 -13  -7    1.26    0.28
   0 -13  -7    0.94    0.25
   0 -13  -7    1.19    0.24
   1  13   7    3.39    0.41
  -1 -13  -7    4.04    0.40
  -1 -13  -7    4.07    0.46
  -1 -13  -7    3.74    0.48
  -2 -13  -7    6.48    0.49
  -2 -13  -7    6.42    0.60
  -3 -13  -7    0.76    0.22
  -3 -13  -7    1.18    0.27
  -4 -13  -7    7.48    0.53
  -4 -13  -7    7.23    0.63
  -5 -13  -7    0.33    0.22
  -6 -13  -7    1.22    0.24
  -7 -13  -7    0.39    0.22
  -8 -13  -7    1.50    0.22
  -8 -13  -7    1.19    0.24
  -8  13   8    0.70    0.22
   8 -13  -8    0.90    0.15
  -7  13   8    0.04    0.25
   7 -13  -8    0.48    0.22
   7 -13  -8    0.57    0.26
   7 -13  -8    0.77    0.19
   6 -13  -8    1.10    0.27
   6 -13  -8    1.12    0.22
   5 -13  -8    3.04    0.37
   5 -13  -8    2.70    0.42
   4 -13  -8    0.78    0.22
   4 -13  -8    0.72    0.25
   3 -13  -8    0.83    0.22
   3 -13  -8    0.86    0.24
   2 -13  -8    3.66    0.42
   2 -13  -8    3.59    0.45
   1 -13  -8    1.65    0.26
   1 -13  -8    1.12    0.27
   0  13   8    0.63    0.36
   0 -13  -8    1.45    0.31
   0 -13  -8    0.83    0.27
   0 -13  -8    1.34    0.25
  -1 -13  -8    2.82    0.41
  -1 -13  -8    2.99    0.44
  -2 -13  -8    0.91    0.25
  -2 -13  -8    1.01    0.24
  -3 -13  -8    0.60    0.23
  -3 -13  -8    0.73    0.26
  -4 -13  -8    1.27    0.24
  -4 -13  -8    1.35    0.29
  -5 -13  -8    2.05    0.26
  -5 -13  -8    1.96    0.33
  -6 -13  -8   -0.01    0.20
  -7 -13  -8    0.19    0.20
  -8 -13  -8    1.07    0.21
   7 -13  -9    0.25    0.15
   6 -13  -9    0.24    0.24
   6 -13  -9    0.22    0.17
   5 -13  -9    0.24    0.20
   5 -13  -9    0.25    0.25
   4 -13  -9    4.88    0.46
   4 -13  -9    4.48    0.41
   3 -13  -9    0.97    0.25
   3 -13  -9    0.69    0.24
   2 -13  -9    6.66    0.52
   2 -13  -9    6.41    0.53
   1 -13  -9    1.10    0.26
   0 -13  -9    1.43    0.27
  -1 -13  -9    3.74    0.41
  -1 -13  -9    3.83    0.43
  -2 -13  -9    0.40    0.24
  -2 -13  -9    0.39    0.25
  -3 -13  -9    1.05    0.24
  -3 -13  -9    1.64    0.27
  -4 -13  -9    0.79    0.22
  -4 -13  -9    0.48    0.26
  -5 -13  -9    0.84    0.22
  -5 -13  -9    0.96    0.27
  -6 -13  -9    2.07    0.27
  -7 -13  -9    0.76    0.18
   6 -13 -10    0.11    0.17
   5 -13 -10    1.04    0.24
   5 -13 -10    1.01    0.21
   4 -13 -10    1.44    0.26
   4 -13 -10    1.65    0.25
   3 -13 -10    0.98    0.25
   2 -13 -10    2.13    0.34
   1 -13 -10    0.42    0.23
   0 -13 -10    1.24    0.24
  -1 -13 -10    1.64    0.29
  -1 -13 -10    1.35    0.24
  -2 -13 -10    1.07    0.24
  -2 -13 -10    0.98    0.26
  -3 -13 -10    3.50    0.36
  -3 -13 -10    3.56    0.38
  -4 -13 -10    0.52    0.21
  -4 -13 -10    0.52    0.23
  -5 -13 -10    0.90    0.20
  -5 -13 -10    0.79    0.22
  -6 -13 -10    0.15    0.16
   4 -13 -11    0.55    0.19
   3 -13 -11    1.79    0.23
   2 -13 -11    2.25    0.29
   1 -13 -11    0.32    0.19
   0 -13 -11    2.55    0.30
  -1 -13 -11    0.44    0.20
  -1 -13 -11    0.65    0.26
  -2 -13 -11    1.30    0.25
  -2 -13 -11    1.38    0.22
  -3 -13 -11    0.59    0.20
  -3 -13 -11    0.81    0.21
  -4 -13 -11    0.71    0.19
  -4 -13 -11    0.86    0.19
   1 -13 -12    0.81    0.17
   0 -13 -12    0.44    0.16
  -1 -13 -12    0.07    0.15
  -4  14 -11    0.29    0.15
  -3  14 -11    1.66    0.24
  -3  14 -11    1.73    0.21
  -3  14 -11    1.78    0.23
  -2  14 -11    0.36    0.16
  -2  14 -11    0.47    0.20
  -2  14 -11    0.52    0.18
  -1  14 -11    1.18    0.21
  -1  14 -11    1.42    0.18
  -1  14 -11    1.10    0.20
   0  14 -11    1.83    0.23
   0  14 -11    1.61    0.23
   0  14 -11    1.86    0.25
   1  14 -11    1.83    0.24
   1  14 -11    1.75    0.23
   1  14 -11    1.82    0.24
   2  14 -11    0.93    0.18
   2  14 -11    0.71    0.19
   2  14 -11    0.57    0.19
   3  14 -11    1.79    0.24
   3  14 -11    1.67    0.22
   3  14 -11    1.63    0.21
   4  14 -11    0.81    0.15
  -5  14 -10    0.25    0.18
  -5  14 -10    0.21    0.19
  -4  14 -10    2.30    0.27
  -4  14 -10    2.45    0.27
  -3  14 -10    1.65    0.25
  -3  14 -10    2.00    0.27
  -3  14 -10    1.18    0.23
  -2  14 -10    3.29    0.31
  -2  14 -10    2.12    0.30
  -2  14 -10    2.54    0.30
  -1  14 -10    0.33    0.22
  -1  14 -10    0.50    0.20
  -1  14 -10    0.48    0.22
   0  14 -10    0.61    0.22
   0  14 -10    0.37    0.22
   0  14 -10    0.46    0.20
   1  14 -10    1.15    0.23
   1  14 -10    1.22    0.22
   1  14 -10    1.30    0.23
   2  14 -10    0.35    0.20
   2  14 -10    0.36    0.22
   2  14 -10    0.29    0.19
   3  14 -10    1.86    0.28
   3  14 -10    1.65    0.23
   3  14 -10    1.68    0.23
   4  14 -10    0.91    0.20
   4  14 -10    1.11    0.23
   4  14 -10    0.90    0.20
  -4 -14  10    1.29    0.24
   5  14 -10    1.03    0.17
   5  14 -10    0.96    0.18
  -7  14  -9    1.00    0.16
  -6  14  -9    0.77    0.18
   6 -14   9    1.65    0.31
  -5  14  -9    0.64    0.22
  -5  14  -9    0.62    0.20
  -4  14  -9    1.80    0.25
  -4  14  -9    2.13    0.30
  -3  14  -9    2.11    0.26
  -3  14  -9    2.19    0.30
  -3  14  -9    2.34    0.33
  -2  14  -9    1.15    0.26
  -2  14  -9    1.08    0.24
  -2  14  -9    1.04    0.25
  -1  14  -9    0.78    0.23
  -1  14  -9    1.20    0.25
  -1  14  -9    0.95    0.25
   0  14  -9    0.81    0.23
   0  14  -9    0.54    0.24
   0  14  -9    0.74    0.23
   1  14  -9    2.88    0.35
   1  14  -9    3.77    0.33
   1  14  -9    3.01    0.35
   2  14  -9    0.92    0.23
   2  14  -9    0.85    0.23
   2  14  -9    1.22    0.24
   3  14  -9    4.61    0.46
   3  14  -9    4.41    0.39
   3  14  -9    5.42    0.39
   3  14  -9    4.84    0.41
   4  14  -9    0.65    0.23
   4  14  -9    1.00    0.25
   4  14  -9    0.40    0.22
   4  14  -9    0.82    0.25
   5  14  -9    1.27    0.22
   5  14  -9    1.03    0.26
   5  14  -9    0.53    0.23
   5  14  -9    0.85    0.20
  -5 -14   9    0.37    0.26
   6  14  -9    0.46    0.17
   6  14  -9    0.43    0.18
   6  14  -9    0.42    0.19
   7  14  -9    0.17    0.15
   7  14  -9    0.19    0.14
   7  14  -9   -0.10    0.14
  -7  14  -8    0.71    0.18
   7 -14   8    1.02    0.27
  -6  14  -8    0.44    0.20
   6 -14   8    0.30    0.30
  -5  14  -8    2.13    0.30
  -5  14  -8    2.57    0.35
   5 -14   8    1.39    0.36
  -4  14  -8    1.46    0.24
  -4  14  -8    1.41    0.26
  -3  14  -8    3.64    0.36
  -3  14  -8    3.44    0.42
  -3  14  -8    3.04    0.39
  -2  14  -8    1.58    0.27
  -2  14  -8    2.01    0.26
  -2  14  -8    1.64    0.25
  -1  14  -8    0.71    0.24
  -1  14  -8    0.32    0.23
  -1  14  -8    0.65    0.24
   0  14  -8    1.81    0.28
   0  14  -8    2.15    0.27
   0  14  -8    1.80    0.26
   1  14  -8    1.15    0.24
   1  14  -8    1.69    0.24
   1  14  -8    0.99    0.25
   2  14  -8    1.20    0.28
   2  14  -8    1.42    0.25
   2  14  -8    1.66    0.26
   2  14  -8    1.50    0.25
   3  14  -8    1.38    0.28
   3  14  -8    1.60    0.26
   3  14  -8    1.09    0.25
   3  14  -8    1.01    0.26
   4  14  -8    0.64    0.25
   4  14  -8    0.52    0.25
   4  14  -8    0.26    0.25
   4  14  -8    0.77    0.24
   5  14  -8    0.60    0.26
   5  14  -8    0.31    0.23
   5  14  -8    0.67    0.22
   5  14  -8    0.79    0.24
   6  14  -8    0.65    0.21
   6  14  -8    0.44    0.20
   6  14  -8    1.20    0.22
   7  14  -8    0.19    0.17
   7  14  -8    0.33    0.17
   7  14  -8    0.30    0.17
  -8  14  -7    0.64    0.16
   8 -14   7    0.84    0.24
  -7  14  -7    0.29    0.18
   7 -14   7    1.16    0.28
  -6  14  -7    0.76    0.21
   6 -14   7    0.34    0.29
  -5  14  -7    0.03    0.21
   5 -14   7    0.28    0.32
  -4  14  -7    2.71    0.32
  -4  14  -7    2.84    0.32
   4 -14   7    3.08    0.50
  -3  14  -7    3.42    0.44
  -3  14  -7    3.39    0.40
  -3  14  -7    2.53    0.33
  -2  14  -7    8.60    0.56
  -2  14  -7    8.16    0.56
  -2  14  -7    8.39    0.51
  -1  14  -7    1.30    0.23
  -1  14  -7    1.24    0.24
  -1  14  -7    1.23    0.24
   0  14  -7    2.70    0.37
   0  14  -7    2.86    0.33
   0  14  -7    2.44    0.34
   0  14  -7    2.82    0.34
   1  14  -7    1.50    0.23
   1  14  -7    1.46    0.26
   1  14  -7    1.97    0.24
   1  14  -7    1.41    0.27
   2  14  -7    3.51    0.36
   2  14  -7    3.09    0.39
   2  14  -7    3.63    0.43
   2  14  -7    3.60    0.37
   3  14  -7    0.67    0.24
   3  14  -7    0.71    0.24
   3  14  -7    0.66    0.23
   3  14  -7    0.47    0.23
   4  14  -7    3.27    0.38
   4  14  -7    2.73    0.30
   4  14  -7    2.71    0.39
   4  14  -7    3.08    0.39
   5  14  -7    0.41    0.25
   5  14  -7    0.33    0.26
   5  14  -7    0.22    0.23
   5  14  -7    0.64    0.24
  -5 -14   7    0.38    0.28
   6  14  -7    0.99    0.23
   6  14  -7    0.83    0.23
   6  14  -7    1.51    0.25
   7  14  -7    1.04    0.21
   7  14  -7    1.08    0.22
   7  14  -7    0.94    0.20
   8  14  -7    0.80    0.19
   8  14  -7    1.04    0.18
   8  14  -7    1.16    0.18
  -8 -14   7    0.83    0.16
  -9  14  -6   -0.05    0.13
   9 -14   6    0.33    0.20
  -8  14  -6    4.94    0.35
   8 -14   6    5.89    0.44
  -7  14  -6    0.19    0.20
   7 -14   6    1.00    0.29
  -6  14  -6    2.60    0.33
  -5  14  -6    0.77    0.22
   5 -14   6    0.22    0.30
  -4  14  -6    1.95    0.24
  -3  14  -6    6.16    0.54
  -3  14  -6    5.03    0.51
  -3  14  -6    6.72    0.42
  -2  14  -6    3.92    0.35
  -2  14  -6    5.21    0.45
  -2  14  -6    4.48    0.86
  -2  14  -6    4.25    0.41
  -1  14  -6    1.78    0.25
  -1  14  -6    2.02    0.25
  -1  14  -6    1.86    0.27
  -1  14  -6    1.56    0.21
  -1  14  -6    2.09    0.77
  -1  14  -6    1.47    0.66
   0  14  -6    3.40    0.73
   0  14  -6    3.27    0.39
   0  14  -6    3.65    0.33
   0  14  -6    3.26    0.71
   0  14  -6    3.11    0.38
   0  14  -6    4.07    0.42
   0 -14   6    3.35    0.72
   1  14  -6    0.00    0.63
   1  14  -6    0.24    0.21
   1  14  -6    0.28    0.20
   1  14  -6    0.27    0.19
   1  14  -6    0.68    0.21
   1  14  -6    0.54    0.63
  -1 -14   6    0.41    0.58
   2  14  -6   18.13    1.00
   2  14  -6   18.75    0.95
   2  14  -6   18.30    0.98
   2  14  -6   19.25    0.99
   2  14  -6   15.77    1.51
  -2 -14   6   18.33    1.45
   3  14  -6    1.10    0.22
   3  14  -6    1.27    0.24
   3  14  -6    1.27    0.24
   3  14  -6    1.07    0.23
   4  14  -6   14.18    0.82
   4  14  -6   13.41    0.79
   4  14  -6   13.41    0.77
   4  14  -6   13.59    0.76
   5  14  -6    0.32    0.23
   5  14  -6    0.30    0.25
   5  14  -6    0.09    0.26
   5  14  -6    0.34    0.25
  -5 -14   6    0.23    0.26
   6  14  -6    0.81    0.23
   6  14  -6    1.06    0.29
   6  14  -6    1.00    0.24
   6  14  -6    0.92    0.26
  -6 -14   6    0.13    0.28
   7  14  -6    0.88    0.24
   7  14  -6    0.33    0.21
   7  14  -6    0.46    0.22
   7  14  -6    0.44    0.29
   8  14  -6    0.64    0.20
   8  14  -6    0.49    0.18
   8  14  -6    0.62    0.25
   8  14  -6    0.91    0.21
  -8 -14   6    0.50    0.18
   9  14  -6    0.16    0.19
   9  14  -6    0.60    0.17
   9  14  -6    0.10    0.15
   9  14  -6    0.53    0.16
  -9 -14   6    0.38    0.12
  -9  14  -5    1.41    0.18
   9 -14   5    1.52    0.24
  -8  14  -5    9.29    0.52
   8 -14   5    9.20    0.63
  -7  14  -5    0.41    0.20
   7 -14   5    0.77    0.28
  -6  14  -5    3.25    0.34
   6 -14   5    4.06    0.46
  -5  14  -5    0.71    0.20
   5 -14   5    1.07    0.29
  -4  14  -5    1.44    0.20
  -3  14  -5    7.63    0.47
  -2  14  -5    1.25    0.25
  -2  14  -5    0.68    0.22
  -2  14  -5    0.41    0.57
  -2  14  -5    0.98    0.19
  -2  14  -5    0.38    0.63
  -1  14  -5    4.86    0.41
  -1  14  -5    4.64    0.40
  -1  14  -5    3.97    0.67
  -1  14  -5    4.89    0.35
  -1  14  -5    5.36    0.77
  -1  14  -5    4.37    0.42
   0  14  -5    4.38    0.38
   0  14  -5    5.09    0.80
   0  14  -5    4.35    0.40
   0  14  -5    4.71    0.36
   0  14  -5    4.45    0.38
   0  14  -5    4.04    0.63
   1  14  -5    4.34    0.68
   1  14  -5    4.37    0.66
   1  14  -5    4.97    0.38
   1  14  -5    5.64    0.43
   1  14  -5    4.99    0.39
   1  14  -5    4.97    0.39
  -1 -14   5    4.72    0.65
   2  14  -5   16.09    0.84
   2  14  -5   16.84    0.86
   2  14  -5   15.81    0.88
   2  14  -5   15.39    1.29
   2  14  -5   15.38    0.85
  -2 -14   5   15.11    1.21
   3  14  -5    4.43    0.39
   3  14  -5    4.31    0.37
   3  14  -5    4.08    0.40
   3  14  -5    3.76    0.39
   3  14  -5    3.84    0.66
  -3 -14   5    4.64    0.68
   4  14  -5   20.06    1.09
   4  14  -5   20.88    1.07
   4  14  -5   21.05    1.10
   4  14  -5   20.56    1.14
   5  14  -5    0.43    0.24
   5  14  -5    0.54    0.26
   5  14  -5    0.31    0.30
   5  14  -5    0.46    0.24
   5  14  -5    0.35    0.21
   6  14  -5    3.04    0.36
   6  14  -5    3.58    0.43
   6  14  -5    2.92    0.31
   6  14  -5    2.81    0.39
   6  14  -5    3.38    0.37
  -6 -14   5    2.30    0.32
   7  14  -5    0.40    0.26
   7  14  -5    0.64    0.23
   7  14  -5    0.44    0.24
   7  14  -5    0.46    0.24
   8  14  -5    3.28    0.36
   8  14  -5    2.59    0.32
   8  14  -5    2.00    0.30
   8  14  -5    2.92    0.33
  -8 -14   5    2.39    0.29
   9  14  -5    0.68    0.21
   9  14  -5    0.53    0.18
   9  14  -5    0.70    0.19
   9  14  -5    0.32    0.20
  -9 -14   5    1.09    0.17
 -10  14  -4    0.10    0.12
  10 -14   4    0.46    0.18
  -9  14  -4    0.31    0.16
   9 -14   4    0.53    0.23
  -8  14  -4    8.32    0.47
   8 -14   4    7.32    0.58
  -7  14  -4    0.42    0.19
   7 -14   4    0.04    0.27
  -6  14  -4    7.60    0.47
   6 -14   4    6.98    0.59
  -5  14  -4    0.06    0.17
   5 -14   4    0.33    0.25
  -4  14  -4    1.93    0.26
  -4  14  -4    2.47    0.27
  -4  14  -4    2.15    0.70
  -3  14  -4    2.59    0.60
  -3  14  -4    3.15    0.38
  -3  14  -4    3.26    0.31
   3 -14   4    3.82    0.41
  -2  14  -4    2.85    0.29
  -2  14  -4    3.31    0.53
  -2  14  -4    2.13    0.24
  -1  14  -4    0.94    0.46
  -1  14  -4    0.88    0.42
   0  14  -4    0.44    0.44
   0  14  -4    0.67    0.37
   0 -14   4    0.81    0.44
   1  14  -4    0.31    0.38
   1  14  -4    0.66    0.19
   1  14  -4    0.29    0.16
   1  14  -4    0.93    0.46
  -1 -14   4    0.25    0.39
   2  14  -4    9.08    0.55
   2  14  -4    9.39    0.54
   2  14  -4    9.04    0.52
   2  14  -4    8.29    0.55
   2  14  -4    9.03    0.85
  -2 -14   4    7.97    0.81
   3  14  -4    3.12    0.32
   3  14  -4    3.72    0.37
   3  14  -4    2.65    0.36
   3  14  -4    2.56    0.36
   3  14  -4    4.55    0.63
  -3 -14   4    3.22    0.54
   4  14  -4   11.97    0.66
   4  14  -4   11.36    0.70
   4  14  -4   11.97    0.77
   4  14  -4   12.05    0.68
   4  14  -4   11.24    1.08
   4  14  -4   10.90    0.66
  -4 -14   4   10.63    0.68
  -4 -14   4   10.05    1.01
   5  14  -4   -0.01    0.25
   5  14  -4    0.42    0.20
   5  14  -4    0.58    0.24
   5  14  -4    0.48    0.26
   5  14  -4    0.50    0.23
  -5 -14   4    0.90    0.23
   6  14  -4    2.31    0.28
   6  14  -4    3.10    0.44
   6  14  -4    2.96    0.40
   6  14  -4    3.28    0.38
  -6 -14   4    2.05    0.31
   7  14  -4    0.04    0.24
   7  14  -4   -0.09    0.25
   7  14  -4    0.08    0.22
   7  14  -4   -0.05    0.26
   8  14  -4    3.78    0.37
   8  14  -4    4.05    0.40
   8  14  -4    3.18    0.39
   8  14  -4    4.19    0.42
  -8 -14   4    4.72    0.34
   9  14  -4    0.58    0.21
   9  14  -4    0.26    0.23
   9  14  -4    0.54    0.20
   9  14  -4    0.46    0.21
  -9 -14   4    0.49    0.17
  10  14  -4    0.09    0.15
 -10 -14   4    0.31    0.13
 -10  14  -3   -0.02    0.14
  10 -14   3    0.41    0.19
  -9  14  -3    0.15    0.17
   9 -14   3   -0.28    0.21
  -8  14  -3    1.89    0.27
   8 -14   3    1.81    0.30
  -7  14  -3    0.53    0.19
   7 -14   3   -0.09    0.26
  -6  14  -3    3.89    0.39
  -6  14  -3    3.78    0.35
   6 -14   3    3.17    0.45
  -5  14  -3    4.28    0.34
  -5  14  -3    3.86    0.72
  -5  14  -3    4.55    0.40
   5 -14   3    4.57    0.47
  -4  14  -3    7.32    0.48
  -4  14  -3    6.65    0.44
  -4  14  -3    7.61    0.86
   4 -14   3    7.38    0.57
  -3  14  -3    0.15    0.15
  -3  14  -3    0.23    0.18
  -3  14  -3    0.11    0.41
  -2  14  -3    5.16    0.64
  -1  14  -3    1.58    0.40
  -1  14  -3    1.59    0.45
   0  14  -3   -0.26    0.31
   0  14  -3    0.20    0.40
   0 -14   3    0.92    0.35
   1  14  -3    0.91    0.37
  -1 -14   3    0.22    0.33
   2  14  -3    1.58    0.40
  -2 -14   3    2.06    0.40
   3  14  -3    2.60    0.29
   3  14  -3    1.87    0.23
   3  14  -3    1.98    0.25
   3  14  -3    2.64    0.51
  -3 -14   3    2.71    0.48
   4  14  -3    1.92    0.24
   4  14  -3    2.03    0.24
   4  14  -3    2.55    0.28
   4  14  -3    2.02    0.55
   4  14  -3    2.10    0.27
   4  14  -3    2.31    0.30
  -4 -14   3    1.50    0.22
  -4 -14   3    1.92    0.49
   5  14  -3    1.74    0.26
   5  14  -3    1.85    0.26
   5  14  -3    1.70    0.28
   5  14  -3    1.51    0.65
   5  14  -3    1.71    0.22
   5  14  -3    1.59    0.24
  -5 -14   3    1.48    0.57
  -5 -14   3    1.53    0.24
   6  14  -3    3.55    0.44
   6  14  -3    3.23    0.41
   6  14  -3    3.44    0.43
   6  14  -3    4.11    0.40
  -6 -14   3    2.44    0.31
   7  14  -3    0.87    0.26
   7  14  -3    1.13    0.29
   7  14  -3    1.23    0.25
   7  14  -3    0.97    0.25
   8  14  -3    9.86    0.64
   8  14  -3    9.74    0.58
   8  14  -3    8.59    0.61
   8  14  -3    8.57    0.61
  -8 -14   3   10.42    0.56
   9  14  -3    0.31    0.25
   9  14  -3    0.19    0.22
   9  14  -3    0.02    0.23
   9  14  -3    0.44    0.20
  -9 -14   3    0.41    0.17
  10  14  -3    0.49    0.17
 -10 -14   3    0.27    0.13
 -10  14  -2    0.15    0.15
  10 -14   2   -0.17    0.19
  -9  14  -2    1.02    0.20
   9 -14   2    0.41    0.23
  -8  14  -2    0.57    0.20
   8 -14   2    0.48    0.24
  -7  14  -2    1.17    0.23
  -7  14  -2    0.91    0.20
   7 -14   2    0.76    0.27
  -6  14  -2    0.99    0.19
  -6  14  -2    0.99    0.21
  -5  14  -2    0.45    0.49
  -5  14  -2    0.13    0.17
  -5  14  -2    0.33    0.18
   5 -14   2    0.21    0.21
  -4  14  -2   16.50    0.90
  -4  14  -2   16.83    1.25
  -4  14  -2   16.98    0.87
   4 -14   2   17.25    1.02
  -3  14  -2    1.02    0.37
  -2  14  -2   34.66    2.18
  -1  14  -2    1.14    0.34
   0  14  -2    2.64    0.43
   1  14  -2    0.20    0.31
  -1 -14   2    0.85    0.30
   2  14  -2    3.31    0.56
  -2 -14   2    4.09    0.52
   3  14  -2    7.35    0.78
  -3 -14   2    8.46    0.72
   4  14  -2    1.31    0.19
   4  14  -2    1.04    0.49
  -4 -14   2    0.92    0.18
  -4 -14   2    0.72    0.41
   5  14  -2    2.37    0.25
   5  14  -2    2.93    0.66
   5  14  -2    2.76    0.36
   5  14  -2    2.62    0.28
  -5 -14   2    2.94    0.58
  -5 -14   2    2.39    0.33
   6  14  -2    4.08    0.41
   6  14  -2    3.80    0.43
   6  14  -2    3.76    0.41
   7  14  -2    0.87    0.25
   7  14  -2    0.66    0.26
   7  14  -2    0.62    0.23
  -7 -14   2    0.26    0.20
   8  14  -2   10.84    0.71
   8  14  -2   11.81    0.66
   8  14  -2    9.67    0.70
  -8 -14   2   11.87    0.63
   9  14  -2    0.08    0.22
  -9 -14   2    0.47    0.17
  10  14  -2    0.72    0.19
 -10 -14   2    0.65    0.14
 -10  14  -1    0.53    0.16
  10 -14   1   -0.05    0.20
  -9  14  -1   -0.02    0.21
  -9  14  -1    0.19    0.19
   9 -14   1    0.07    0.23
  -8  14  -1    0.75    0.20
  -8  14  -1    0.70    0.21
   8 -14   1    0.82    0.23
   8 -14   1    0.80    0.23
  -7  14  -1    0.56    0.19
  -7  14  -1    0.20    0.20
   7 -14   1    0.57    0.22
   7 -14   1    0.53    0.23
  -6  14  -1    3.29    0.32
  -6  14  -1    3.41    0.32
  -6  14  -1    2.73    0.69
   6 -14   1    2.24    0.28
   6 -14   1    3.00    0.35
  -5  14  -1    2.28    0.53
  -5  14  -1    3.19    0.30
  -5  14  -1    2.86    0.30
   5 -14   1    2.70    0.33
   5 -14   1    2.37    0.27
  -4  14  -1    7.85    0.44
   4 -14   1    6.39    0.47
  -3  14  -1    1.16    0.35
  -2  14  -1   12.59    0.93
  -1  14  -1    1.30    0.31
   0  14  -1    9.37    0.73
   1  14  -1    5.51    0.57
  -1 -14   1    4.64    0.54
   2  14  -1   31.08    1.93
  -2 -14   1   29.08    1.87
   3  14  -1    4.25    0.64
  -3 -14   1    5.59    0.58
   4  14  -1    1.50    0.23
   4  14  -1    1.51    0.50
   4  14  -1    0.79    0.21
   4  14  -1    1.51    0.22
   4  14  -1    1.26    0.23
  -4 -14   1    1.91    0.44
  -4 -14   1    1.49    0.19
   5  14  -1    1.31    0.24
   5  14  -1    1.78    0.23
   5  14  -1    1.36    0.23
   5  14  -1    1.96    0.64
  -5 -14   1    1.72    0.22
  -5 -14   1    2.13    0.50
   6  14  -1    0.94    0.23
   6  14  -1    0.75    0.22
   6  14  -1    0.93    0.25
  -6 -14   1    0.43    0.20
  -6 -14   1    0.33    0.21
   7  14  -1    0.84    0.25
   7  14  -1    0.91    0.23
  -7 -14   1    0.29    0.26
  -7 -14   1    0.51    0.20
   8  14  -1    2.52    0.39
   8  14  -1    2.43    0.29
  -8 -14   1    3.15    0.31
   9  14  -1    0.12    0.24
  -9 -14   1    0.47    0.17
  10  14  -1    1.86    0.25
 -10 -14   1    2.41    0.22
 -10  14   0    2.01    0.25
 -10  14   0    2.12    0.27
  10 -14   0    2.21    0.30
  -9  14   0    5.17    0.37
  -9  14   0    5.26    0.37
   9 -14   0    4.62    0.44
   9 -14   0    4.64    0.39
  -8  14   0    4.30    0.37
  -8  14   0    3.72    0.36
   8 -14   0    4.30    0.45
   8 -14   0    4.72    0.39
  -7  14   0    0.48    0.19
  -7  14   0    0.27    0.20
   7 -14   0    0.39    0.21
   7 -14   0    0.40    0.22
  -6  14   0    0.41    0.18
  -6  14   0    0.71    0.61
  -6  14   0    0.44    0.20
   6 -14   0    0.51    0.21
   6 -14   0    0.42    0.19
  -5  14   0    1.39    0.19
  -5  14   0    1.30    0.46
  -5  14   0    1.51    0.22
   5 -14   0    1.66    0.20
   5 -14   0    1.36    0.21
  -4  14   0    5.64    0.39
  -4  14   0    6.99    0.71
   4 -14   0    6.49    0.47
   4 -14   0    6.21    0.41
  -3  14   0    0.32    0.34
  -2  14   0   36.30    2.26
  -1  14   0   63.24    3.82
   0  14   0   34.94    2.18
   1  14   0   63.03    3.81
   2  14   0   37.42    2.35
  -2 -14   0   37.65    2.30
   3  14   0    0.57    0.40
  -3 -14   0    0.22    0.31
   4  14   0    6.39    0.87
   4  14   0    6.72    0.47
  -4 -14   0    6.37    0.43
  -4 -14   0    7.04    0.74
   5  14   0    1.56    0.23
   5  14   0    1.39    0.24
  -5 -14   0    1.27    0.48
  -5 -14   0    1.66    0.22
  -5 -14   0    1.50    0.20
   6  14   0    0.47    0.22
   6  14   0    0.37    0.22
  -6 -14   0    1.38    0.54
  -6 -14   0    0.64    0.19
  -6 -14   0    0.53    0.21
   7  14   0    0.24    0.24
   7  14   0    0.28    0.23
  -7 -14   0    0.34    0.24
  -7 -14   0    0.38    0.18
  -8 -14   0    4.52    0.36
   9  14   0    4.88    0.45
  -9 -14   0    5.54    0.36
  10  14   0    1.97    0.28
 -10 -14   0    2.36    0.22
 -10  14   1    2.02    0.26
 -10  14   1    1.78    0.24
  -9  14   1    0.02    0.20
  -9  14   1   -0.10    0.19
   9 -14  -1    0.33    0.23
   9 -14  -1    0.38    0.20
  -8  14   1    2.81    0.33
  -8  14   1    2.54    0.34
   8 -14  -1    3.73    0.41
   8 -14  -1    3.74    0.36
  -7  14   1    1.08    0.22
  -7  14   1    0.73    0.22
   7 -14  -1    0.27    0.21
   6 -14  -1   -0.04    0.20
   6 -14  -1    0.19    0.19
  -5  14   1    1.59    0.50
  -5  14   1    2.09    0.22
   5 -14  -1    1.89    0.23
   5 -14  -1    1.86    0.31
   5 -14  -1    2.19    0.23
  -4  14   1    1.49    0.40
  -4  14   1    1.24    0.17
   4 -14  -1    1.44    0.18
   4 -14  -1    1.47    0.21
  -3  14   1    4.40    0.57
  -2  14   1   29.62    1.88
  -1  14   1    4.85    0.54
   0  14   1    9.67    0.77
   1  14   1    1.58    0.34
   2  14   1   12.70    0.96
   3  14   1    1.11    0.44
  -3 -14  -1    2.03    0.39
  -4 -14  -1    6.70    0.44
  -4 -14  -1    6.61    0.74
   5  14   1    2.61    0.37
   5  14   1    3.38    0.37
  -5 -14  -1    2.44    0.31
  -5 -14  -1    2.89    0.54
  -5 -14  -1    2.60    0.32
   6  14   1    2.92    0.40
   6  14   1    3.50    0.41
  -6 -14  -1    2.04    0.62
  -6 -14  -1    2.82    0.33
  -6 -14  -1    2.62    0.36
   7  14   1    0.58    0.25
  -7 -14  -1    0.43    0.19
  -7 -14  -1    0.12    0.24
   8  14   1    0.50    0.27
  -8 -14  -1    0.69    0.19
   9  14   1   -0.06    0.25
  -9 -14  -1   -0.01    0.16
  10  14   1    0.52    0.23
 -10 -14  -1    0.34    0.14
 -10  14   2    0.75    0.17
  10 -14  -2    0.62    0.22
  -9  14   2    0.23    0.19
   9 -14  -2    0.37    0.19
   9 -14  -2    0.41    0.24
  -8  14   2   11.86    0.66
   8 -14  -2   11.76    0.75
   8 -14  -2   10.66    0.76
   8 -14  -2   11.68    0.67
  -7  14   2    0.72    0.22
   7 -14  -2    0.22    0.22
   7 -14  -2    0.57    0.24
   7 -14  -2    0.25    0.28
   6 -14  -2    1.98    0.30
   6 -14  -2    2.21    0.26
   6 -14  -2    1.71    0.25
  -5  14   2    2.04    0.53
   5 -14  -2    2.45    0.34
   5 -14  -2    2.61    0.37
   5 -14  -2    2.46    0.39
   4 -14  -2    0.71    0.18
   4 -14  -2    0.73    0.22
   4 -14  -2    0.85    0.18
  -3  14   2    6.99    0.70
  -2  14   2    3.37    0.53
  -1  14   2    0.43    0.32
   0  14   2    3.07    0.50
   1  14   2    0.85    0.35
   2  14   2   33.21    2.12
   4  14   2   17.77    1.05
  -4 -14  -2   19.17    0.99
  -4 -14  -2   18.79    1.33
   5  14   2    0.36    0.23
  -5 -14  -2    0.03    0.17
  -5 -14  -2    0.10    0.20
  -5 -14  -2    0.87    0.50
   6  14   2    1.08    0.28
  -6 -14  -2    2.05    0.23
  -6 -14  -2    1.74    0.24
   7  14   2    0.84    0.27
  -7 -14  -2    0.87    0.24
  -7 -14  -2    0.84    0.20
   8  14   2    0.44    0.28
  -8 -14  -2    0.42    0.19
   9  14   2    0.45    0.28
  -9 -14  -2    0.83    0.17
  10  14   2    0.05    0.25
 -10 -14  -2   -0.02    0.13
 -10  14   3    0.10    0.15
  10 -14  -3   -0.21    0.14
  10 -14  -3   -0.15    0.22
  -9  14   3    0.33    0.19
   9 -14  -3    0.41    0.25
   9 -14  -3    0.59    0.26
   9 -14  -3    0.42    0.18
  -8  14   3    9.85    0.62
   8 -14  -3   10.82    0.72
   8 -14  -3   10.44    0.69
   8 -14  -3   10.72    0.63
   7 -14  -3    0.74    0.26
   7 -14  -3    0.93    0.27
   7 -14  -3    0.94    0.23
   6 -14  -3    1.95    0.29
   6 -14  -3    2.39    0.28
   6 -14  -3    2.44    0.35
  -5  14   3    1.64    0.59
   5 -14  -3    1.80    0.24
   5 -14  -3    1.19    0.25
   5 -14  -3    1.79    0.23
  -4  14   3    1.63    0.50
   4 -14  -3    1.37    0.23
   4 -14  -3    1.79    0.23
   4 -14  -3    1.54    0.21
  -3  14   3    2.62    0.49
  -3  14   3    2.17    0.30
   3 -14  -3    2.56    0.35
   3 -14  -3    2.98    0.32
   3 -14  -3    2.58    0.26
  -2  14   3    2.02    0.44
  -1  14   3    0.50    0.36
   0  14   3    0.53    0.38
   3  14   3    0.11    0.19
  -3 -14  -3    1.15    0.17
   4  14   3    7.43    0.55
  -4 -14  -3    8.18    0.50
   5  14   3    4.55    0.49
  -5 -14  -3    4.81    0.39
  -5 -14  -3    4.90    0.42
   6  14   3    4.37    0.48
  -6 -14  -3    3.59    0.38
  -6 -14  -3    3.55    0.37
   7  14   3    0.47    0.27
  -7 -14  -3   -0.17    0.18
  -7 -14  -3    0.10    0.23
   8  14   3    2.39    0.33
  -8 -14  -3    1.72    0.30
   9  14   3    0.26    0.30
  -9 -14  -3    0.01    0.16
 -10 -14  -3    0.19    0.13
 -10  14   4   -0.04    0.13
  10 -14  -4   -0.01    0.14
  -9  14   4    0.65    0.19
   9 -14  -4    0.37    0.17
   9 -14  -4    0.37    0.24
  -8  14   4    4.08    0.39
   8 -14  -4    5.05    0.40
   8 -14  -4    5.67    0.46
   8 -14  -4    5.87    0.49
   7 -14  -4    0.23    0.25
   7 -14  -4   -0.02    0.22
   7 -14  -4   -0.12    0.25
   6 -14  -4    2.20    0.30
   6 -14  -4    1.78    0.25
   6 -14  -4    2.39    0.29
   5 -14  -4    0.42    0.21
   5 -14  -4    0.49    0.23
   5 -14  -4    0.61    0.22
  -4  14   4   12.39    1.11
   4 -14  -4   12.00    0.79
   4 -14  -4   11.73    0.70
   4 -14  -4   11.88    0.74
  -3  14   4    2.95    0.58
  -3  14   4    3.65    0.37
   3 -14  -4    2.88    0.36
   3 -14  -4    3.00    0.39
   3 -14  -4    3.33    0.41
  -2  14   4    9.03    0.89
   2 -14  -4    7.36    0.60
   2 -14  -4    8.65    0.54
  -1  14   4    0.40    0.44
   1 -14  -4    0.02    0.18
  -2 -14  -4    1.87    0.21
  -2 -14  -4    2.54    0.34
   3  14   4    3.78    0.42
  -3 -14  -4    2.92    0.32
   4  14   4    3.50    0.45
  -4 -14  -4    3.37    0.33
   5  14   4    0.38    0.28
  -5 -14  -4    0.20    0.19
   6  14   4    8.43    0.60
  -6 -14  -4    6.55    0.49
  -6 -14  -4    6.51    0.48
   7  14   4    0.73    0.31
  -7 -14  -4   -0.16    0.23
  -7 -14  -4    0.10    0.20
  -8 -14  -4    7.54    0.47
  -8 -14  -4    7.37    0.54
  -9 -14  -4    0.41    0.16
 -10 -14  -4    0.17    0.12
  -9  14   5    0.97    0.18
   9 -14  -5    1.02    0.20
   9 -14  -5    0.85    0.17
   9 -14  -5    1.01    0.25
  -8  14   5    2.40    0.30
   8 -14  -5    3.13    0.35
   8 -14  -5    2.54    0.31
   8 -14  -5    2.93    0.30
   7 -14  -5    0.35    0.24
   7 -14  -5    0.17    0.25
   7 -14  -5    0.46    0.22
   6 -14  -5    2.33    0.30
   6 -14  -5    2.29    0.27
   6 -14  -5    2.39    0.32
   5 -14  -5    1.30    0.25
   5 -14  -5    1.04    0.26
   5 -14  -5    1.22    0.23
  -4  14   5   20.81    1.70
   4 -14  -5   20.83    1.24
   4 -14  -5   20.90    1.13
   4 -14  -5   21.19    1.19
  -3  14   5    4.00    0.42
  -3  14   5    3.76    0.72
   3 -14  -5    4.20    0.42
   3 -14  -5    3.32    0.39
   3 -14  -5    3.60    0.43
   2 -14  -5   16.15    0.91
   2 -14  -5   15.21    0.96
   1 -14  -5    4.55    0.44
   1 -14  -5    4.71    0.40
   0 -14  -5    7.33    0.52
   0 -14  -5    6.65    0.57
   1  14   5    5.27    0.49
  -1 -14  -5    7.32    0.48
  -1 -14  -5    6.36    0.48
  -1 -14  -5    6.73    0.57
   2  14   5    1.33    0.27
  -2 -14  -5    0.71    0.27
  -2 -14  -5    0.92    0.20
  -2 -14  -5    0.71    0.22
   3  14   5    7.84    0.58
  -3 -14  -5    7.56    0.50
   4  14   5    2.34    0.34
  -4 -14  -5    2.43    0.33
   5  14   5    0.95    0.33
  -5 -14  -5    0.69    0.21
   6  14   5    4.09    0.52
  -6 -14  -5    4.12    0.41
  -7 -14  -5    0.77    0.22
  -7 -14  -5    0.83    0.25
  -8 -14  -5    8.35    0.49
  -8 -14  -5    7.93    0.54
  -9 -14  -5    1.56    0.21
  -9  14   6    0.76    0.16
   9 -14  -6    0.51    0.15
   9 -14  -6    0.22    0.15
  -8  14   6    0.98    0.20
   8 -14  -6    0.35    0.18
   8 -14  -6    0.34    0.24
   8 -14  -6    0.81    0.20
  -7  14   6    0.79    0.24
   7 -14  -6    0.31    0.21
   7 -14  -6    0.35    0.22
   7 -14  -6    0.02    0.24
   6 -14  -6    0.39    0.23
   6 -14  -6    0.18    0.25
   6 -14  -6    0.33    0.22
   5 -14  -6    0.66    0.24
   5 -14  -6    0.28    0.23
   5 -14  -6    0.28    0.22
  -4  14   6   13.47    0.85
   4 -14  -6   15.37    0.94
   4 -14  -6   14.63    0.86
   4 -14  -6   15.85    0.89
   3 -14  -6    2.07    0.26
   3 -14  -6    2.42    0.36
   2 -14  -6   19.51    1.15
   2 -14  -6   18.76    1.09
   1 -14  -6    0.51    0.21
   1 -14  -6    0.67    0.21
   0 -14  -6    2.72    0.43
   0 -14  -6    2.26    0.27
   1  14   6    1.67    0.31
  -1 -14  -6    1.21    0.24
  -1 -14  -6    0.84    0.23
  -1 -14  -6    1.11    0.25
   2  14   6    4.36    0.49
  -2 -14  -6    3.46    0.45
  -2 -14  -6    3.43    0.40
  -2 -14  -6    4.01    0.53
  -3 -14  -6    3.99    0.41
  -3 -14  -6    4.81    0.55
   4  14   6    1.98    0.36
  -4 -14  -6    1.54    0.24
  -5 -14  -6    0.20    0.21
  -6 -14  -6    3.98    0.41
  -7 -14  -6    1.66    0.25
  -7 -14  -6    1.18    0.24
  -8 -14  -6    4.92    0.35
  -8 -14  -6    4.89    0.40
  -9 -14  -6    0.53    0.17
   8 -14  -7    0.76    0.25
   8 -14  -7    0.87    0.18
   8 -14  -7    0.72    0.17
  -7  14   7    1.16    0.23
   7 -14  -7    0.53    0.20
   7 -14  -7    1.04    0.25
   7 -14  -7    0.67    0.20
  -6  14   7    1.25    0.26
   6 -14  -7    0.56    0.21
   6 -14  -7    0.88    0.23
   6 -14  -7    0.37    0.25
   5 -14  -7    0.54    0.22
   5 -14  -7    0.68    0.25
   4 -14  -7    2.11    0.26
   4 -14  -7    1.76    0.28
   3 -14  -7    0.43    0.23
   3 -14  -7    0.56    0.21
   2 -14  -7    2.35    0.29
   2 -14  -7    2.83    0.39
   1 -14  -7    2.29    0.27
   1 -14  -7    1.83    0.27
   0  14   7    3.16    0.38
   0 -14  -7    3.71    0.42
   0 -14  -7    3.69    0.46
   1  14   7    1.38    0.32
  -1 -14  -7    0.78    0.24
  -1 -14  -7    0.45    0.25
  -1 -14  -7    0.74    0.24
   2  14   7    7.84    0.64
  -2 -14  -7    7.90    0.54
  -2 -14  -7    7.94    0.64
  -3 -14  -7    2.58    0.32
  -3 -14  -7    1.81    0.26
  -4 -14  -7    2.38    0.36
  -4 -14  -7    2.46    0.35
  -5 -14  -7    0.22    0.22
  -6 -14  -7    0.20    0.21
  -7 -14  -7    0.74    0.22
  -8 -14  -7    0.43    0.22
   7 -14  -8    0.13    0.16
   7 -14  -8    0.12    0.23
   6 -14  -8    0.15    0.24
   6 -14  -8    0.10    0.18
   5 -14  -8    1.18    0.22
   5 -14  -8    1.16    0.26
   4 -14  -8    0.72    0.24
   4 -14  -8    0.63    0.22
   3 -14  -8    3.08    0.39
   3 -14  -8    3.03    0.42
   2 -14  -8    0.86    0.24
   2 -14  -8    0.62    0.24
   1 -14  -8    1.01    0.25
   1 -14  -8    1.12    0.25
   0  14   8    1.68    0.36
   0 -14  -8    1.37    0.26
   0 -14  -8    1.12    0.27
  -1 -14  -8    0.12    0.23
  -1 -14  -8    0.37    0.25
  -2 -14  -8    2.47    0.36
  -2 -14  -8    2.90    0.43
  -3 -14  -8    1.73    0.26
  -3 -14  -8    1.83    0.29
  -4 -14  -8    0.88    0.28
  -4 -14  -8    0.64    0.22
  -5 -14  -8    0.85    0.22
  -6 -14  -8   -0.08    0.19
  -7 -14  -8    0.72    0.20
   7 -14  -9    0.45    0.14
   6 -14  -9    0.87    0.23
   6 -14  -9    0.41    0.17
   5 -14  -9    0.53    0.20
   5 -14  -9    0.82    0.24
   4 -14  -9    0.54    0.23
   4 -14  -9    0.48    0.21
   3 -14  -9    4.89    0.44
   3 -14  -9    4.40    0.42
   2 -14  -9    1.08    0.25
   2 -14  -9    0.51    0.24
  -1  14   9    3.40    0.47
   1 -14  -9    2.91    0.39
   1 -14  -9    2.65    0.40
   0 -14  -9    1.10    0.26
  -1 -14  -9    0.27    0.27
  -1 -14  -9    0.45    0.24
  -2 -14  -9    2.20    0.28
  -2 -14  -9    1.76    0.28
  -3 -14  -9    2.14    0.28
  -3 -14  -9    1.53    0.25
  -4 -14  -9    2.97    0.32
  -4 -14  -9    2.64    0.39
  -5 -14  -9    0.21    0.19
  -5 -14  -9   -0.09    0.27
  -6 -14  -9    0.86    0.19
  -7 -14  -9    1.61    0.22
   5 -14 -10    0.97    0.20
   5 -14 -10    0.37    0.21
   4 -14 -10    1.09    0.22
   4 -14 -10    0.72    0.23
   3 -14 -10    2.31    0.34
   2 -14 -10    0.42    0.22
   1 -14 -10    0.68    0.23
   0 -14 -10    0.47    0.21
  -1 -14 -10    0.75    0.22
  -1 -14 -10    1.10    0.28
  -2 -14 -10    3.16    0.35
  -2 -14 -10    2.39    0.33
  -3 -14 -10    1.60    0.24
  -3 -14 -10    2.11    0.32
  -4 -14 -10    2.46    0.29
  -4 -14 -10    2.46    0.33
  -5 -14 -10    0.29    0.22
  -5 -14 -10    0.30    0.17
   4 -14 -11    0.76    0.18
   3 -14 -11    1.64    0.26
   2 -14 -11    1.16    0.20
   1 -14 -11    1.46    0.21
   0 -14 -11    1.86    0.27
  -1 -14 -11    1.18    0.21
  -2 -14 -11    0.69    0.23
  -2 -14 -11    0.59    0.19
  -3 -14 -11    1.27    0.21
  -3 -14 -11    1.30    0.21
  -4 -14 -11    0.89    0.16
  -4 -14 -11    0.85    0.19
  -3  15 -11    1.01    0.21
  -3  15 -11    1.21    0.18
  -3  15 -11    1.04    0.14
  -2  15 -11    0.69    0.19
  -2  15 -11    0.81    0.16
  -2  15 -11    0.64    0.18
  -1  15 -11    0.77    0.19
  -1  15 -11    0.50    0.17
  -1  15 -11    0.57    0.16
   0  15 -11    0.33    0.18
   0  15 -11    0.29    0.17
   0  15 -11    0.44    0.16
   1  15 -11    0.91    0.17
   1  15 -11    1.01    0.18
   1  15 -11    1.04    0.19
   2  15 -11    1.60    0.21
   2  15 -11    1.44    0.20
   2  15 -11    1.48    0.22
   3  15 -11    0.92    0.16
   3  15 -11    0.88    0.18
   3  15 -11    0.73    0.16
  -3 -15  11    1.45    0.21
  -5  15 -10   -0.11    0.16
  -5  15 -10   -0.28    0.20
  -4  15 -10    0.60    0.19
  -4  15 -10    0.65    0.19
  -3  15 -10    1.79    0.25
  -3  15 -10    2.45    0.29
  -3  15 -10    1.79    0.25
  -2  15 -10    2.61    0.27
  -2  15 -10    2.61    0.29
  -2  15 -10    1.99    0.27
  -1  15 -10    0.41    0.19
  -1  15 -10    0.66    0.21
  -1  15 -10    0.67    0.21
   0  15 -10    1.12    0.20
   0  15 -10    1.32    0.22
   0  15 -10    1.05    0.22
   1  15 -10    0.72    0.21
   1  15 -10    0.71    0.19
   1  15 -10    0.64    0.21
   2  15 -10    1.52    0.22
   2  15 -10    1.35    0.22
   2  15 -10    1.40    0.21
   3  15 -10    1.67    0.24
   3  15 -10    1.77    0.23
   3  15 -10    1.42    0.21
   4  15 -10    1.21    0.19
   4  15 -10    1.17    0.19
   4  15 -10    1.14    0.22
  -4 -15  10    1.87    0.25
   5  15 -10    0.36    0.15
   5  15 -10    0.33    0.15
  -6  15  -9    1.44    0.20
  -5  15  -9    0.87    0.23
  -5  15  -9    1.13    0.19
  -4  15  -9    0.29    0.22
  -4  15  -9    0.52    0.20
  -3  15  -9    2.31    0.34
  -3  15  -9    1.88    0.25
  -3  15  -9    1.77    0.25
  -2  15  -9    0.45    0.23
  -2  15  -9    0.34    0.22
  -2  15  -9    0.38    0.22
  -1  15  -9   -0.11    0.21
  -1  15  -9    0.00    0.22
  -1  15  -9    0.52    0.23
   0  15  -9    0.85    0.22
   0  15  -9    0.94    0.23
   0  15  -9    0.69    0.23
   1  15  -9    1.31    0.23
   1  15  -9    1.04    0.24
   1  15  -9    1.54    0.25
   2  15  -9    5.29    0.39
   2  15  -9    4.63    0.39
   2  15  -9    4.73    0.39
   3  15  -9    2.22    0.31
   3  15  -9    2.12    0.31
   3  15  -9    2.69    0.33
   3  15  -9    2.64    0.31
   4  15  -9    1.72    0.27
   4  15  -9    1.99    0.25
   4  15  -9    1.75    0.23
   4  15  -9    1.89    0.26
   5  15  -9    0.07    0.17
   5  15  -9    0.37    0.23
   5  15  -9    0.06    0.19
   5  15  -9   -0.18    0.21
  -5 -15   9    0.16    0.22
   6  15  -9    1.17    0.18
   6  15  -9    1.26    0.19
   6  15  -9    0.83    0.17
  -7  15  -8    0.10    0.15
   7 -15   8    0.66    0.26
  -6  15  -8    0.56    0.18
   6 -15   8    0.81    0.31
  -5  15  -8    1.02    0.21
  -4  15  -8    0.55    0.24
  -4  15  -8    0.31    0.21
  -3  15  -8    2.04    0.31
  -3  15  -8    2.17    0.30
  -3  15  -8    2.09    0.28
  -2  15  -8    0.55    0.22
  -2  15  -8    0.53    0.24
  -2  15  -8    0.45    0.26
  -1  15  -8    0.76    0.24
  -1  15  -8    0.76    0.23
  -1  15  -8    1.13    0.25
   0  15  -8    0.54    0.22
   0  15  -8    0.14    0.22
   0  15  -8    0.43    0.24
   1  15  -8    1.11    0.25
   1  15  -8    0.89    0.23
   1  15  -8    0.93    0.23
   1  15  -8    1.16    0.30
   2  15  -8    2.84    0.37
   2  15  -8    2.86    0.35
   2  15  -8    2.96    0.32
   2  15  -8    2.40    0.35
   3  15  -8    0.59    0.23
   3  15  -8    0.81    0.25
   3  15  -8    0.71    0.26
   3  15  -8    0.81    0.24
   4  15  -8    2.40    0.35
   4  15  -8    2.32    0.33
   4  15  -8    2.40    0.29
   4  15  -8    2.44    0.30
   5  15  -8    2.30    0.30
   5  15  -8    2.70    0.33
   5  15  -8    2.28    0.34
   5  15  -8    2.52    0.30
  -5 -15   8    2.86    0.35
   6  15  -8    0.79    0.20
   6  15  -8    0.85    0.20
   6  15  -8    0.51    0.20
   7  15  -8    0.19    0.16
   7  15  -8    0.01    0.16
   7  15  -8    0.17    0.16
  -8  15  -7    0.80    0.15
   8 -15   7    1.06    0.23
  -7  15  -7    1.31    0.19
   7 -15   7    1.13    0.29
  -6  15  -7    0.14    0.19
   6 -15   7    0.27    0.30
  -5  15  -7   -0.09    0.20
   5 -15   7    0.21    0.33
  -4  15  -7    2.45    0.31
  -4  15  -7    2.41    0.33
  -3  15  -7    5.35    0.39
  -3  15  -7    5.03    0.50
  -3  15  -7    4.79    0.47
  -2  15  -7    5.24    0.46
  -2  15  -7    5.58    0.46
  -2  15  -7    5.68    0.42
  -1  15  -7    2.59    0.29
  -1  15  -7    2.39    0.32
  -1  15  -7    2.23    0.28
   0  15  -7    0.39    0.23
   0  15  -7    0.18    0.22
   0  15  -7    0.19    0.21
   0  15  -7    0.12    0.27
   1  15  -7    0.40    0.23
   1  15  -7    0.70    0.21
   1  15  -7    0.50    0.25
   1  15  -7    0.57    0.23
   2  15  -7    0.73    0.22
   2  15  -7    0.77    0.24
   2  15  -7    0.37    0.22
   2  15  -7    0.71    0.24
   3  15  -7    3.18    0.41
   3  15  -7    3.98    0.42
   3  15  -7    3.74    0.39
   3  15  -7    3.63    0.40
   4  15  -7    0.65    0.25
   4  15  -7    0.54    0.24
   4  15  -7    0.66    0.24
   4  15  -7    0.56    0.26
   5  15  -7    1.58    0.26
   5  15  -7    1.46    0.27
   5  15  -7    1.25    0.25
   5  15  -7    1.63    0.28
  -5 -15   7    0.98    0.28
   6  15  -7    3.14    0.34
   6  15  -7    3.64    0.36
   6  15  -7    2.46    0.32
   7  15  -7    0.36    0.18
   7  15  -7    0.66    0.19
   7  15  -7    0.84    0.20
   8  15  -7    1.71    0.22
   8  15  -7    1.78    0.23
   8  15  -7    2.08    0.22
  -8 -15   7    2.39    0.20
  -8  15  -6    0.97    0.18
   8 -15   6    1.45    0.27
  -7  15  -6    2.29    0.27
   7 -15   6    2.45    0.38
  -6  15  -6    2.14    0.31
   6 -15   6    3.17    0.44
  -5  15  -6    0.25    0.21
   5 -15   6    0.61    0.31
  -4  15  -6    5.90    0.42
   4 -15   6    5.83    0.60
  -3  15  -6    4.59    0.37
  -2  15  -6    5.01    0.39
  -2  15  -6    4.46    0.45
  -2  15  -6    4.49    0.47
  -1  15  -6    0.79    0.25
  -1  15  -6    0.90    0.19
  -1  15  -6    0.84    0.24
  -1  15  -6    0.09    0.79
  -1  15  -6    0.71    0.23
  -1  15  -6   -0.06    0.75
   1 -15   6    1.74    0.80
   0  15  -6   -0.37    0.71
   0  15  -6    0.76    0.73
   0  15  -6    0.32    0.21
   0  15  -6    0.13    0.22
   0  15  -6    0.27    0.20
   0  15  -6    0.33    0.22
   0 -15   6    1.13    0.74
   1  15  -6    2.94    0.35
   1  15  -6    2.88    0.34
   1  15  -6    2.60    0.35
   1  15  -6    2.45    0.36
   1  15  -6    1.54    0.77
   1  15  -6    2.40    0.78
  -1 -15   6    4.33    0.74
   2  15  -6    1.59    0.24
   2  15  -6    1.92    0.26
   2  15  -6    1.77    0.25
   2  15  -6    1.97    0.25
   3  15  -6    6.66    0.48
   3  15  -6    6.26    0.49
   3  15  -6    6.25    0.49
   3  15  -6    6.42    0.48
   4  15  -6    1.05    0.26
   4  15  -6    0.94    0.23
   4  15  -6    1.48    0.26
   4  15  -6    1.32    0.25
   5  15  -6    0.53    0.25
   5  15  -6    0.30    0.26
   5  15  -6    0.21    0.25
   5  15  -6    0.30    0.23
  -5 -15   6    1.01    0.26
   6  15  -6    1.96    0.28
   6  15  -6    1.73    0.31
   6  15  -6    2.02    0.26
   6  15  -6    1.98    0.27
   7  15  -6    0.52    0.22
   7  15  -6    0.52    0.23
   7  15  -6    0.49    0.29
   7  15  -6    0.20    0.20
   8  15  -6    3.71    0.37
   8  15  -6    3.45    0.30
   8  15  -6    3.75    0.31
   8  15  -6    3.67    0.29
  -8 -15   6    3.05    0.28
  -9  15  -5    1.08    0.16
   9 -15   5    0.58    0.21
  -8  15  -5    0.66    0.19
   8 -15   5    1.03    0.26
  -7  15  -5    0.43    0.20
   7 -15   5    0.35    0.28
  -6  15  -5    0.52    0.20
   6 -15   5    0.35    0.28
  -5  15  -5    0.38    0.20
   5 -15   5   -0.17    0.28
  -4  15  -5    6.49    0.43
   4 -15   5    6.08    0.60
  -3  15  -5    8.75    0.59
  -3  15  -5    8.77    0.52
  -2  15  -5   11.61    1.18
  -2  15  -5   11.80    0.74
  -2  15  -5   11.01    0.70
  -2  15  -5   12.58    0.65
  -1  15  -5   10.96    0.70
  -1  15  -5   11.13    0.68
  -1  15  -5   11.59    0.67
  -1  15  -5   11.09    1.22
  -1  15  -5   11.33    1.10
  -1  15  -5   11.55    0.63
   1 -15   5   12.42    1.19
   0  15  -5    4.68    0.39
   0  15  -5    4.33    0.44
   0  15  -5    3.95    0.38
   0  15  -5    4.73    0.74
   0  15  -5    5.26    0.81
   0  15  -5    4.27    0.36
   1  15  -5   10.13    0.60
   1  15  -5    9.91    1.12
   1  15  -5    9.49    0.58
   1  15  -5    9.74    0.57
   1  15  -5    9.55    0.99
   1  15  -5    9.25    0.61
  -1 -15   5    9.78    0.98
   2  15  -5    9.71    0.61
   2  15  -5   10.35    1.06
   2  15  -5   10.30    0.62
   2  15  -5    9.97    0.58
   2  15  -5    8.95    0.59
  -2 -15   5    9.65    1.02
   3  15  -5    2.77    0.37
   3  15  -5    2.54    0.38
   3  15  -5    2.50    0.68
   3  15  -5    2.93    0.38
   3  15  -5    3.47    0.35
  -3 -15   5    4.21    0.68
   4  15  -5    0.81    0.24
   4  15  -5    0.65    0.24
   4  15  -5    0.75    0.21
   4  15  -5    0.94    0.24
  -4 -15   5    0.85    0.25
   5  15  -5    1.20    0.26
   5  15  -5    1.40    0.28
   5  15  -5    1.12    0.34
   5  15  -5    1.31    0.24
   5  15  -5    1.53    0.27
   6  15  -5    1.86    0.28
   6  15  -5    1.94    0.27
   6  15  -5    1.64    0.33
   6  15  -5    2.06    0.28
   7  15  -5    1.04    0.28
   7  15  -5    1.05    0.24
   7  15  -5    1.55    0.27
   7  15  -5    1.49    0.25
   8  15  -5    3.49    0.35
   8  15  -5    3.87    0.38
   8  15  -5    3.40    0.33
   8  15  -5    3.68    0.33
  -8 -15   5    3.75    0.30
   9  15  -5    1.78    0.23
   9  15  -5    2.29    0.23
   9  15  -5    2.01    0.27
   9  15  -5    2.16    0.25
  -9 -15   5    2.00    0.20
  -9  15  -4    0.46    0.16
   9 -15   4    0.49    0.22
  -8  15  -4    1.92    0.26
   8 -15   4    1.62    0.28
  -7  15  -4    0.19    0.19
   7 -15   4    0.53    0.28
  -6  15  -4    0.26    0.19
   6 -15   4    0.02    0.26
  -5  15  -4    4.95    0.36
   5 -15   4    3.60    0.38
  -4  15  -4    6.26    1.09
  -4  15  -4    5.75    0.42
  -4  15  -4    6.21    0.47
   4 -15   4    6.11    0.57
  -3  15  -4    3.57    0.34
  -3  15  -4    3.83    0.67
  -3  15  -4    3.30    0.37
  -2  15  -4   12.24    0.72
  -2  15  -4   12.64    0.80
  -2  15  -4   13.09    0.69
  -2  15  -4   14.08    1.09
  -1  15  -4    4.71    0.37
  -1  15  -4    4.64    0.45
  -1  15  -4    4.92    0.38
  -1  15  -4    4.62    0.71
  -1  15  -4    6.04    0.98
   0  15  -4    3.81    0.64
   0  15  -4    3.69    0.35
   0  15  -4    3.03    0.32
   0  15  -4    3.23    0.61
   0  15  -4    3.49    0.34
   0 -15   4    3.00    0.55
   1  15  -4    4.29    0.39
   1  15  -4    4.39    0.39
   1  15  -4    3.96    0.34
   1  15  -4    5.34    0.69
   1  15  -4    4.25    0.42
   1  15  -4    4.86    0.79
  -1 -15   4    5.06    0.68
   2  15  -4   11.58    0.99
   2  15  -4   10.30    0.65
   2  15  -4   11.73    0.65
   2  15  -4   11.61    0.66
   2  15  -4   11.01    0.64
  -2 -15   4    9.60    0.94
   3  15  -4    1.19    0.25
   3  15  -4    1.26    0.56
   3  15  -4    0.90    0.19
   3  15  -4    1.08    0.22
   3  15  -4    1.04    0.23
  -3 -15   4    2.02    0.55
   4  15  -4    2.57    0.29
   4  15  -4    2.72    0.34
   4  15  -4    3.26    0.40
   4  15  -4    2.99    0.41
   4  15  -4    2.65    0.68
   4  15  -4    3.20    0.36
  -4 -15   4    2.35    0.61
   5  15  -4    2.86    0.31
   5  15  -4    2.84    0.36
   5  15  -4    2.18    0.30
   5  15  -4    2.67    0.33
   5  15  -4    2.49    0.29
   6  15  -4    0.63    0.24
   6  15  -4    0.88    0.28
   6  15  -4    1.18    0.25
   6  15  -4    1.12    0.26
  -6 -15   4    0.73    0.26
   7  15  -4    1.36    0.25
   7  15  -4    1.21    0.28
   7  15  -4    1.80    0.26
   7  15  -4    1.00    0.28
   8  15  -4    3.33    0.33
   8  15  -4    3.39    0.38
   8  15  -4    3.11    0.38
   8  15  -4    2.98    0.36
  -8 -15   4    4.16    0.31
   9  15  -4    1.06    0.21
   9  15  -4    0.87    0.22
   9  15  -4    1.40    0.20
   9  15  -4    1.13    0.24
  -9 -15   4    1.29    0.17
 -10  15  -3    0.62    0.14
  10 -15   3    1.06    0.20
  -9  15  -3    0.38    0.16
   9 -15   3    0.49    0.22
  -8  15  -3    2.51    0.28
   8 -15   3    2.66    0.38
  -7  15  -3    0.06    0.19
   7 -15   3    0.57    0.27
  -6  15  -3    0.42    0.19
  -6  15  -3    0.84    0.23
   6 -15   3    0.88    0.26
  -5  15  -3    1.14    0.22
  -5  15  -3    0.99    0.19
  -5  15  -3    2.35    0.71
   5 -15   3    0.88    0.26
  -4  15  -3    2.27    0.29
  -4  15  -3    2.96    0.34
  -4  15  -3    2.73    0.62
   4 -15   3    2.62    0.31
  -3  15  -3    4.00    0.68
  -3  15  -3    3.47    0.33
  -3  15  -3    3.54    0.32
   3 -15   3    2.50    0.34
  -2  15  -3   10.66    0.61
  -2  15  -3   11.36    0.93
  -2  15  -3   10.27    0.60
  -1  15  -3    0.11    0.35
   0  15  -3    1.74    0.42
   0  15  -3    2.41    0.52
   0 -15   3    2.17    0.44
   1  15  -3    0.60    0.38
  -1 -15   3    1.11    0.42
   2  15  -3    8.79    0.56
   2  15  -3    8.33    0.52
   2  15  -3    9.74    0.85
  -2 -15   3    9.44    0.81
   3  15  -3    0.23    0.26
   3  15  -3    0.27    0.47
   3  15  -3   -0.03    0.18
   3  15  -3    0.07    0.25
   3  15  -3    0.36    0.22
   3  15  -3    0.15    0.15
  -3 -15   3    0.55    0.44
   4  15  -3    4.98    0.45
   4  15  -3    4.85    0.39
   4  15  -3    5.04    0.45
   4  15  -3    4.03    0.42
   4  15  -3    4.21    0.44
   4  15  -3    5.11    0.83
  -4 -15   3    5.37    0.79
  -4 -15   3    4.51    0.39
   5  15  -3    3.93    0.48
   5  15  -3    3.99    0.42
   5  15  -3    4.18    0.42
   5  15  -3    4.29    0.45
   5  15  -3    4.51    0.42
  -5 -15   3    5.14    0.39
   6  15  -3    1.59    0.30
   6  15  -3    1.08    0.25
   6  15  -3    1.49    0.28
   6  15  -3    2.01    0.26
  -6 -15   3    2.21    0.27
   7  15  -3    2.60    0.40
   7  15  -3    2.80    0.29
   7  15  -3    2.25    0.32
   7  15  -3    1.95    0.29
  -7 -15   3    2.14    0.34
  -7 -15   3    1.94    0.25
   8  15  -3    0.77    0.25
   8  15  -3    0.94    0.23
   8  15  -3    0.89    0.28
   8  15  -3    0.79    0.25
  -8 -15   3    1.02    0.20
   9  15  -3    0.12    0.20
   9  15  -3    0.04    0.24
  -9 -15   3    0.19    0.16
 -10 -15   3    0.33    0.12
 -10  15  -2    1.03    0.16
  10 -15   2    1.03    0.20
  -9  15  -2    0.21    0.18
   9 -15   2    0.32    0.22
  -8  15  -2    2.47    0.34
  -8  15  -2    2.83    0.30
   8 -15   2    2.83    0.39
  -7  15  -2    0.24    0.22
  -7  15  -2    0.29    0.20
   7 -15   2    0.91    0.25
  -6  15  -2    2.00    0.23
  -6  15  -2    1.98    0.24
  -5  15  -2    0.49    0.19
  -5  15  -2    0.37    0.18
  -5  15  -2    0.05    0.57
   5 -15   2    0.56    0.23
  -4  15  -2    0.33    0.45
  -4  15  -2    0.57    0.18
  -4  15  -2    0.31    0.18
   4 -15   2    1.03    0.23
  -3  15  -2    1.76    0.44
  -3  15  -2    1.44    0.21
  -3  15  -2    1.33    0.18
  -2  15  -2    3.54    0.55
  -1  15  -2    1.21    0.37
   0  15  -2    1.76    0.40
   1  15  -2    2.01    0.40
  -1 -15   2    1.06    0.37
  -2 -15   2    3.74    0.56
   3  15  -2    4.35    0.36
   3  15  -2    4.76    0.39
   3  15  -2    4.54    0.46
   3  15  -2    5.24    0.70
  -3 -15   2    4.45    0.34
  -3 -15   2    4.80    0.63
   4  15  -2    8.92    0.55
   4  15  -2    7.97    0.55
   4  15  -2    7.96    0.54
   4  15  -2    9.23    0.58
   4  15  -2    9.21    0.95
  -4 -15   2    7.13    0.88
   5  15  -2    0.77    0.22
   5  15  -2    0.96    0.24
   5  15  -2    0.62    0.21
   5  15  -2    1.43    0.67
  -5 -15   2    1.17    0.21
  -5 -15   2    1.06    0.56
   6  15  -2    3.04    0.37
   6  15  -2    2.96    0.42
   6  15  -2    2.85    0.41
  -6 -15   2    2.62    0.37
   7  15  -2    1.26    0.28
   7  15  -2    1.24    0.27
   7  15  -2    0.93    0.25
  -7 -15   2    1.05    0.28
  -7 -15   2    1.00    0.22
   8  15  -2   -0.04    0.28
   8  15  -2    0.37    0.23
   8  15  -2    0.34    0.23
  -8 -15   2    0.25    0.18
   9  15  -2    0.29    0.22
  -9 -15   2    0.32    0.16
  10  15  -2    0.04    0.17
 -10 -15   2    0.38    0.13
 -10  15  -1    0.37    0.15
  10 -15   1    0.10    0.19
  -9  15  -1    0.40    0.20
  -9  15  -1    0.09    0.19
   9 -15   1    0.20    0.22
  -8  15  -1   17.04    0.92
  -8  15  -1   17.94    0.89
   8 -15   1   16.33    1.02
  -7  15  -1    1.09    0.22
  -7  15  -1    1.39    0.22
   7 -15   1    0.97    0.24
   7 -15   1    1.40    0.26
  -6  15  -1   10.66    0.63
  -6  15  -1   10.45    0.63
   6 -15   1   11.36    0.73
   6 -15   1   11.51    0.66
  -5  15  -1    0.54    0.18
  -5  15  -1    0.57    0.20
  -5  15  -1   -0.06    0.49
   5 -15   1    1.15    0.21
   5 -15   1    0.81    0.20
  -4  15  -1    3.36    0.35
  -4  15  -1    3.50    0.31
  -4  15  -1    2.50    0.50
   4 -15   1    4.51    0.42
  -3  15  -1    6.34    0.68
  -3  15  -1    6.10    0.40
  -2  15  -1    2.20    0.39
  -1  15  -1    2.17    0.40
   0  15  -1    2.94    0.51
   1  15  -1    2.36    0.43
   2  15  -1   38.33    2.50
  -2 -15   1   41.12    2.44
   3  15  -1    3.68    0.39
   3  15  -1    3.99    0.33
   3  15  -1    3.82    0.56
  -3 -15   1    2.48    0.49
   4  15  -1   20.66    1.13
   4  15  -1   21.34    1.57
   4  15  -1   21.58    1.20
   4  15  -1   20.64    1.14
  -4 -15   1   22.11    1.14
  -4 -15   1   22.66    1.48
   5  15  -1    1.33    0.23
   5  15  -1    1.37    0.24
   5  15  -1    1.09    0.23
   5  15  -1    1.35    0.71
  -5 -15   1    0.02    0.52
   6  15  -1    0.81    0.27
   6  15  -1    0.86    0.24
   6  15  -1    1.09    0.24
   7  15  -1    1.56    0.28
   7  15  -1    1.73    0.26
  -7 -15   1    1.37    0.22
  -7 -15   1    0.95    0.27
   8  15  -1    1.68    0.26
   8  15  -1    1.09    0.27
  -8 -15   1    1.45    0.21
   9  15  -1    0.51    0.23
  -9 -15   1    0.61    0.17
  10  15  -1   -0.03    0.18
 -10 -15   1   -0.10    0.13
 -10  15   0    0.32    0.18
 -10  15   0    0.57    0.18
  10 -15   0    0.65    0.20
  -9  15   0    5.13    0.36
  -9  15   0    4.50    0.36
   9 -15   0    5.22    0.42
  -8  15   0    7.14    0.45
  -8  15   0    6.97    0.46
   8 -15   0    6.49    0.53
   8 -15   0    6.31    0.47
  -7  15   0    9.69    0.59
  -7  15   0    9.71    0.59
   7 -15   0   10.17    0.69
   7 -15   0   10.09    0.61
  -6  15   0    8.83    0.54
  -6  15   0    8.59    0.55
   6 -15   0    9.19    0.64
   6 -15   0    8.96    0.57
  -5  15   0   -0.07    0.48
  -5  15   0    0.15    0.16
   5 -15   0    0.37    0.20
   5 -15   0    0.62    0.19
  -4  15   0    9.84    0.60
  -4  15   0   10.31    0.92
   4 -15   0   11.89    0.62
   4 -15   0   11.22    0.70
  -3  15   0    6.38    0.42
  -3  15   0    6.91    0.69
   3 -15   0    7.45    0.44
  -2  15   0   14.96    1.07
  -1  15   0    1.22    0.33
   0  15   0    0.36    0.31
   1  15   0    1.35    0.37
   2  15   0   14.42    1.08
   3  15   0    7.09    0.81
  -3 -15   0    7.77    0.47
  -3 -15   0    7.99    0.76
   4  15   0   11.78    1.12
   4  15   0   11.29    0.69
   4  15   0   10.45    0.66
   4  15   0    9.65    0.69
  -4 -15   0   11.55    0.63
  -4 -15   0   11.41    0.97
   5  15   0   -0.21    0.20
   5  15   0    0.18    0.22
  -5 -15   0    0.53    0.20
  -5 -15   0    0.19    0.51
  -5 -15   0    0.45    0.17
   6  15   0    8.55    0.62
   6  15   0    9.63    0.57
  -6 -15   0    8.71    0.53
  -6 -15   0    8.81    0.57
   7  15   0    9.82    0.68
   7  15   0   10.43    0.63
  -7 -15   0   10.13    0.58
  -7 -15   0    9.36    0.63
   8  15   0    7.63    0.54
  -8 -15   0    6.48    0.45
   9  15   0    5.02    0.43
  -9 -15   0    5.24    0.34
  10  15   0    0.18    0.20
 -10 -15   0    0.09    0.13
 -10  15   1   -0.12    0.16
  10 -15  -1    0.04    0.20
  -9  15   1    0.20    0.22
  -9  15   1    0.51    0.18
   9 -15  -1    0.53    0.20
   9 -15  -1    0.41    0.23
  -8  15   1    1.20    0.24
  -8  15   1    1.13    0.22
   8 -15  -1    1.28    0.23
   8 -15  -1    1.25    0.25
  -7  15   1    1.34    0.23
  -7  15   1    1.50    0.26
   7 -15  -1    1.42    0.26
   7 -15  -1    1.20    0.23
   6 -15  -1    2.51    0.34
   6 -15  -1    2.16    0.27
  -5  15   1    1.02    0.50
   5 -15  -1    0.19    0.17
   5 -15  -1   -0.16    0.27
   5 -15  -1    0.03    0.19
  -4  15   1   21.89    1.50
  -4  15   1   20.88    1.11
   4 -15  -1   20.71    1.25
   4 -15  -1   21.64    1.22
   4 -15  -1   22.61    1.13
  -3  15   1    3.63    0.29
  -3  15   1    3.71    0.57
   3 -15  -1    2.44    0.32
  -2  15   1   38.55    2.41
  -1  15   1    2.48    0.43
   0  15   1    3.15    0.45
   1  15   1    2.05    0.41
   2  15   1    2.77    0.48
   3  15   1    6.29    0.45
   3  15   1    5.79    0.82
  -3 -15  -1    6.20    0.40
   4  15   1    2.87    0.37
  -4 -15  -1    4.78    0.72
  -4 -15  -1    4.17    0.33
   5  15   1    0.58    0.26
  -5 -15  -1    1.51    0.56
  -5 -15  -1    1.22    0.21
  -5 -15  -1    1.25    0.20
   6  15   1   10.70    0.72
   6  15   1   10.35    0.68
  -6 -15  -1   11.01    0.67
  -6 -15  -1   11.65    0.63
   7  15   1    1.52    0.28
  -7 -15  -1    1.14    0.25
  -7 -15  -1    0.95    0.21
   8  15   1   17.94    1.07
  -8 -15  -1   19.07    0.96
   9  15   1    0.44    0.25
  -9 -15  -1    0.09    0.15
  10  15   1    0.41    0.23
 -10 -15  -1    0.21    0.12
 -10  15   2   -0.28    0.14
  10 -15  -2    0.48    0.20
  -9  15   2   -0.15    0.18
   9 -15  -2    0.35    0.19
   9 -15  -2    0.35    0.23
  -8  15   2    0.55    0.21
   8 -15  -2    0.37    0.25
   8 -15  -2    0.25    0.20
  -7  15   2    1.78    0.25
   7 -15  -2    1.35    0.23
   7 -15  -2    1.30    0.31
   7 -15  -2    1.43    0.26
  -6  15   2    3.27    0.34
   6 -15  -2    3.38    0.43
   6 -15  -2    3.05    0.45
   6 -15  -2    3.12    0.35
  -5  15   2    0.90    0.20
  -5  15   2    1.00    0.54
   5 -15  -2    1.27    0.21
   5 -15  -2    1.29    0.26
   5 -15  -2    1.44    0.21
   4 -15  -2    5.78    0.50
   4 -15  -2    6.33    0.43
   4 -15  -2    6.34    0.49
  -3  15   2    5.16    0.65
  -3  15   2    4.70    0.34
   3 -15  -2    4.51    0.37
   3 -15  -2    4.54    0.44
   3 -15  -2    4.09    0.41
  -2  15   2    5.82    0.66
  -1  15   2    2.05    0.43
   0  15   2    1.70    0.40
   1  15   2    0.78    0.40
   2  15   2    3.76    0.54
   3  15   2    1.54    0.21
  -3 -15  -2    1.08    0.18
   4  15   2    0.68    0.22
  -4 -15  -2    0.93    0.17
   5  15   2    0.44    0.24
  -5 -15  -2    0.34    0.18
  -5 -15  -2    0.54    0.21
  -6 -15  -2    3.93    0.38
  -6 -15  -2    3.75    0.36
   7  15   2    0.11    0.26
  -7 -15  -2    0.72    0.19
  -7 -15  -2    0.87    0.24
   8  15   2    3.32    0.42
  -8 -15  -2    3.06    0.31
  -8 -15  -2    3.38    0.40
   9  15   2    0.13    0.26
  -9 -15  -2    0.34    0.16
  10  15   2    0.53    0.25
 -10 -15  -2    1.19    0.17
 -10  15   3    0.53    0.14
  10 -15  -3    0.24    0.14
  -9  15   3    0.14    0.17
   9 -15  -3   -0.07    0.18
   9 -15  -3    0.05    0.23
  -8  15   3    1.48    0.23
   8 -15  -3    0.69    0.25
   8 -15  -3    0.86    0.27
   8 -15  -3    0.79    0.21
   7 -15  -3    1.72    0.29
   7 -15  -3    1.65    0.24
   7 -15  -3    1.58    0.28
  -6  15   3    1.63    0.25
   6 -15  -3    2.06    0.29
   6 -15  -3    2.26    0.28
   6 -15  -3    1.92    0.25
  -5  15   3    4.56    0.42
   5 -15  -3    5.97    0.45
   5 -15  -3    5.70    0.51
   5 -15  -3    5.72    0.48
  -4  15   3    4.69    0.36
  -4  15   3    4.83    0.77
   4 -15  -3    3.91    0.46
   4 -15  -3    4.82    0.40
   4 -15  -3    3.64    0.43
   3 -15  -3    1.16    0.19
   3 -15  -3    1.10    0.21
   3 -15  -3    1.23    0.21
  -2  15   3    7.82    0.86
   2 -15  -3    8.70    0.63
   2 -15  -3    9.07    0.58
  -1  15   3    0.18    0.41
   0  15   3    2.21    0.50
   2  15   3   10.38    0.64
  -2 -15  -3    9.55    0.59
  -2 -15  -3   10.39    0.64
  -3 -15  -3    2.05    0.27
   4  15   3    3.10    0.40
  -4 -15  -3    2.23    0.30
   5  15   3    0.97    0.28
   6  15   3    0.82    0.29
  -6 -15  -3    0.87    0.21
  -6 -15  -3    0.87    0.22
  -7 -15  -3    0.96    0.24
  -7 -15  -3    0.87    0.20
   8  15   3    2.60    0.35
  -8 -15  -3    3.48    0.41
  -8 -15  -3    2.97    0.30
   9  15   3    0.27    0.29
  -9 -15  -3    0.52    0.16
 -10 -15  -3    0.81    0.14
  -9  15   4    1.55    0.19
   9 -15  -4    1.25    0.23
   9 -15  -4    1.16    0.24
   9 -15  -4    1.10    0.19
  -8  15   4    3.99    0.36
   8 -15  -4    4.26    0.36
   8 -15  -4    4.46    0.44
   8 -15  -4    4.58    0.42
   7 -15  -4    0.72    0.26
   7 -15  -4    0.92    0.22
   7 -15  -4    0.48    0.25
  -6  15   4    1.47    0.25
   6 -15  -4    0.93    0.25
   6 -15  -4    0.59    0.22
   6 -15  -4    0.81    0.25
  -5  15   4    2.60    0.37
   5 -15  -4    3.87    0.47
   5 -15  -4    4.04    0.44
   5 -15  -4    3.72    0.40
  -4  15   4    2.85    0.68
   4 -15  -4    1.79    0.26
   4 -15  -4    2.47    0.33
   4 -15  -4    1.84    0.26
   3 -15  -4    2.57    0.37
   3 -15  -4    2.37    0.27
   3 -15  -4    2.57    0.35
  -2  15   4    9.70    0.62
  -2  15   4   10.11    1.01
   2 -15  -4    9.78    0.62
   2 -15  -4    9.23    0.64
   2 -15  -4    8.74    0.62
   1 -15  -4    4.93    0.41
   1 -15  -4    4.56    0.48
   0 -15  -4    3.12    0.36
   0 -15  -4    4.00    0.48
   1  15   4    5.20    0.45
  -1 -15  -4    5.92    0.44
  -1 -15  -4    5.90    0.43
   2  15   4   13.00    0.84
  -2 -15  -4   14.80    0.80
  -2 -15  -4   15.18    0.84
  -3 -15  -4    2.31    0.32
   4  15   4    6.79    0.54
  -4 -15  -4    6.86    0.48
   5  15   4    5.07    0.51
  -5 -15  -4    3.62    0.40
   6  15   4    0.48    0.30
  -6 -15  -4    0.22    0.21
  -6 -15  -4    0.42    0.22
   7  15   4    0.41    0.30
  -7 -15  -4    0.34    0.23
  -7 -15  -4    0.43    0.21
   8  15   4    2.03    0.33
  -8 -15  -4    1.74    0.28
  -8 -15  -4    1.84    0.27
  -9 -15  -4    0.44    0.16
  -9  15   5    2.20    0.21
   9 -15  -5    2.03    0.22
   9 -15  -5    2.18    0.32
   9 -15  -5    1.67    0.25
  -8  15   5    4.22    0.33
   8 -15  -5    3.98    0.36
   8 -15  -5    3.41    0.32
   8 -15  -5    3.82    0.41
  -7  15   5    1.64    0.25
   7 -15  -5    1.08    0.25
   7 -15  -5    1.07    0.26
   7 -15  -5    1.15    0.22
   6 -15  -5    1.33    0.26
   6 -15  -5    0.86    0.25
   6 -15  -5    1.09    0.22
  -5  15   5    1.77    0.27
   5 -15  -5    1.78    0.24
   5 -15  -5    1.93    0.28
   5 -15  -5    2.12    0.29
  -4  15   5    1.15    0.26
   4 -15  -5    0.68    0.22
   4 -15  -5    1.06    0.21
   4 -15  -5    1.04    0.23
  -3  15   5    3.14    0.43
   3 -15  -5    4.57    0.45
   3 -15  -5    4.60    0.41
   3 -15  -5    4.71    0.47
   2 -15  -5   10.65    0.74
   2 -15  -5   11.18    0.69
   1 -15  -5    8.33    0.61
   1 -15  -5    8.49    0.57
   0 -15  -5    2.60    0.26
   0 -15  -5    1.98    0.27
   1  15   5   12.28    0.69
  -1 -15  -5   10.10    0.65
  -1 -15  -5   10.22    0.67
  -1 -15  -5    9.21    0.75
   2  15   5   13.02    0.81
  -2 -15  -5   13.43    0.80
  -2 -15  -5   12.97    0.75
   3  15   5    8.57    0.59
  -3 -15  -5    7.71    0.54
   4  15   5    7.82    0.59
  -4 -15  -5    6.04    0.48
   5  15   5    0.48    0.32
  -5 -15  -5    0.01    0.20
   6  15   5    0.80    0.32
  -6 -15  -5    0.22    0.22
  -7 -15  -5    0.44    0.22
  -7 -15  -5    0.64    0.23
  -8 -15  -5    0.64    0.23
  -8 -15  -5    0.43    0.19
  -9 -15  -5    0.62    0.16
   8 -15  -6    2.57    0.35
   8 -15  -6    2.75    0.28
   8 -15  -6    2.64    0.26
  -7  15   6    0.40    0.22
   7 -15  -6    0.22    0.21
   7 -15  -6    0.33    0.19
   7 -15  -6    0.36    0.23
   6 -15  -6    0.57    0.23
   6 -15  -6    0.67    0.25
   6 -15  -6    0.74    0.21
  -5  15   6    0.50    0.26
   5 -15  -6    0.53    0.22
   5 -15  -6    0.45    0.24
   5 -15  -6    0.72    0.21
  -4  15   6    1.39    0.29
   4 -15  -6    2.71    0.39
   4 -15  -6    1.60    0.25
   4 -15  -6    1.80    0.27
   3 -15  -6    7.89    0.55
   3 -15  -6    7.89    0.61
   2 -15  -6    1.70    0.25
   1 -15  -6    3.71    0.39
   1 -15  -6    3.47    0.46
   0 -15  -6    1.06    0.23
   0 -15  -6    0.89    0.22
   1  15   6    0.86    0.29
  -1 -15  -6    0.84    0.24
  -1 -15  -6    0.83    0.23
  -1 -15  -6    1.23    0.26
   2  15   6    4.72    0.53
  -2 -15  -6    6.73    0.60
  -2 -15  -6    6.23    0.48
   3  15   6    5.13    0.51
  -3 -15  -6    4.04    0.42
   4  15   6    5.89    0.56
  -4 -15  -6    5.39    0.46
  -5 -15  -6    0.15    0.21
  -6 -15  -6    3.03    0.37
  -7 -15  -6    2.14    0.32
  -8 -15  -6    1.02    0.22
  -8  15   7    1.75    0.23
   8 -15  -7    2.04    0.32
   8 -15  -7    1.90    0.23
   8 -15  -7    2.26    0.22
  -7  15   7    0.91    0.22
   7 -15  -7    0.69    0.20
   7 -15  -7    0.67    0.19
   7 -15  -7    1.20    0.25
   6 -15  -7    2.01    0.24
   6 -15  -7    1.91    0.28
   6 -15  -7    1.95    0.24
   5 -15  -7    1.13    0.23
   5 -15  -7    1.19    0.25
   4 -15  -7    1.18    0.23
   4 -15  -7    0.97    0.25
   3 -15  -7    4.70    0.45
   3 -15  -7    4.92    0.49
   2 -15  -7    0.93    0.24
   2 -15  -7    0.77    0.23
   1 -15  -7    0.29    0.22
   1 -15  -7    0.26    0.22
   0  15   7    0.50    0.30
   0 -15  -7    0.21    0.23
   0 -15  -7    0.64    0.24
   1  15   7    2.99    0.36
  -1 -15  -7    2.45    0.29
  -1 -15  -7    2.18    0.30
  -1 -15  -7    2.79    0.40
   2  15   7    5.85    0.56
  -2 -15  -7    6.04    0.48
  -2 -15  -7    5.40    0.56
   3  15   7    5.25    0.56
  -3 -15  -7    4.42    0.52
  -3 -15  -7    4.29    0.43
  -4 -15  -7    2.12    0.26
  -5 -15  -7   -0.18    0.21
  -6 -15  -7   -0.05    0.19
  -7 -15  -7    1.08    0.21
  -8 -15  -7    0.89    0.20
   7 -15  -8    0.45    0.15
   7 -15  -8    0.52    0.21
   6 -15  -8    0.49    0.18
   6 -15  -8    0.48    0.23
   5 -15  -8    2.75    0.38
   5 -15  -8    2.70    0.32
   4 -15  -8    1.33    0.23
   4 -15  -8    1.51    0.26
   3 -15  -8    0.54    0.22
   3 -15  -8    0.33    0.24
   2 -15  -8    1.36    0.25
   2 -15  -8    1.26    0.25
   1 -15  -8    0.28    0.24
   1 -15  -8    0.05    0.23
   0  15   8    0.06    0.33
   0 -15  -8    0.51    0.25
   0 -15  -8    0.66    0.25
   1  15   8    0.66    0.35
  -1 -15  -8    1.19    0.26
  -1 -15  -8    1.30    0.28
  -1 -15  -8    1.20    0.27
  -2 -15  -8    1.01    0.25
  -2 -15  -8    1.16    0.25
  -3 -15  -8    2.60    0.36
  -3 -15  -8    2.55    0.32
  -4 -15  -8    1.68    0.30
  -4 -15  -8    1.70    0.24
  -5 -15  -8    2.11    0.29
  -6 -15  -8    0.30    0.19
  -7 -15  -8    0.15    0.17
   6 -15  -9    0.51    0.21
   6 -15  -9    0.13    0.16
   5 -15  -9    0.38    0.18
   5 -15  -9    0.51    0.21
   4 -15  -9    1.94    0.27
   4 -15  -9    1.87    0.24
   3 -15  -9    2.49    0.36
   3 -15  -9    2.79    0.35
   2 -15  -9    4.66    0.43
   2 -15  -9    4.44    0.43
  -1  15   9    1.83    0.34
   1 -15  -9    0.90    0.26
   1 -15  -9    1.02    0.25
   0 -15  -9    0.72    0.24
  -1 -15  -9    0.64    0.28
  -1 -15  -9    0.84    0.24
  -2 -15  -9    0.19    0.24
  -2 -15  -9    0.26    0.24
  -3 -15  -9    0.62    0.22
  -3 -15  -9    0.66    0.25
  -4 -15  -9    0.29    0.25
  -4 -15  -9    0.23    0.20
  -5 -15  -9    0.95    0.20
  -6 -15  -9    1.59    0.22
   5 -15 -10    0.30    0.19
   5 -15 -10    0.45    0.18
  -4  15  10    1.33    0.28
   4 -15 -10    1.88    0.28
   4 -15 -10    1.41    0.22
  -3  15  10    1.72    0.31
   3 -15 -10    1.36    0.25
   3 -15 -10    0.94    0.23
   2 -15 -10    1.69    0.26
   1 -15 -10    0.56    0.22
   0 -15 -10    1.81    0.24
  -1 -15 -10    0.84    0.28
  -1 -15 -10    0.67    0.22
  -2 -15 -10    1.90    0.27
  -2 -15 -10    2.02    0.31
  -3 -15 -10    2.05    0.29
  -3 -15 -10    1.95    0.27
  -4 -15 -10    0.79    0.23
  -4 -15 -10    0.17    0.18
  -5 -15 -10    0.60    0.17
   3 -15 -11    1.16    0.18
   2 -15 -11    0.90    0.18
   1 -15 -11    0.57    0.18
   0 -15 -11    0.51    0.18
  -1 -15 -11    0.77    0.19
  -2 -15 -11    1.25    0.24
  -2 -15 -11    1.11    0.20
  -3 -15 -11    0.94    0.19
  -3 -15 -11    0.86    0.19
  -2  16 -11    0.78    0.18
  -2  16 -11    0.91    0.17
  -2  16 -11    0.92    0.16
  -1  16 -11    0.65    0.15
  -1  16 -11    0.96    0.17
  -1  16 -11    0.75    0.17
   0  16 -11    0.59    0.16
   0  16 -11    0.80    0.16
   0  16 -11    0.28    0.16
   1  16 -11    0.09    0.15
   1  16 -11    0.26    0.15
   1  16 -11    0.51    0.15
   2  16 -11    0.61    0.15
   2  16 -11    0.96    0.16
   2  16 -11    0.59    0.16
  -4  16 -10    0.89    0.17
  -4  16 -10    0.52    0.19
  -3  16 -10    3.03    0.31
  -3  16 -10    2.39    0.26
  -3  16 -10    2.42    0.25
  -2  16 -10    1.34    0.22
  -2  16 -10    1.20    0.20
  -2  16 -10    1.07    0.19
  -1  16 -10    0.93    0.21
  -1  16 -10    1.06    0.19
  -1  16 -10    0.76    0.20
   0  16 -10    0.89    0.19
   0  16 -10    0.65    0.20
   0  16 -10    0.81    0.20
   1  16 -10    0.78    0.19
   1  16 -10    0.93    0.20
   1  16 -10    0.83    0.20
   2  16 -10    0.90    0.19
   2  16 -10    1.03    0.19
   2  16 -10    1.03    0.20
   3  16 -10    1.79    0.23
   3  16 -10    1.65    0.20
   3  16 -10    1.71    0.24
   4  16 -10    0.55    0.16
   4  16 -10    0.32    0.19
   4  16 -10    0.30    0.15
  -4 -16  10   -0.02    0.17
  -6  16  -9    0.48    0.14
  -5  16  -9    0.34    0.17
  -4  16  -9    0.84    0.20
  -4  16  -9    0.49    0.22
  -3  16  -9    1.41    0.23
  -3  16  -9    1.32    0.27
  -3  16  -9    1.36    0.22
  -2  16  -9    0.25    0.22
  -2  16  -9    0.04    0.21
  -2  16  -9    0.52    0.24
  -1  16  -9    0.67    0.23
  -1  16  -9    0.23    0.21
  -1  16  -9    0.41    0.21
   0  16  -9    0.09    0.22
   0  16  -9   -0.05    0.20
   0  16  -9   -0.04    0.21
   1  16  -9    1.70    0.25
   1  16  -9    2.10    0.26
   1  16  -9    2.27    0.30
   2  16  -9    1.27    0.23
   2  16  -9    1.34    0.24
   2  16  -9    1.26    0.23
   3  16  -9    2.42    0.30
   3  16  -9    2.15    0.30
   3  16  -9    2.49    0.31
   3  16  -9    2.87    0.29
   4  16  -9    0.33    0.19
   4  16  -9    0.73    0.22
   4  16  -9    0.77    0.24
   4  16  -9    0.90    0.21
  -4 -16   9    0.76    0.23
   5  16  -9    0.13    0.18
   5  16  -9   -0.02    0.16
   5  16  -9    0.02    0.21
   5  16  -9   -0.21    0.20
   6  16  -9    0.31    0.17
   6  16  -9    0.10    0.14
   6  16  -9    0.18    0.15
  -7  16  -8    0.11    0.14
   7 -16   8    0.11    0.25
  -6  16  -8    0.16    0.16
   6 -16   8    0.63    0.32
  -5  16  -8    1.63    0.21
  -4  16  -8    0.60    0.26
  -4  16  -8    0.75    0.20
  -3  16  -8    1.84    0.25
  -3  16  -8    1.57    0.30
  -3  16  -8    1.64    0.27
  -2  16  -8    1.62    0.28
  -2  16  -8    1.59    0.26
  -2  16  -8    1.54    0.25
  -1  16  -8    0.31    0.23
  -1  16  -8   -0.05    0.22
  -1  16  -8    0.24    0.24
   0  16  -8   -0.11    0.22
   0  16  -8    0.31    0.22
   0  16  -8    0.15    0.22
   1  16  -8    1.11    0.25
   1  16  -8    1.02    0.23
   1  16  -8    0.98    0.28
   1  16  -8    1.07    0.24
   2  16  -8    1.08    0.25
   2  16  -8    0.76    0.23
   2  16  -8    0.76    0.27
   2  16  -8    1.08    0.24
   3  16  -8    2.67    0.39
   3  16  -8    2.72    0.33
   3  16  -8    2.63    0.37
   4  16  -8    0.66    0.24
   4  16  -8    0.55    0.24
   4  16  -8    0.25    0.22
   4  16  -8    0.59    0.24
  -4 -16   8    0.77    0.26
   5  16  -8    0.49    0.23
   5  16  -8    0.70    0.21
   5  16  -8    0.34    0.21
   5  16  -8    0.21    0.22
  -5 -16   8    0.37    0.23
   6  16  -8    0.44    0.18
   6  16  -8    0.27    0.18
   6  16  -8    0.55    0.18
   7  16  -8    1.20    0.17
   7  16  -8    1.26    0.18
   7  16  -8    1.56    0.20
  -8  16  -7    0.39    0.13
   8 -16   7   -0.14    0.20
  -7  16  -7    0.46    0.16
   7 -16   7    0.80    0.27
  -6  16  -7    0.28    0.18
   6 -16   7    0.13    0.31
  -5  16  -7    0.53    0.20
   5 -16   7    0.64    0.34
  -4  16  -7    1.11    0.22
  -3  16  -7    3.23    0.46
  -3  16  -7    3.82    0.44
  -3  16  -7    3.53    0.35
  -2  16  -7    4.23    0.45
  -2  16  -7    4.44    0.38
  -2  16  -7    4.16    0.45
  -1  16  -7    2.05    0.27
  -1  16  -7    1.44    0.24
  -1  16  -7    1.55    0.27
   0  16  -7    0.00    0.21
   0  16  -7    0.45    0.23
   0  16  -7    0.09    0.26
   0  16  -7   -0.06    0.22
   1  16  -7    1.97    0.29
   1  16  -7    2.40    0.28
   1  16  -7    2.77    0.36
   1  16  -7    2.26    0.32
   2  16  -7    0.72    0.24
   2  16  -7    0.73    0.24
   2  16  -7    0.63    0.23
   2  16  -7    0.87    0.24
   3  16  -7    2.36    0.30
   3  16  -7    2.52    0.35
   3  16  -7    2.30    0.28
   3  16  -7    2.11    0.28
   4  16  -7    2.59    0.30
   4  16  -7    2.23    0.28
   4  16  -7    2.23    0.29
   4  16  -7    2.80    0.29
  -4 -16   7    1.85    0.30
   5  16  -7    0.12    0.23
   5  16  -7    0.38    0.25
   5  16  -7   -0.04    0.22
   5  16  -7    0.06    0.23
  -5 -16   7   -0.02    0.24
   6  16  -7    0.55    0.21
   6  16  -7    0.62    0.22
   6  16  -7    0.59    0.21
  -6 -16   7    1.12    0.26
   7  16  -7    1.73    0.21
   7  16  -7    1.76    0.24
   7  16  -7    2.34    0.26
   8  16  -7    0.62    0.17
   8  16  -7    1.16    0.15
   8  16  -7    0.82    0.15
  -8 -16   7    0.85    0.14
  -8  16  -6    2.46    0.23
   8 -16   6    2.83    0.31
  -7  16  -6    1.15    0.19
   7 -16   6    1.02    0.29
  -6  16  -6    1.61    0.23
   6 -16   6    2.47    0.34
  -5  16  -6    0.51    0.20
   5 -16   6    0.03    0.32
  -4  16  -6    0.88    0.21
  -3  16  -6    1.47    0.23
  -2  16  -6    1.24    0.30
  -2  16  -6    1.20    0.21
  -2  16  -6    1.29    0.27
  -2  16  -6    0.68    0.27
  -1  16  -6    0.41    0.24
  -1  16  -6    0.45    0.25
  -1  16  -6    0.31    0.20
  -1  16  -6    0.55    0.24
   0  16  -6    0.68    0.23
   0  16  -6    0.44    0.21
   0  16  -6    1.11    0.24
   0  16  -6    0.59    0.22
   1  16  -6    4.36    0.40
   1  16  -6    3.93    0.38
   1  16  -6    4.37    0.41
   1  16  -6    4.52    0.42
   2  16  -6   10.67    0.63
   2  16  -6    9.71    0.62
   2  16  -6   10.05    0.62
   2  16  -6    9.87    0.64
   3  16  -6    4.81    0.45
   3  16  -6    5.11    0.43
   3  16  -6    4.97    0.44
   3  16  -6    4.90    0.45
   4  16  -6    2.82    0.39
   4  16  -6    2.87    0.39
   4  16  -6    3.11    0.41
   4  16  -6    3.11    0.39
  -4 -16   6    3.07    0.40
   5  16  -6    0.88    0.25
   5  16  -6    0.80    0.25
   5  16  -6    0.62    0.26
   5  16  -6    0.49    0.23
  -5 -16   6    0.37    0.25
   6  16  -6    0.92    0.25
   6  16  -6    0.75    0.23
   6  16  -6    0.75    0.22
  -6 -16   6    1.07    0.27
   7  16  -6    0.99    0.21
   7  16  -6    0.83    0.21
   7  16  -6    1.04    0.23
   8  16  -6    0.90    0.18
   8  16  -6    0.41    0.19
   8  16  -6    0.59    0.16
  -8 -16   6    0.40    0.15
  -9  16  -5    2.42    0.20
   9 -16   5    2.25    0.26
  -8  16  -5    2.77    0.27
   8 -16   5    2.89    0.34
  -7  16  -5    4.63    0.36
   7 -16   5    5.40    0.46
  -6  16  -5    2.15    0.25
   6 -16   5    2.26    0.33
  -5  16  -5    1.43    0.23
   5 -16   5    1.55    0.32
  -4  16  -5    0.57    0.20
   4 -16   5    0.73    0.32
  -3  16  -5    5.49    0.40
  -3  16  -5    4.52    0.46
  -2  16  -5    0.64    0.23
  -2  16  -5    0.88    0.26
  -2  16  -5    0.21    0.69
  -2  16  -5    0.46    0.19
  -1  16  -5    3.47    0.38
  -1  16  -5    3.57    0.36
  -1  16  -5    3.55    0.39
   0  16  -5    0.89    0.24
   0  16  -5    0.52    0.60
   0  16  -5    0.52    0.73
   0  16  -5    0.38    0.19
   0  16  -5    0.46    0.20
   0  16  -5    0.52    0.21
   0 -16   5    0.74    0.61
   1  16  -5   10.80    0.61
   1  16  -5    9.09    0.61
   1  16  -5   10.16    0.60
   1  16  -5   10.24    0.62
   1  16  -5    8.17    1.07
  -1 -16   5    9.57    1.03
   2  16  -5    8.58    1.09
   2  16  -5   10.34    0.60
   2  16  -5    9.46    0.62
   2  16  -5    9.98    0.61
   2  16  -5   10.08    0.59
  -2 -16   5    9.20    1.05
   3  16  -5    9.41    0.60
   3  16  -5    9.63    0.62
   3  16  -5    9.12    0.60
   3  16  -5    8.47    0.57
   4  16  -5    4.19    0.44
   4  16  -5    3.19    0.38
   4  16  -5    3.96    0.41
   4  16  -5    3.64    0.43
  -4 -16   5    4.55    0.42
   5  16  -5    0.54    0.25
   5  16  -5    0.38    0.23
   5  16  -5    0.75    0.25
   5  16  -5    0.91    0.26
  -5 -16   5    0.36    0.23
   6  16  -5    1.55    0.27
   6  16  -5    1.27    0.31
   6  16  -5    1.38    0.26
   6  16  -5    1.26    0.25
  -6 -16   5    1.01    0.27
   7  16  -5    3.78    0.42
   7  16  -5    3.50    0.37
   7  16  -5    2.91    0.34
   7  16  -5    3.01    0.35
   8  16  -5    1.15    0.20
   8  16  -5    1.43    0.21
   8  16  -5    1.26    0.24
   8  16  -5    1.39    0.24
  -8 -16   5    0.75    0.18
   9  16  -5    0.15    0.18
   9  16  -5    0.58    0.16
   9  16  -5    0.26    0.16
  -9 -16   5    0.29    0.12
  -9  16  -4    0.96    0.16
   9 -16   4    0.98    0.21
  -8  16  -4    2.81    0.27
   8 -16   4    2.01    0.34
  -7  16  -4    2.03    0.24
   7 -16   4    2.60    0.39
  -6  16  -4    1.52    0.22
   6 -16   4    1.54    0.30
  -5  16  -4    0.02    0.19
  -5  16  -4    0.41    0.24
   5 -16   4    0.23    0.27
  -4  16  -4    1.86    0.25
  -4  16  -4    2.57    0.30
   4 -16   4    1.74    0.32
  -3  16  -4   13.68    0.78
  -3  16  -4   14.19    0.76
  -3  16  -4   14.22    1.25
  -2  16  -4    1.40    0.55
  -2  16  -4    0.81    0.19
  -2  16  -4    1.17    0.20
  -1  16  -4    0.49    0.51
  -1  16  -4    0.80    0.18
  -1  16  -4    0.80    0.23
  -1  16  -4    1.04    0.20
   0  16  -4    1.54    0.49
   0  16  -4    2.15    0.74
   0  16  -4    1.43    0.22
   0  16  -4    1.25    0.18
   0  16  -4    1.11    0.23
   1  16  -4    1.33    0.23
   1  16  -4    1.69    0.51
   1  16  -4    1.86    0.20
   1  16  -4    1.84    0.28
   1  16  -4    1.48    0.24
  -1 -16   4    1.71    0.56
   2  16  -4    3.17    0.62
   2  16  -4    3.54    0.33
   2  16  -4    3.52    0.38
   2  16  -4    3.27    0.31
   2  16  -4    2.99    0.36
  -2 -16   4    2.68    0.63
   3  16  -4    8.56    1.01
   3  16  -4    8.79    0.58
   3  16  -4    8.85    0.57
   3  16  -4    8.89    0.58
   3  16  -4    9.07    0.60
  -3 -16   4    8.97    1.02
   4  16  -4    5.52    0.44
   4  16  -4    4.62    0.55
   4  16  -4    5.41    0.42
   4  16  -4    5.57    0.48
   4  16  -4    5.00    0.45
  -4 -16   4    4.44    0.41
   5  16  -4    0.52    0.24
   5  16  -4    0.64    0.22
   5  16  -4    0.55    0.27
   5  16  -4    0.53    0.25
   5  16  -4    0.59    0.29
  -5 -16   4    0.34    0.22
   6  16  -4    1.11    0.27
   6  16  -4    0.67    0.24
   6  16  -4    1.54    0.29
   6  16  -4    0.75    0.25
  -6 -16   4    1.36    0.26
   7  16  -4    1.89    0.30
   7  16  -4    2.11    0.27
   7  16  -4    2.00    0.30
   7  16  -4    2.11    0.27
   8  16  -4    1.46    0.24
   8  16  -4    2.54    0.33
   8  16  -4    1.67    0.23
   8  16  -4    1.60    0.27
  -8 -16   4    1.63    0.20
   9  16  -4    0.68    0.18
   9  16  -4    0.40    0.19
   9  16  -4    0.11    0.20
  -9 -16   4    0.48    0.14
  -9  16  -3    0.27    0.16
   9 -16   3    0.01    0.21
  -8  16  -3    0.35    0.18
   8 -16   3    0.17    0.23
  -7  16  -3    2.21    0.30
   7 -16   3    2.67    0.40
  -6  16  -3    0.41    0.22
  -6  16  -3    0.65    0.20
   6 -16   3    0.51    0.26
  -5  16  -3    1.75    0.21
  -5  16  -3    2.39    0.33
   5 -16   3    1.11    0.28
  -4  16  -3    8.41    0.52
  -4  16  -3    7.67    1.02
  -4  16  -3    7.91    0.52
   4 -16   3    9.29    0.66
  -3  16  -3    7.12    0.47
  -3  16  -3    8.50    0.87
  -3  16  -3    7.36    0.48
  -2  16  -3    8.69    0.53
  -2  16  -3    8.98    0.53
  -2  16  -3    8.66    0.86
  -1  16  -3    0.28    0.15
  -1  16  -3    0.38    0.24
  -1  16  -3    0.39    0.21
  -1  16  -3    1.33    0.43
   0  16  -3    0.32    0.24
   0  16  -3    0.01    0.20
   0  16  -3   -0.13    0.39
   0  16  -3   -0.27    0.13
   1  16  -3    0.20    0.14
   1  16  -3    0.05    0.18
   1  16  -3    0.07    0.40
   1  16  -3    0.18    0.25
  -1 -16   3    0.47    0.45
   2  16  -3    0.81    0.20
   2  16  -3    0.37    0.46
   2  16  -3    1.01    0.26
   2  16  -3    0.82    0.16
   2  16  -3    1.17    0.26
  -2 -16   3    0.63    0.47
   3  16  -3    5.94    0.89
   3  16  -3    7.05    0.56
   3  16  -3    6.71    0.55
   3  16  -3    5.96    0.47
   3  16  -3    6.27    0.49
   3  16  -3    6.60    0.45
  -3 -16   3    6.04    0.82
  -3 -16   3    5.98    0.44
   4  16  -3    2.95    0.39
   4  16  -3    3.05    0.41
   4  16  -3    2.06    0.66
   4  16  -3    3.12    0.34
   4  16  -3    2.63    0.33
   4  16  -3    2.85    0.32
  -4 -16   3    2.07    0.61
  -4 -16   3    2.53    0.34
   5  16  -3    0.93    0.25
   5  16  -3    0.46    0.21
   5  16  -3    1.20    0.24
   5  16  -3    0.62    0.25
   5  16  -3    0.66    0.29
  -5 -16   3    0.32    0.21
   6  16  -3    2.58    0.29
   6  16  -3    2.39    0.31
   6  16  -3    2.14    0.28
   6  16  -3    2.54    0.34
  -6 -16   3    2.65    0.29
   7  16  -3    0.50    0.25
   7  16  -3    0.99    0.26
   7  16  -3    0.10    0.23
  -7 -16   3    0.77    0.21
  -7 -16   3    0.86    0.27
   8  16  -3    4.34    0.40
   8  16  -3    3.49    0.40
   8  16  -3    3.52    0.35
  -8 -16   3    4.79    0.32
   9  16  -3   -0.05    0.19
   9  16  -3    0.08    0.26
  -9 -16   3    0.41    0.15
 -10  16  -2    0.24    0.15
  10 -16   2   -0.02    0.16
  -9  16  -2    1.16    0.19
   9 -16   2    1.22    0.24
  -8  16  -2    0.05    0.21
  -8  16  -2    0.18    0.19
   8 -16   2    0.06    0.23
  -7  16  -2    1.08    0.22
  -7  16  -2    1.47    0.23
   7 -16   2    0.96    0.26
  -6  16  -2    0.24    0.20
  -6  16  -2    0.33    0.20
   6 -16   2    0.11    0.23
  -5  16  -2    0.90    0.20
  -5  16  -2    1.03    0.20
   5 -16   2    0.64    0.23
  -4  16  -2    4.27    0.38
  -4  16  -2    4.83    0.38
  -4  16  -2    5.58    0.81
   4 -16   2    5.54    0.50
  -3  16  -2   13.80    0.75
  -3  16  -2   14.80    1.09
  -3  16  -2   13.93    0.74
   3 -16   2   12.71    0.89
  -2  16  -2   16.00    1.15
  -2  16  -2   14.60    0.81
  -1  16  -2    2.09    0.44
  -1  16  -2    1.81    0.19
   0  16  -2    0.49    0.35
   0  16  -2    0.25    0.13
   1  16  -2    0.56    0.21
   1  16  -2    0.44    0.14
   1  16  -2    0.84    0.40
   2  16  -2    1.10    0.46
   2  16  -2    1.54    0.22
  -2 -16   2    1.70    0.20
  -2 -16   2    1.46    0.44
   3  16  -2    3.94    0.36
   3  16  -2    3.26    0.41
   3  16  -2    3.71    0.46
   3  16  -2    3.52    0.62
   3  16  -2    4.03    0.37
  -3 -16   2    4.53    0.72
   4  16  -2    0.30    0.22
   4  16  -2    0.84    0.21
   4  16  -2    0.04    0.19
   4  16  -2    0.14    0.23
   4  16  -2   -0.35    0.59
  -4 -16   2    0.59    0.18
  -4 -16   2    0.24    0.54
   5  16  -2    3.28    0.41
   5  16  -2    2.90    0.39
   5  16  -2    2.51    0.37
  -5 -16   2    3.76    0.35
   6  16  -2    2.51    0.38
   6  16  -2    1.95    0.28
  -6 -16   2    1.93    0.25
   7  16  -2    1.83    0.27
   7  16  -2    1.87    0.30
   7  16  -2    1.44    0.29
  -7 -16   2    2.34    0.29
  -7 -16   2    2.78    0.30
   8  16  -2    4.44    0.47
   8  16  -2    5.02    0.43
   8  16  -2    5.45    0.40
  -8 -16   2    4.93    0.35
   9  16  -2    0.16    0.21
  10  16  -2   -0.04    0.16
 -10 -16   2    0.20    0.12
 -10  16  -1    0.40    0.16
  10 -16   1    0.23    0.17
  -9  16  -1    0.18    0.20
  -9  16  -1    0.42    0.19
   9 -16   1    0.45    0.21
  -8  16  -1    2.44    0.32
  -8  16  -1    2.71    0.31
   8 -16   1    2.81    0.38
  -7  16  -1    0.22    0.20
  -7  16  -1    0.37    0.21
   7 -16   1    0.20    0.23
  -6  16  -1    0.51    0.19
  -6  16  -1    0.43    0.21
   6 -16   1    0.01    0.22
  -5  16  -1    0.80    0.19
  -5  16  -1    1.04    0.58
  -5  16  -1    1.12    0.23
   5 -16   1    1.26    0.23
  -4  16  -1    2.87    0.31
  -4  16  -1    2.91    0.54
  -4  16  -1    2.61    0.36
   4 -16   1    3.18    0.42
  -3  16  -1    8.66    0.53
  -3  16  -1    9.33    0.86
   3 -16   1    8.98    0.66
  -2  16  -1    4.12    0.32
  -1  16  -1    0.06    0.36
   0  16  -1    5.85    0.65
   1  16  -1    0.14    0.36
   2  16  -1   14.22    0.78
   2  16  -1   14.09    1.11
   2  16  -1   13.96    0.76
  -2 -16   1   13.64    0.76
   3  16  -1    0.18    0.21
   3  16  -1   -0.17    0.48
   3  16  -1    0.62    0.18
   3  16  -1    0.02    0.17
  -3 -16   1    0.76    0.46
   4  16  -1    0.01    0.20
   4  16  -1    0.62    0.24
   4  16  -1   -0.21    0.19
   4  16  -1   -0.18    0.61
  -4 -16   1    0.30    0.16
  -4 -16   1   -0.09    0.49
   5  16  -1   -0.01    0.22
   5  16  -1    0.26    0.23
   5  16  -1    0.74    0.23
   5  16  -1    0.59    0.78
  -5 -16   1    0.06    0.59
  -5 -16   1    0.31    0.19
   6  16  -1    1.69    0.26
   6  16  -1    1.51    0.29
   6  16  -1    1.87    0.27
  -6 -16   1    1.28    0.23
  -6 -16   1    1.35    0.22
   7  16  -1    0.94    0.27
   7  16  -1    1.40    0.26
  -7 -16   1    2.10    0.29
  -7 -16   1    1.76    0.27
   8  16  -1    2.62    0.37
  -8 -16   1    2.93    0.29
   9  16  -1    2.35    0.32
  -9 -16   1    2.28    0.24
  10  16  -1    1.17    0.19
 -10 -16   1    1.46    0.17
 -10  16   0    0.41    0.22
  10 -16   0    0.58    0.19
  -9  16   0    7.13    0.44
  -9  16   0    7.31    0.44
   9 -16   0    6.36    0.49
  -8  16   0    1.38    0.22
  -8  16   0    1.45    0.24
   8 -16   0    1.60    0.25
  -7  16   0    1.46    0.25
  -7  16   0    1.71    0.22
   7 -16   0    1.35    0.24
   7 -16   0    1.24    0.27
  -6  16   0    0.11    0.23
  -6  16   0    0.11    0.19
   6 -16   0    0.24    0.20
   6 -16   0   -0.16    0.21
  -5  16   0    0.09    0.16
  -5  16   0   -0.53    0.53
   5 -16   0    0.20    0.18
   5 -16   0    0.25    0.20
  -4  16   0    3.52    0.31
  -4  16   0    3.73    0.58
   4 -16   0    3.80    0.43
   4 -16   0    3.04    0.34
  -3  16   0    9.36    0.83
  -3  16   0    8.56    0.52
  -2  16   0   18.57    1.03
  -2  16   0   21.39    1.38
  -1  16   0   43.54    2.71
   0  16   0    3.88    0.58
   1  16   0   43.59    2.73
   2  16   0   22.30    1.47
   2  16   0   21.22    1.18
  -2 -16   0   19.65    1.10
   3  16   0    8.39    0.93
   3  16   0    7.63    0.53
   3  16   0    8.90    0.54
  -3 -16   0    7.17    0.48
   4  16   0    3.40    0.44
   4  16   0    3.86    0.76
   4  16   0    3.77    0.38
  -4 -16   0    3.68    0.33
  -4 -16   0    3.20    0.60
   5  16   0    0.09    0.24
   5  16   0    0.04    0.22
  -5 -16   0    0.35    0.21
  -5 -16   0    0.32    0.60
  -5 -16   0    0.17    0.17
   6  16   0    0.44    0.25
   6  16   0   -0.18    0.23
  -6 -16   0    0.24    0.21
  -6 -16   0    0.22    0.19
   7  16   0    1.11    0.27
   7  16   0    0.95    0.27
  -7 -16   0    0.87    0.24
   8  16   0    1.81    0.28
  -8 -16   0    2.17    0.28
   9  16   0    6.49    0.48
  -9 -16   0    7.02    0.41
  10  16   0   -0.18    0.18
 -10 -16   0    0.46    0.12
 -10  16   1    1.01    0.16
  -9  16   1    2.26    0.25
   9 -16  -1    2.45    0.33
  -8  16   1    3.35    0.31
   8 -16  -1    2.55    0.38
   8 -16  -1    2.90    0.33
  -7  16   1    1.27    0.23
   7 -16  -1    1.71    0.26
   7 -16  -1    1.68    0.24
  -6  16   1    2.23    0.31
   6 -16  -1    1.45    0.25
   6 -16  -1    1.27    0.23
  -5  16   1    0.46    0.18
   5 -16  -1    0.56    0.19
   5 -16  -1    0.23    0.20
  -4  16   1    0.23    0.16
  -4  16   1   -0.23    0.42
   4 -16  -1    0.08    0.17
   4 -16  -1    0.27    0.18
   4 -16  -1    0.50    0.24
  -3  16   1    0.05    0.41
  -3  16   1    0.27    0.15
   3 -16  -1    0.87    0.19
   3 -16  -1    0.69    0.23
   3 -16  -1    0.48    0.17
  -2  16   1   13.95    0.76
  -2  16   1   14.38    1.09
  -1  16   1    0.76    0.39
   0  16   1    6.26    0.70
   1  16   1    0.25    0.39
   2  16   1    4.96    0.41
   2  16   1    5.79    0.78
  -2 -16  -1    5.09    0.37
   3  16   1    8.54    0.57
   3  16   1    8.58    1.02
  -3 -16  -1    9.13    0.53
   4  16   1    2.95    0.39
  -4 -16  -1    3.27    0.32
   5  16   1    1.10    0.27
   5  16   1    0.75    0.24
  -5 -16  -1    1.18    0.20
  -5 -16  -1    1.34    0.22
   6  16   1    0.10    0.24
  -6 -16  -1    0.01    0.19
  -6 -16  -1   -0.20    0.20
   7  16   1    0.08    0.25
  -7 -16  -1    0.04    0.19
  -7 -16  -1   -0.21    0.23
   8  16   1    2.08    0.30
  -8 -16  -1    2.68    0.28
  -8 -16  -1    2.08    0.30
   9  16   1    0.59    0.24
  -9 -16  -1    0.63    0.17
  10  16   1    0.32    0.20
 -10 -16  -1    0.29    0.12
 -10  16   2    0.28    0.14
  10 -16  -2    0.37    0.19
  -9  16   2    0.21    0.17
   9 -16  -2    0.48    0.22
   9 -16  -2    0.45    0.18
  -8  16   2    5.49    0.39
   8 -16  -2    5.33    0.46
   8 -16  -2    4.89    0.41
  -7  16   2    1.57    0.24
   7 -16  -2    2.22    0.32
   7 -16  -2    2.52    0.33
   7 -16  -2    2.98    0.39
   6 -16  -2    1.43    0.23
   6 -16  -2    1.89    0.26
   6 -16  -2    1.10    0.29
  -5  16   2    2.86    0.35
   5 -16  -2    4.34    0.45
   5 -16  -2    3.99    0.38
   5 -16  -2    3.29    0.42
  -4  16   2    0.27    0.51
  -4  16   2    0.50    0.17
   4 -16  -2    0.20    0.18
   4 -16  -2    0.39    0.21
   4 -16  -2    0.48    0.19
  -3  16   2    4.41    0.39
   3 -16  -2    5.78    0.42
   3 -16  -2    5.10    0.48
   3 -16  -2    5.51    0.46
  -2  16   2    1.46    0.20
  -2  16   2    1.12    0.44
   2 -16  -2    1.25    0.23
   2 -16  -2    1.53    0.23
  -1  16   2    1.00    0.42
   1 -16  -2    0.47    0.19
   0  16   2    0.80    0.45
   1  16   2    1.99    0.50
   1  16   2    2.08    0.24
   2  16   2   15.89    0.93
  -2 -16  -2   16.81    0.89
   3  16   2   14.42    0.83
  -3 -16  -2   13.80    0.78
   4  16   2    5.26    0.48
  -4 -16  -2    6.83    0.43
   5  16   2    1.05    0.26
   6  16   2    0.27    0.27
  -6 -16  -2   -0.15    0.20
  -6 -16  -2    0.15    0.21
   7  16   2    1.30    0.29
  -7 -16  -2    0.96    0.21
  -7 -16  -2    1.15    0.25
   8  16   2    0.23    0.27
  -8 -16  -2    0.25    0.25
  -8 -16  -2    0.14    0.18
   9  16   2    1.00    0.27
  -9 -16  -2    0.97    0.16
 -10 -16  -2    0.19    0.12
  -9  16   3    0.48    0.17
   9 -16  -3    0.39    0.17
   9 -16  -3    0.67    0.22
  -8  16   3    4.56    0.36
   8 -16  -3    4.59    0.43
   8 -16  -3    4.24    0.42
   8 -16  -3    4.61    0.37
  -7  16   3    0.39    0.22
   7 -16  -3    0.89    0.22
   7 -16  -3    1.13    0.26
   7 -16  -3    0.35    0.26
  -6  16   3    2.82    0.33
   6 -16  -3    2.26    0.31
   6 -16  -3    3.02    0.35
   6 -16  -3    2.81    0.42
   5 -16  -3    0.34    0.19
   5 -16  -3    0.18    0.23
   5 -16  -3    0.22    0.21
  -4  16   3    2.72    0.31
  -4  16   3    3.37    0.66
   4 -16  -3    2.19    0.27
   4 -16  -3    2.02    0.27
   4 -16  -3    2.72    0.33
  -3  16   3    5.69    0.87
  -3  16   3    6.71    0.45
   3 -16  -3    6.85    0.54
   3 -16  -3    6.58    0.48
   3 -16  -3    6.79    0.50
  -2  16   3    1.41    0.49
   2 -16  -3    0.69    0.21
   2 -16  -3    0.66    0.20
  -1  16   3    0.05    0.46
   1 -16  -3    0.18    0.17
   1 -16  -3    0.50    0.22
   0  16   3   -0.21    0.48
   0  16   3   -0.02    0.20
   0 -16  -3    0.21    0.18
   1  16   3    0.35    0.21
  -1 -16  -3    0.44    0.18
  -1 -16  -3    0.32    0.19
   2  16   3    9.28    0.63
  -2 -16  -3   10.35    0.58
   3  16   3    8.21    0.60
  -3 -16  -3    9.37    0.54
   4  16   3    8.97    0.65
  -4 -16  -3   10.22    0.59
  -5 -16  -3    1.45    0.23
   6  16   3    0.64    0.28
  -6 -16  -3    1.06    0.23
  -6 -16  -3    0.99    0.23
   7  16   3    2.17    0.32
  -7 -16  -3    2.38    0.31
  -7 -16  -3    2.34    0.28
   8  16   3    0.52    0.28
  -8 -16  -3    0.35    0.18
  -8 -16  -3    0.84    0.25
   9  16   3   -0.01    0.26
  -9 -16  -3    0.23    0.15
   9 -16  -4    0.21    0.20
   9 -16  -4    0.18    0.15
   9 -16  -4    0.36    0.20
  -8  16   4    2.26    0.27
   8 -16  -4    2.31    0.35
   8 -16  -4    1.90    0.28
   8 -16  -4    2.10    0.26
  -7  16   4    2.21    0.27
   7 -16  -4    2.58    0.32
   7 -16  -4    3.02    0.38
   7 -16  -4    3.10    0.41
  -6  16   4    1.20    0.24
   6 -16  -4    1.39    0.27
   6 -16  -4    1.26    0.26
   6 -16  -4    1.52    0.22
  -5  16   4    0.79    0.23
   5 -16  -4    0.49    0.24
   5 -16  -4    0.48    0.23
   5 -16  -4    0.64    0.20
  -4  16   4    5.64    0.41
   4 -16  -4    3.86    0.50
   4 -16  -4    4.58    0.42
   4 -16  -4    4.20    0.43
  -3  16   4    8.21    1.09
  -3  16   4    9.40    0.58
   3 -16  -4    9.56    0.61
   3 -16  -4    9.29    0.59
   3 -16  -4    8.81    0.67
  -2  16   4    4.36    0.42
  -2  16   4    3.25    0.66
   2 -16  -4    3.08    0.40
   2 -16  -4    3.46    0.44
   1 -16  -4    1.96    0.24
   1 -16  -4    1.79    0.25
   0  16   4    1.18    0.24
   0 -16  -4    1.47    0.22
   0 -16  -4    1.73    0.26
   1  16   4    0.73    0.24
  -1 -16  -4    1.32    0.21
  -1 -16  -4    1.36    0.22
   2  16   4    1.42    0.25
  -2 -16  -4    0.99    0.20
   3  16   4   15.25    0.89
  -3 -16  -4   14.72    0.83
   4  16   4    2.78    0.33
  -4 -16  -4    2.24    0.33
   5  16   4    0.38    0.29
  -5 -16  -4    0.52    0.21
   6  16   4    1.86    0.32
  -6 -16  -4    1.27    0.25
   7  16   4    2.25    0.34
  -7 -16  -4    3.03    0.36
  -7 -16  -4    2.67    0.34
   8  16   4    2.57    0.40
  -8 -16  -4    2.46    0.34
  -8 -16  -4    2.46    0.29
  -9 -16  -4    0.81    0.16
  -9  16   5    0.27    0.14
   9 -16  -5    0.27    0.19
   9 -16  -5    0.60    0.14
   9 -16  -5    0.28    0.17
  -8  16   5    1.40    0.20
   8 -16  -5    1.12    0.24
   8 -16  -5    0.80    0.20
   8 -16  -5    0.96    0.19
  -7  16   5    3.62    0.34
   7 -16  -5    3.35    0.37
   7 -16  -5    3.27    0.33
   7 -16  -5    3.16    0.41
  -6  16   5    1.35    0.24
   6 -16  -5    0.74    0.21
   6 -16  -5    0.79    0.24
   6 -16  -5    0.65    0.24
  -5  16   5    0.37    0.23
   5 -16  -5    0.10    0.22
   5 -16  -5    0.34    0.20
   5 -16  -5    0.34    0.23
  -4  16   5    3.58    0.42
   4 -16  -5    4.57    0.48
   4 -16  -5    4.58    0.43
   4 -16  -5    5.15    0.43
  -3  16   5    8.26    0.59
   3 -16  -5    7.57    0.59
   3 -16  -5    9.15    0.65
   3 -16  -5    9.51    0.59
   2 -16  -5    9.80    0.64
   2 -16  -5    9.23    0.69
   1 -16  -5   10.65    0.67
   1 -16  -5   10.55    0.73
   0  16   5    0.61    0.25
   0 -16  -5    0.82    0.23
   0 -16  -5    0.58    0.20
   1  16   5    3.61    0.42
  -1 -16  -5    3.63    0.41
  -1 -16  -5    3.79    0.53
  -1 -16  -5    3.25    0.40
   2  16   5    1.06    0.27
  -2 -16  -5    0.73    0.21
  -3 -16  -5    3.87    0.37
   4  16   5    0.72    0.29
  -4 -16  -5    0.89    0.22
   5  16   5    2.08    0.35
  -5 -16  -5    1.67    0.26
   6  16   5    1.81    0.34
  -6 -16  -5    2.11    0.26
  -7 -16  -5    4.77    0.41
  -8 -16  -5    2.87    0.32
  -8  16   6    0.63    0.17
   8 -16  -6    0.33    0.16
   8 -16  -6    0.31    0.20
   8 -16  -6    0.22    0.15
  -7  16   6    0.90    0.21
   7 -16  -6    0.96    0.20
   7 -16  -6    0.82    0.20
   7 -16  -6    0.75    0.24
  -6  16   6    1.27    0.24
   6 -16  -6    1.25    0.25
   6 -16  -6    0.94    0.22
   6 -16  -6    1.14    0.22
  -5  16   6    0.26    0.25
   5 -16  -6    0.26    0.21
   5 -16  -6   -0.10    0.21
   5 -16  -6    0.00    0.23
   4 -16  -6    2.94    0.44
   4 -16  -6    3.61    0.40
   3 -16  -6    4.17    0.47
   3 -16  -6    4.35    0.43
   2 -16  -6   10.94    0.70
   2 -16  -6   10.77    0.74
   1 -16  -6    3.82    0.42
   1 -16  -6    3.58    0.47
   0  16   6    0.83    0.28
   0 -16  -6    0.48    0.22
   0 -16  -6    0.43    0.22
   1  16   6    0.34    0.28
  -1 -16  -6    0.82    0.25
  -1 -16  -6    0.44    0.25
  -1 -16  -6    1.02    0.23
   2  16   6    1.34    0.30
  -2 -16  -6    0.68    0.29
   3  16   6    1.46    0.30
  -3 -16  -6    0.22    0.22
   4  16   6    0.93    0.33
  -4 -16  -6    0.65    0.23
   5  16   6    0.04    0.34
  -5 -16  -6    0.04    0.20
  -6 -16  -6    2.46    0.33
  -7 -16  -6    0.50    0.21
  -8 -16  -6    3.02    0.30
   8 -16  -7    0.80    0.15
   7 -16  -7    1.35    0.19
   7 -16  -7    1.65    0.20
   7 -16  -7    1.31    0.23
  -6  16   7    0.71    0.24
   6 -16  -7    0.82    0.20
   6 -16  -7    0.78    0.22
   6 -16  -7    1.17    0.23
   5 -16  -7    0.54    0.23
   5 -16  -7    0.12    0.20
   4 -16  -7    1.64    0.24
   4 -16  -7    1.51    0.26
   3 -16  -7    1.90    0.25
   3 -16  -7    1.38    0.26
   2 -16  -7    0.38    0.23
   2 -16  -7    0.59    0.23
   1 -16  -7    1.91    0.27
   1 -16  -7    1.48    0.26
   0  16   7    0.13    0.30
   0 -16  -7    1.39    0.26
   0 -16  -7    0.76    0.23
   1  16   7    1.82    0.33
  -1 -16  -7    2.70    0.39
  -1 -16  -7    2.08    0.30
  -1 -16  -7    2.36    0.29
   2  16   7    3.69    0.50
  -2 -16  -7    4.20    0.51
  -2 -16  -7    4.29    0.42
   3  16   7    3.07    0.36
  -3 -16  -7    2.51    0.34
  -3 -16  -7    1.90    0.27
  -4 -16  -7    0.53    0.22
  -5 -16  -7   -0.16    0.20
  -6 -16  -7   -0.09    0.19
  -7 -16  -7    0.33    0.18
   7 -16  -8    1.03    0.16
   7 -16  -8    0.79    0.21
   6 -16  -8    0.14    0.20
   6 -16  -8   -0.13    0.16
   5 -16  -8    0.47    0.22
   5 -16  -8    0.67    0.20
   4 -16  -8    0.37    0.20
   4 -16  -8    0.28    0.23
   3 -16  -8    3.93    0.39
   3 -16  -8    3.28    0.41
   2 -16  -8    0.70    0.24
   2 -16  -8    0.42    0.23
  -1  16   8    1.19    0.32
   1 -16  -8    0.92    0.25
   1 -16  -8    0.42    0.24
   0  16   8    0.04    0.31
   0 -16  -8    0.38    0.24
   0 -16  -8    0.28    0.24
   1  16   8    0.32    0.32
  -1 -16  -8    0.22    0.24
  -1 -16  -8    0.68    0.26
  -2 -16  -8    1.67    0.26
  -2 -16  -8    1.47    0.27
  -3 -16  -8    0.23    0.22
  -3 -16  -8    0.12    0.25
  -4 -16  -8    0.07    0.20
  -5 -16  -8    0.70    0.20
  -6 -16  -8   -0.21    0.17
  -7 -16  -8    0.25    0.16
   6 -16  -9    0.07    0.15
   6 -16  -9    0.43    0.19
   5 -16  -9    0.26    0.17
   5 -16  -9    0.38    0.20
   4 -16  -9    0.82    0.20
   4 -16  -9    0.41    0.22
   3 -16  -9    2.90    0.36
   3 -16  -9    3.18    0.34
  -2  16   9    1.30    0.32
   2 -16  -9    1.89    0.26
   2 -16  -9    2.47    0.33
   1 -16  -9    0.66    0.24
   1 -16  -9    1.06    0.25
   0 -16  -9    0.24    0.23
  -1 -16  -9    0.25    0.22
  -1 -16  -9    0.31    0.26
  -2 -16  -9    0.17    0.23
  -2 -16  -9    0.50    0.23
  -3 -16  -9    1.74    0.27
  -3 -16  -9    1.72    0.25
  -4 -16  -9    0.96    0.21
  -4 -16  -9    1.15    0.27
  -5 -16  -9    0.03    0.17
  -6 -16  -9    0.83    0.17
  -4  16  10    0.33    0.24
   4 -16 -10    0.64    0.20
   4 -16 -10    0.22    0.18
  -3  16  10    2.45    0.34
   3 -16 -10    2.13    0.30
   3 -16 -10    2.12    0.29
   2 -16 -10    1.23    0.22
   1 -16 -10    0.30    0.20
   0 -16 -10    0.12    0.20
  -1 -16 -10    1.44    0.23
  -2 -16 -10    1.38    0.25
  -2 -16 -10    1.55    0.23
  -3 -16 -10    2.80    0.33
  -3 -16 -10    3.52    0.31
  -4 -16 -10    1.15    0.19
  -4 -16 -10    0.96    0.24
   2 -16 -11    0.82    0.16
   1 -16 -11    0.28    0.16
   0 -16 -11    0.50    0.17
  -1 -16 -11    0.87    0.18
  -2 -16 -11    0.90    0.18
  -1  17 -11    1.15    0.15
  -1  17 -11    1.05    0.16
  -1  17 -11    1.23    0.17
   0  17 -11    0.01    0.14
   0  17 -11    0.18    0.14
   0  17 -11    0.50    0.14
   1  17 -11    0.97    0.15
   1  17 -11    0.86    0.15
   1  17 -11    0.74    0.14
  -4  17 -10    0.48    0.14
  -3  17 -10    0.76    0.17
  -3  17 -10    1.13    0.23
  -3  17 -10    0.98    0.19
  -2  17 -10    2.81    0.28
  -2  17 -10    2.41    0.25
  -2  17 -10    2.24    0.24
  -1  17 -10    0.70    0.19
  -1  17 -10    0.68    0.18
  -1  17 -10    0.80    0.20
   0  17 -10    0.46    0.19
   0  17 -10    0.81    0.19
   0  17 -10    0.76    0.18
   1  17 -10    0.28    0.17
   1  17 -10    0.24    0.17
   1  17 -10    0.64    0.17
   2  17 -10    0.46    0.17
   2  17 -10    0.59    0.17
   2  17 -10    0.77    0.18
   3  17 -10    1.78    0.22
   3  17 -10    1.83    0.21
   3  17 -10    1.55    0.21
  -3 -17  10    1.40    0.21
   4  17 -10    0.71    0.17
   4  17 -10    0.66    0.15
   4  17 -10    0.64    0.15
  -4 -17  10    0.53    0.16
  -5  17  -9    0.24    0.15
  -4  17  -9    0.89    0.19
  -3  17  -9    0.25    0.22
  -3  17  -9    0.54    0.19
  -3  17  -9    0.62    0.26
  -2  17  -9    1.21    0.22
  -2  17  -9    1.33    0.25
  -2  17  -9    0.93    0.21
  -1  17  -9    0.24    0.20
  -1  17  -9    0.30    0.21
  -1  17  -9    0.07    0.22
   0  17  -9    0.23    0.21
   0  17  -9    0.20    0.21
   0  17  -9    0.31    0.21
   1  17  -9    0.84    0.21
   1  17  -9    0.59    0.22
   1  17  -9    0.75    0.21
   2  17  -9    1.27    0.23
   2  17  -9    0.98    0.21
   3  17  -9    5.18    0.37
   3  17  -9    5.10    0.43
   3  17  -9    5.27    0.38
   3  17  -9    4.92    0.36
   4  17  -9    0.46    0.18
   4  17  -9    0.73    0.23
   4  17  -9    0.52    0.18
   4  17  -9    0.58    0.20
  -4 -17   9    0.28    0.20
   5  17  -9   -0.04    0.21
   5  17  -9   -0.16    0.15
   5  17  -9    0.07    0.19
   5  17  -9    0.28    0.16
  -5 -17   9   -0.06    0.19
  -6  17  -8    0.07    0.14
  -5  17  -8   -0.06    0.16
  -4  17  -8    0.47    0.19
  -3  17  -8    2.53    0.32
  -3  17  -8    2.38    0.29
  -3  17  -8    2.05    0.29
  -2  17  -8    0.01    0.23
  -2  17  -8   -0.16    0.25
  -2  17  -8    0.30    0.22
  -1  17  -8    0.14    0.23
  -1  17  -8    0.55    0.23
  -1  17  -8    0.53    0.22
   0  17  -8    0.24    0.23
   0  17  -8    0.21    0.21
   0  17  -8    0.29    0.23
   1  17  -8    0.16    0.22
   1  17  -8    0.39    0.22
   1  17  -8    0.27    0.23
   1  17  -8   -0.11    0.26
   2  17  -8    1.33    0.24
   2  17  -8    0.92    0.24
   2  17  -8    0.80    0.26
   2  17  -8    1.03    0.23
   3  17  -8    1.84    0.26
   3  17  -8    2.12    0.28
   3  17  -8    1.67    0.26
   3  17  -8    1.84    0.24
   4  17  -8    2.39    0.34
   4  17  -8    1.94    0.26
   4  17  -8    1.88    0.25
   4  17  -8    2.18    0.25
  -4 -17   8    1.31    0.26
   5  17  -8    0.73    0.21
   5  17  -8    0.64    0.22
   5  17  -8    0.60    0.20
   5  17  -8    0.95    0.21
  -5 -17   8    1.34    0.22
   6  17  -8    0.10    0.17
   6  17  -8    0.01    0.16
   6  17  -8    0.12    0.17
  -7  17  -7    0.43    0.15
   7 -17   7    0.60    0.26
   6 -17   7    1.23    0.32
  -5  17  -7    0.73    0.20
  -4  17  -7    0.49    0.20
  -3  17  -7    7.85    0.50
  -2  17  -7    2.59    0.34
  -2  17  -7    2.57    0.31
  -2  17  -7    2.68    0.31
  -1  17  -7    0.64    0.25
  -1  17  -7    0.51    0.24
  -1  17  -7    0.20    0.22
   0  17  -7    0.57    0.24
   0  17  -7    0.61    0.24
   0  17  -7    0.47    0.26
   0  17  -7    0.81    0.23
   1  17  -7    1.72    0.27
   1  17  -7    1.63    0.25
   1  17  -7    1.28    0.26
   1  17  -7    1.31    0.24
   2  17  -7    1.38    0.26
   2  17  -7    1.29    0.25
   2  17  -7    1.33    0.26
   2  17  -7    1.40    0.26
   3  17  -7    6.20    0.46
   3  17  -7    5.36    0.46
   3  17  -7    5.23    0.43
   3  17  -7    6.07    0.46
   4  17  -7    0.21    0.24
   4  17  -7    0.07    0.23
   4  17  -7    0.07    0.24
   4  17  -7    0.21    0.22
  -4 -17   7    0.70    0.25
   5  17  -7    1.01    0.26
   5  17  -7    1.14    0.24
   5  17  -7    1.07    0.23
   5  17  -7    0.92    0.23
  -5 -17   7    0.34    0.23
   6  17  -7    0.28    0.20
   6  17  -7    0.35    0.20
   6  17  -7    0.46    0.19
  -6 -17   7    0.29    0.24
   7  17  -7    2.63    0.25
   7  17  -7    2.94    0.25
   7  17  -7    2.97    0.27
  -8  17  -6    0.50    0.14
   8 -17   6    0.61    0.21
  -7  17  -6    3.09    0.26
   7 -17   6    2.30    0.32
  -6  17  -6    0.98    0.20
  -5  17  -6    1.37    0.22
   5 -17   6    1.84    0.36
  -4  17  -6    1.24    0.22
  -3  17  -6    8.16    0.51
  -2  17  -6    1.97    0.29
  -2  17  -6    2.29    0.31
  -2  17  -6    2.71    0.31
  -1  17  -6    0.74    0.24
  -1  17  -6    1.21    0.25
  -1  17  -6    1.13    0.27
  -1  17  -6    0.90    0.22
   0  17  -6    0.10    0.21
   0  17  -6    0.14    0.22
   0  17  -6    0.54    0.25
   0  17  -6    0.26    0.23
   1  17  -6    1.80    0.25
   1  17  -6    1.45    0.25
   1  17  -6    2.09    0.26
   1  17  -6    1.76    0.26
   2  17  -6    1.70    0.26
   2  17  -6    1.71    0.27
   2  17  -6    1.72    0.27
   2  17  -6    1.87    0.25
   3  17  -6    4.16    0.40
   3  17  -6    3.29    0.38
   3  17  -6    3.53    0.40
   3  17  -6    3.27    0.42
   4  17  -6    1.29    0.25
   4  17  -6    1.23    0.27
   4  17  -6    1.44    0.26
   4  17  -6    1.16    0.26
  -4 -17   6    1.14    0.26
   5  17  -6    0.52    0.25
   5  17  -6    0.27    0.24
   5  17  -6    0.15    0.23
   5  17  -6    0.26    0.25
  -5 -17   6    0.50    0.23
   6  17  -6    0.24    0.20
   6  17  -6   -0.04    0.22
   6  17  -6   -0.14    0.22
  -6 -17   6    0.13    0.24
   7  17  -6    1.23    0.21
   7  17  -6    1.72    0.22
   7  17  -6    1.76    0.24
   8  17  -6    1.80    0.22
   8  17  -6    1.12    0.21
   8  17  -6    1.54    0.18
  -8 -17   6    1.31    0.16
  -8  17  -5    0.22    0.16
   8 -17   5    0.54    0.22
  -7  17  -5    0.87    0.19
   7 -17   5    0.29    0.27
  -6  17  -5    1.27    0.23
   6 -17   5    2.07    0.33
  -5  17  -5   -0.08    0.20
   5 -17   5    0.61    0.32
  -4  17  -5    0.30    0.19
  -3  17  -5   13.66    0.74
  -3  17  -5   13.94    0.80
  -2  17  -5    2.01    0.27
  -2  17  -5    2.85    0.32
  -2  17  -5    2.77    0.32
  -1  17  -5    9.21    1.20
  -1  17  -5   10.23    0.62
  -1  17  -5   10.04    0.64
  -1  17  -5   10.24    0.59
   0  17  -5    0.31    0.21
   0  17  -5   -0.12    0.65
   0  17  -5    0.54    0.27
   0  17  -5    0.61    0.23
   0  17  -5    0.34    0.19
   1  17  -5    7.09    0.50
   1  17  -5    6.23    0.47
   1  17  -5    6.39    0.52
   1  17  -5    5.83    0.48
   2  17  -5    2.86    0.40
   2  17  -5    3.23    0.38
   2  17  -5    2.86    0.38
   2  17  -5    2.93    0.40
   3  17  -5    1.20    0.23
   3  17  -5    1.05    0.24
   3  17  -5    1.31    0.26
   3  17  -5    1.10    0.26
   4  17  -5    0.11    0.24
   4  17  -5    0.20    0.21
   4  17  -5    0.17    0.24
   4  17  -5    0.05    0.25
  -4 -17   5    0.31    0.22
   5  17  -5    0.20    0.22
   5  17  -5    0.39    0.24
   5  17  -5   -0.09    0.26
   5  17  -5    0.09    0.25
  -5 -17   5    0.27    0.23
   6  17  -5    0.17    0.23
   6  17  -5    0.17    0.24
   6  17  -5    0.16    0.22
   6  17  -5    0.45    0.30
   7  17  -5    5.39    0.43
   7  17  -5    6.03    0.41
   7  17  -5    5.25    0.39
   7  17  -5    5.63    0.48
   8  17  -5    0.88    0.22
   8  17  -5    0.58    0.18
   8  17  -5    0.79    0.18
   8  17  -5    0.60    0.23
  -8 -17   5    0.46    0.15
  -9  17  -4    1.57    0.19
   9 -17   4    1.93    0.25
  -8  17  -4    0.59    0.18
   8 -17   4    0.50    0.23
  -7  17  -4    1.17    0.21
   7 -17   4    0.80    0.27
  -6  17  -4    0.32    0.20
   6 -17   4    0.76    0.28
  -5  17  -4    1.17    0.22
  -5  17  -4    1.41    0.25
   5 -17   4    0.82    0.30
  -4  17  -4   -0.14    0.21
  -4  17  -4    0.04    0.20
   4 -17   4    0.10    0.30
  -3  17  -4    2.98    0.85
  -3  17  -4    3.55    0.38
  -3  17  -4    4.57    0.35
  -2  17  -4    4.71    0.38
  -2  17  -4    4.35    0.72
  -2  17  -4    4.21    0.39
  -1  17  -4    9.45    0.57
  -1  17  -4    9.33    0.99
  -1  17  -4    9.52    0.57
  -1  17  -4    9.59    0.62
   0  17  -4    0.10    0.21
   0  17  -4   -0.04    0.16
   0  17  -4   -0.07    0.21
   0  17  -4   -0.07    0.49
   1  17  -4    9.95    0.62
   1  17  -4    9.61    0.59
   1  17  -4   10.62    0.61
   1  17  -4    9.29    1.01
   2  17  -4    5.18    0.48
   2  17  -4    4.69    0.41
   2  17  -4    5.11    0.89
   2  17  -4    5.07    0.43
   2  17  -4    4.85    0.44
  -2 -17   4    5.54    0.78
   3  17  -4    3.09    0.40
   3  17  -4    2.46    0.37
   3  17  -4    2.22    0.29
   3  17  -4    2.55    0.34
  -3 -17   4    4.42    0.75
   4  17  -4    0.22    0.24
   4  17  -4    0.52    0.26
   4  17  -4    0.21    0.20
   4  17  -4    0.33    0.23
  -4 -17   4    0.31    0.20
   5  17  -4    0.37    0.25
   5  17  -4    0.58    0.25
   5  17  -4    0.49    0.28
   5  17  -4    0.58    0.29
   5  17  -4    0.33    0.22
  -5 -17   4    0.52    0.22
   6  17  -4    0.59    0.24
   6  17  -4    0.32    0.27
   6  17  -4    0.07    0.23
   6  17  -4    0.53    0.27
  -6 -17   4   -0.19    0.23
   7  17  -4    1.78    0.25
   7  17  -4    1.98    0.29
   7  17  -4    1.79    0.29
   7  17  -4    1.81    0.26
  -7 -17   4    1.38    0.28
  -7 -17   4    2.10    0.23
   8  17  -4    1.49    0.22
   8  17  -4    1.40    0.23
   8  17  -4    1.87    0.25
  -8 -17   4    1.34    0.19
   9  17  -4    2.03    0.27
   9  17  -4    1.98    0.25
  -9 -17   4    2.05    0.19
  -9  17  -3    1.40    0.20
   9 -17   3    1.07    0.22
  -8  17  -3    0.14    0.18
   8 -17   3   -0.16    0.22
  -7  17  -3    1.41    0.22
  -7  17  -3    1.72    0.25
   7 -17   3    0.77    0.27
  -6  17  -3    0.01    0.19
  -6  17  -3    0.02    0.21
   6 -17   3    0.16    0.25
  -5  17  -3    0.55    0.21
  -5  17  -3    0.74    0.21
   5 -17   3    0.51    0.26
  -4  17  -3   -0.18    0.20
  -4  17  -3   -0.06    0.19
   4 -17   3   -0.13    0.25
  -3  17  -3    1.68    0.23
  -3  17  -3    2.78    0.64
  -3  17  -3    1.54    0.21
  -2  17  -3    4.62    0.36
  -2  17  -3    4.82    0.67
  -2  17  -3    4.21    0.38
  -1  17  -3    1.68    0.23
  -1  17  -3    1.51    0.19
  -1  17  -3    0.95    0.27
  -1  17  -3    1.35    0.49
   0  17  -3    0.70    0.16
   0  17  -3    0.37    0.22
   0  17  -3    0.40    0.44
   0  17  -3    0.52    0.24
   1  17  -3    4.91    0.71
   1  17  -3    4.50    0.48
   1  17  -3    3.62    0.42
   1  17  -3    4.66    0.34
   2  17  -3    3.92    0.40
   2  17  -3    4.35    0.75
   2  17  -3    3.72    0.34
   2  17  -3    3.77    0.47
  -2 -17   3    3.13    0.34
  -2 -17   3    3.56    0.67
   3  17  -3    3.26    0.48
   3  17  -3    2.84    0.38
   3  17  -3    4.40    0.73
   3  17  -3    2.96    0.41
   3  17  -3    3.38    0.35
  -3 -17   3    5.23    0.83
   4  17  -3    1.55    0.28
   4  17  -3    1.36    0.22
   4  17  -3    1.29    0.26
   4  17  -3    1.83    0.25
  -4 -17   3    1.29    0.22
   5  17  -3    0.33    0.26
   5  17  -3    0.44    0.21
   5  17  -3    0.65    0.24
   6  17  -3    0.95    0.27
   6  17  -3    0.48    0.25
   6  17  -3    0.66    0.24
  -6 -17   3    0.87    0.24
   7  17  -3    0.53    0.23
   7  17  -3    0.17    0.24
   7  17  -3    0.37    0.25
  -7 -17   3    0.67    0.20
  -7 -17   3    0.75    0.26
   8  17  -3    0.26    0.21
   8  17  -3   -0.07    0.24
   8  17  -3    0.20    0.22
  -8 -17   3    0.10    0.16
   9  17  -3    0.38    0.19
  -9 -17   3    1.33    0.16
  -9  17  -2    1.27    0.19
   9 -17   2    1.33    0.22
  -8  17  -2    0.66    0.20
  -8  17  -2    0.45    0.21
   8 -17   2    0.95    0.24
  -7  17  -2    2.92    0.33
  -7  17  -2    3.18    0.33
   7 -17   2    2.67    0.40
  -6  17  -2   -0.04    0.20
  -6  17  -2    0.04    0.20
   6 -17   2    0.36    0.25
  -5  17  -2    1.48    0.22
  -5  17  -2    1.23    0.22
  -4  17  -2    0.22    0.21
  -4  17  -2    1.32    0.58
  -4  17  -2    0.48    0.18
   4 -17   2    0.73    0.23
  -3  17  -2    2.12    0.28
  -3  17  -2    2.72    0.55
  -3  17  -2    1.83    0.26
   3 -17   2    2.22    0.32
  -2  17  -2    1.44    0.19
  -2  17  -2    1.88    0.48
  -1  17  -2    1.73    0.19
  -1  17  -2    1.75    0.28
  -1  17  -2    1.42    0.45
   1 -17   2    2.48    0.29
   0  17  -2    1.36    0.24
   0  17  -2    1.77    0.48
   0  17  -2    1.37    0.18
   0 -17   2    1.89    0.24
   1  17  -2    1.14    0.18
   1  17  -2    1.46    0.22
   1  17  -2    1.57    0.44
  -1 -17   2    1.86    0.21
   2  17  -2    1.46    0.19
   2  17  -2    1.72    0.22
   2  17  -2    2.65    0.54
  -2 -17   2    1.17    0.19
   3  17  -2   11.87    0.69
   3  17  -2   12.37    1.12
   3  17  -2   11.16    0.68
   3  17  -2   10.33    0.74
   3  17  -2   11.91    0.76
  -3 -17   2   13.34    1.10
  -3 -17   2   12.35    0.67
   4  17  -2    0.33    0.70
   4  17  -2    0.09    0.22
   4  17  -2    0.23    0.24
   4  17  -2    0.29    0.22
   4  17  -2    0.16    0.19
  -4 -17   2    0.88    0.63
  -4 -17   2    0.71    0.19
   5  17  -2    0.98    0.25
   5  17  -2    1.06    0.25
   5  17  -2    1.07    0.23
  -5 -17   2    1.57    0.23
   6  17  -2    0.33    0.25
   6  17  -2    0.45    0.26
   6  17  -2    0.20    0.24
  -6 -17   2    0.48    0.21
  -6 -17   2    0.29    0.21
   7  17  -2    0.03    0.24
   7  17  -2    0.01    0.23
   7  17  -2    0.12    0.27
  -7 -17   2    0.57    0.20
  -7 -17   2    0.52    0.25
   8  17  -2    0.44    0.22
   8  17  -2    1.01    0.23
  -8 -17   2    0.54    0.17
   9  17  -2    0.74    0.20
  -9 -17   2    0.77    0.15
  -9  17  -1    1.01    0.20
  -9  17  -1    0.89    0.20
   9 -17   1    1.26    0.23
  -8  17  -1    4.92    0.38
  -8  17  -1    5.39    0.39
   8 -17   1    5.39    0.45
  -7  17  -1    7.01    0.46
  -7  17  -1    6.63    0.46
  -6  17  -1    5.25    0.44
  -6  17  -1    6.04    0.44
   6 -17   1    6.82    0.53
  -5  17  -1    3.95    0.39
  -5  17  -1    4.29    0.36
   5 -17   1    3.16    0.46
  -4  17  -1   -0.13    0.47
  -4  17  -1    0.00    0.17
   4 -17   1    0.18    0.20
  -3  17  -1    5.36    0.38
  -3  17  -1    5.46    0.72
   3 -17   1    5.49    0.53
  -2  17  -1    0.65    0.15
  -2  17  -1    0.93    0.42
  -1  17  -1    4.38    0.64
  -1  17  -1    3.74    0.32
   0  17  -1    0.81    0.41
   0  17  -1    0.54    0.16
   1  17  -1    5.50    0.41
   1  17  -1    4.35    0.69
   1  17  -1    5.58    0.38
   1  17  -1    5.22    0.48
   2  17  -1   12.78    1.09
   2  17  -1   12.37    0.71
   2  17  -1   11.89    0.76
   2  17  -1   12.84    0.69
  -2 -17   1   12.23    0.70
   3  17  -1   24.49    1.28
   3  17  -1   25.57    1.36
   3  17  -1   24.64    1.75
  -3 -17   1   23.43    1.28
   4  17  -1    2.88    0.40
   4  17  -1    1.82    0.78
   4  17  -1    2.95    0.39
   4  17  -1    3.32    0.40
  -4 -17   1    2.92    0.32
   5  17  -1    0.71    0.25
   5  17  -1    0.74    0.24
   5  17  -1    0.35    0.24
  -5 -17   1    1.02    0.20
  -5 -17   1    1.33    0.23
   6  17  -1    1.16    0.26
   6  17  -1    0.69    0.28
   6  17  -1    0.78    0.25
  -6 -17   1    0.68    0.21
  -6 -17   1    0.30    0.21
   7  17  -1    1.93    0.28
  -7 -17   1    1.22    0.25
  -7 -17   1    1.09    0.21
   8  17  -1   -0.07    0.22
  -8 -17   1    0.20    0.17
   9  17  -1    0.30    0.21
  -9  17   0    2.98    0.31
  -9  17   0    2.45    0.26
   9 -17   0    2.75    0.31
  -8  17   0    0.25    0.19
  -8  17   0    0.65    0.23
   8 -17   0    0.38    0.23
  -7  17   0   15.41    0.83
  -7  17   0   15.25    0.83
   7 -17   0   15.08    0.93
  -6  17   0    0.64    0.20
   6 -17   0    0.05    0.22
  -5  17   0    3.95    0.35
   5 -17   0    3.11    0.45
  -4  17   0    1.46    0.52
  -4  17   0    1.16    0.19
   4 -17   0    1.08    0.23
  -3  17   0   25.13    1.32
  -3  17   0   26.27    1.75
   3 -17   0   25.93    1.49
  -2  17   0    1.49    0.18
  -2  17   0    1.36    0.43
  -1  17   0    1.59    0.19
  -1  17   0    1.13    0.44
   0  17   0   -0.22    0.40
   0  17   0    0.08    0.16
   1  17   0    1.51    0.48
   1  17   0    1.37    0.24
   1  17   0    1.91    0.21
  -1 -17   0    1.87    0.21
   2  17   0    0.96    0.49
   2  17   0    1.04    0.21
   2  17   0    1.29    0.22
   3  17   0   26.29    1.43
   3  17   0   25.88    1.88
   3  17   0   24.96    1.37
  -3 -17   0   27.49    1.37
   4  17   0    0.73    0.25
   4  17   0    0.49    0.79
   4  17   0    1.04    0.23
  -4 -17   0    1.15    0.19
   5  17   0    3.04    0.34
   5  17   0    3.33    0.42
  -5 -17   0    4.07    0.38
  -5 -17   0    3.89    0.36
   6  17   0    0.73    0.26
   6  17   0    0.17    0.25
  -6 -17   0    0.41    0.20
  -6 -17   0    0.01    0.21
   7  17   0   16.07    0.91
  -7 -17   0   14.90    0.85
  -7 -17   0   14.57    0.81
   8  17   0    0.69    0.24
  -8 -17   0    0.46    0.27
  -8 -17   0    0.43    0.17
   9  17   0    3.08    0.32
  -9 -17   0    2.49    0.24
  -9  17   1    0.30    0.17
   9 -17  -1    0.82    0.21
  -8  17   1    0.07    0.19
   8 -17  -1    0.07    0.22
  -7  17   1    2.02    0.24
   7 -17  -1    1.60    0.27
   7 -17  -1    1.74    0.25
  -6  17   1    0.76    0.20
   6 -17  -1    0.29    0.21
   6 -17  -1    0.19    0.22
   5 -17  -1    1.15    0.21
   5 -17  -1    1.27    0.23
  -4  17   1    3.21    0.61
  -4  17   1    3.55    0.32
   4 -17  -1    3.57    0.43
   4 -17  -1    3.03    0.35
   4 -17  -1    3.28    0.46
  -3  17   1   24.95    1.67
  -3  17   1   25.30    1.25
   3 -17  -1   23.32    1.40
   3 -17  -1   23.33    1.34
  -2  17   1   13.09    0.68
  -2  17   1   12.21    1.01
   2 -17  -1   11.73    0.77
   2 -17  -1   11.66    0.83
  -1  17   1    5.46    0.45
  -1  17   1    5.75    0.40
  -1  17   1    5.23    0.70
   0  17   1    0.50    0.44
   0  17   1    0.72    0.20
   0  17   1    0.64    0.21
   0 -17  -1    1.17    0.20
   1  17   1    4.22    0.38
   1  17   1    4.46    0.75
   1  17   1    3.63    0.36
  -1 -17  -1    3.42    0.36
  -1 -17  -1    3.13    0.35
   2  17   1    0.69    0.24
   2  17   1    0.81    0.19
   2  17   1    1.22    0.56
  -2 -17  -1    0.94    0.17
   3  17   1    5.79    0.46
  -3 -17  -1    5.69    0.41
   4  17   1    0.32    0.22
  -4 -17  -1    0.20    0.17
   5  17   1    4.11    0.41
  -5 -17  -1    2.83    0.34
   6  17   1    5.55    0.51
  -6 -17  -1    5.83    0.46
  -6 -17  -1    6.27    0.43
   7  17   1    7.16    0.54
  -7 -17  -1    6.97    0.46
  -7 -17  -1    6.54    0.50
   8  17   1    5.63    0.45
  -8 -17  -1    5.21    0.36
  -8 -17  -1    4.72    0.44
   9  17   1    1.04    0.23
  -9 -17  -1    0.91    0.16
  -9  17   2    0.37    0.16
   9 -17  -2    0.76    0.21
  -8  17   2    0.63    0.19
   8 -17  -2    0.24    0.22
   8 -17  -2    0.37    0.19
  -7  17   2    0.49    0.21
   7 -17  -2    0.25    0.25
   7 -17  -2    0.69    0.22
  -6  17   2    0.68    0.21
   6 -17  -2    0.73    0.27
   6 -17  -2    0.48    0.23
   6 -17  -2    0.33    0.21
  -5  17   2    1.40    0.22
   5 -17  -2    1.44    0.22
   5 -17  -2    1.32    0.26
   5 -17  -2    1.42    0.24
  -4  17   2   -0.61    0.54
  -4  17   2    0.10    0.18
   4 -17  -2    0.21    0.20
   4 -17  -2    0.50    0.22
   4 -17  -2    0.49    0.19
  -3  17   2   11.25    0.67
  -3  17   2   11.07    1.04
   3 -17  -2   11.81    0.78
   3 -17  -2   12.05    0.69
   3 -17  -2   12.85    0.74
  -2  17   2    1.83    0.21
  -2  17   2    2.08    0.54
   2 -17  -2    1.29    0.24
   2 -17  -2    0.93    0.21
  -1  17   2    1.72    0.23
  -1  17   2    2.10    0.52
   1 -17  -2    1.68    0.23
   0  17   2    1.33    0.23
   0  17   2    1.24    0.25
   0  17   2    1.53    0.52
   0 -17  -2    2.12    0.25
   0 -17  -2    1.59    0.21
   1  17   2    2.08    0.56
   1  17   2    2.13    0.32
  -1 -17  -2    2.49    0.31
  -1 -17  -2    2.30    0.32
   2  17   2    1.42    0.22
  -2 -17  -2    2.14    0.30
   3  17   2    2.68    0.37
  -3 -17  -2    2.44    0.30
   4  17   2    0.25    0.23
   5  17   2    1.74    0.30
   6  17   2    0.25    0.27
  -6 -17  -2    0.25    0.21
  -6 -17  -2    0.31    0.22
   7  17   2    3.22    0.41
  -7 -17  -2    2.67    0.32
  -7 -17  -2    2.37    0.28
   8  17   2    0.29    0.26
  -8 -17  -2    1.25    0.25
  -8 -17  -2    0.73    0.18
   9  17   2    1.50    0.25
  -9 -17  -2    1.21    0.17
   9 -17  -3    1.42    0.22
  -8  17   3    0.54    0.19
   8 -17  -3    0.21    0.19
   8 -17  -3    0.11    0.24
   8 -17  -3    0.15    0.22
  -7  17   3    0.53    0.22
   7 -17  -3    0.46    0.25
   7 -17  -3    0.81    0.22
   7 -17  -3    0.78    0.25
  -6  17   3    0.57    0.23
   6 -17  -3    0.88    0.22
   6 -17  -3    0.89    0.25
   6 -17  -3    0.87    0.25
  -5  17   3    0.77    0.22
   5 -17  -3    1.42    0.23
   5 -17  -3    1.30    0.25
   5 -17  -3    1.28    0.26
  -4  17   3    1.63    0.23
   4 -17  -3    1.58    0.25
   4 -17  -3    1.62    0.25
   4 -17  -3    1.45    0.23
  -3  17   3    3.56    0.37
  -3  17   3    3.12    0.68
   3 -17  -3    5.30    0.48
   3 -17  -3    4.88    0.43
   3 -17  -3    4.41    0.40
  -2  17   3    4.23    0.40
  -2  17   3    3.59    0.66
   2 -17  -3    2.87    0.46
   2 -17  -3    3.39    0.39
  -1  17   3    4.50    0.71
  -1  17   3    4.63    0.46
   1 -17  -3    5.35    0.54
   1 -17  -3    4.69    0.44
   0  17   3    0.73    0.22
   1  17   3    1.67    0.25
  -1 -17  -3    1.99    0.24
  -1 -17  -3    1.85    0.23
   2  17   3    4.71    0.42
  -2 -17  -3    4.55    0.39
   4  17   3   -0.10    0.23
  -4 -17  -3    0.07    0.17
   5  17   3    0.80    0.28
  -5 -17  -3    0.72    0.21
   6  17   3   -0.10    0.27
  -6 -17  -3    0.03    0.21
   7  17   3    1.66    0.30
  -7 -17  -3    0.94    0.22
  -7 -17  -3    1.01    0.24
   8  17   3    0.16    0.26
  -8 -17  -3    0.31    0.18
  -8 -17  -3    0.68    0.24
   9  17   3    1.31    0.27
  -9 -17  -3    0.94    0.17
  -9  17   4    2.16    0.21
   9 -17  -4    2.21    0.27
   8 -17  -4    1.45    0.24
   8 -17  -4    1.42    0.21
   8 -17  -4    1.28    0.23
  -7  17   4    2.10    0.30
   7 -17  -4    1.37    0.26
   7 -17  -4    1.78    0.27
   7 -17  -4    1.80    0.23
  -6  17   4    0.35    0.22
   6 -17  -4    0.19    0.24
   6 -17  -4    0.20    0.23
   6 -17  -4    0.22    0.20
  -5  17   4    0.55    0.23
   5 -17  -4    0.69    0.21
   5 -17  -4    0.23    0.24
   5 -17  -4    0.70    0.23
  -4  17   4    0.61    0.22
   4 -17  -4    0.05    0.20
   4 -17  -4   -0.04    0.22
   4 -17  -4    0.27    0.21
   3 -17  -4    3.77    0.41
   3 -17  -4    4.50    0.49
   3 -17  -4    5.29    0.45
  -2  17   4    4.87    0.46
   2 -17  -4    4.75    0.44
   2 -17  -4    5.09    0.50
   1 -17  -4    9.90    0.73
   1 -17  -4   10.48    0.66
   0  17   4    0.21    0.22
   0 -17  -4    0.25    0.19
   0 -17  -4    0.46    0.26
   1  17   4   10.19    0.60
  -1 -17  -4    8.16    0.60
  -1 -17  -4    8.24    0.58
   2  17   4    4.95    0.45
  -2 -17  -4    4.58    0.39
  -3 -17  -4    2.67    0.35
   4  17   4    0.08    0.27
  -4 -17  -4    0.22    0.20
  -5 -17  -4    0.75    0.22
   6  17   4    0.81    0.30
  -6 -17  -4    0.85    0.23
   7  17   4    1.26    0.30
  -7 -17  -4    1.27    0.24
   8  17   4    0.65    0.28
  -8 -17  -4    0.59    0.23
  -8  17   5    0.82    0.17
   8 -17  -5    0.87    0.20
   8 -17  -5    0.56    0.17
   8 -17  -5    0.49    0.18
  -7  17   5    6.26    0.43
   7 -17  -5    5.97    0.46
   7 -17  -5    6.92    0.50
   7 -17  -5    7.05    0.44
  -6  17   5    0.15    0.22
   6 -17  -5    0.55    0.24
   6 -17  -5    0.69    0.21
   6 -17  -5    0.73    0.22
  -5  17   5    0.42    0.24
   5 -17  -5    0.81    0.24
   5 -17  -5    0.64    0.21
   5 -17  -5    0.50    0.23
  -4  17   5    0.34    0.25
   4 -17  -5    0.16    0.23
   4 -17  -5    0.55    0.21
   4 -17  -5    0.46    0.22
  -3  17   5    1.69    0.28
   3 -17  -5    1.43    0.24
   3 -17  -5    1.70    0.25
   2 -17  -5    3.34    0.41
   2 -17  -5    3.29    0.46
   1 -17  -5    5.05    0.51
   1 -17  -5    4.35    0.45
   0  17   5    0.78    0.25
   0 -17  -5    0.17    0.23
   0 -17  -5   -0.13    0.20
   1  17   5   10.90    0.66
  -1 -17  -5    9.39    0.64
  -1 -17  -5    8.87    0.75
  -1 -17  -5    9.68    0.63
   2  17   5    2.55    0.31
  -2 -17  -5    2.34    0.27
   3  17   5   14.07    0.94
  -3 -17  -5   16.99    0.88
   4  17   5    0.24    0.29
  -4 -17  -5    0.26    0.22
   5  17   5    0.05    0.31
  -5 -17  -5    0.75    0.22
   6  17   5    0.89    0.31
   7  17   5    0.56    0.31
  -7 -17  -5    0.53    0.22
  -8 -17  -5    0.21    0.20
  -8  17   6    1.41    0.18
   8 -17  -6    1.75    0.25
   8 -17  -6    0.98    0.17
   7 -17  -6    2.58    0.28
   7 -17  -6    2.73    0.34
   7 -17  -6    2.58    0.28
  -6  17   6    0.15    0.22
   6 -17  -6   -0.05    0.20
   6 -17  -6    0.16    0.20
   6 -17  -6    0.32    0.22
  -5  17   6    0.50    0.24
   5 -17  -6    0.34    0.21
   5 -17  -6    0.18    0.21
   5 -17  -6    0.59    0.24
   4 -17  -6    1.56    0.24
   4 -17  -6    1.27    0.25
   3 -17  -6    4.25    0.43
   3 -17  -6    4.50    0.47
   2 -17  -6    2.04    0.27
   2 -17  -6    1.96    0.28
   1 -17  -6    0.51    0.23
   1 -17  -6    0.65    0.23
   0  17   6    0.39    0.28
   0 -17  -6    0.86    0.24
   0 -17  -6    0.99    0.23
   1  17   6    1.53    0.30
  -1 -17  -6    0.68    0.26
  -1 -17  -6    0.84    0.27
  -1 -17  -6    0.87    0.23
   2  17   6    2.61    0.33
  -2 -17  -6    1.93    0.33
  -2 -17  -6    1.44    0.27
   3  17   6    8.50    0.64
  -3 -17  -6    9.05    0.59
   4  17   6    1.15    0.33
  -4 -17  -6    1.24    0.24
   5  17   6    1.79    0.34
  -5 -17  -6    1.04    0.23
  -6 -17  -6    1.23    0.22
  -7 -17  -6    1.76    0.23
  -8 -17  -6    0.10    0.18
  -7  17   7    2.70    0.29
   7 -17  -7    3.02    0.26
   7 -17  -7    2.89    0.31
   6 -17  -7    0.45    0.18
   6 -17  -7    0.47    0.22
   5 -17  -7    0.67    0.22
   5 -17  -7    0.36    0.20
   4 -17  -7    0.51    0.21
   4 -17  -7    0.41    0.23
   3 -17  -7    5.43    0.50
   3 -17  -7    6.07    0.47
   2 -17  -7    1.86    0.26
   2 -17  -7    1.96    0.27
  -1  17   7    1.83    0.32
   1 -17  -7    1.22    0.25
   1 -17  -7    1.11    0.25
   0  17   7    0.69    0.30
   0 -17  -7    0.24    0.23
   0 -17  -7    0.14    0.23
   1  17   7    0.30    0.29
  -1 -17  -7    0.44    0.25
  -1 -17  -7    0.45    0.26
  -1 -17  -7    0.47    0.23
   2  17   7    2.52    0.35
  -2 -17  -7    2.64    0.38
  -2 -17  -7    2.87    0.44
   3  17   7    7.93    0.61
  -3 -17  -7    7.89    0.54
  -4 -17  -7    0.67    0.22
  -5 -17  -7    0.24    0.20
  -6 -17  -7    0.48    0.18
  -7 -17  -7    0.39    0.17
   6 -17  -8    0.23    0.15
   6 -17  -8    0.25    0.19
   5 -17  -8    0.95    0.19
   5 -17  -8    1.14    0.23
   4 -17  -8    0.85    0.21
   4 -17  -8    1.10    0.23
   3 -17  -8    1.28    0.22
   3 -17  -8    0.85    0.23
   2 -17  -8    0.35    0.22
   2 -17  -8    0.51    0.22
  -1  17   8    0.39    0.30
   1 -17  -8    0.57    0.24
   1 -17  -8    0.42    0.23
   0  17   8   -0.03    0.30
   0 -17  -8    0.09    0.24
   0 -17  -8    0.12    0.23
   1  17   8    0.55    0.31
  -1 -17  -8    0.74    0.27
  -1 -17  -8    0.65    0.26
   2  17   8    0.24    0.32
  -2 -17  -8    1.21    0.26
  -2 -17  -8    1.07    0.24
  -3 -17  -8    2.30    0.33
  -3 -17  -8    2.56    0.40
  -4 -17  -8    1.33    0.22
  -5 -17  -8    0.99    0.19
  -6 -17  -8    0.17    0.16
   5 -17  -9    0.63    0.19
   5 -17  -9    0.49    0.17
   4 -17  -9    0.70    0.19
   4 -17  -9    0.60    0.20
  -3  17   9    5.38    0.43
   3 -17  -9    4.98    0.39
   3 -17  -9    4.76    0.41
  -2  17   9    1.92    0.30
   2 -17  -9    1.37    0.24
   2 -17  -9    1.41    0.24
  -1  17   9    1.02    0.30
   1 -17  -9    1.50    0.24
   1 -17  -9    1.42    0.24
   0  17   9    0.32    0.31
   0 -17  -9    0.22    0.22
  -1 -17  -9    1.02    0.23
  -2 -17  -9    0.75    0.24
  -2 -17  -9    0.63    0.23
  -3 -17  -9    0.51    0.24
  -3 -17  -9    0.20    0.20
  -4 -17  -9    0.14    0.18
  -5 -17  -9    0.06    0.16
   4 -17 -10    0.91    0.18
  -3  17  10    1.41    0.26
   3 -17 -10    0.84    0.21
   3 -17 -10    0.96    0.19
   2 -17 -10    0.50    0.19
   1 -17 -10    0.59    0.19
   0 -17 -10    0.47    0.18
  -1 -17 -10    0.71    0.20
  -2 -17 -10    2.23    0.30
  -2 -17 -10    2.42    0.32
  -3 -17 -10    0.93    0.20
  -3 -17 -10    0.91    0.22
  -4 -17 -10    0.76    0.17
   0 -17 -11   -0.01    0.15
  -3  18 -10    3.15    0.23
  -2  18 -10    0.80    0.16
  -2  18 -10    0.70    0.18
  -2  18 -10    0.67    0.20
  -1  18 -10    0.53    0.16
  -1  18 -10    0.62    0.17
  -1  18 -10    0.64    0.18
   0  18 -10    0.50    0.18
   0  18 -10    0.61    0.16
   0  18 -10    0.56    0.17
   1  18 -10    0.23    0.15
   1  18 -10    0.69    0.17
   1  18 -10    0.56    0.17
   2  18 -10    0.58    0.16
   2  18 -10    0.56    0.16
   2  18 -10    0.45    0.16
  -2 -18  10    0.30    0.17
   3  18 -10    1.03    0.16
   3  18 -10    0.74    0.15
   3  18 -10    0.76    0.16
  -3 -18  10    0.84    0.16
  -5  18  -9    0.41    0.14
  -4  18  -9    0.05    0.16
  -3  18  -9    1.06    0.19
  -2  18  -9    0.27    0.21
  -2  18  -9    0.53    0.23
  -2  18  -9    0.38    0.18
  -1  18  -9    1.27    0.22
  -1  18  -9    1.02    0.23
   0  18  -9    0.75    0.20
   0  18  -9    0.67    0.21
   0  18  -9    0.55    0.20
   1  18  -9    0.87    0.22
   1  18  -9    0.83    0.20
   1  18  -9    0.62    0.20
   2  18  -9    1.27    0.21
   2  18  -9    1.29    0.22
   2  18  -9    1.20    0.20
   3  18  -9    0.86    0.20
   3  18  -9    0.52    0.25
   3  18  -9    1.16    0.20
  -3 -18   9    1.15    0.21
   4  18  -9    1.06    0.22
   4  18  -9    0.72    0.18
   4  18  -9    0.80    0.19
   4  18  -9    0.84    0.18
  -4 -18   9    0.69    0.18
   5  18  -9    0.15    0.13
   5  18  -9    0.20    0.14
   5  18  -9   -0.04    0.17
  -6  18  -8    0.27    0.14
  -5  18  -8    0.53    0.17
  -4  18  -8    0.22    0.18
  -3  18  -8    2.13    0.27
  -2  18  -8    0.80    0.22
  -2  18  -8    0.80    0.26
  -2  18  -8    0.48    0.23
  -1  18  -8    0.81    0.24
  -1  18  -8    0.99    0.25
  -1  18  -8    0.76    0.22
   0  18  -8   -0.19    0.20
   0  18  -8    0.23    0.22
   0  18  -8    0.23    0.23
   1  18  -8    0.34    0.22
   1  18  -8    0.03    0.22
   1  18  -8    0.05    0.21
   1  18  -8   -0.04    0.25
   2  18  -8   -0.13    0.24
   2  18  -8    0.27    0.22
   2  18  -8    0.55    0.23
   2  18  -8    0.04    0.21
   3  18  -8    0.18    0.23
   3  18  -8    0.32    0.21
   3  18  -8    0.01    0.21
   3  18  -8    0.52    0.22
  -3 -18   8    0.85    0.23
   4  18  -8    0.04    0.19
   4  18  -8   -0.07    0.21
   4  18  -8    0.02    0.21
   4  18  -8    0.43    0.21
  -4 -18   8   -0.09    0.20
   5  18  -8    1.11    0.22
   5  18  -8    1.60    0.20
   5  18  -8    1.43    0.21
   5  18  -8    1.18    0.20
  -5 -18   8    1.01    0.21
   6  18  -8    0.29    0.17
   6  18  -8    0.00    0.14
   6  18  -8   -0.10    0.15
  -7  18  -7    0.72    0.14
   7 -18   7    0.68    0.29
  -6  18  -7    0.17    0.16
  -5  18  -7    0.19    0.17
  -4  18  -7    0.24    0.19
  -3  18  -7    4.06    0.35
  -2  18  -7    1.50    0.28
  -2  18  -7    1.25    0.24
  -1  18  -7    2.75    0.39
  -1  18  -7    2.70    0.34
  -1  18  -7    2.63    0.32
  -1  18  -7    3.00    0.38
   0  18  -7   -0.20    0.24
   0  18  -7    0.45    0.24
   0  18  -7   -0.20    0.25
   0  18  -7    0.14    0.21
   1  18  -7    0.70    0.24
   1  18  -7    0.61    0.24
   1  18  -7    0.81    0.23
   1  18  -7    0.78    0.24
   2  18  -7    0.55    0.23
   2  18  -7    0.73    0.24
   2  18  -7    0.36    0.23
   2  18  -7    0.58    0.24
   3  18  -7    2.78    0.36
   3  18  -7    3.41    0.36
   3  18  -7    3.14    0.38
   3  18  -7    3.42    0.38
  -3 -18   7    2.60    0.37
   4  18  -7    0.45    0.22
   4  18  -7    0.69    0.24
   4  18  -7    0.35    0.23
   4  18  -7    0.68    0.24
  -4 -18   7    0.00    0.22
   5  18  -7    0.08    0.21
   5  18  -7    0.40    0.22
   5  18  -7   -0.03    0.22
   5  18  -7    0.17    0.19
  -5 -18   7    0.27    0.21
   6  18  -7    0.35    0.18
   6  18  -7    0.42    0.19
   6  18  -7    0.67    0.18
   7  18  -7    0.45    0.17
   7  18  -7    0.76    0.15
   7  18  -7    0.43    0.14
  -7 -18   7    0.67    0.13
  -7  18  -6    3.43    0.25
   7 -18   6    2.46    0.35
  -6  18  -6    0.19    0.17
   6 -18   6    0.01    0.29
  -5  18  -6    0.59    0.20
  -4  18  -6    1.41    0.22
  -3  18  -6    0.83    0.21
  -2  18  -6    1.57    0.30
  -2  18  -6    1.74    0.24
  -2  18  -6    1.41    0.27
  -1  18  -6    1.44    0.27
  -1  18  -6    1.45    0.25
  -1  18  -6    1.31    0.24
   0  18  -6    0.33    0.23
   0  18  -6    0.21    0.22
   0  18  -6   -0.14    0.22
   0  18  -6    0.15    0.26
   1  18  -6    1.65    0.25
   1  18  -6    1.88    0.28
   1  18  -6    1.80    0.27
   1  18  -6    1.54    0.25
   2  18  -6    0.35    0.22
   2  18  -6    0.40    0.24
   2  18  -6    0.17    0.23
   2  18  -6    0.23    0.24
   3  18  -6   16.04    0.87
   3  18  -6   16.21    0.86
   3  18  -6   15.69    0.88
   3  18  -6   15.57    0.84
  -3 -18   6   13.66    0.88
   4  18  -6    0.85    0.26
   4  18  -6    0.82    0.26
   4  18  -6    0.63    0.24
   4  18  -6    0.87    0.23
  -4 -18   6    0.69    0.23
   5  18  -6    0.09    0.24
   5  18  -6    0.10    0.21
   5  18  -6    0.35    0.24
   5  18  -6    0.43    0.24
  -5 -18   6    0.56    0.22
   6  18  -6    0.63    0.20
   6  18  -6    0.49    0.20
   6  18  -6    0.48    0.23
  -6 -18   6    0.51    0.23
   7  18  -6    0.07    0.17
   7  18  -6    0.41    0.20
   7  18  -6    0.27    0.17
  -7 -18   6    0.18    0.15
  -8  18  -5    0.13    0.14
   8 -18   5    0.14    0.20
  -7  18  -5    6.04    0.37
   7 -18   5    5.50    0.47
  -6  18  -5    0.24    0.19
   6 -18   5    0.03    0.28
  -5  18  -5    1.79    0.23
   5 -18   5    1.50    0.34
  -4  18  -5    1.33    0.22
  -4  18  -5    1.17    0.26
  -3  18  -5    4.31    0.36
  -3  18  -5    3.81    0.41
  -2  18  -5    1.44    0.30
  -2  18  -5    1.30    0.22
  -2  18  -5    1.17    0.23
  -1  18  -5    2.62    0.33
  -1  18  -5    1.84    0.25
  -1  18  -5    1.76    0.28
   0  18  -5    0.79    0.23
   0  18  -5    0.52    0.23
   0  18  -5    0.44    0.20
   1  18  -5    0.74    0.23
   1  18  -5    0.60    0.26
   1  18  -5    0.41    0.23
   1  18  -5    0.52    0.20
   2  18  -5    0.40    0.25
   2  18  -5   -0.03    0.20
   2  18  -5    0.30    0.23
   2  18  -5    0.30    0.26
   3  18  -5   16.00    0.89
   3  18  -5   15.89    0.87
   3  18  -5   15.66    0.90
   3  18  -5   15.81    0.88
  -3 -18   5   15.68    0.90
   4  18  -5    0.16    0.22
   4  18  -5    0.32    0.25
   4  18  -5    0.22    0.25
   4  18  -5    0.26    0.24
  -4 -18   5    0.46    0.22
   5  18  -5    2.02    0.28
   5  18  -5    2.06    0.27
   5  18  -5    2.01    0.30
   5  18  -5    1.77    0.28
  -5 -18   5    2.33    0.33
   6  18  -5    1.12    0.26
   6  18  -5    1.13    0.23
   6  18  -5    1.17    0.24
  -6 -18   5    0.61    0.24
   7  18  -5    4.14    0.41
   7  18  -5    4.30    0.35
   7  18  -5    4.07    0.33
   7  18  -5    4.11    0.37
  -7 -18   5    3.26    0.30
   8  18  -5    1.49    0.23
   8  18  -5    1.12    0.18
   8  18  -5    1.21    0.19
  -8 -18   5    1.29    0.17
  -8  18  -4    0.69    0.17
   8 -18   4    0.56    0.22
  -7  18  -4    5.03    0.36
   7 -18   4    4.35    0.43
  -6  18  -4    0.20    0.21
   6 -18   4    0.02    0.27
  -5  18  -4    0.88    0.22
  -5  18  -4    0.70    0.23
  -4  18  -4   -0.34    0.20
  -4  18  -4    0.16    0.20
  -3  18  -4    6.07    0.44
  -3  18  -4    5.99    0.45
  -2  18  -4    0.68    0.21
  -2  18  -4    0.55    0.19
  -1  18  -4    0.07    0.59
  -1  18  -4    0.43    0.22
  -1  18  -4    0.12    0.25
  -1  18  -4   -0.08    0.18
   0  18  -4    1.46    0.20
   0  18  -4    1.06    0.59
   0  18  -4    1.42    0.25
   0  18  -4    1.06    0.25
   1  18  -4    0.19    0.21
   1  18  -4    0.03    0.17
   1  18  -4    0.31    0.24
   2  18  -4    1.34    0.29
   2  18  -4    1.09    0.27
   2  18  -4    1.04    0.21
   2  18  -4    0.98    0.23
  -2 -18   4    1.19    0.24
   3  18  -4   11.54    0.73
   3  18  -4   11.75    0.73
   3  18  -4   11.54    0.71
   3  18  -4   11.53    0.73
  -3 -18   4   13.63    0.70
   4  18  -4    0.27    0.25
   4  18  -4   -0.03    0.22
   4  18  -4   -0.13    0.20
   4  18  -4    0.42    0.28
  -4 -18   4    0.45    0.21
   5  18  -4    0.77    0.30
   5  18  -4    0.66    0.29
   5  18  -4    1.02    0.25
   5  18  -4    0.91    0.24
  -5 -18   4    0.54    0.24
   6  18  -4    0.54    0.24
   6  18  -4    0.06    0.28
   6  18  -4    0.27    0.26
   6  18  -4    0.61    0.23
  -6 -18   4    0.03    0.23
   7  18  -4    5.58    0.42
   7  18  -4    6.20    0.46
   7  18  -4    5.45    0.40
  -7 -18   4    4.86    0.42
  -7 -18   4    4.86    0.36
   8  18  -4    0.33    0.20
   8  18  -4    0.59    0.21
   8  18  -4    0.71    0.20
  -8 -18   4    0.82    0.16
  -9  18  -3    0.24    0.15
   9 -18   3   -0.09    0.18
  -8  18  -3    0.73    0.19
   8 -18   3    0.77    0.23
  -7  18  -3    1.52    0.25
  -7  18  -3    1.76    0.23
   7 -18   3    1.97    0.29
  -6  18  -3   -0.18    0.20
  -6  18  -3    0.02    0.21
   6 -18   3    0.39    0.26
  -5  18  -3    0.32    0.21
  -5  18  -3    0.16    0.21
   5 -18   3    0.87    0.27
  -4  18  -3    0.62    0.22
  -4  18  -3    0.66    0.20
   4 -18   3    0.95    0.28
  -3  18  -3    8.41    0.55
  -3  18  -3    9.23    0.55
  -2  18  -3    2.56    0.62
  -2  18  -3    2.38    0.31
  -2  18  -3    3.09    0.28
  -1  18  -3    1.14    0.18
  -1  18  -3    1.81    0.26
  -1  18  -3    1.21    0.52
  -1  18  -3    0.85    0.27
   0  18  -3    1.26    0.50
   0  18  -3    1.54    0.25
   0  18  -3    1.63    0.28
   0  18  -3    1.06    0.18
   0 -18   3    0.82    0.24
   1  18  -3    1.01    0.22
   1  18  -3    1.85    0.55
   1  18  -3    1.38    0.19
  -1 -18   3    1.19    0.23
   2  18  -3    0.12    0.20
   2  18  -3    0.32    0.59
   2  18  -3    0.02    0.17
  -2 -18   3    0.20    0.18
   3  18  -3    5.73    0.44
   3  18  -3    5.77    0.46
   3  18  -3    5.19    0.52
   3  18  -3    4.95    0.53
  -3 -18   3    6.63    0.44
   4  18  -3    0.57    0.26
   4  18  -3    1.18    0.24
   4  18  -3    0.67    0.27
   4  18  -3    0.67    0.21
  -4 -18   3    0.88    0.21
   5  18  -3    0.70    0.23
   5  18  -3    0.52    0.27
   5  18  -3    0.74    0.24
  -5 -18   3    0.17    0.22
   6  18  -3   -0.09    0.23
   6  18  -3    0.33    0.26
   6  18  -3    0.40    0.24
  -6 -18   3   -0.02    0.21
   7  18  -3    5.61    0.42
   7  18  -3    5.90    0.44
   7  18  -3    5.26    0.45
  -7 -18   3    4.79    0.37
  -7 -18   3    4.92    0.42
   8  18  -3    0.82    0.21
   8  18  -3    0.87    0.23
  -8 -18   3    0.88    0.17
   9  18  -3    0.36    0.16
  -9 -18   3    0.61    0.13
  -9  18  -2    1.07    0.18
   9 -18   2    0.76    0.21
  -8  18  -2    0.10    0.20
  -8  18  -2    0.22    0.19
   8 -18   2    0.21    0.22
  -7  18  -2    0.49    0.21
  -7  18  -2    0.41    0.20
   7 -18   2    0.04    0.23
  -6  18  -2    0.43    0.20
  -6  18  -2    0.34    0.22
   6 -18   2    0.28    0.24
  -5  18  -2    0.73    0.23
  -5  18  -2    0.99    0.21
   5 -18   2    0.51    0.25
  -4  18  -2   -0.16    0.18
  -4  18  -2   -0.15    0.23
   4 -18   2    0.17    0.24
  -3  18  -2   24.91    1.24
  -3  18  -2   23.03    1.72
  -3  18  -2   24.88    1.26
  -2  18  -2    0.95    0.49
  -2  18  -2    0.75    0.17
  -1  18  -2    2.92    0.31
  -1  18  -2    2.95    0.33
  -1  18  -2    4.21    0.67
   1 -18   2    3.67    0.39
   0  18  -2    5.04    0.44
   0  18  -2    4.85    0.74
   0  18  -2    5.60    0.38
   0 -18   2    4.74    0.40
   1  18  -2    3.13    0.57
   1  18  -2    3.13    0.38
   1  18  -2    2.59    0.30
  -1 -18   2    2.76    0.31
   2  18  -2    0.02    0.17
   2  18  -2    0.60    0.55
   2  18  -2    0.06    0.20
   2  18  -2    0.16    0.27
  -2 -18   2    0.60    0.18
   3  18  -2    1.41    0.28
   3  18  -2    1.93    0.23
   3  18  -2    2.63    0.69
   4  18  -2    0.33    0.24
   4  18  -2    0.46    0.20
   4  18  -2    0.56    0.25
  -4 -18   2    0.08    0.19
   5  18  -2    0.77    0.24
   5  18  -2    1.32    0.27
   5  18  -2    0.99    0.26
   6  18  -2    0.29    0.25
   6  18  -2    0.38    0.25
   6  18  -2    0.38    0.25
  -6 -18   2    0.98    0.22
   7  18  -2    9.21    0.64
   7  18  -2    9.40    0.64
   7  18  -2    9.48    0.61
  -7 -18   2   11.33    0.57
  -7 -18   2   10.34    0.62
   8  18  -2    0.17    0.21
  -8 -18   2    0.24    0.16
   9  18  -2    1.12    0.20
  -9 -18   2    1.29    0.16
  -9  18  -1    1.36    0.22
  -9  18  -1    1.23    0.20
  -8  18  -1    0.71    0.22
  -8  18  -1    0.44    0.19
   8 -18   1    0.81    0.22
  -7  18  -1    0.50    0.23
  -7  18  -1    0.46    0.20
   7 -18   1    0.33    0.23
  -6  18  -1    0.24    0.19
  -6  18  -1    0.41    0.24
   6 -18   1    0.27    0.24
   5 -18   1    1.97    0.28
  -4  18  -1    0.53    0.18
   4 -18   1    0.51    0.23
  -3  18  -1    8.95    0.89
  -3  18  -1    8.18    0.50
   3 -18   1    7.59    0.65
  -2  18  -1    0.11    0.16
  -2  18  -1   -0.10    0.47
  -1  18  -1    3.49    0.31
  -1  18  -1    2.80    0.52
   0  18  -1    1.98    0.21
   0  18  -1    1.88    0.25
   0  18  -1    2.12    0.50
   0 -18   1    1.95    0.24
   1  18  -1    8.58    0.57
   1  18  -1    8.22    0.54
   1  18  -1    8.07    0.61
   1  18  -1    8.10    0.91
  -1 -18   1   10.20    0.54
   2  18  -1    3.22    0.36
   2  18  -1    3.23    0.33
   2  18  -1    2.90    0.41
   2  18  -1    3.81    0.64
  -2 -18   1    3.24    0.32
   3  18  -1    1.98    0.28
   3  18  -1    2.46    0.71
   3  18  -1    2.08    0.25
  -3 -18   1    2.43    0.31
   4  18  -1    0.71    0.25
   4  18  -1    0.63    0.22
  -4 -18   1    1.22    0.20
   5  18  -1    0.69    0.27
   5  18  -1    0.37    0.25
   5  18  -1    0.40    0.24
  -5 -18   1    1.05    0.20
  -5 -18   1    1.31    0.24
   6  18  -1    0.26    0.25
   6  18  -1    0.01    0.24
   6  18  -1   -0.05    0.28
  -6 -18   1    0.04    0.21
  -6 -18   1   -0.02    0.20
   7  18  -1    3.51    0.40
   7  18  -1    3.66    0.39
  -7 -18   1    3.50    0.38
  -7 -18   1    3.75    0.33
   8  18  -1    0.31    0.21
  -8 -18   1    0.62    0.17
  -9 -18   1    2.33    0.21
  -9  18   0    4.34    0.33
   9 -18   0    5.26    0.37
  -8  18   0    0.01    0.18
   8 -18   0   -0.11    0.21
  -7  18   0    2.92    0.32
   7 -18   0    3.00    0.38
  -6  18   0    0.18    0.20
   6 -18   0    0.27    0.22
  -5  18   0    0.22    0.19
   5 -18   0    0.01    0.21
  -4  18   0    0.31    0.18
   4 -18   0    0.42    0.20
  -3  18   0    9.43    0.93
  -3  18   0    9.49    0.55
   3 -18   0    9.01    0.68
  -2  18   0    0.70    0.46
  -2  18   0    0.46    0.17
  -1  18   0   11.78    0.97
  -1  18   0    9.78    0.61
  -1  18   0   10.87    0.68
   1 -18   0   10.91    0.69
   0  18   0    6.74    0.51
   0  18   0    6.93    0.80
   0  18   0    6.50    0.46
   0 -18   0    6.98    0.51
   0 -18   0    7.70    0.50
   1  18   0   10.26    0.66
   1  18   0   10.80    0.99
   1  18   0    9.98    0.61
  -1 -18   0   10.29    0.60
   2  18   0    0.81    0.56
   2  18   0    0.55    0.20
   2  18   0    0.45    0.21
  -2 -18   0    0.03    0.16
   3  18   0    8.95    0.62
   3  18   0    8.89    0.60
   3  18   0    9.15    1.19
  -3 -18   0    9.51    0.56
   4  18   0    0.41    0.23
   4  18   0    0.45    0.25
  -4 -18   0    0.59    0.18
   5  18   0    0.00    0.23
   5  18   0    0.43    0.28
  -5 -18   0    0.11    0.22
  -5 -18   0   -0.03    0.19
   6  18   0    0.06    0.25
   6  18   0   -0.19    0.26
  -6 -18   0    0.42    0.21
  -6 -18   0    0.29    0.21
  -7 -18   0    2.91    0.36
  -7 -18   0    3.50    0.33
   8  18   0    0.13    0.22
  -8 -18   0    0.14    0.17
  -8 -18   0   -0.02    0.24
   9  18   0    4.59    0.37
  -9 -18   0    4.42    0.29
  -9  18   1    3.50    0.26
   9 -18  -1    2.78    0.32
  -8  18   1    0.57    0.18
   8 -18  -1    0.64    0.22
  -7  18   1    3.24    0.33
   7 -18  -1    3.55    0.39
  -6  18   1    0.35    0.20
   6 -18  -1    0.03    0.22
  -5  18   1    0.58    0.20
   5 -18  -1    1.22    0.24
  -4  18   1    1.04    0.20
   4 -18  -1    0.81    0.22
   4 -18  -1    0.76    0.26
  -3  18   1    1.86    0.22
  -3  18   1    2.03    0.56
   3 -18  -1    2.08    0.27
   3 -18  -1    2.14    0.26
  -2  18   1    4.10    0.71
  -2  18   1    3.06    0.33
   2 -18  -1    3.80    0.34
   2 -18  -1    2.52    0.40
  -1  18   1    7.75    0.92
  -1  18   1    8.23    0.53
  -1  18   1    8.46    0.59
   1 -18  -1    9.87    0.59
   0  18   1    2.07    0.24
   0  18   1    1.93    0.25
   0  18   1    1.75    0.53
   0 -18  -1    1.90    0.25
   0 -18  -1    1.57    0.23
   1  18   1    3.41    0.38
   1  18   1    2.89    0.39
   1  18   1    3.43    0.66
  -1 -18  -1    4.54    0.37
   2  18   1    0.20    0.23
   2  18   1    0.46    0.20
   2  18   1    0.49    0.61
  -2 -18  -1    0.58    0.17
   3  18   1    8.95    0.60
  -3 -18  -1    9.00    0.56
   4  18   1    0.34    0.24
  -4 -18  -1    0.85    0.20
   5  18   1    0.49    0.26
  -5 -18  -1    1.78    0.23
   6  18   1    0.05    0.25
  -6 -18  -1    0.39    0.21
  -6 -18  -1    0.39    0.22
   7  18   1    0.16    0.25
  -7 -18  -1    0.64    0.20
  -7 -18  -1    0.70    0.22
   8  18   1    0.90    0.24
  -8 -18  -1    0.39    0.24
  -8 -18  -1    0.89    0.18
   9  18   1    0.96    0.22
  -9 -18  -1    1.67    0.19
  -9  18   2    1.32    0.17
   9 -18  -2    1.27    0.21
  -8  18   2    0.26    0.18
   8 -18  -2    0.14    0.22
  -7  18   2   10.39    0.64
   7 -18  -2   11.55    0.74
   7 -18  -2   11.99    0.66
  -6  18   2    0.39    0.21
   6 -18  -2    1.08    0.28
   6 -18  -2    1.04    0.23
   6 -18  -2    1.05    0.25
   5 -18  -2    2.53    0.26
   5 -18  -2    1.99    0.29
   5 -18  -2    1.94    0.27
  -4  18   2    0.50    0.20
   4 -18  -2   -0.14    0.21
   4 -18  -2    0.17    0.23
  -3  18   2    1.53    0.61
  -3  18   2    2.86    0.34
   3 -18  -2    2.10    0.27
   3 -18  -2    2.74    0.39
  -2  18   2    0.36    0.19
  -2  18   2    0.72    0.54
   2 -18  -2    0.56    0.24
   2 -18  -2    0.45    0.22
  -1  18   2    2.63    0.35
  -1  18   2    3.17    0.35
  -1  18   2    3.71    0.63
   1 -18  -2    2.39    0.28
   0  18   2    5.49    0.43
   0  18   2    5.28    0.42
   0  18   2    5.68    0.75
   0 -18  -2    4.08    0.44
   0 -18  -2    4.26    0.42
   1  18   2    3.68    0.71
   1  18   2    3.64    0.37
  -1 -18  -2    3.44    0.37
  -1 -18  -2    3.08    0.37
   2  18   2    0.57    0.21
  -2 -18  -2    0.88    0.19
   3  18   2   26.14    1.39
  -3 -18  -2   24.08    1.32
   4  18   2   -0.01    0.24
  -4 -18  -2    0.03    0.18
   5  18   2    1.15    0.28
  -5 -18  -2    0.29    0.20
   6  18   2    0.23    0.27
  -6 -18  -2    0.49    0.22
   7  18   2    0.32    0.26
  -7 -18  -2    0.30    0.22
  -7 -18  -2    0.17    0.20
   8  18   2    0.09    0.24
  -8 -18  -2    0.02    0.17
  -8 -18  -2    0.17    0.22
   9  18   2    0.63    0.22
  -9 -18  -2    0.76    0.16
  -9  18   3    0.34    0.14
   9 -18  -3    0.50    0.18
  -8  18   3    0.76    0.18
   8 -18  -3    0.81    0.22
  -7  18   3    5.68    0.40
   7 -18  -3    5.52    0.46
   7 -18  -3    5.65    0.41
   7 -18  -3    4.84    0.46
  -6  18   3    0.41    0.21
   6 -18  -3    0.29    0.21
   6 -18  -3   -0.01    0.24
   6 -18  -3    0.17    0.24
  -5  18   3    0.95    0.22
   5 -18  -3    0.34    0.21
   5 -18  -3    0.32    0.24
   5 -18  -3    0.28    0.23
  -4  18   3    0.88    0.21
   4 -18  -3    0.24    0.21
   4 -18  -3    0.20    0.23
   4 -18  -3    0.67    0.24
  -3  18   3    6.47    0.47
   3 -18  -3    6.52    0.52
   3 -18  -3    6.11    0.56
  -2  18   3    0.29    0.21
  -2  18   3   -0.29    0.64
   2 -18  -3    0.48    0.21
   2 -18  -3    0.31    0.22
  -1  18   3    1.22    0.25
  -1  18   3    1.67    0.70
   1 -18  -3    0.80    0.22
   1 -18  -3    1.39    0.27
   0  18   3    1.44    0.25
   0 -18  -3    0.96    0.21
  -1 -18  -3    1.04    0.22
  -1 -18  -3    1.07    0.22
   2  18   3    3.38    0.41
  -2 -18  -3    3.32    0.34
   3  18   3    9.71    0.61
  -3 -18  -3    7.56    0.54
   4  18   3    0.26    0.26
  -4 -18  -3    0.71    0.20
   5  18   3    0.40    0.28
  -5 -18  -3    0.58    0.21
   6  18   3    0.03    0.28
  -6 -18  -3   -0.24    0.20
   7  18   3    1.38    0.30
  -7 -18  -3    2.28    0.26
   8  18   3    0.59    0.25
  -8 -18  -3    0.78    0.19
  -8 -18  -3    0.43    0.23
   9  18   3    0.01    0.23
  -8  18   4    0.34    0.17
   8 -18  -4    0.48    0.21
   8 -18  -4    0.65    0.20
  -7  18   4    5.72    0.38
   7 -18  -4    5.13    0.44
   7 -18  -4    4.59    0.42
   7 -18  -4    4.87    0.39
  -6  18   4    0.74    0.21
   6 -18  -4    0.13    0.20
   6 -18  -4    0.29    0.24
   6 -18  -4    0.14    0.22
  -5  18   4    0.60    0.22
   5 -18  -4    0.26    0.24
   5 -18  -4    0.70    0.22
   5 -18  -4    0.65    0.23
  -4  18   4    0.15    0.22
   4 -18  -4   -0.08    0.21
   4 -18  -4    0.17    0.23
   4 -18  -4    0.37    0.22
  -3  18   4   12.06    0.76
   3 -18  -4   13.70    0.85
   3 -18  -4   13.26    0.79
  -2  18   4    1.24    0.26
   2 -18  -4    0.99    0.24
   2 -18  -4    1.35    0.24
   1 -18  -4    0.45    0.24
   1 -18  -4    0.33    0.21
   0 -18  -4    0.27    0.26
   0 -18  -4    0.34    0.20
   1  18   4    0.39    0.24
  -1 -18  -4    0.10    0.20
  -1 -18  -4    0.15    0.22
   2  18   4    1.00    0.26
  -2 -18  -4    1.45    0.23
   3  18   4    6.84    0.53
  -3 -18  -4    5.61    0.47
   4  18   4    0.09    0.27
  -4 -18  -4    0.15    0.20
   6  18   4   -0.09    0.28
  -6 -18  -4    0.19    0.21
   7  18   4    4.56    0.46
  -7 -18  -4    5.48    0.41
   8  18   4    0.54    0.26
  -8 -18  -4    0.78    0.22
  -8  18   5    1.44    0.18
   8 -18  -5    1.12    0.19
   8 -18  -5    1.13    0.20
  -7  18   5    4.10    0.33
   7 -18  -5    4.14    0.38
   7 -18  -5    4.36    0.34
   7 -18  -5    3.74    0.35
  -6  18   5    1.31    0.22
   6 -18  -5    0.47    0.21
   6 -18  -5    0.72    0.21
   6 -18  -5    0.75    0.23
  -5  18   5    2.06    0.27
   5 -18  -5    2.09    0.25
   5 -18  -5    2.32    0.28
   5 -18  -5    1.83    0.26
  -4  18   5    0.97    0.25
   4 -18  -5    0.10    0.23
   4 -18  -5    0.37    0.22
  -3  18   5   15.78    0.90
   3 -18  -5   15.02    0.97
   3 -18  -5   15.67    0.92
   2 -18  -5    0.57    0.22
   2 -18  -5    0.55    0.23
   1 -18  -5    1.53    0.25
   1 -18  -5    1.76    0.27
   0  18   5    0.78    0.27
   0 -18  -5    0.12    0.20
   0 -18  -5    0.13    0.24
   1  18   5    2.38    0.32
  -1 -18  -5    2.88    0.40
  -1 -18  -5    3.26    0.38
   2  18   5    1.62    0.29
  -2 -18  -5    1.35    0.24
  -3 -18  -5    3.44    0.37
   4  18   5    1.41    0.31
  -4 -18  -5    0.90    0.22
   5  18   5    1.68    0.33
  -5 -18  -5    1.50    0.24
   6  18   5    0.31    0.28
  -6 -18  -5    0.22    0.20
   7  18   5    6.20    0.50
  -7 -18  -5    6.26    0.43
  -8 -18  -5    0.10    0.18
  -7  18   6    0.11    0.18
   7 -18  -6    0.26    0.19
   7 -18  -6    0.28    0.17
  -6  18   6    0.41    0.22
   6 -18  -6    0.29    0.21
   6 -18  -6    0.42    0.19
  -5  18   6   -0.20    0.23
   5 -18  -6    0.30    0.22
   5 -18  -6    0.41    0.21
   4 -18  -6    0.66    0.22
   4 -18  -6    0.19    0.22
   3 -18  -6   12.76    0.83
   3 -18  -6   13.10    0.79
   2 -18  -6    0.51    0.23
   2 -18  -6    0.35    0.23
   1 -18  -6    1.16    0.25
   1 -18  -6    1.21    0.25
   0  18   6    0.24    0.28
   0 -18  -6    0.09    0.24
   0 -18  -6   -0.13    0.21
  -1 -18  -6    2.60    0.34
  -1 -18  -6    2.99    0.40
  -1 -18  -6    3.12    0.32
   2  18   6    1.48    0.30
  -2 -18  -6    1.86    0.27
   3  18   6    0.85    0.29
  -3 -18  -6    0.99    0.24
   4  18   6    1.36    0.32
  -4 -18  -6    1.31    0.23
   5  18   6    0.93    0.31
  -5 -18  -6    0.01    0.20
  -6 -18  -6    0.13    0.19
  -7 -18  -6    2.28    0.26
   7 -18  -7    0.46    0.15
   7 -18  -7    0.45    0.17
   6 -18  -7    0.94    0.18
   6 -18  -7    1.04    0.21
   5 -18  -7    0.45    0.22
   5 -18  -7    0.51    0.19
   4 -18  -7    0.17    0.20
   4 -18  -7    0.07    0.21
   3 -18  -7    2.43    0.35
   3 -18  -7    1.87    0.28
   2 -18  -7   -0.20    0.21
   2 -18  -7    0.02    0.22
  -1  18   7    1.06    0.29
   1 -18  -7    0.74    0.23
   1 -18  -7    0.97    0.24
   0  18   7    0.15    0.29
   0 -18  -7    0.06    0.24
   0 -18  -7    0.30    0.22
   1  18   7    3.02    0.43
  -1 -18  -7    2.49    0.32
  -1 -18  -7    2.92    0.40
   2  18   7    1.56    0.30
  -2 -18  -7    0.97    0.25
  -2 -18  -7    1.27    0.28
   3  18   7    3.08    0.44
  -3 -18  -7    3.35    0.37
   4  18   7    0.31    0.32
  -4 -18  -7    0.47    0.21
  -5 -18  -7    0.00    0.18
  -6 -18  -7    0.12    0.17
  -7 -18  -7    0.70    0.16
   6 -18  -8    0.12    0.14
   6 -18  -8    0.15    0.17
   5 -18  -8    1.05    0.20
   5 -18  -8    1.03    0.18
   4 -18  -8    0.37    0.19
   4 -18  -8   -0.02    0.19
   3 -18  -8    0.55    0.20
   3 -18  -8    0.30    0.21
  -2  18   8    0.13    0.27
   2 -18  -8    0.38    0.22
   2 -18  -8    0.52    0.22
  -1  18   8    0.32    0.28
   1 -18  -8    0.65    0.22
   1 -18  -8    0.61    0.24
   0  18   8    0.28    0.28
   0 -18  -8   -0.11    0.22
   0 -18  -8   -0.26    0.23
   1  18   8    0.86    0.30
  -1 -18  -8    0.42    0.26
  -1 -18  -8    1.00    0.25
   2  18   8    0.72    0.30
  -2 -18  -8    0.43    0.25
  -2 -18  -8    0.80    0.24
  -3 -18  -8    1.51    0.23
  -4 -18  -8    0.17    0.18
  -5 -18  -8    0.07    0.17
  -6 -18  -8    0.10    0.15
  -5  18   9    0.04    0.18
   5 -18  -9    0.64    0.17
   5 -18  -9    0.49    0.15
  -4  18   9    0.99    0.23
   4 -18  -9    0.94    0.19
   4 -18  -9    0.96    0.20
  -3  18   9    1.11    0.25
   3 -18  -9    1.05    0.20
   3 -18  -9    0.62    0.20
  -2  18   9    1.32    0.29
   2 -18  -9    1.69    0.24
   2 -18  -9    1.72    0.23
  -1  18   9    0.66    0.29
   1 -18  -9    0.75    0.22
   1 -18  -9    0.33    0.20
   0  18   9    0.71    0.30
   0 -18  -9    0.58    0.22
  -1 -18  -9    0.05    0.21
  -2 -18  -9    0.02    0.21
  -2 -18  -9   -0.11    0.22
  -3 -18  -9    2.09    0.27
  -3 -18  -9    1.96    0.30
  -4 -18  -9    0.28    0.17
  -5 -18  -9    0.24    0.14
   3 -18 -10    1.56    0.23
   2 -18 -10    0.41    0.17
   1 -18 -10    0.37    0.17
   0 -18 -10    0.22    0.18
  -1 -18 -10    0.56    0.18
  -2 -18 -10    1.33    0.21
  -2 -18 -10    0.85    0.25
  -3 -18 -10    4.15    0.32
  -2  19 -10    0.57    0.15
  -1  19 -10    0.54    0.15
  -1  19 -10    0.58    0.17
  -1  19 -10    0.73    0.17
   0  19 -10    0.30    0.15
   0  19 -10   -0.03    0.16
   0  19 -10    0.15    0.15
   1  19 -10    0.51    0.15
   1  19 -10    0.35    0.16
   1  19 -10    0.56    0.15
  -1 -19  10    0.63    0.16
   2  19 -10    0.27    0.13
   2  19 -10    0.25    0.14
   2  19 -10    0.09    0.14
  -2 -19  10    0.08    0.15
  -4  19  -9    0.64    0.15
  -3  19  -9    0.57    0.16
  -2  19  -9    0.58    0.23
  -2  19  -9    0.31    0.16
  -1  19  -9    0.13    0.17
  -1  19  -9    0.52    0.21
  -1  19  -9    0.34    0.20
   0  19  -9    0.11    0.18
   0  19  -9    0.20    0.19
   0  19  -9    0.38    0.20
   1  19  -9    1.46    0.21
   1  19  -9    1.36    0.20
   1  19  -9    1.74    0.22
   2  19  -9    0.25    0.17
   2  19  -9    0.28    0.18
   2  19  -9    0.21    0.18
  -2 -19   9    0.80    0.19
   3  19  -9    3.55    0.29
   3  19  -9    3.25    0.27
   3  19  -9    4.14    0.35
   3  19  -9    3.57    0.28
  -3 -19   9    3.64    0.29
   4  19  -9    0.61    0.16
   4  19  -9    0.35    0.15
   4  19  -9    0.56    0.20
   4  19  -9    0.34    0.16
  -4 -19   9    0.31    0.16
  -5  19  -8    0.34    0.15
  -4  19  -8    0.79    0.18
  -3  19  -8    0.71    0.19
  -2  19  -8    0.36    0.25
  -2  19  -8    0.30    0.20
  -1  19  -8    0.73    0.24
  -1  19  -8    0.53    0.23
  -1  19  -8    0.45    0.20
   0  19  -8    0.01    0.22
   0  19  -8   -0.05    0.20
   0  19  -8    0.04    0.22
   1  19  -8   -0.08    0.24
   1  19  -8    0.54    0.22
   1  19  -8    0.39    0.21
   1  19  -8    0.38    0.20
   2  19  -8    0.59    0.22
   2  19  -8    0.65    0.21
   2  19  -8    0.30    0.24
   2  19  -8    0.23    0.20
   3  19  -8    1.22    0.22
   3  19  -8    0.93    0.21
   3  19  -8    0.93    0.21
   3  19  -8    1.08    0.24
   4  19  -8    0.30    0.19
   4  19  -8    0.21    0.21
   4  19  -8    0.18    0.19
   4  19  -8    0.39    0.18
  -4 -19   8    0.05    0.18
   5  19  -8    0.13    0.17
   5  19  -8    0.60    0.18
   5  19  -8    0.58    0.17
  -5 -19   8    0.23    0.18
  -6  19  -7    0.73    0.15
  -5  19  -7    0.42    0.17
  -4  19  -7    0.31    0.19
  -3  19  -7    5.21    0.38
  -2  19  -7    0.25    0.27
  -2  19  -7    0.15    0.21
  -1  19  -7    0.78    0.27
  -1  19  -7    0.57    0.23
  -1  19  -7    0.77    0.26
   0  19  -7    0.93    0.25
   0  19  -7    0.50    0.26
   0  19  -7    1.00    0.25
   0  19  -7    1.14    0.23
   1  19  -7    0.15    0.23
   1  19  -7    0.35    0.24
   1  19  -7    0.12    0.22
   1  19  -7   -0.06    0.23
   2  19  -7    0.53    0.24
   2  19  -7    0.28    0.23
   2  19  -7    0.81    0.23
   2  19  -7    0.21    0.22
   3  19  -7    0.34    0.22
   3  19  -7    0.51    0.22
   3  19  -7    0.53    0.24
   3  19  -7    0.55    0.22
  -3 -19   7    1.20    0.23
   4  19  -7    0.45    0.22
   4  19  -7    0.24    0.22
   4  19  -7    0.40    0.22
   4  19  -7    0.18    0.23
  -4 -19   7    0.71    0.21
   5  19  -7    0.72    0.21
   5  19  -7    1.02    0.21
   5  19  -7    0.97    0.21
  -5 -19   7    0.70    0.21
   6  19  -7    0.46    0.19
   6  19  -7    0.42    0.17
   6  19  -7    0.29    0.17
  -6 -19   7    0.06    0.20
  -7  19  -6    1.53    0.19
   7 -19   6    1.61    0.27
  -6  19  -6    0.40    0.17
   6 -19   6    0.53    0.32
  -5  19  -6    1.78    0.23
  -4  19  -6    0.06    0.19
  -3  19  -6    5.59    0.41
  -2  19  -6    0.04    0.21
  -2  19  -6   -0.34    0.27
  -2  19  -6    0.10    0.24
  -1  19  -6    1.42    0.25
  -1  19  -6    1.44    0.24
  -1  19  -6    1.24    0.28
   0  19  -6    0.56    0.25
   0  19  -6    0.82    0.23
   0  19  -6    0.95    0.23
   1  19  -6    1.08    0.24
   1  19  -6    1.10    0.27
   1  19  -6    0.80    0.24
   1  19  -6    1.12    0.25
   2  19  -6    1.22    0.24
   2  19  -6    2.08    0.28
   2  19  -6    1.18    0.26
   2  19  -6    1.50    0.26
   3  19  -6    1.13    0.25
   3  19  -6    1.00    0.23
   3  19  -6    1.10    0.26
   3  19  -6    1.14    0.25
  -3 -19   6    0.92    0.24
   4  19  -6    1.78    0.27
   4  19  -6    1.73    0.27
   4  19  -6    1.65    0.25
   4  19  -6    1.98    0.27
  -4 -19   6    1.13    0.24
   5  19  -6    0.48    0.21
   5  19  -6    0.18    0.22
   5  19  -6    0.30    0.22
   6  19  -6    0.24    0.22
   6  19  -6    0.32    0.19
   6  19  -6    0.32    0.19
  -6 -19   6    0.32    0.21
   7  19  -6    1.58    0.23
   7  19  -6    1.91    0.27
   7  19  -6    1.88    0.22
  -7 -19   6    2.53    0.20
  -8  19  -5    0.77    0.15
   8 -19   5    0.88    0.21
  -7  19  -5    0.56    0.16
   7 -19   5    0.33    0.25
  -6  19  -5    0.61    0.19
   6 -19   5    0.67    0.29
  -5  19  -5    2.35    0.29
  -4  19  -5    1.28    0.26
  -4  19  -5    1.54    0.23
  -3  19  -5   10.86    0.63
  -3  19  -5   11.03    0.66
  -2  19  -5    1.13    0.23
  -2  19  -5    1.07    0.22
  -1  19  -5    1.68    0.29
  -1  19  -5    2.03    0.25
  -1  19  -5    1.39    0.24
   0  19  -5    2.00    0.28
   0  19  -5    1.61    0.26
   0  19  -5    2.24    0.25
   1  19  -5    1.17    0.24
   1  19  -5    1.28    0.25
   1  19  -5    0.88    0.22
   2  19  -5    1.72    0.26
   2  19  -5    1.58    0.29
   2  19  -5    1.62    0.28
   2  19  -5    1.61    0.26
   3  19  -5    3.87    0.40
   3  19  -5    3.22    0.38
   3  19  -5    3.20    0.42
   3  19  -5    3.59    0.42
  -3 -19   5    2.96    0.37
   4  19  -5    3.08    0.40
   4  19  -5    2.74    0.36
   4  19  -5    2.81    0.40
   4  19  -5    3.14    0.37
  -4 -19   5    2.52    0.34
   5  19  -5    0.16    0.22
   5  19  -5    0.69    0.26
   5  19  -5    0.69    0.24
  -5 -19   5    1.08    0.23
   6  19  -5    0.41    0.25
   6  19  -5    0.32    0.21
   6  19  -5    0.60    0.22
  -6 -19   5    0.78    0.23
   7  19  -5    3.37    0.31
   7  19  -5    2.85    0.29
  -7 -19   5    4.08    0.27
   8  19  -5    0.59    0.16
   8  19  -5    0.37    0.15
  -8 -19   5    0.56    0.13
  -8  19  -4    0.16    0.16
   8 -19   4    0.45    0.22
  -7  19  -4    0.88    0.19
   7 -19   4    0.74    0.26
  -6  19  -4   -0.01    0.19
   6 -19   4    0.06    0.27
  -5  19  -4    0.50    0.21
  -5  19  -4    0.69    0.22
   5 -19   4    0.65    0.30
  -4  19  -4    1.79    0.24
  -4  19  -4    1.58    0.24
  -3  19  -4    5.15    0.41
  -3  19  -4    4.76    0.41
  -2  19  -4    0.15    0.22
  -2  19  -4   -0.14    0.18
  -1  19  -4    2.81    0.39
  -1  19  -4    2.91    0.44
  -1  19  -4    3.25    0.34
   0  19  -4    0.73    0.19
   0  19  -4    0.47    0.25
   0  19  -4    0.31    0.23
   1  19  -4    0.79    0.25
   1  19  -4    0.51    0.22
   1  19  -4    0.29    0.20
   2  19  -4    0.94    0.21
   2  19  -4    0.92    0.24
   2  19  -4    1.20    0.28
  -2 -19   4    0.93    0.22
   3  19  -4    6.28    0.54
   3  19  -4    6.53    0.54
   3  19  -4    6.15    0.48
   3  19  -4    6.76    0.51
  -3 -19   4    6.31    0.47
   4  19  -4    1.81    0.27
   4  19  -4    1.82    0.29
   4  19  -4    2.29    0.32
   4  19  -4    1.68    0.25
   5  19  -4   -0.23    0.22
   5  19  -4    0.18    0.24
   5  19  -4    0.16    0.29
  -5 -19   4    0.17    0.22
   6  19  -4    0.00    0.22
   6  19  -4    0.24    0.26
   6  19  -4    0.21    0.23
  -6 -19   4    0.05    0.22
   7  19  -4    1.17    0.26
   7  19  -4    1.35    0.22
   7  19  -4    1.17    0.22
  -7 -19   4    1.39    0.25
  -7 -19   4    1.34    0.19
   8  19  -4   -0.03    0.18
   8  19  -4   -0.26    0.18
   8  19  -4    0.11    0.17
  -8 -19   4   -0.10    0.13
  -8  19  -3    0.24    0.18
   8 -19   3    0.07    0.21
  -7  19  -3    3.56    0.33
  -7  19  -3    3.25    0.34
   7 -19   3    3.65    0.39
  -6  19  -3    0.65    0.22
  -6  19  -3    0.63    0.21
   6 -19   3    0.09    0.26
  -5  19  -3    0.22    0.20
  -5  19  -3   -0.11    0.21
   5 -19   3    0.17    0.27
  -4  19  -3    0.72    0.20
  -4  19  -3    0.80    0.23
  -3  19  -3    1.56    0.25
  -3  19  -3    1.31    0.21
  -2  19  -3    0.34    0.17
  -2  19  -3    0.66    0.24
  -1  19  -3    3.01    0.32
  -1  19  -3    2.68    0.33
  -1  19  -3    3.02    0.41
   0  19  -3    0.22    0.17
   0  19  -3    1.16    0.63
   0  19  -3    0.26    0.23
   0 -19   3    0.10    0.21
   1  19  -3    0.16    0.22
   1  19  -3    0.48    0.18
   2  19  -3    0.43    0.19
   2  19  -3    0.25    0.22
  -2 -19   3    0.69    0.20
   3  19  -3    6.55    0.49
   3  19  -3    7.11    0.50
  -3 -19   3    6.35    0.46
   4  19  -3    0.30    0.21
   4  19  -3    0.46    0.28
   4  19  -3    0.76    0.27
  -4 -19   3    0.15    0.21
   5  19  -3    0.03    0.24
   5  19  -3    0.06    0.22
   5  19  -3    0.09    0.27
  -5 -19   3    0.35    0.21
   6  19  -3    0.09    0.23
   6  19  -3    0.09    0.25
   6  19  -3    0.10    0.24
  -6 -19   3    0.02    0.20
  -6 -19   3   -0.02    0.21
   7  19  -3    0.37    0.23
   7  19  -3    0.19    0.22
   7  19  -3    0.41    0.24
  -7 -19   3    0.73    0.18
  -7 -19   3    0.56    0.23
   8  19  -3    0.08    0.20
   8  19  -3   -0.19    0.22
   8  19  -3    0.61    0.19
  -8 -19   3    0.41    0.15
   9 -19   2    2.05    0.25
  -8  19  -2   -0.08    0.19
  -8  19  -2    0.35    0.20
   8 -19   2   -0.08    0.21
  -7  19  -2    3.72    0.35
  -7  19  -2    3.70    0.32
   7 -19   2    3.51    0.40
  -6  19  -2    0.66    0.24
  -6  19  -2    0.83    0.20
   6 -19   2    0.69    0.26
  -5  19  -2    0.59    0.25
  -5  19  -2    0.81    0.20
  -4  19  -2    1.18    0.27
  -4  19  -2    1.47    0.22
   4 -19   2    2.10    0.31
  -3  19  -2    0.50    0.18
  -2  19  -2    0.71    0.18
  -2  19  -2    0.48    0.61
  -1  19  -2    4.85    0.77
  -1  19  -2    4.20    0.35
  -1  19  -2    3.62    0.49
   0  19  -2    0.21    0.51
   0  19  -2    0.02    0.23
   0  19  -2    0.11    0.16
   0 -19   2    0.62    0.22
   1  19  -2   -0.09    0.16
   1  19  -2    0.29    0.52
   1  19  -2    0.09    0.20
   2  19  -2    2.38    0.25
   2  19  -2    2.11    0.25
   2  19  -2    2.52    0.32
   2  19  -2    2.10    0.66
  -2 -19   2    2.19    0.24
   3  19  -2   14.21    0.80
   3  19  -2   13.42    0.77
   3  19  -2   13.25    0.85
  -3 -19   2   13.54    0.77
   4  19  -2    0.77    0.22
   4  19  -2    0.84    0.28
   4  19  -2    0.77    0.26
  -4 -19   2    0.72    0.20
   5  19  -2    0.20    0.24
   5  19  -2    0.41    0.24
   5  19  -2    0.61    0.27
  -5 -19   2    1.04    0.22
   6  19  -2    0.62    0.26
   6  19  -2    0.63    0.27
   6  19  -2    0.71    0.26
  -6 -19   2    0.47    0.21
  -6 -19   2    0.49    0.21
   7  19  -2    1.49    0.28
   7  19  -2    1.51    0.26
   7  19  -2    1.53    0.25
  -7 -19   2    1.06    0.20
  -7 -19   2    1.44    0.24
   8  19  -2    0.41    0.21
  -8 -19   2    0.47    0.16
   9  19  -2    0.62    0.17
  -9 -19   2    0.82    0.13
  -9  19  -1    1.44    0.24
   9 -19   1    2.20    0.25
  -8  19  -1    0.87    0.18
   8 -19   1    0.58    0.23
  -7  19  -1   12.46    0.69
   7 -19   1   12.70    0.79
  -6  19  -1    0.40    0.19
   6 -19   1    0.31    0.23
  -5  19  -1    1.72    0.22
   5 -19   1    0.98    0.26
  -4  19  -1    0.30    0.18
   4 -19   1    0.00    0.24
  -3  19  -1    4.75    0.37
  -2  19  -1    0.61    0.18
  -1  19  -1    3.16    0.32
  -1  19  -1    3.58    0.60
   0  19  -1    3.73    0.64
   0  19  -1    2.81    0.31
   0  19  -1    2.76    0.42
   0 -19   1    3.16    0.34
   1  19  -1    1.50    0.27
   1  19  -1    1.19    0.24
   1  19  -1    1.32    0.20
   1  19  -1    1.24    0.57
   2  19  -1    1.22    0.63
   2  19  -1    0.41    0.20
   2  19  -1    0.53    0.25
  -2 -19   1    0.59    0.18
   3  19  -1   24.11    1.27
   3  19  -1   24.36    1.36
  -3 -19   1   24.31    1.28
   4  19  -1   -0.16    0.23
   4  19  -1    0.10    0.22
  -4 -19   1    0.24    0.19
   5  19  -1    1.07    0.27
   5  19  -1    1.27    0.26
   5  19  -1    0.98    0.29
  -5 -19   1    1.67    0.25
  -5 -19   1    1.26    0.22
   6  19  -1    1.33    0.31
   6  19  -1    1.08    0.27
   6  19  -1    2.07    0.29
  -6 -19   1    1.37    0.24
  -6 -19   1    1.59    0.22
   7  19  -1    2.59    0.36
  -7 -19   1    2.19    0.28
  -7 -19   1    2.42    0.33
   8  19  -1    0.35    0.20
  -8 -19   1    0.62    0.16
  -8 -19   1    0.65    0.26
   9  19  -1    0.13    0.17
  -9 -19   1   -0.09    0.13
  -9  19   0    1.15    0.17
   9 -19   0    1.16    0.20
  -8  19   0    0.01    0.17
   8 -19   0    0.32    0.20
  -7  19   0    9.44    0.56
   7 -19   0    9.65    0.64
  -6  19   0    3.71    0.35
   6 -19   0    3.79    0.42
  -5  19   0    2.88    0.31
   5 -19   0    2.78    0.42
  -4  19   0    0.85    0.19
   4 -19   0    1.02    0.23
  -3  19   0   16.32    0.86
   3 -19   0   15.13    1.00
  -2  19   0    3.20    0.33
  -2  19   0    2.54    0.59
  -1  19   0    1.21    0.20
  -1  19   0    1.61    0.27
  -1  19   0    0.99    0.53
   1 -19   0    0.81    0.24
   0  19   0   -0.04    0.23
   0  19   0   -0.24    0.17
   0  19   0   -0.23    0.50
   0 -19   0   -0.08    0.19
   1  19   0    0.75    0.61
   1  19   0    1.13    0.23
  -1 -19   0    0.70    0.19
   2  19   0    3.64    0.77
   2  19   0    3.76    0.39
   2  19   0    4.23    0.40
  -2 -19   0    3.48    0.36
   3  19   0   15.21    1.56
   3  19   0   15.44    0.89
   3  19   0   16.65    0.93
  -3 -19   0   15.92    0.87
   4  19   0    0.96    0.26
   4  19   0    1.26    0.27
  -4 -19   0    1.03    0.20
   5  19   0    3.23    0.41
  -5 -19   0    2.53    0.34
   6  19   0    3.63    0.42
  -6 -19   0    3.60    0.38
  -6 -19   0    3.70    0.35
   7  19   0    9.58    0.64
  -7 -19   0    9.81    0.56
  -7 -19   0   10.19    0.60
   8  19   0    0.06    0.20
  -8 -19   0    0.12    0.16
  -8 -19   0    0.03    0.23
   9  19   0    1.24    0.20
  -9 -19   0    0.66    0.14
  -9  19   1   -0.09    0.14
   9 -19  -1    0.44    0.17
  -8  19   1    0.06    0.17
   8 -19  -1    0.72    0.22
  -7  19   1    2.08    0.29
   7 -19  -1    2.50    0.35
  -6  19   1    1.53    0.23
   6 -19  -1    1.59    0.27
  -5  19   1    1.25    0.22
   5 -19  -1    1.10    0.25
  -4  19   1    0.06    0.19
   4 -19  -1    0.18    0.27
   4 -19  -1    0.26    0.22
  -3  19   1   24.62    1.20
   3 -19  -1   22.36    1.29
   3 -19  -1   21.40    1.35
  -2  19   1    0.78    0.26
  -2  19   1    0.37    0.57
  -2  19   1    0.67    0.20
   2 -19  -1    0.52    0.24
  -1  19   1    1.44    0.22
  -1  19   1    1.45    0.27
  -1  19   1    2.17    0.59
   0  19   1    2.70    0.35
   0  19   1    2.13    0.63
   0  19   1    2.43    0.35
   0 -19  -1    2.62    0.35
   0 -19  -1    2.61    0.38
   1  19   1    2.05    0.72
   1  19   1    3.53    0.39
   1  19   1    2.81    0.37
  -1 -19  -1    2.99    0.36
   2  19   1    0.92    0.24
   2  19   1    0.79    0.22
   2  19   1    0.79    0.76
  -2 -19  -1    0.36    0.18
   3  19   1    5.22    0.45
  -3 -19  -1    4.68    0.40
   4  19   1    0.15    0.24
  -4 -19  -1    0.33    0.19
   5  19   1    1.44    0.28
  -5 -19  -1    1.05    0.22
   6  19   1    0.17    0.25
  -6 -19  -1    0.15    0.20
   7  19   1   12.68    0.78
  -7 -19  -1   13.57    0.75
  -7 -19  -1   12.76    0.70
   8  19   1    0.82    0.23
  -8 -19  -1    0.55    0.18
  -8 -19  -1    0.70    0.23
   9  19   1    1.24    0.22
  -9 -19  -1    1.51    0.19
  -9  19   2    0.76    0.15
   9 -19  -2    0.95    0.18
  -8  19   2    0.41    0.17
   8 -19  -2    0.12    0.20
  -7  19   2    1.34    0.21
   7 -19  -2    1.56    0.26
   6 -19  -2    0.32    0.24
   6 -19  -2    0.50    0.28
  -5  19   2    0.65    0.21
   5 -19  -2    0.99    0.25
   5 -19  -2    0.54    0.27
  -4  19   2    0.89    0.21
   4 -19  -2    0.61    0.24
   4 -19  -2    0.67    0.24
  -3  19   2   13.12    0.75
   3 -19  -2   13.53    0.83
   3 -19  -2   13.58    0.87
  -2  19   2    3.18    0.69
  -2  19   2    2.99    0.35
   2 -19  -2    2.22    0.28
   2 -19  -2    2.11    0.31
  -1  19   2    0.71    0.65
  -1  19   2    0.27    0.23
  -1  19   2    0.15    0.20
   0  19   2   -0.07    0.66
   0  19   2   -0.17    0.23
   0  19   2   -0.04    0.21
   0 -19  -2    0.47    0.26
   0 -19  -2    0.57    0.19
   1  19   2    4.38    0.43
  -1 -19  -2    4.65    0.40
   2  19   2    0.58    0.21
  -2 -19  -2    0.66    0.19
   3  19   2    0.55    0.23
  -3 -19  -2    0.86    0.20
   4  19   2    1.76    0.29
  -4 -19  -2    2.05    0.24
   5  19   2    0.83    0.28
  -5 -19  -2    0.10    0.20
   6  19   2    0.95    0.27
  -6 -19  -2    0.21    0.21
   7  19   2    3.78    0.39
  -7 -19  -2    2.75    0.35
   8  19   2    0.01    0.22
  -8 -19  -2    0.31    0.18
  -8 -19  -2   -0.02    0.21
   9  19   2    2.67    0.29
  -8  19   3    0.13    0.16
   8 -19  -3    0.11    0.19
  -7  19   3    0.75    0.20
   7 -19  -3    0.48    0.23
   7 -19  -3    0.47    0.24
  -6  19   3   -0.17    0.21
   6 -19  -3   -0.05    0.24
   6 -19  -3    0.04    0.23
  -5  19   3    0.34    0.21
   5 -19  -3    0.44    0.24
   5 -19  -3    0.44    0.25
  -4  19   3    0.84    0.22
   4 -19  -3   -0.11    0.23
   4 -19  -3    0.35    0.23
  -3  19   3    6.57    0.48
   3 -19  -3    7.36    0.54
   3 -19  -3    6.48    0.59
  -2  19   3    0.72    0.23
   2 -19  -3    0.27    0.22
   2 -19  -3    0.61    0.24
  -1  19   3    0.64    0.25
   1 -19  -3    1.21    0.23
   1 -19  -3    1.63    0.29
   0  19   3    0.40    0.23
   0 -19  -3    0.13    0.20
   1  19   3    2.68    0.37
  -1 -19  -3    1.55    0.25
  -1 -19  -3    1.95    0.24
   2  19   3    0.06    0.22
  -2 -19  -3   -0.13    0.18
   3  19   3    1.51    0.27
  -3 -19  -3    0.96    0.21
   4  19   3    0.72    0.27
  -4 -19  -3    1.19    0.22
   5  19   3   -0.04    0.27
  -5 -19  -3   -0.06    0.20
   6  19   3    0.55    0.27
  -6 -19  -3    0.06    0.21
   7  19   3    2.99    0.38
  -7 -19  -3    3.10    0.33
   8  19   3   -0.01    0.22
  -8 -19  -3    0.05    0.20
  -8  19   4   -0.04    0.15
   8 -19  -4    0.02    0.20
   8 -19  -4    0.16    0.17
  -7  19   4    1.52    0.21
   7 -19  -4    1.43    0.23
   7 -19  -4    1.38    0.24
  -6  19   4   -0.06    0.20
   6 -19  -4    0.07    0.22
   6 -19  -4    0.20    0.22
  -5  19   4    0.15    0.22
   5 -19  -4    0.30    0.23
   5 -19  -4    0.11    0.23
   4 -19  -4    1.08    0.24
   4 -19  -4    1.06    0.25
  -3  19   4    6.45    0.49
   3 -19  -4    6.40    0.52
   3 -19  -4    6.35    0.56
  -2  19   4    1.44    0.27
   2 -19  -4    0.91    0.24
   2 -19  -4    0.78    0.25
   1 -19  -4    2.08    0.29
   1 -19  -4    1.61    0.25
   0  19   4    0.51    0.25
   0 -19  -4    0.43    0.21
   1  19   4    3.37    0.39
  -1 -19  -4    3.15    0.40
  -1 -19  -4    2.87    0.38
   2  19   4    0.25    0.24
  -2 -19  -4    0.19    0.21
   3  19   4    5.50    0.51
  -3 -19  -4    5.92    0.46
   4  19   4    1.77    0.31
   5  19   4    0.49    0.29
  -5 -19  -4    0.50    0.22
   6  19   4    0.21    0.27
  -6 -19  -4    0.10    0.20
   7  19   4    0.43    0.26
  -7 -19  -4    0.69    0.20
   8  19   4    0.00    0.24
  -8 -19  -4    0.38    0.20
  -8  19   5    0.49    0.15
   8 -19  -5    0.61    0.17
   8 -19  -5    0.47    0.17
  -7  19   5    3.03    0.31
   7 -19  -5    4.56    0.36
   7 -19  -5    3.94    0.33
  -6  19   5    0.52    0.21
   6 -19  -5    0.75    0.22
   6 -19  -5    0.83    0.21
  -5  19   5    0.55    0.23
   5 -19  -5    1.24    0.25
   5 -19  -5    0.90    0.22
  -4  19   5    3.19    0.37
   4 -19  -5    1.90    0.27
   4 -19  -5    2.24    0.28
   3 -19  -5    3.17    0.37
   3 -19  -5    2.30    0.30
   2 -19  -5    0.59    0.23
   2 -19  -5    0.40    0.23
   1 -19  -5    0.28    0.22
   1 -19  -5    0.06    0.24
   0  19   5    2.07    0.30
   0 -19  -5    1.42    0.25
   0 -19  -5    1.30    0.29
   1  19   5    2.35    0.33
  -1 -19  -5    3.04    0.41
  -1 -19  -5    3.68    0.40
   2  19   5    1.25    0.28
  -2 -19  -5    1.06    0.24
   3  19   5   11.29    0.78
  -3 -19  -5   13.17    0.73
   4  19   5    1.93    0.32
  -4 -19  -5    2.21    0.33
   5  19   5    2.85    0.42
  -5 -19  -5    2.39    0.33
   6  19   5    0.94    0.28
  -6 -19  -5    0.70    0.20
   7  19   5    0.45    0.28
  -7 -19  -5    0.85    0.19
  -8 -19  -5    0.57    0.18
  -7  19   6    1.84    0.26
   7 -19  -6    2.99    0.27
   7 -19  -6    2.40    0.24
  -6  19   6    0.14    0.20
   6 -19  -6    0.41    0.18
   6 -19  -6    0.25    0.19
  -5  19   6    0.61    0.24
   5 -19  -6    1.44    0.22
   5 -19  -6    1.24    0.23
   4 -19  -6    1.17    0.23
   4 -19  -6    1.16    0.23
   3 -19  -6    0.98    0.23
   2 -19  -6    0.98    0.24
   2 -19  -6    1.29    0.26
   1 -19  -6    0.84    0.25
   1 -19  -6    0.58    0.23
   0  19   6    1.05    0.29
   0 -19  -6    1.56    0.28
   0 -19  -6    1.17    0.24
   1  19   6    1.33    0.29
  -1 -19  -6    0.08    0.28
  -1 -19  -6    0.16    0.26
   2  19   6    0.33    0.27
  -2 -19  -6   -0.29    0.22
   3  19   6    5.86    0.51
  -3 -19  -6    5.66    0.45
   4  19   6   -0.14    0.29
  -4 -19  -6    0.01    0.20
   5  19   6    1.93    0.32
  -5 -19  -6    1.21    0.22
  -6 -19  -6    0.33    0.19
  -7 -19  -6    1.45    0.21
   6 -19  -7    0.24    0.16
   6 -19  -7    0.24    0.18
   5 -19  -7    0.46    0.19
   5 -19  -7    0.30    0.20
   4 -19  -7    0.41    0.21
   4 -19  -7    0.53    0.20
   3 -19  -7    0.83    0.22
   3 -19  -7    0.73    0.23
  -2  19   7    0.45    0.27
   2 -19  -7    0.17    0.21
   2 -19  -7   -0.15    0.22
  -1  19   7    0.02    0.27
   1 -19  -7    0.18    0.24
   1 -19  -7    0.28    0.21
   0  19   7    1.08    0.29
   0 -19  -7    0.56    0.25
   0 -19  -7    0.70    0.23
   1  19   7    0.93    0.28
  -1 -19  -7    0.25    0.26
  -1 -19  -7   -0.08    0.25
   2  19   7    0.45    0.28
  -2 -19  -7    0.11    0.23
   3  19   7    5.45    0.48
  -3 -19  -7    4.69    0.41
   4  19   7    0.42    0.30
  -4 -19  -7    0.33    0.20
  -5 -19  -7    0.51    0.18
  -6 -19  -7    0.79    0.17
   5 -19  -8    0.56    0.18
   5 -19  -8    0.38    0.16
  -4  19   8    0.34    0.22
   4 -19  -8    0.32    0.18
   4 -19  -8    0.13    0.20
  -3  19   8    1.12    0.26
   3 -19  -8    1.32    0.22
   3 -19  -8    1.45    0.23
  -2  19   8    0.87    0.26
   2 -19  -8    0.25    0.20
   2 -19  -8    0.05    0.22
  -1  19   8    0.26    0.26
   1 -19  -8    0.26    0.20
   1 -19  -8    0.61    0.23
   0  19   8    0.07    0.27
   0 -19  -8    0.24    0.22
   1  19   8    0.50    0.28
  -1 -19  -8    0.37    0.23
   2  19   8    0.26    0.29
  -2 -19  -8    0.00    0.22
  -2 -19  -8    0.15    0.25
  -3 -19  -8    0.71    0.21
  -4 -19  -8    1.64    0.25
  -5 -19  -8    0.61    0.17
   4 -19  -9    0.40    0.15
   4 -19  -9    0.42    0.17
  -3  19   9    3.83    0.34
   3 -19  -9    3.87    0.31
   3 -19  -9    3.99    0.34
  -2  19   9    0.03    0.24
   2 -19  -9    0.07    0.19
   2 -19  -9    0.55    0.19
  -1  19   9    2.25    0.34
   1 -19  -9    1.57    0.24
   0  19   9    0.53    0.27
   0 -19  -9    0.47    0.20
  -1 -19  -9    0.17    0.20
  -2 -19  -9   -0.25    0.22
  -2 -19  -9    0.28    0.22
  -3 -19  -9    0.17    0.19
  -4 -19  -9    0.65    0.17
   2 -19 -10    0.17    0.15
   1 -19 -10    0.33    0.14
   0 -19 -10    0.05    0.16
  -1 -19 -10    0.75    0.18
  -3  20  -9    0.84    0.15
  -2  20  -9    0.43    0.22
  -2  20  -9    0.12    0.15
   2 -20   9    0.99    0.23
  -1  20  -9    0.68    0.20
  -1  20  -9    0.32    0.16
   0  20  -9    0.52    0.19
   0  20  -9    0.11    0.19
   0  20  -9    0.18    0.16
   0 -20   9    0.45    0.20
   1  20  -9    0.85    0.18
   1  20  -9    0.68    0.19
   1  20  -9    0.69    0.17
  -1 -20   9    0.82    0.19
   2  20  -9    1.48    0.20
   2  20  -9    1.54    0.22
   2  20  -9    1.36    0.18
  -2 -20   9    1.94    0.22
   3  20  -9    0.62    0.17
   3  20  -9    0.69    0.22
   3  20  -9    0.52    0.15
   3  20  -9    0.43    0.15
  -3 -20   9    0.67    0.15
  -5  20  -8    0.25    0.13
  -4  20  -8    0.37    0.16
  -3  20  -8    3.13    0.27
  -2  20  -8    0.48    0.18
  -2  20  -8    0.80    0.25
  -1  20  -8    0.80    0.19
  -1  20  -8    1.37    0.24
   0  20  -8    0.16    0.22
   0  20  -8    0.29    0.21
   0  20  -8   -0.01    0.19
   1  20  -8    1.00    0.21
   1  20  -8    0.30    0.24
   1  20  -8    0.68    0.20
   1  20  -8    0.65    0.23
  -1 -20   8    0.79    0.22
   2  20  -8   -0.11    0.22
   2  20  -8   -0.01    0.19
   2  20  -8    0.21    0.21
   2  20  -8    0.34    0.20
   3  20  -8    0.77    0.21
   3  20  -8    0.28    0.21
   3  20  -8    0.07    0.19
   3  20  -8    0.46    0.19
  -3 -20   8    0.48    0.19
   4  20  -8    0.52    0.18
   4  20  -8    0.43    0.19
   4  20  -8    0.47    0.17
   4  20  -8    0.47    0.18
  -4 -20   8    0.03    0.16
   5  20  -8    0.24    0.16
   5  20  -8    0.25    0.16
  -5 -20   8    0.36    0.16
  -6  20  -7    0.25    0.14
  -5  20  -7    0.15    0.15
  -4  20  -7    2.34    0.26
  -3  20  -7    2.54    0.28
  -2  20  -7    1.17    0.22
  -2  20  -7    1.00    0.28
  -1  20  -7    2.95    0.37
  -1  20  -7    2.25    0.31
  -1  20  -7    2.96    0.37
   0  20  -7    0.22    0.23
   0  20  -7    0.18    0.21
   0  20  -7    0.55    0.24
   1  20  -7    0.98    0.24
   1  20  -7    1.02    0.26
   1  20  -7    1.49    0.24
   1  20  -7    1.21    0.23
   2  20  -7    0.04    0.23
   2  20  -7    0.30    0.22
   2  20  -7   -0.04    0.21
   2  20  -7    0.18    0.22
  -2 -20   7    0.47    0.22
   3  20  -7    0.72    0.24
   3  20  -7    0.58    0.22
   3  20  -7    0.68    0.22
   3  20  -7    0.62    0.22
  -3 -20   7    0.68    0.21
   4  20  -7    1.70    0.23
   4  20  -7    1.82    0.24
   4  20  -7    1.63    0.23
   4  20  -7    1.71    0.23
   5  20  -7    0.06    0.18
   5  20  -7    0.14    0.17
   5  20  -7    0.17    0.18
  -5 -20   7    0.21    0.18
   6  20  -7    0.28    0.15
   6  20  -7    0.37    0.15
   6  20  -7    0.40    0.19
  -6 -20   7    0.83    0.19
  -7  20  -6    2.98    0.22
  -6  20  -6    1.30    0.18
  -5  20  -6    0.63    0.18
  -4  20  -6    1.45    0.22
  -3  20  -6    1.00    0.22
  -3  20  -6    1.01    0.25
  -2  20  -6    1.66    0.25
  -2  20  -6    2.14    0.32
  -2  20  -6    2.14    0.27
  -1  20  -6    1.18    0.25
  -1  20  -6    1.12    0.24
  -1  20  -6    0.73    0.27
   0  20  -6    1.77    0.27
   0  20  -6    1.46    0.25
   0  20  -6    1.36    0.25
   1  20  -6    4.52    0.46
   1  20  -6    4.88    0.41
   1  20  -6    4.50    0.40
   1  20  -6    4.35    0.42
   2  20  -6    0.61    0.26
   2  20  -6    0.45    0.22
   2  20  -6    0.57    0.24
   2  20  -6    0.24    0.24
  -2 -20   6    1.01    0.24
   3  20  -6    6.61    0.50
   3  20  -6    7.00    0.51
   3  20  -6    7.39    0.52
   3  20  -6    7.23    0.50
  -3 -20   6    8.49    0.50
   4  20  -6    3.16    0.34
   4  20  -6    2.51    0.35
   4  20  -6    3.34    0.35
   4  20  -6    2.58    0.34
  -4 -20   6    2.56    0.31
   5  20  -6    0.60    0.21
   5  20  -6    0.50    0.20
   5  20  -6    0.23    0.22
  -5 -20   6    0.95    0.21
   6  20  -6    0.83    0.18
   6  20  -6    0.55    0.18
   6  20  -6    0.83    0.22
  -6 -20   6    0.45    0.19
   7  20  -6    0.00    0.14
   7  20  -6    0.36    0.15
  -7 -20   6    0.09    0.12
  -7  20  -5    4.84    0.31
   7 -20   5    4.98    0.42
  -6  20  -5    2.04    0.25
   6 -20   5    1.58    0.32
  -5  20  -5    2.68    0.30
  -4  20  -5    0.57    0.23
  -4  20  -5    0.11    0.20
  -3  20  -5    0.77    0.21
  -3  20  -5    0.51    0.22
  -2  20  -5    1.47    0.23
  -2  20  -5    1.35    0.24
  -1  20  -5    1.87    0.25
  -1  20  -5    1.71    0.26
  -1  20  -5    1.26    0.29
   0  20  -5    1.32    0.27
   0  20  -5    1.47    0.23
   0  20  -5    1.74    0.26
   1  20  -5    0.26    0.24
   1  20  -5    0.48    0.24
   1  20  -5    0.61    0.22
   2  20  -5    0.14    0.28
   2  20  -5    0.28    0.22
   2  20  -5    0.54    0.24
   2  20  -5    0.46    0.26
  -2 -20   5    0.87    0.22
   3  20  -5    6.64    0.51
   3  20  -5    6.49    0.49
   3  20  -5    6.59    0.48
   3  20  -5    6.66    0.50
   4  20  -5    4.62    0.41
   4  20  -5    4.06    0.38
   4  20  -5    3.54    0.41
   4  20  -5    3.54    0.40
  -4 -20   5    3.45    0.35
   5  20  -5    2.85    0.34
   5  20  -5    2.52    0.30
   5  20  -5    3.10    0.35
  -5 -20   5    3.17    0.31
   6  20  -5    1.53    0.23
   6  20  -5    1.76    0.23
  -6 -20   5    1.35    0.22
   7  20  -5    2.06    0.24
   7  20  -5    2.09    0.23
  -7 -20   5    1.31    0.19
  -8  20  -4    0.92    0.16
   8 -20   4    0.54    0.20
  -7  20  -4    4.63    0.34
   7 -20   4    5.97    0.44
  -6  20  -4    1.76    0.23
   6 -20   4    1.86    0.31
  -5  20  -4    2.27    0.31
  -5  20  -4    2.75    0.32
   5 -20   4    1.53    0.35
  -4  20  -4   -0.05    0.20
  -4  20  -4   -0.43    0.20
  -3  20  -4    2.64    0.34
  -3  20  -4    1.91    0.25
  -2  20  -4    0.55    0.21
  -2  20  -4    0.94    0.24
  -1  20  -4    1.70    0.29
  -1  20  -4    1.75    0.23
  -1  20  -4    1.69    0.27
   1 -20   4    1.25    0.28
   0  20  -4    0.56    0.27
   0  20  -4    0.43    0.20
   0  20  -4    0.61    0.24
   0 -20   4    1.08    0.24
   1  20  -4    0.02    0.19
   1  20  -4    0.20    0.26
   1  20  -4   -0.05    0.22
  -1 -20   4    0.32    0.21
   2  20  -4    0.76    0.21
   2  20  -4    1.23    0.30
   2  20  -4    0.75    0.24
  -2 -20   4    0.60    0.22
   3  20  -4    3.38    0.40
   3  20  -4    2.79    0.37
   3  20  -4    3.52    0.46
  -3 -20   4    3.68    0.37
   4  20  -4    0.91    0.23
   4  20  -4    1.24    0.26
   4  20  -4    0.98    0.27
  -4 -20   4    1.37    0.23
   5  20  -4    1.60    0.26
   5  20  -4    1.43    0.33
   5  20  -4    1.34    0.25
   6  20  -4    0.80    0.27
   6  20  -4    0.56    0.22
   6  20  -4    0.71    0.23
  -6 -20   4    0.83    0.20
  -6 -20   4    0.79    0.21
   7  20  -4    1.90    0.27
   7  20  -4    2.79    0.33
   7  20  -4    2.53    0.29
  -7 -20   4    2.13    0.24
  -7 -20   4    2.32    0.30
   8  20  -4    0.46    0.19
   8  20  -4    0.84    0.19
  -8 -20   4    0.34    0.13
  -8  20  -3    0.28    0.18
   8 -20   3   -0.01    0.20
  -7  20  -3    3.21    0.31
  -7  20  -3    2.35    0.27
   7 -20   3    2.48    0.35
  -6  20  -3    0.64    0.21
  -6  20  -3    0.19    0.21
   6 -20   3    1.14    0.29
  -5  20  -3    1.72    0.25
  -5  20  -3    1.76    0.23
   5 -20   3    1.59    0.32
  -4  20  -3    0.23    0.23
  -4  20  -3    0.33    0.20
  -3  20  -3    4.70    0.38
  -3  20  -3    4.29    0.42
  -2  20  -3    0.38    0.19
  -2  20  -3    0.57    0.25
  -1  20  -3    1.51    0.21
  -1  20  -3    1.64    0.29
   1 -20   3    0.86    0.25
   0  20  -3    1.46    0.26
   0  20  -3    1.57    0.21
   1  20  -3    0.10    0.22
   1  20  -3    0.06    0.19
  -1 -20   3    0.37    0.20
   2  20  -3    2.95    0.35
   2  20  -3    2.67    0.37
  -2 -20   3    2.15    0.25
   3  20  -3    0.75    0.24
   3  20  -3    0.76    0.22
  -3 -20   3    1.38    0.22
   4  20  -3    0.52    0.28
   4  20  -3    0.52    0.27
   4  20  -3    0.22    0.22
  -4 -20   3    0.02    0.20
   5  20  -3    1.11    0.29
   5  20  -3    1.39    0.27
   5  20  -3    1.45    0.25
  -5 -20   3    0.98    0.22
   6  20  -3    0.04    0.24
   6  20  -3    0.16    0.24
   6  20  -3    0.48    0.24
  -6 -20   3    0.59    0.21
  -6 -20   3    0.48    0.20
   7  20  -3    3.98    0.36
   7  20  -3    3.71    0.37
   7  20  -3    3.58    0.34
  -7 -20   3    3.52    0.34
  -7 -20   3    3.64    0.29
   8  20  -3    0.47    0.19
  -8 -20   3    0.36    0.14
  -8  20  -2    0.45    0.19
  -8  20  -2   -0.19    0.21
   8 -20   2   -0.32    0.20
  -7  20  -2    0.61    0.19
  -7  20  -2    1.06    0.23
   7 -20   2    0.77    0.24
  -6  20  -2    1.17    0.26
  -6  20  -2    0.83    0.20
   6 -20   2    1.15    0.27
  -5  20  -2    0.74    0.20
  -5  20  -2    0.58    0.27
   5 -20   2    0.21    0.28
  -4  20  -2    1.91    0.23
  -3  20  -2    9.80    0.59
  -2  20  -2    1.52    0.21
  -1  20  -2    1.99    0.23
   0  20  -2   -0.19    0.16
   0  20  -2    0.34    0.23
   0 -20   2    0.32    0.21
   1  20  -2    0.56    0.22
   1  20  -2    0.67    0.18
  -1 -20   2    0.38    0.20
   2  20  -2    3.77    0.41
   2  20  -2    3.07    0.46
   2  20  -2    3.15    0.36
  -2 -20   2    2.22    0.26
   3  20  -2    0.90    0.22
   3  20  -2    0.99    0.28
  -3 -20   2    1.55    0.22
   4  20  -2    0.62    0.22
   4  20  -2    0.77    0.26
  -4 -20   2    0.52    0.21
   5  20  -2    0.41    0.25
   5  20  -2    0.37    0.24
   5  20  -2    0.57    0.27
  -5 -20   2    0.35    0.23
  -5 -20   2    0.57    0.20
   6  20  -2    1.46    0.28
   6  20  -2    1.19    0.27
   6  20  -2    1.05    0.27
  -6 -20   2    1.53    0.23
  -6 -20   2    1.37    0.22
   7  20  -2    5.09    0.46
   7  20  -2    4.73    0.42
   7  20  -2    6.20    0.41
  -7 -20   2    5.49    0.36
  -7 -20   2    5.13    0.40
   8  20  -2    0.51    0.20
  -8 -20   2    0.60    0.15
  -8  20  -1    0.10    0.17
   8 -20   1   -0.03    0.20
  -7  20  -1    0.40    0.18
   7 -20   1    0.13    0.23
  -6  20  -1    0.44    0.19
   6 -20   1    0.15    0.24
  -5  20  -1    1.06    0.21
   5 -20   1    1.24    0.26
  -4  20  -1    0.68    0.20
   4 -20   1    0.56    0.26
  -3  20  -1    8.41    0.52
  -2  20  -1    1.63    0.21
  -1  20  -1    0.81    0.19
   0  20  -1    1.58    0.62
   0  20  -1    1.06    0.20
   0 -20   1    0.96    0.22
   1  20  -1    3.92    0.45
   1  20  -1    3.96    0.37
   1  20  -1    4.50    0.79
  -1 -20   1    4.00    0.37
   2  20  -1    2.18    0.29
   2  20  -1    1.87    0.24
  -2 -20   1    1.57    0.22
   3  20  -1    4.55    0.46
   3  20  -1    4.09    0.42
  -3 -20   1    4.26    0.39
   4  20  -1    3.27    0.43
   4  20  -1    3.94    0.42
  -4 -20   1    3.36    0.36
   5  20  -1    0.47    0.26
   5  20  -1    0.01    0.24
  -5 -20   1    0.66    0.21
   6  20  -1    0.12    0.24
   6  20  -1    0.40    0.27
  -6 -20   1   -0.04    0.19
  -6 -20   1    0.05    0.20
   7  20  -1    0.47    0.23
  -7 -20   1    1.07    0.19
  -7 -20   1    1.10    0.22
   8  20  -1    0.22    0.20
  -8 -20   1    0.01    0.23
  -8 -20   1    0.47    0.16
  -8  20   0    1.11    0.18
   8 -20   0    1.39    0.23
  -7  20   0    0.64    0.18
   7 -20   0    0.46    0.24
  -6  20   0   -0.06    0.18
   6 -20   0    0.01    0.24
  -5  20   0    0.33    0.19
   5 -20   0    0.54    0.24
  -4  20   0    4.62    0.39
   4 -20   0    4.69    0.51
  -3  20   0    3.75    0.36
   3 -20   0    4.14    0.54
  -2  20   0    7.35    0.49
  -1  20   0    1.42    0.27
  -1  20   0    1.00    0.60
  -1  20   0    1.28    0.21
   1 -20   0    0.82    0.24
   0  20   0    4.35    0.74
   0  20   0    4.67    0.43
   0  20   0    4.76    0.40
   0 -20   0    4.33    0.43
   1  20   0    1.60    0.26
   1  20   0    1.48    0.23
   1  20   0    1.47    0.69
   2  20   0    7.08    0.53
   2  20   0    7.52    0.54
  -2 -20   0    7.59    0.51
   3  20   0    3.92    0.45
   3  20   0    3.53    0.44
  -3 -20   0    4.86    0.37
   4  20   0    3.76    0.45
   4  20   0    4.71    0.46
  -4 -20   0    4.14    0.39
   5  20   0    0.11    0.25
  -5 -20   0    0.44    0.20
   6  20   0   -0.12    0.24
  -6 -20   0    0.14    0.20
   7  20   0    0.36    0.23
  -7 -20   0    0.78    0.22
  -7 -20   0    1.01    0.20
   8  20   0    0.67    0.21
  -8 -20   0    0.68    0.22
  -8 -20   0    0.77    0.17
  -8  20   1    0.11    0.14
   8 -20  -1    0.38    0.20
  -7  20   1    0.62    0.19
  -6  20   1    0.10    0.19
   6 -20  -1    0.21    0.24
  -5  20   1    0.15    0.20
   5 -20  -1    0.36    0.24
  -4  20   1    3.88    0.35
   4 -20  -1    3.50    0.48
  -3  20   1    4.66    0.38
  -3  20   1    5.04    0.46
   3 -20  -1    4.29    0.55
   3 -20  -1    4.06    0.47
  -2  20   1    1.95    0.23
  -2  20   1    1.71    0.29
   2 -20  -1    1.27    0.26
  -1  20   1    3.50    0.76
  -1  20   1    3.86    0.40
  -1  20   1    3.89    0.42
   1 -20  -1    4.51    0.42
   0  20   1    1.00    0.24
   0  20   1    1.74    0.70
   0  20   1    1.43    0.22
   0 -20  -1    0.52    0.25
   1  20   1    1.16    0.23
   1  20   1    0.96    0.24
   1  20   1   -0.38    0.76
  -1 -20  -1    1.16    0.23
   2  20   1    2.04    0.29
   2  20   1    2.31    0.35
  -2 -20  -1    1.77    0.24
   3  20   1    8.84    0.61
  -3 -20  -1    9.08    0.56
   4  20   1    1.18    0.26
  -4 -20  -1    0.88    0.21
   5  20   1    1.10    0.27
  -5 -20  -1    1.06    0.22
   6  20   1    0.64    0.25
  -6 -20  -1    0.36    0.20
   7  20   1    0.25    0.22
  -7 -20  -1    0.13    0.21
   8  20   1   -0.20    0.20
  -8 -20  -1    0.19    0.21
  -8  20   2    0.51    0.16
   8 -20  -2    0.55    0.20
  -7  20   2    6.07    0.39
   7 -20  -2    5.24    0.44
  -6  20   2    1.21    0.22
   6 -20  -2    1.12    0.26
  -5  20   2    0.16    0.21
   5 -20  -2    0.18    0.24
   5 -20  -2    0.16    0.26
  -4  20   2    0.66    0.21
   4 -20  -2    0.35    0.26
   4 -20  -2    0.66    0.25
  -3  20   2    1.07    0.22
   3 -20  -2    1.25    0.27
   3 -20  -2    1.03    0.25
  -2  20   2    2.89    0.36
   2 -20  -2    2.16    0.28
   2 -20  -2    2.50    0.32
  -1  20   2    0.64    0.25
  -1  20   2    0.22    0.22
   1 -20  -2    0.55    0.21
   0  20   2    0.19    0.23
   0  20   2   -0.21    0.23
   0  20   2    0.16    0.81
   0 -20  -2    0.23    0.20
   1  20   2    1.70    0.25
  -1 -20  -2    1.46    0.24
   2  20   2    2.57    0.37
  -2 -20  -2    2.81    0.35
   3  20   2   10.35    0.68
  -3 -20  -2    9.96    0.63
   4  20   2    2.00    0.31
  -4 -20  -2    2.63    0.34
   5  20   2    1.03    0.27
  -5 -20  -2    0.44    0.21
   6  20   2    1.14    0.26
  -6 -20  -2    1.04    0.22
   7  20   2    0.67    0.24
  -7 -20  -2    0.82    0.21
   8  20   2    0.38    0.21
  -8 -20  -2    0.17    0.20
  -8  20   3    0.18    0.15
   8 -20  -3    0.01    0.17
  -7  20   3    4.20    0.32
   7 -20  -3    4.24    0.38
   7 -20  -3    3.62    0.40
  -6  20   3    0.29    0.20
   6 -20  -3    0.51    0.24
   6 -20  -3    0.39    0.24
  -5  20   3    1.57    0.24
   5 -20  -3    0.82    0.26
   5 -20  -3    0.98    0.25
  -4  20   3    0.24    0.21
   4 -20  -3    0.12    0.23
   4 -20  -3   -0.07    0.25
  -3  20   3    0.95    0.23
   3 -20  -3    0.94    0.25
   3 -20  -3    1.17    0.26
  -2  20   3    2.68    0.37
   2 -20  -3    2.03    0.27
   2 -20  -3    2.17    0.30
  -1  20   3    0.00    0.25
  -1  20   3    0.12    0.25
   1 -20  -3    0.19    0.21
   0  20   3    1.78    0.27
   0 -20  -3    2.59    0.38
   2  20   3    0.49    0.24
  -2 -20  -3    1.04    0.22
   3  20   3    5.63    0.47
  -3 -20  -3    4.06    0.42
   4  20   3    0.58    0.27
  -4 -20  -3    0.67    0.22
   5  20   3    1.74    0.30
  -5 -20  -3    1.29    0.23
   6  20   3    0.60    0.26
  -6 -20  -3    0.51    0.21
   7  20   3    2.77    0.35
  -7 -20  -3    2.56    0.30
   8  20   3    0.30    0.21
  -8 -20  -3    0.32    0.19
  -8  20   4    0.41    0.14
   8 -20  -4    0.40    0.16
  -7  20   4    2.68    0.27
   7 -20  -4    2.48    0.31
   7 -20  -4    2.50    0.31
  -6  20   4    0.88    0.21
   6 -20  -4    0.68    0.22
   6 -20  -4    0.44    0.22
  -5  20   4    2.16    0.26
   5 -20  -4    2.87    0.37
   5 -20  -4    2.66    0.35
  -4  20   4    1.17    0.24
   4 -20  -4    1.34    0.26
   4 -20  -4    0.91    0.24
  -3  20   4    3.63    0.40
   3 -20  -4    3.61    0.46
   3 -20  -4    4.01    0.43
  -2  20   4    0.82    0.26
  -2  20   4    1.06    0.28
   2 -20  -4    0.26    0.22
  -1  20   4   -0.14    0.26
   1 -20  -4    0.30    0.22
   1 -20  -4    0.56    0.26
   0  20   4    0.42    0.26
   1  20   4    2.11    0.29
  -1 -20  -4    1.30    0.27
   2  20   4    0.93    0.26
  -2 -20  -4    0.42    0.22
   3  20   4    2.88    0.41
  -3 -20  -4    2.37    0.28
   4  20   4    0.10    0.27
  -4 -20  -4    0.12    0.21
  -5 -20  -4    1.26    0.23
   6  20   4    1.93    0.29
  -6 -20  -4    1.56    0.23
   7  20   4    4.61    0.43
  -7 -20  -4    6.09    0.38
  -8 -20  -4    0.30    0.18
  -7  20   5    2.20    0.23
   7 -20  -5    1.65    0.26
   7 -20  -5    2.03    0.25
  -6  20   5    1.75    0.22
   6 -20  -5    1.37    0.22
   6 -20  -5    1.28    0.22
  -5  20   5    3.02    0.34
   5 -20  -5    3.42    0.38
   5 -20  -5    2.88    0.35
  -4  20   5    4.01    0.40
   4 -20  -5    4.90    0.44
   4 -20  -5    4.10    0.40
   3 -20  -5    8.50    0.61
   3 -20  -5    8.26    0.58
  -2  20   5    0.63    0.27
   2 -20  -5    0.72    0.25
   2 -20  -5    0.67    0.24
   1 -20  -5    1.60    0.25
   1 -20  -5    1.33    0.28
   0 -20  -5    2.86    0.34
   0 -20  -5    2.70    0.39
   1  20   5    1.95    0.31
  -1 -20  -5    2.66    0.39
   2  20   5    2.13    0.29
  -2 -20  -5    1.30    0.25
   3  20   5    0.95    0.28
  -3 -20  -5    0.42    0.22
   4  20   5    0.15    0.28
  -4 -20  -5    0.98    0.22
  -5 -20  -5    1.15    0.22
   6  20   5    2.09    0.29
  -6 -20  -5    1.85    0.27
   7  20   5    4.57    0.41
  -7 -20  -5    4.71    0.33
   7 -20  -6    0.17    0.16
   7 -20  -6    0.51    0.15
  -6  20   6    0.57    0.21
   6 -20  -6    0.60    0.18
   6 -20  -6    0.36    0.19
   5 -20  -6    0.96    0.21
   5 -20  -6    0.97    0.21
   4 -20  -6    2.63    0.33
   4 -20  -6    2.16    0.35
   3 -20  -6    8.24    0.60
   3 -20  -6    8.73    0.56
  -2  20   6    0.43    0.26
   2 -20  -6    1.18    0.25
   2 -20  -6    0.79    0.23
   1 -20  -6    2.95    0.42
   1 -20  -6    2.85    0.38
   0  20   6    2.30    0.31
   0 -20  -6    2.01    0.27
   0 -20  -6    2.17    0.30
   1  20   6    1.25    0.29
  -1 -20  -6    0.46    0.26
  -2 -20  -6    0.79    0.24
   3  20   6    0.91    0.28
  -3 -20  -6    0.68    0.22
   4  20   6    1.85    0.32
  -4 -20  -6    2.68    0.31
   5  20   6    0.82    0.29
  -5 -20  -6    0.34    0.19
  -6 -20  -6    0.99    0.18
  -7 -20  -6    3.03    0.25
   6 -20  -7    1.29    0.19
   6 -20  -7    0.85    0.17
   5 -20  -7    0.28    0.18
   5 -20  -7    0.52    0.17
   4 -20  -7    0.57    0.22
   4 -20  -7    0.93    0.20
  -3  20   7    0.54    0.25
   3 -20  -7    0.73    0.22
   3 -20  -7    1.07    0.21
  -2  20   7    0.29    0.25
   2 -20  -7    0.34    0.22
   2 -20  -7    0.59    0.21
   1 -20  -7    0.21    0.21
   1 -20  -7    0.13    0.23
   0  20   7    0.39    0.26
   0 -20  -7    0.59    0.25
   0 -20  -7    0.53    0.22
   1  20   7    2.84    0.39
  -1 -20  -7    2.88    0.41
   2  20   7    0.86    0.27
  -2 -20  -7    0.28    0.23
   3  20   7    2.37    0.31
  -3 -20  -7    2.00    0.25
   4  20   7    2.79    0.41
  -4 -20  -7    4.10    0.32
  -5 -20  -7    0.14    0.17
  -6 -20  -7    0.13    0.14
  -5  20   8   -0.18    0.16
   5 -20  -8    0.31    0.14
   5 -20  -8    0.13    0.16
  -4  20   8    0.24    0.19
   4 -20  -8    0.20    0.16
   4 -20  -8    0.21    0.18
  -3  20   8    0.93    0.23
   3 -20  -8    0.75    0.19
   3 -20  -8    0.62    0.20
  -2  20   8    0.39    0.24
   2 -20  -8    0.86    0.22
   2 -20  -8    0.89    0.20
  -1  20   8    0.68    0.25
   1 -20  -8    0.64    0.20
   1 -20  -8    0.47    0.22
   0  20   8   -0.26    0.25
   0 -20  -8    0.25    0.22
   1  20   8    0.76    0.27
  -1 -20  -8    0.42    0.23
   2  20   8    0.33    0.27
  -2 -20  -8    0.05    0.22
  -3 -20  -8    2.53    0.28
  -4 -20  -8    0.32    0.17
  -5 -20  -8   -0.05    0.14
  -3  20   9    0.60    0.20
   3 -20  -9    0.52    0.17
   3 -20  -9    0.82    0.16
   2 -20  -9    1.61    0.25
   2 -20  -9    1.74    0.25
  -1  20   9    0.62    0.25
   1 -20  -9    0.63    0.19
   0  20   9   -0.07    0.25
   0 -20  -9    0.13    0.18
  -1 -20  -9    0.32    0.20
  -3 -20  -9    0.76    0.19
  -2  21  -9    0.25    0.14
  -1  21  -9    0.10    0.17
  -1  21  -9    0.16    0.14
   1 -21   9    0.27    0.18
   0  21  -9    0.42    0.17
   0  21  -9    0.32    0.15
   0 -21   9    0.80    0.18
   1  21  -9    0.78    0.16
   1  21  -9    0.73    0.15
   1  21  -9    0.78    0.19
   2  21  -9    0.46    0.18
   2  21  -9    0.76    0.15
   2  21  -9    0.68    0.15
  -2 -21   9    0.39    0.14
  -4  21  -8   -0.04    0.13
  -3  21  -8    1.20    0.17
  -2  21  -8    0.64    0.26
  -2  21  -8    0.41    0.17
  -1  21  -8    0.36    0.17
  -1  21  -8    0.37    0.22
   1 -21   8    0.58    0.22
   0  21  -8    0.11    0.18
   0  21  -8    0.47    0.20
   0 -21   8    0.71    0.21
   1  21  -8    0.61    0.22
   1  21  -8    0.60    0.18
   1  21  -8    0.48    0.20
   1  21  -8    0.29    0.23
  -1 -21   8    0.58    0.20
   2  21  -8    0.73    0.19
   2  21  -8    0.32    0.21
   2  21  -8    0.81    0.19
   2  21  -8    0.96    0.22
   3  21  -8    2.80    0.27
   3  21  -8    2.29    0.25
   3  21  -8    3.00    0.29
   3  21  -8    2.55    0.26
  -3 -21   8    3.35    0.25
   4  21  -8    0.25    0.17
   4  21  -8   -0.02    0.16
   4  21  -8   -0.11    0.16
  -4 -21   8    0.27    0.15
  -5  21  -7    0.50    0.14
  -4  21  -7    0.93    0.18
  -3  21  -7    3.93    0.31
  -2  21  -7    1.28    0.22
  -2  21  -7    1.12    0.31
  -1  21  -7    0.98    0.22
  -1  21  -7    1.18    0.26
  -1  21  -7    1.49    0.25
   1 -21   7    1.09    0.25
   0  21  -7    0.50    0.23
   0  21  -7    0.33    0.21
   0  21  -7    0.83    0.23
   0 -21   7    0.39    0.23
   1  21  -7   -0.22    0.21
   1  21  -7    0.38    0.22
   1  21  -7    0.22    0.21
   1  21  -7    0.22    0.27
  -1 -21   7    0.62    0.21
   2  21  -7    0.39    0.20
   2  21  -7    0.15    0.23
   2  21  -7    0.29    0.21
   2  21  -7    0.20    0.21
  -2 -21   7    0.25    0.21
   3  21  -7    0.49    0.21
   3  21  -7    0.55    0.20
   3  21  -7    0.27    0.22
   3  21  -7    0.18    0.20
   4  21  -7    0.38    0.20
   4  21  -7    0.33    0.19
   4  21  -7    0.29    0.19
   4  21  -7    0.40    0.20
  -4 -21   7    0.78    0.18
   5  21  -7    0.40    0.16
   5  21  -7    0.24    0.16
   5  21  -7    0.38    0.19
  -5 -21   7    0.66    0.17
  -6  21  -6    0.57    0.15
  -5  21  -6    0.71    0.18
  -4  21  -6    1.57    0.21
  -3  21  -6    3.63    0.37
  -3  21  -6    3.60    0.33
  -2  21  -6    0.26    0.23
  -2  21  -6    0.42    0.22
  -1  21  -6    0.82    0.24
  -1  21  -6    1.00    0.23
  -1  21  -6    1.02    0.27
   1 -21   6    0.95    0.26
   0  21  -6    0.46    0.22
   0  21  -6    0.51    0.23
   0  21  -6    0.69    0.25
   1  21  -6    1.84    0.26
   1  21  -6    1.69    0.25
   1  21  -6    1.81    0.26
   2  21  -6    1.72    0.27
   2  21  -6    1.60    0.24
   2  21  -6    1.91    0.29
   2  21  -6    1.76    0.25
  -2 -21   6    2.06    0.24
   3  21  -6    1.43    0.27
   3  21  -6    1.44    0.23
   3  21  -6    1.48    0.26
   3  21  -6    1.51    0.24
  -3 -21   6    2.05    0.28
   4  21  -6    1.90    0.25
   4  21  -6    1.53    0.23
   4  21  -6    1.87    0.24
   4  21  -6    1.96    0.26
   5  21  -6    0.10    0.18
   5  21  -6    0.06    0.22
   5  21  -6    0.32    0.19
  -5 -21   6    0.84    0.19
   6  21  -6    0.56    0.17
   6  21  -6    0.58    0.16
  -6 -21   6    0.38    0.13
  -6 -21   6    0.52    0.18
  -7  21  -5    0.55    0.15
  -6  21  -5    0.22    0.17
  -5  21  -5    0.50    0.19
  -4  21  -5    3.40    0.33
  -4  21  -5    4.02    0.36
  -3  21  -5    5.73    0.41
  -3  21  -5    5.64    0.42
  -2  21  -5    2.83    0.34
  -2  21  -5    3.15    0.35
  -1  21  -5    0.45    0.24
  -1  21  -5    0.32    0.21
  -1  21  -5    0.52    0.26
   1 -21   5    0.59    0.25
   0  21  -5    3.61    0.37
   0  21  -5    3.99    0.42
   0  21  -5    4.26    0.39
   0 -21   5    2.79    0.38
   1  21  -5    2.65    0.37
   1  21  -5    2.87    0.31
   1  21  -5    2.57    0.35
  -1 -21   5    3.29    0.35
   2  21  -5    1.59    0.26
   2  21  -5    1.77    0.25
   2  21  -5    2.10    0.29
   3  21  -5    1.36    0.28
   3  21  -5    0.84    0.27
   3  21  -5    1.18    0.24
   3  21  -5    0.83    0.23
  -3 -21   5    1.06    0.22
   4  21  -5    2.01    0.25
   4  21  -5    2.47    0.30
   4  21  -5    2.39    0.28
  -4 -21   5    1.44    0.24
   5  21  -5    0.42    0.22
   5  21  -5    0.23    0.20
   6  21  -5    1.29    0.21
   6  21  -5    1.15    0.20
  -6 -21   5    1.46    0.19
  -6 -21   5    1.46    0.21
   7  21  -5    1.59    0.22
   7  21  -5    1.37    0.19
  -7 -21   5    2.06    0.19
  -7  21  -4    0.53    0.18
   7 -21   4   -0.02    0.24
  -6  21  -4    0.18    0.20
   6 -21   4   -0.19    0.27
  -5  21  -4    0.55    0.21
  -5  21  -4    0.60    0.22
  -4  21  -4    3.17    0.35
  -4  21  -4    3.94    0.35
  -3  21  -4    8.65    0.54
  -3  21  -4    8.24    0.53
  -2  21  -4    1.25    0.25
  -2  21  -4    1.14    0.22
  -1  21  -4    0.31    0.20
  -1  21  -4    0.52    0.26
  -1  21  -4    0.40    0.28
   0  21  -4    1.68    0.24
   0  21  -4    1.98    0.28
   0  21  -4    2.51    0.30
   0 -21   4    1.66    0.25
   1  21  -4    2.09    0.28
   1  21  -4    2.39    0.33
  -1 -21   4    1.83    0.25
   2  21  -4    0.01    0.21
   2  21  -4    0.37    0.23
  -2 -21   4    0.80    0.21
   3  21  -4    1.52    0.25
   3  21  -4    1.33    0.23
  -3 -21   4    1.40    0.22
   4  21  -4    2.13    0.29
   4  21  -4    2.71    0.35
  -4 -21   4    1.76    0.25
   5  21  -4   -0.04    0.21
   5  21  -4   -0.03    0.24
  -5 -21   4    0.01    0.20
   6  21  -4   -0.07    0.21
   6  21  -4   -0.21    0.25
   6  21  -4    0.31    0.21
  -6 -21   4    0.40    0.19
  -6 -21   4    0.66    0.18
   7  21  -4    1.34    0.24
   7  21  -4    1.12    0.21
   7  21  -4    1.28    0.21
  -7 -21   4    1.58    0.20
  -7 -21   4    1.42    0.21
   8 -21   3    0.44    0.19
  -7  21  -3    1.13    0.21
  -7  21  -3    1.26    0.21
   7 -21   3    0.81    0.25
  -6  21  -3    0.27    0.21
  -6  21  -3    0.22    0.20
   6 -21   3   -0.19    0.26
  -5  21  -3    0.26    0.20
  -5  21  -3   -0.02    0.22
   5 -21   3   -0.23    0.29
  -4  21  -3    2.88    0.32
  -4  21  -3    2.46    0.29
  -3  21  -3    6.44    0.45
  -2  21  -3    0.12    0.19
  -1  21  -3    0.62    0.20
  -1  21  -3    0.82    0.28
   1 -21   3    0.22    0.25
   0  21  -3    0.31    0.24
   0  21  -3    0.24    0.19
   0 -21   3   -0.01    0.22
   1  21  -3    2.05    0.25
   1  21  -3    2.75    0.36
  -1 -21   3    1.92    0.25
   2  21  -3    0.39    0.23
   2  21  -3    0.38    0.21
  -2 -21   3    0.65    0.21
   3  21  -3    2.36    0.35
  -3 -21   3    2.66    0.35
   4  21  -3    3.42    0.43
   4  21  -3    2.92    0.36
  -4 -21   3    2.15    0.26
   5  21  -3    0.16    0.26
   5  21  -3    0.18    0.23
   5  21  -3    0.32    0.26
  -5 -21   3    0.57    0.20
  -5 -21   3    0.42    0.22
   6  21  -3   -0.02    0.22
   6  21  -3    0.22    0.23
   6  21  -3   -0.43    0.23
  -6 -21   3    0.02    0.18
  -6 -21   3    0.24    0.20
   7  21  -3    0.31    0.21
   7  21  -3    0.68    0.22
   7  21  -3    0.58    0.22
  -7 -21   3    0.41    0.15
  -7 -21   3    0.57    0.20
   8  21  -3    0.70    0.18
  -8 -21   3    0.43    0.14
  -8  21  -2    0.25    0.21
   8 -21   2    0.79    0.20
  -7  21  -2    1.65    0.21
   7 -21   2    1.01    0.25
  -6  21  -2    0.25    0.19
   6 -21   2    0.17    0.25
  -5  21  -2    0.35    0.19
   5 -21   2    0.74    0.28
  -4  21  -2    2.72    0.32
  -3  21  -2    0.70    0.20
  -2  21  -2    0.64    0.19
  -1  21  -2    0.58    0.19
   0  21  -2    0.26    0.19
   0  21  -2    0.32    0.25
   0 -21   2    0.20    0.21
   1  21  -2    3.18    0.34
  -1 -21   2    2.92    0.36
   2  21  -2    0.77    0.21
   2  21  -2    0.42    0.30
  -2 -21   2    0.61    0.20
   3  21  -2    2.52    0.31
   3  21  -2    1.87    0.26
  -3 -21   2    2.25    0.25
   4  21  -2    4.19    0.45
   4  21  -2    4.84    0.42
  -4 -21   2    4.21    0.38
   5  21  -2    1.18    0.26
   5  21  -2    1.55    0.27
  -5 -21   2    1.66    0.23
   6  21  -2    0.51    0.23
   6  21  -2    0.24    0.25
   6  21  -2    0.60    0.26
  -6 -21   2    0.49    0.20
  -6 -21   2    0.43    0.20
   7  21  -2   -0.03    0.20
  -7 -21   2    0.41    0.21
  -7 -21   2    0.41    0.17
   8  21  -2    0.76    0.18
  -8 -21   2    0.57    0.15
  -8  21  -1    1.31    0.18
   8 -21   1    1.84    0.26
  -7  21  -1    7.07    0.43
   7 -21   1    6.65    0.50
  -6  21  -1    2.27    0.27
   6 -21   1    2.04    0.29
  -5  21  -1    2.65    0.30
   5 -21   1    2.79    0.41
  -4  21  -1    0.11    0.19
   4 -21   1    0.80    0.29
  -3  21  -1    0.33    0.19
  -2  21  -1    0.94    0.20
  -1  21  -1    1.34    0.21
   0  21  -1    0.61    0.19
   0 -21   1    0.86    0.22
   1  21  -1    6.61    0.54
   1  21  -1    6.90    0.46
  -1 -21   1    5.56    0.45
   2  21  -1    0.45    0.26
   2  21  -1    0.58    0.22
  -2 -21   1    0.45    0.20
   3  21  -1   10.11    0.64
   3  21  -1    9.29    0.69
  -3 -21   1   11.48    0.62
   4  21  -1    3.25    0.41
   4  21  -1    2.71    0.32
  -4 -21   1    3.38    0.35
   5  21  -1    1.03    0.27
   5  21  -1    0.88    0.25
   6  21  -1    0.46    0.24
  -6 -21   1    0.72    0.21
   7  21  -1    1.04    0.22
  -7 -21   1    1.77    0.25
  -7 -21   1    1.25    0.21
   8  21  -1    0.14    0.17
  -8 -21   1    0.10    0.15
  -8 -21   1   -0.15    0.22
  -8  21   0    3.85    0.28
   8 -21   0    4.11    0.35
  -7  21   0    2.74    0.26
   7 -21   0    2.75    0.34
  -6  21   0    6.01    0.41
   6 -21   0    6.01    0.49
  -5  21   0    2.92    0.33
   5 -21   0    3.61    0.43
  -4  21   0    2.14    0.31
   4 -21   0    1.73    0.31
  -3  21   0    3.95    0.37
  -2  21   0    0.15    0.19
  -1  21   0    2.07    0.24
  -1  21   0    2.34    0.31
   0  21   0    0.12    0.24
   0  21   0   -0.09    0.19
   0 -21   0   -0.04    0.22
   1  21   0    2.18    0.28
   1  21   0    1.83    0.25
  -1 -21   0    2.25    0.34
   2  21   0    0.19    0.22
   2  21   0    0.29    0.24
  -2 -21   0    0.54    0.19
   3  21   0    4.07    0.43
   3  21   0    4.19    0.42
  -3 -21   0    2.81    0.36
   4  21   0    1.52    0.28
   4  21   0    1.75    0.30
  -4 -21   0    1.54    0.23
   5  21   0    3.07    0.40
  -5 -21   0    3.40    0.35
   6  21   0    6.14    0.47
  -6 -21   0    5.98    0.43
   7  21   0    2.67    0.32
  -7 -21   0    2.51    0.30
   8  21   0    3.80    0.31
  -8 -21   0    3.97    0.33
  -8  21   1    0.15    0.14
   8 -21  -1    0.34    0.18
  -7  21   1    0.75    0.18
   7 -21  -1    1.22    0.24
  -6  21   1    0.56    0.19
   6 -21  -1    0.88    0.25
  -5  21   1    1.29    0.22
  -4  21   1    3.77    0.36
   4 -21  -1    3.41    0.48
  -3  21   1    8.63    0.68
  -3  21   1   10.25    0.61
   3 -21  -1   10.62    0.68
   3 -21  -1   11.40    0.75
  -2  21   1    0.65    0.27
  -2  21   1    0.67    0.21
   2 -21  -1    0.64    0.24
  -1  21   1    6.59    0.47
  -1  21   1    6.55    0.51
   1 -21  -1    5.67    0.51
   0  21   1    0.79    0.25
   0  21   1    0.55    0.22
   0 -21  -1    1.38    0.25
   1  21   1    1.25    0.25
   1  21   1    1.34    0.25
  -1 -21  -1    1.29    0.23
   2  21   1    1.14    0.27
   2  21   1    1.37    0.26
  -2 -21  -1    1.35    0.22
   3  21   1    0.60    0.25
  -3 -21  -1    0.07    0.19
   4  21   1    0.30    0.25
  -4 -21  -1    0.70    0.21
   5  21   1    3.18    0.40
  -5 -21  -1    2.65    0.33
   6  21   1    1.86    0.28
  -6 -21  -1    2.29    0.30
   7  21   1    6.27    0.47
  -7 -21  -1    6.79    0.44
   8  21   1    1.00    0.20
  -8 -21  -1    1.30    0.21
  -8  21   2    0.38    0.14
   8 -21  -2    0.20    0.17
  -7  21   2    0.32    0.18
   7 -21  -2    0.62    0.21
  -6  21   2    0.48    0.19
   6 -21  -2    0.46    0.24
  -5  21   2    1.34    0.23
   5 -21  -2    1.96    0.30
   5 -21  -2    1.83    0.28
  -4  21   2    5.35    0.39
  -4  21   2    4.58    0.45
   4 -21  -2    4.03    0.48
   4 -21  -2    3.42    0.45
  -3  21   2    2.28    0.31
  -3  21   2    2.17    0.26
   3 -21  -2    2.33    0.30
   3 -21  -2    2.42    0.32
  -2  21   2    0.76    0.22
  -2  21   2    0.58    0.26
   2 -21  -2    0.64    0.22
  -1  21   2    3.29    0.40
  -1  21   2    3.52    0.41
   1 -21  -2    3.31    0.40
   0  21   2    0.39    0.24
   0  21   2    0.39    0.23
   1  21   2    0.91    0.24
  -1 -21  -2    0.61    0.23
   2  21   2    0.64    0.25
  -2 -21  -2    0.71    0.22
   3  21   2    0.76    0.26
  -3 -21  -2    0.60    0.21
   4  21   2    2.79    0.41
  -4 -21  -2    3.75    0.34
   5  21   2    0.53    0.26
  -5 -21  -2    0.77    0.21
   6  21   2    0.33    0.24
  -6 -21  -2    0.25    0.20
   7  21   2    1.37    0.24
  -7 -21  -2    0.82    0.20
   8  21   2    0.19    0.19
  -8 -21  -2    0.94    0.19
  -8  21   3    0.36    0.13
   8 -21  -3    0.26    0.15
  -7  21   3    0.58    0.17
   7 -21  -3    0.27    0.19
  -6  21   3   -0.08    0.19
   6 -21  -3    0.18    0.21
   6 -21  -3    0.54    0.24
   5 -21  -3    1.10    0.25
   5 -21  -3    0.71    0.25
   4 -21  -3    2.65    0.41
   4 -21  -3    2.17    0.29
  -3  21   3    2.78    0.36
  -3  21   3    3.08    0.39
   3 -21  -3    2.78    0.40
   3 -21  -3    3.08    0.44
  -2  21   3    0.50    0.27
  -2  21   3    0.41    0.24
   2 -21  -3    1.07    0.28
   2 -21  -3    0.80    0.23
  -1  21   3    2.48    0.30
  -1  21   3    2.90    0.39
   1 -21  -3    1.57    0.26
   0  21   3    0.23    0.24
   0 -21  -3    0.07    0.21
   1  21   3    0.78    0.25
  -1 -21  -3    0.17    0.23
   2  21   3    0.16    0.25
  -2 -21  -3    0.50    0.21
   3  21   3    6.12    0.51
  -3 -21  -3    5.72    0.46
   4  21   3    3.20    0.42
  -4 -21  -3    3.69    0.37
   5  21   3    0.18    0.26
  -5 -21  -3   -0.20    0.19
   6  21   3    0.26    0.24
  -6 -21  -3   -0.07    0.18
   7  21   3    1.28    0.24
  -7 -21  -3    0.82    0.19
   8  21   3   -0.04    0.19
  -8 -21  -3    0.59    0.20
  -7  21   4    1.13    0.18
  -7  21   4    1.11    0.25
   7 -21  -4    1.67    0.21
   7 -21  -4    1.83    0.25
  -6  21   4    0.19    0.19
   6 -21  -4    0.40    0.21
   6 -21  -4    0.93    0.22
  -5  21   4    0.24    0.20
   5 -21  -4    0.31    0.23
   5 -21  -4    0.49    0.22
  -4  21   4    2.60    0.34
   4 -21  -4    2.02    0.27
   4 -21  -4    1.75    0.28
  -3  21   4    2.10    0.30
  -3  21   4    1.46    0.26
   3 -21  -4    1.63    0.26
   3 -21  -4    1.48    0.27
  -2  21   4    0.25    0.27
  -2  21   4    0.55    0.27
   2 -21  -4    0.46    0.23
   2 -21  -4    0.62    0.25
   1 -21  -4    1.36    0.25
   1 -21  -4    1.13    0.30
   0  21   4    2.53    0.38
   0 -21  -4    1.48    0.26
   1  21   4    0.29    0.26
  -1 -21  -4    0.92    0.26
  -2 -21  -4    2.60    0.28
   3  21   4    8.89    0.62
  -3 -21  -4    8.90    0.58
   4  21   4    4.08    0.45
  -4 -21  -4    4.85    0.39
   5  21   4    0.75    0.27
  -5 -21  -4    0.73    0.21
   6  21   4    0.24    0.24
  -6 -21  -4    0.08    0.18
   7  21   4    0.44    0.22
  -7 -21  -4    0.25    0.17
  -7  21   5    1.60    0.22
  -7  21   5    1.58    0.25
   7 -21  -5    2.00    0.25
   7 -21  -5    2.08    0.23
  -6  21   5    1.16    0.20
   6 -21  -5    1.90    0.26
   6 -21  -5    1.28    0.21
   5 -21  -5    1.11    0.22
   5 -21  -5    0.78    0.21
   4 -21  -5    1.51    0.24
   4 -21  -5    1.14    0.24
  -3  21   5    1.20    0.27
   3 -21  -5    1.10    0.23
   3 -21  -5    0.62    0.24
  -2  21   5    2.42    0.36
   2 -21  -5    2.35    0.34
   2 -21  -5    2.59    0.31
  -1  21   5    2.99    0.40
   1 -21  -5    3.17    0.44
   1 -21  -5    3.22    0.38
   0 -21  -5    2.37    0.36
   1  21   5    0.72    0.27
  -1 -21  -5    0.49    0.26
   2  21   5    3.69    0.42
  -2 -21  -5    3.03    0.38
   3  21   5    6.50    0.51
  -3 -21  -5    5.84    0.46
   4  21   5    4.12    0.44
  -4 -21  -5    4.57    0.37
   5  21   5    1.13    0.26
  -5 -21  -5    0.58    0.19
   6  21   5    0.36    0.25
  -6 -21  -5    0.62    0.18
  -7 -21  -5    0.62    0.16
  -6  21   6    0.59    0.20
   6 -21  -6    0.59    0.17
   6 -21  -6    0.52    0.17
   5 -21  -6    1.02    0.21
   5 -21  -6    0.98    0.19
   4 -21  -6    0.66    0.21
   4 -21  -6    0.82    0.20
  -3  21   6    1.67    0.28
   3 -21  -6    2.65    0.32
   3 -21  -6    1.76    0.26
  -2  21   6    2.39    0.35
   2 -21  -6    2.09    0.28
   2 -21  -6    2.25    0.33
  -1  21   6    2.40    0.38
   1 -21  -6    2.72    0.40
   1 -21  -6    2.86    0.36
   0  21   6    0.58    0.27
   0 -21  -6    0.99    0.28
   0 -21  -6    0.80    0.23
   1  21   6    1.04    0.27
   2  21   6    0.30    0.25
  -2 -21  -6    1.20    0.25
  -3 -21  -6    2.54    0.33
   4  21   6    1.33    0.28
  -4 -21  -6    1.37    0.22
   5  21   6    0.81    0.26
  -5 -21  -6    0.68    0.18
  -6 -21  -6    1.08    0.17
  -5  21   7    0.00    0.17
   5 -21  -7    0.51    0.15
   5 -21  -7    0.53    0.17
  -4  21   7    0.28    0.21
   4 -21  -7    0.67    0.18
   4 -21  -7    0.56    0.19
  -3  21   7    0.88    0.24
   3 -21  -7    1.19    0.22
   3 -21  -7    1.17    0.21
  -2  21   7    0.19    0.24
   2 -21  -7    0.36    0.20
   2 -21  -7    0.33    0.24
  -1  21   7    0.03    0.24
   1 -21  -7    0.57    0.20
   1 -21  -7    0.57    0.23
   0  21   7    0.94    0.25
   0 -21  -7   -0.15    0.24
   1  21   7    1.35    0.29
   2  21   7    1.49    0.27
  -2 -21  -7    1.56    0.24
   3  21   7    4.29    0.40
  -3 -21  -7    3.05    0.33
   4  21   7    1.10    0.28
  -4 -21  -7    0.16    0.18
  -5 -21  -7   -0.07    0.14
  -4  21   8    0.17    0.18
   4 -21  -8    0.33    0.16
   4 -21  -8    0.33    0.14
  -3  21   8    2.94    0.30
   3 -21  -8    2.61    0.27
   3 -21  -8    3.44    0.31
  -2  21   8    0.83    0.23
   2 -21  -8    0.16    0.20
   2 -21  -8    0.49    0.18
  -1  21   8    0.58    0.24
   1 -21  -8    0.09    0.21
   0  21   8    0.43    0.24
   0 -21  -8    0.32    0.22
   1  21   8    0.15    0.24
  -1 -21  -8    0.25    0.23
   2  21   8    0.90    0.27
  -2 -21  -8    0.83    0.22
  -3 -21  -8    1.09    0.20
  -4 -21  -8    0.59    0.16
  -2  21   9    0.88    0.21
   2 -21  -9    0.77    0.18
  -1  21   9    0.78    0.22
   0  21   9    0.38    0.24
   0 -21  -9    0.41    0.19
  -1 -21  -9    0.18    0.21
   0  22  -9    0.15    0.13
   0  22  -9    0.28    0.15
   0 -22   9   -0.19    0.15
  -3  22  -8    1.31    0.18
  -2  22  -8    0.22    0.15
  -1  22  -8    0.88    0.22
  -1  22  -8    0.72    0.17
   1 -22   8    0.35    0.20
   0  22  -8    0.24    0.16
   0  22  -8    0.23    0.18
   0 -22   8   -0.14    0.18
   1  22  -8    1.18    0.19
   1  22  -8    0.90    0.23
   1  22  -8    1.19    0.19
  -1 -22   8    1.50    0.22
   2  22  -8    0.63    0.20
   2  22  -8    0.12    0.21
   2  22  -8    0.46    0.17
   3  22  -8    0.53    0.15
   3  22  -8    0.49    0.18
   3  22  -8    0.61    0.16
   3  22  -8    0.26    0.18
  -3 -22   8    0.73    0.15
  -5  22  -7    0.27    0.14
  -4  22  -7    2.35    0.23
  -3  22  -7    0.81    0.18
  -2  22  -7    1.28    0.20
  -1  22  -7    0.57    0.19
  -1  22  -7    0.79    0.24
  -1  22  -7    0.41    0.23
   1 -22   7    0.33    0.23
   0  22  -7    0.77    0.20
   0  22  -7    0.75    0.22
   0  22  -7    0.81    0.23
   0 -22   7    0.77    0.21
   1  22  -7    0.18    0.20
   1  22  -7    0.14    0.20
   1  22  -7    0.28    0.20
   2  22  -7    0.25    0.19
   2  22  -7    0.15    0.19
   2  22  -7    0.16    0.20
  -2 -22   7    0.69    0.19
   3  22  -7    0.41    0.18
   3  22  -7    0.27    0.19
   3  22  -7    0.61    0.22
   3  22  -7    0.31    0.20
  -3 -22   7    0.30    0.17
   4  22  -7    1.11    0.20
   4  22  -7    1.46    0.20
   4  22  -7    1.50    0.19
  -4 -22   7    1.19    0.18
   5  22  -7    0.22    0.18
   5  22  -7    0.27    0.15
  -5 -22   7    0.31    0.14
  -6  22  -6    0.95    0.15
  -5  22  -6    0.15    0.16
  -4  22  -6    0.94    0.19
  -3  22  -6    0.29    0.19
  -3  22  -6    0.40    0.23
  -2  22  -6    0.99    0.23
  -2  22  -6    0.93    0.23
  -1  22  -6    0.62    0.22
  -1  22  -6    0.51    0.22
  -1  22  -6    0.64    0.26
   1 -22   6   -0.05    0.23
   0  22  -6    2.08    0.25
   0  22  -6    1.92    0.26
   0  22  -6    2.14    0.27
   0 -22   6    1.46    0.24
   1  22  -6    3.06    0.33
   1  22  -6    2.76    0.35
   1  22  -6    2.61    0.34
  -1 -22   6    3.35    0.33
   2  22  -6    1.93    0.24
   2  22  -6    2.29    0.32
   2  22  -6    1.73    0.26
  -2 -22   6    2.46    0.30
   3  22  -6    3.40    0.38
   3  22  -6    3.43    0.33
   3  22  -6    3.12    0.35
   3  22  -6    3.42    0.34
  -3 -22   6    4.11    0.32
   4  22  -6    2.75    0.31
   4  22  -6    3.43    0.30
   4  22  -6    3.08    0.34
  -4 -22   6    3.47    0.29
   5  22  -6    0.19    0.19
   5  22  -6    0.36    0.17
  -5 -22   6    0.31    0.17
   6  22  -6    0.27    0.14
  -6  22  -5    1.73    0.22
  -5  22  -5    0.56    0.19
  -4  22  -5    0.43    0.21
  -4  22  -5    0.28    0.20
  -3  22  -5    1.46    0.23
  -3  22  -5    1.65    0.24
  -2  22  -5    0.30    0.23
  -2  22  -5    0.26    0.21
  -1  22  -5    0.06    0.27
  -1  22  -5   -0.17    0.23
  -1  22  -5    0.29    0.21
   1 -22   5   -0.06    0.24
   0  22  -5    4.91    0.39
   0  22  -5    4.60    0.42
   0  22  -5    3.68    0.39
   0 -22   5    4.03    0.39
   1  22  -5    1.73    0.27
   1  22  -5    1.72    0.28
   1  22  -5    1.74    0.25
  -1 -22   5    2.39    0.32
   2  22  -5    4.47    0.41
   2  22  -5    3.92    0.42
   2  22  -5    4.43    0.37
  -2 -22   5    5.11    0.37
   3  22  -5    5.35    0.43
   3  22  -5    5.08    0.40
  -3 -22   5    5.36    0.40
   4  22  -5    2.38    0.34
   4  22  -5    3.11    0.31
  -4 -22   5    3.38    0.30
   5  22  -5    0.60    0.22
   5  22  -5    0.73    0.20
  -5 -22   5    1.22    0.19
   6  22  -5    1.16    0.20
   6  22  -5    1.12    0.18
  -6 -22   5    1.05    0.18
  -6  22  -4    1.10    0.21
  -5  22  -4    1.12    0.22
  -4  22  -4    0.30    0.22
  -4  22  -4    0.75    0.21
  -3  22  -4    3.39    0.34
  -3  22  -4    3.39    0.36
  -2  22  -4    0.49    0.20
  -2  22  -4    0.51    0.26
  -1  22  -4    0.21    0.20
  -1  22  -4    0.87    0.28
   1 -22   4    0.08    0.24
   0  22  -4    2.04    0.28
   0  22  -4    1.29    0.23
   0 -22   4    1.11    0.24
   1  22  -4    0.86    0.25
   1  22  -4    0.36    0.21
  -1 -22   4    0.75    0.21
   2  22  -4    2.88    0.36
   2  22  -4    3.02    0.38
  -2 -22   4    3.75    0.35
   3  22  -4    3.92    0.36
  -3 -22   4    4.21    0.38
   4  22  -4    0.75    0.22
  -4 -22   4    1.05    0.21
   5  22  -4    1.44    0.23
   5  22  -4    1.33    0.26
  -5 -22   4    1.91    0.24
  -5 -22   4    1.91    0.26
  -6 -22   4    1.52    0.21
  -6 -22   4    1.58    0.21
   7  22  -4    0.79    0.19
  -7 -22   4    1.16    0.16
  -7  22  -3    0.71    0.20
   7 -22   3    0.50    0.23
  -6  22  -3    0.20    0.18
   6 -22   3    0.26    0.27
  -5  22  -3    1.20    0.21
  -4  22  -3    1.35    0.21
  -3  22  -3    4.94    0.39
  -2  22  -3    0.19    0.20
  -1  22  -3    0.30    0.20
   0  22  -3    1.30    0.22
   0  22  -3    1.64    0.29
   0 -22   3    1.62    0.25
   1  22  -3    0.38    0.20
   1  22  -3    0.59    0.25
  -1 -22   3    0.75    0.21
   2  22  -3    1.92    0.25
  -2 -22   3    2.07    0.25
   3  22  -3    1.50    0.23
  -3 -22   3    0.44    0.21
   4  22  -3    0.67    0.29
   4  22  -3    0.60    0.23
   5  22  -3    2.18    0.29
   5  22  -3    1.79    0.26
  -5 -22   3    2.02    0.28
   6  22  -3    0.63    0.25
   6  22  -3    0.77    0.23
   6  22  -3    0.32    0.23
  -6 -22   3    1.17    0.20
  -6 -22   3    1.10    0.20
   7  22  -3    2.63    0.31
   7  22  -3    2.32    0.30
  -7 -22   3    2.85    0.27
  -7 -22   3    2.82    0.25
  -7  22  -2    0.39    0.17
   7 -22   2    0.65    0.23
  -6  22  -2    0.41    0.18
   6 -22   2    0.10    0.26
  -5  22  -2    0.22    0.19
   5 -22   2   -0.27    0.29
  -3  22  -2    5.38    0.41
  -2  22  -2    1.80    0.23
  -1  22  -2    2.80    0.34
   0  22  -2    0.89    0.21
   0 -22   2    0.97    0.24
   1  22  -2    2.22    0.25
  -1 -22   2    1.82    0.25
   2  22  -2    1.30    0.24
  -2 -22   2    1.65    0.23
   3  22  -2    0.24    0.27
   3  22  -2    0.28    0.22
  -3 -22   2    0.42    0.20
   4  22  -2    2.19    0.27
   4  22  -2    2.38    0.29
  -4 -22   2    1.73    0.23
   5  22  -2    0.46    0.24
   5  22  -2    0.55    0.24
  -5 -22   2    0.30    0.19
   6  22  -2    1.68    0.25
   6  22  -2    1.47    0.27
  -6 -22   2    1.84    0.27
   7  22  -2    1.55    0.22
  -7 -22   2    1.56    0.23
  -7  22  -1    0.18    0.16
   7 -22   1    0.16    0.22
  -6  22  -1    0.14    0.18
   6 -22   1    0.21    0.25
  -5  22  -1    0.71    0.19
   5 -22   1    0.76    0.28
  -4  22  -1    6.16    0.43
  -3  22  -1    2.80    0.33
  -2  22  -1    0.58    0.20
  -1  22  -1    4.67    0.40
   0  22  -1    2.64    0.33
   0 -22   1    2.92    0.37
   1  22  -1    8.26    0.64
   1  22  -1    9.03    0.56
  -1 -22   1    8.79    0.56
   2  22  -1    0.21    0.22
   2  22  -1    0.41    0.27
  -2 -22   1    0.41    0.20
   3  22  -1    0.96    0.25
   3  22  -1    1.15    0.27
  -3 -22   1    1.12    0.21
   4  22  -1    6.10    0.49
   4  22  -1    6.93    0.51
  -4 -22   1    6.49    0.46
   5  22  -1    0.62    0.27
   5  22  -1    0.29    0.24
  -5 -22   1    0.49    0.19
   6  22  -1    0.47    0.23
  -6 -22   1    0.96    0.20
   7  22  -1    0.41    0.20
  -7 -22   1    0.37    0.19
   8  22  -1    0.15    0.16
  -8  22   0    0.77    0.15
   8 -22   0    0.84    0.18
  -7  22   0    0.35    0.16
   7 -22   0    0.21    0.22
  -6  22   0    0.56    0.18
   6 -22   0    0.41    0.25
  -5  22   0    0.01    0.18
   5 -22   0    0.17    0.26
  -4  22   0   12.48    0.69
   4 -22   0   11.71    0.81
  -3  22   0    1.34    0.22
  -2  22   0    4.30    0.39
  -1  22   0    1.49    0.23
  -1  22   0    1.68    0.30
   0  22   0   12.60    0.80
   0  22   0   13.58    0.75
   0 -22   0   12.78    0.77
   1  22   0    1.53    0.27
   1  22   0    1.38    0.23
   2  22   0    4.39    0.43
   2  22   0    4.30    0.44
  -2 -22   0    4.29    0.40
   3  22   0    1.60    0.28
   3  22   0    2.07    0.29
  -3 -22   0    1.75    0.24
   4  22   0   12.42    0.78
  -4 -22   0   12.77    0.73
   5  22   0    0.14    0.23
  -5 -22   0    0.21    0.19
   6  22   0    0.01    0.22
  -6 -22   0    0.36    0.18
   7  22   0    0.06    0.19
  -7 -22   0    0.42    0.18
   8  22   0    0.47    0.16
  -8  22   1    0.52    0.14
  -7  22   1    0.43    0.16
   7 -22  -1    0.49    0.21
  -6  22   1    0.53    0.18
   6 -22  -1    0.38    0.24
  -5  22   1    0.60    0.20
   5 -22  -1    0.17    0.25
  -4  22   1    6.73    0.46
   4 -22  -1    6.80    0.57
  -3  22   1    1.37    0.29
  -3  22   1    1.00    0.22
   3 -22  -1    0.71    0.35
   3 -22  -1    1.14    0.27
  -2  22   1    0.39    0.27
  -2  22   1    0.40    0.21
   2 -22  -1    0.13    0.24
  -1  22   1    8.85    0.57
  -1  22   1    8.75    0.61
   0  22   1    2.65    0.37
   0  22   1    2.55    0.39
   1  22   1    5.05    0.45
   1  22   1    4.47    0.43
  -1 -22  -1    4.50    0.42
   2  22   1    0.75    0.26
   2  22   1    0.99    0.27
  -2 -22  -1    0.36    0.21
  -3 -22  -1    2.19    0.25
   4  22   1    6.14    0.51
  -4 -22  -1    6.15    0.44
   5  22   1    0.45    0.24
  -5 -22  -1    0.77    0.20
   6  22   1    0.11    0.22
  -6 -22  -1    0.02    0.19
   7  22   1   -0.01    0.19
  -7 -22  -1   -0.15    0.17
   8  22   1    0.20    0.16
  -7  22   2    2.36    0.23
   7 -22  -2    1.66    0.28
  -6  22   2    1.75    0.26
   6 -22  -2    2.03    0.26
  -5  22   2    0.94    0.20
   5 -22  -2    0.67    0.25
  -4  22   2    3.17    0.39
  -4  22   2    2.84    0.33
   4 -22  -2    1.83    0.29
   4 -22  -2    2.27    0.31
  -3  22   2    0.16    0.26
  -3  22   2    0.30    0.21
   3 -22  -2    0.44    0.27
   3 -22  -2    0.30    0.23
  -2  22   2    1.25    0.28
  -2  22   2    1.45    0.24
   2 -22  -2    1.67    0.25
  -1  22   2    1.95    0.26
  -1  22   2    2.15    0.29
   1 -22  -2    1.72    0.26
   0  22   2    0.70    0.25
   0  22   2    1.20    0.26
   1  22   2    3.52    0.41
  -1 -22  -2    3.48    0.40
   2  22   2    1.51    0.27
  -2 -22  -2    1.33    0.23
   3  22   2    6.18    0.51
  -3 -22  -2    6.31    0.46
   4  22   2    6.61    0.50
  -4 -22  -2    5.79    0.45
   5  22   2    0.16    0.24
  -5 -22  -2    0.18    0.19
   6  22   2    0.11    0.22
  -6 -22  -2    0.50    0.19
   7  22   2    0.09    0.20
  -7 -22  -2    0.20    0.17
  -7  22   3    2.91    0.25
   7 -22  -3    2.80    0.28
  -6  22   3    0.61    0.18
  -6  22   3    0.52    0.27
   6 -22  -3    1.08    0.24
   6 -22  -3    0.84    0.21
  -5  22   3    1.91    0.24
  -5  22   3    2.23    0.30
   5 -22  -3    2.10    0.27
   5 -22  -3    2.41    0.36
  -4  22   3    0.83    0.21
  -4  22   3    0.91    0.27
   4 -22  -3    0.53    0.24
   4 -22  -3    0.17    0.25
  -3  22   3    1.27    0.28
  -3  22   3    1.37    0.24
   3 -22  -3    0.56    0.24
   3 -22  -3    0.85    0.26
  -2  22   3    2.00    0.28
  -2  22   3    1.75    0.29
   2 -22  -3    2.90    0.46
   2 -22  -3    2.47    0.37
  -1  22   3    0.51    0.26
  -1  22   3    0.73    0.25
   1 -22  -3    0.42    0.22
   0  22   3    1.04    0.27
   1  22   3    0.36    0.25
  -1 -22  -3    0.57    0.24
   2  22   3    0.36    0.26
  -2 -22  -3    0.52    0.22
   3  22   3    5.37    0.48
  -3 -22  -3    5.10    0.42
   4  22   3    1.67    0.28
  -4 -22  -3    1.97    0.24
   5  22   3    0.85    0.25
  -5 -22  -3    0.66    0.20
   6  22   3    0.44    0.23
  -6 -22  -3    0.45    0.18
   7  22   3    0.38    0.21
  -7 -22  -3    0.91    0.18
  -7  22   4    1.46    0.19
   7 -22  -4    1.18    0.18
  -6  22   4    0.85    0.24
  -6  22   4    0.97    0.19
   6 -22  -4    1.56    0.22
   6 -22  -4    1.40    0.23
  -5  22   4    1.31    0.22
  -5  22   4    1.83    0.28
   5 -22  -4    2.35    0.31
   5 -22  -4    1.91    0.25
  -4  22   4    0.88    0.26
  -4  22   4    0.98    0.22
   4 -22  -4    1.05    0.24
   4 -22  -4    1.04    0.24
  -3  22   4    4.26    0.42
  -3  22   4    4.07    0.41
   3 -22  -4    4.27    0.45
   3 -22  -4    4.95    0.42
  -2  22   4    3.11    0.40
   2 -22  -4    4.01    0.45
   2 -22  -4    3.84    0.39
  -1  22   4    0.70    0.26
   1 -22  -4    0.66    0.23
   0  22   4    1.56    0.28
   1  22   4    0.40    0.25
  -1 -22  -4    0.27    0.24
   2  22   4    0.75    0.26
  -2 -22  -4    0.56    0.23
  -3 -22  -4    1.79    0.25
   4  22   4    0.46    0.26
  -4 -22  -4    0.45    0.20
   5  22   4    1.55    0.26
  -5 -22  -4    0.95    0.20
   6  22   4    1.31    0.24
  -6 -22  -4    1.17    0.20
   7  22   4    1.46    0.22
  -7 -22  -4    1.28    0.18
  -6  22   5    0.96    0.22
  -6  22   5    1.32    0.19
   6 -22  -5    0.91    0.18
   6 -22  -5    1.07    0.19
  -5  22   5    0.71    0.23
  -5  22   5    1.11    0.22
   5 -22  -5    1.10    0.21
   5 -22  -5    1.39    0.21
  -4  22   5    3.17    0.35
  -4  22   5    3.24    0.35
   4 -22  -5    3.00    0.34
   4 -22  -5    3.08    0.35
  -3  22   5    5.83    0.46
   3 -22  -5    5.88    0.48
   3 -22  -5    6.09    0.45
  -2  22   5    5.76    0.45
   2 -22  -5    4.88    0.48
   2 -22  -5    5.30    0.44
  -1  22   5    2.09    0.30
   1 -22  -5    2.40    0.34
   1 -22  -5    2.52    0.32
   0  22   5    4.31    0.41
   1  22   5    0.21    0.25
  -1 -22  -5    0.58    0.27
   2  22   5    0.46    0.25
  -2 -22  -5    0.07    0.23
   3  22   5    1.95    0.28
  -3 -22  -5    1.32    0.24
   4  22   5    0.59    0.25
  -4 -22  -5    1.00    0.21
   5  22   5    0.76    0.24
  -5 -22  -5    0.47    0.18
   6  22   5    2.09    0.30
  -6 -22  -5    2.17    0.23
  -6  22   6    0.17    0.17
   6 -22  -6    0.34    0.14
  -5  22   6    0.26    0.19
   5 -22  -6    0.65    0.19
   5 -22  -6    0.63    0.17
  -4  22   6    3.54    0.33
   4 -22  -6    3.55    0.32
   4 -22  -6    3.55    0.35
  -3  22   6    4.03    0.36
   3 -22  -6    3.47    0.37
   3 -22  -6    4.06    0.34
  -2  22   6    2.27    0.34
   2 -22  -6    2.46    0.32
   2 -22  -6    2.69    0.36
  -1  22   6    2.75    0.37
   1 -22  -6    3.05    0.40
   1 -22  -6    3.95    0.36
   0  22   6    2.33    0.36
   1  22   6    0.90    0.25
   2  22   6    0.57    0.25
  -2 -22  -6    0.76    0.24
   3  22   6    0.52    0.25
  -3 -22  -6    0.25    0.20
   4  22   6    1.04    0.26
  -4 -22  -6    1.37    0.20
   5  22   6    0.43    0.24
  -5 -22  -6    0.38    0.16
  -5  22   7    0.50    0.16
   5 -22  -7    0.33    0.13
   5 -22  -7    0.40    0.16
   4 -22  -7    1.13    0.17
   4 -22  -7    1.06    0.19
  -3  22   7    0.52    0.21
   3 -22  -7    0.40    0.17
   3 -22  -7    0.43    0.19
  -2  22   7    0.27    0.22
   2 -22  -7    0.79    0.19
   2 -22  -7    0.94    0.22
  -1  22   7    0.42    0.23
   0  22   7    0.75    0.24
   0 -22  -7    0.81    0.25
   1  22   7    0.78    0.24
   2  22   7    1.17    0.25
  -2 -22  -7    0.99    0.23
   3  22   7    1.33    0.27
  -3 -22  -7    1.01    0.20
   4  22   7    2.33    0.34
  -4 -22  -7    2.71    0.25
  -5 -22  -7    0.37    0.14
  -3  22   8    0.77    0.18
   3 -22  -8    0.83    0.16
   3 -22  -8    0.65    0.18
  -2  22   8    0.54    0.20
   2 -22  -8    1.01    0.20
  -1  22   8    1.38    0.23
   1 -22  -8    1.49    0.22
   0  22   8    0.28    0.21
   0 -22  -8    0.08    0.20
   1  22   8    0.71    0.23
   2  22   8    0.16    0.25
  -3 -22  -8    1.15    0.19
  -2  23  -8    0.43    0.15
  -1  23  -8    0.35    0.15
  -1  23  -8   -0.10    0.20
   1 -23   8    0.06    0.18
   0  23  -8    0.44    0.17
   0  23  -8    0.61    0.17
   0 -23   8    0.57    0.17
   1  23  -8    0.15    0.15
   1  23  -8   -0.21    0.15
   1  23  -8    0.30    0.20
  -1 -23   8    0.33    0.15
   2  23  -8    0.35    0.19
   2  23  -8    0.36    0.14
   2  23  -8    0.38    0.16
  -2 -23   8    0.26    0.14
  -4  23  -7    1.16    0.16
  -3  23  -7    1.29    0.18
  -2  23  -7    1.37    0.19
  -1  23  -7   -0.20    0.22
  -1  23  -7    0.08    0.21
  -1  23  -7    0.46    0.18
   1 -23   7    0.31    0.20
   0  23  -7    0.73    0.21
   0  23  -7    0.54    0.20
   0  23  -7    0.66    0.20
   0 -23   7    0.53    0.18
   1  23  -7    0.94    0.20
   1  23  -7    1.15    0.21
   1  23  -7    0.64    0.21
  -1 -23   7    1.65    0.24
   2  23  -7    0.20    0.18
   2  23  -7    0.39    0.20
   2  23  -7    0.37    0.18
  -2 -23   7    0.66    0.17
   3  23  -7    0.69    0.20
   3  23  -7    0.25    0.17
  -3 -23   7    0.28    0.16
   4  23  -7    0.47    0.15
  -4 -23   7    0.73    0.15
  -5  23  -6    0.33    0.16
  -4  23  -6    3.12    0.26
  -3  23  -6    1.13    0.23
  -3  23  -6    0.90    0.21
  -2  23  -6    1.86    0.23
  -2  23  -6    1.49    0.23
  -1  23  -6    0.14    0.25
  -1  23  -6    0.45    0.21
  -1  23  -6    0.21    0.21
   1 -23   6    1.03    0.23
   0  23  -6    1.23    0.24
   0  23  -6    1.14    0.22
   0  23  -6    0.70    0.23
   0 -23   6    1.35    0.22
   1  23  -6    1.71    0.25
   1  23  -6    1.65    0.24
   1  23  -6    1.71    0.22
   2  23  -6    1.13    0.22
   2  23  -6    1.76    0.22
   2  23  -6    1.27    0.25
  -2 -23   6    1.97    0.26
   3  23  -6    0.99    0.19
   3  23  -6    0.39    0.27
  -3 -23   6    1.15    0.19
   4  23  -6    0.41    0.17
  -4 -23   6    0.40    0.16
   5  23  -6    0.31    0.15
  -5 -23   6    0.55    0.15
  -5  23  -5    0.12    0.18
  -4  23  -5    3.46    0.33
  -4  23  -5    3.86    0.32
  -3  23  -5    0.50    0.23
  -3  23  -5    0.34    0.20
  -2  23  -5    5.04    0.37
  -2  23  -5    4.48    0.39
  -1  23  -5    0.97    0.21
  -1  23  -5    0.67    0.28
  -1  23  -5    0.81    0.25
   1 -23   5    0.97    0.24
   0  23  -5    5.64    0.45
   0  23  -5    6.05    0.45
   0  23  -5    5.80    0.42
   0 -23   5    5.53    0.42
   1  23  -5    1.84    0.27
   1  23  -5    2.47    0.31
  -1 -23   5    2.59    0.31
   2  23  -5    0.51    0.22
   2  23  -5    0.46    0.20
  -2 -23   5    0.52    0.20
   3  23  -5    0.52    0.20
  -3 -23   5    0.31    0.19
   4  23  -5    1.40    0.21
  -4 -23   5    1.19    0.20
   5  23  -5    0.21    0.17
  -5 -23   5    0.50    0.16
   6  23  -5    1.22    0.17
  -6 -23   5    1.73    0.20
  -5  23  -4    0.50    0.22
  -5  23  -4    0.74    0.20
  -4  23  -4    2.11    0.28
  -4  23  -4    2.42    0.28
  -3  23  -4    1.03    0.21
  -2  23  -4    1.97    0.29
  -1  23  -4    2.11    0.30
   0  23  -4   10.19    0.59
   0  23  -4    9.75    0.64
   0 -23   4    9.54    0.60
   1  23  -4    2.23    0.32
   1  23  -4    1.90    0.28
  -1 -23   4    1.89    0.24
   2  23  -4    1.25    0.23
  -2 -23   4    1.86    0.23
   3  23  -4    0.76    0.21
  -3 -23   4    0.63    0.20
   4  23  -4    1.95    0.28
  -4 -23   4    1.86    0.26
   5  23  -4    0.68    0.20
  -5 -23   4    0.77    0.18
   6  23  -4    1.08    0.19
  -6 -23   4    1.43    0.18
  -6  23  -3    0.75    0.18
  -5  23  -3    0.27    0.18
  -4  23  -3    1.47    0.21
  -3  23  -3    0.65    0.20
  -2  23  -3    0.92    0.22
  -1  23  -3    6.04    0.43
   0  23  -3    5.19    0.40
   0 -23   3    5.63    0.43
   1  23  -3    1.64    0.24
  -1 -23   3    1.37    0.24
   2  23  -3    0.37    0.22
  -2 -23   3    1.72    0.22
   3  23  -3    1.68    0.25
  -3 -23   3    1.86    0.23
   4  23  -3    2.27    0.26
  -4 -23   3    2.01    0.28
   5  23  -3    0.27    0.21
   5  23  -3    0.72    0.25
  -5 -23   3    0.58    0.18
   6  23  -3    0.21    0.22
   6  23  -3    0.19    0.22
  -6 -23   3    0.20    0.17
  -7 -23   3    0.55    0.18
  -7  23  -2    0.25    0.15
   7 -23   2    0.20    0.23
  -6  23  -2    0.68    0.18
  -5  23  -2    0.41    0.18
  -4  23  -2    0.37    0.18
  -3  23  -2    0.38    0.20
  -2  23  -2    0.27    0.20
  -1  23  -2    2.57    0.33
   0  23  -2    3.46    0.35
   0 -23   2    2.45    0.37
   1  23  -2    0.92    0.22
  -1 -23   2    0.39    0.21
   2  23  -2    1.52    0.24
  -2 -23   2    1.36    0.22
   3  23  -2    2.29    0.34
   3  23  -2    2.93    0.40
  -3 -23   2    2.11    0.25
   4  23  -2    2.13    0.29
   4  23  -2    2.44    0.28
  -4 -23   2    2.53    0.30
   5  23  -2    0.40    0.23
   5  23  -2    0.29    0.24
  -5 -23   2    0.84    0.19
   6  23  -2    0.45    0.21
   6  23  -2    0.37    0.25
  -6 -23   2    0.31    0.17
   7  23  -2    0.46    0.18
  -7 -23   2    0.78    0.18
  -7  23  -1    3.10    0.24
   7 -23   1    2.35    0.32
  -6  23  -1    3.84    0.30
   6 -23   1    3.50    0.41
  -5  23  -1    1.19    0.20
   5 -23   1    1.61    0.31
  -4  23  -1    0.32    0.19
  -3  23  -1    1.81    0.23
  -2  23  -1    1.10    0.22
  -1  23  -1    0.77    0.21
   0  23  -1    1.94    0.25
   0 -23   1    2.26    0.27
   1  23  -1    0.54    0.29
   1  23  -1    0.54    0.22
   2  23  -1    8.18    0.60
   2  23  -1    8.67    0.55
  -2 -23   1    8.17    0.53
   3  23  -1    9.37    0.67
   3  23  -1   10.38    0.64
  -3 -23   1   10.89    0.62
   4  23  -1    6.02    0.48
   4  23  -1    6.10    0.48
  -4 -23   1    6.38    0.44
   5  23  -1    1.42    0.29
   5  23  -1    1.57    0.25
  -5 -23   1    1.86    0.22
   6  23  -1    0.25    0.21
  -6 -23   1    0.29    0.17
   7  23  -1    0.44    0.18
  -7 -23   1    0.55    0.17
  -7  23   0    0.12    0.15
   7 -23   0    0.47    0.20
  -6  23   0    4.67    0.33
   6 -23   0    4.08    0.41
  -5  23   0    0.62    0.19
   5 -23   0    0.51    0.27
  -4  23   0    5.04    0.39
  -3  23   0    2.53    0.33
  -2  23   0    4.38    0.38
  -1  23   0    0.68    0.30
  -1  23   0    0.39    0.21
   0  23   0   -0.14    0.25
   0  23   0   -0.23    0.21
   0 -23   0   -0.09    0.25
   1  23   0    0.58    0.26
   1  23   0    0.41    0.22
  -1 -23   0    0.28    0.22
   2  23   0    4.19    0.42
   2  23   0    4.22    0.44
  -2 -23   0    4.49    0.40
   3  23   0    2.28    0.30
   3  23   0    2.58    0.31
  -3 -23   0    2.88    0.33
   4  23   0    4.17    0.43
  -4 -23   0    5.41    0.39
   5  23   0    0.68    0.23
  -5 -23   0    0.71    0.19
   6  23   0    4.34    0.38
  -6 -23   0    4.92    0.35
   7  23   0    0.54    0.18
  -7 -23   0    0.03    0.16
  -7  23   1    0.81    0.16
   7 -23  -1    0.87    0.20
  -6  23   1    0.45    0.17
   6 -23  -1    0.64    0.23
  -5  23   1    1.62    0.22
   5 -23  -1    2.20    0.29
  -4  23   1    7.30    0.47
   4 -23  -1    7.06    0.59
  -3  23   1   10.37    0.62
  -2  23   1    8.46    0.54
  -2  23   1    8.00    0.58
  -1  23   1    0.59    0.22
  -1  23   1    0.49    0.26
   0  23   1    1.90    0.27
   0  23   1    2.77    0.37
   1  23   1    1.10    0.25
   1  23   1    1.10    0.26
  -1 -23  -1    1.32    0.24
   2  23   1    1.05    0.26
   2  23   1    1.18    0.27
  -2 -23  -1    1.10    0.22
   3  23   1    2.47    0.38
  -3 -23  -1    2.16    0.25
   4  23   1    0.20    0.24
  -4 -23  -1    0.38    0.19
   5  23   1    1.10    0.24
  -5 -23  -1    1.57    0.21
   6  23   1    3.45    0.33
  -6 -23  -1    3.50    0.30
   7  23   1    2.66    0.28
  -7 -23  -1    2.92    0.26
  -7  23   2    0.43    0.14
   7 -23  -2    0.34    0.17
  -6  23   2    0.19    0.17
   6 -23  -2    0.12    0.20
  -5  23   2    0.50    0.18
   5 -23  -2    0.62    0.23
  -4  23   2    2.46    0.32
  -4  23   2    2.90    0.31
   4 -23  -2    2.67    0.38
   4 -23  -2    2.21    0.31
  -3  23   2    2.71    0.37
  -3  23   2    2.59    0.34
   3 -23  -2    2.39    0.33
   3 -23  -2    1.89    0.28
  -2  23   2    1.56    0.28
  -2  23   2    0.83    0.24
   2 -23  -2    1.27    0.26
  -1  23   2    0.88    0.24
  -1  23   2    1.10    0.27
   0  23   2    2.87    0.32
   0  23   2    2.96    0.38
   1  23   2    2.76    0.39
  -1 -23  -2    2.82    0.29
   2  23   2    0.49    0.25
  -2 -23  -2    0.02    0.20
   3  23   2    0.47    0.25
  -3 -23  -2    1.06    0.21
   4  23   2    0.53    0.24
  -4 -23  -2    0.37    0.20
   5  23   2    0.24    0.23
  -5 -23  -2    0.82    0.20
   6  23   2    0.88    0.22
  -6 -23  -2    0.89    0.19
   7  23   2    0.07    0.17
  -7 -23  -2    0.47    0.16
  -7  23   3    0.27    0.14
   7 -23  -3    0.38    0.15
  -6  23   3   -0.01    0.16
   6 -23  -3    0.23    0.19
  -5  23   3    0.90    0.26
  -5  23   3    0.60    0.19
   5 -23  -3    0.64    0.22
   5 -23  -3    0.60    0.23
  -4  23   3    2.38    0.35
  -4  23   3    2.24    0.30
   4 -23  -3    2.34    0.29
   4 -23  -3    2.10    0.27
  -3  23   3    2.53    0.35
  -3  23   3    2.13    0.26
   3 -23  -3    1.97    0.30
   3 -23  -3    1.72    0.26
  -2  23   3    1.26    0.25
  -2  23   3    1.08    0.26
  -1  23   3    1.42    0.27
  -1  23   3    1.64    0.28
   1 -23  -3    1.45    0.25
   0  23   3    5.54    0.48
   1  23   3    6.07    0.50
  -1 -23  -3    6.75    0.49
   2  23   3    0.84    0.25
  -2 -23  -3   -0.04    0.22
   3  23   3    0.63    0.25
  -3 -23  -3    0.68    0.22
   4  23   3    1.82    0.27
  -4 -23  -3    1.95    0.29
   5  23   3   -0.12    0.22
  -5 -23  -3    0.05    0.18
   6  23   3    0.42    0.19
  -6 -23  -3    0.69    0.17
   7  23   3    0.18    0.17
  -7 -23  -3    0.19    0.14
  -6  23   4    1.14    0.24
  -6  23   4    1.30    0.18
   6 -23  -4    1.29    0.20
   6 -23  -4    1.43    0.21
  -5  23   4    1.24    0.24
  -5  23   4    0.88    0.20
   5 -23  -4    0.36    0.20
   5 -23  -4    0.72    0.21
  -4  23   4    2.47    0.31
   4 -23  -4    1.73    0.26
   4 -23  -4    2.24    0.30
  -3  23   4    1.41    0.26
  -3  23   4    1.06    0.25
   3 -23  -4    0.53    0.25
   3 -23  -4    0.75    0.22
   2 -23  -4    2.09    0.31
   2 -23  -4    2.21    0.34
  -1  23   4    2.38    0.35
   1 -23  -4    2.37    0.28
   1  23   4    2.68    0.31
  -1 -23  -4    2.45    0.37
   2  23   4    2.39    0.35
  -2 -23  -4    1.65    0.25
   3  23   4    0.65    0.25
  -3 -23  -4    1.07    0.22
   4  23   4    2.44    0.35
  -4 -23  -4    2.45    0.29
   5  23   4    0.27    0.23
  -5 -23  -4    0.55    0.17
   6  23   4    0.48    0.20
  -6 -23  -4    0.28    0.16
  -6  23   5    1.52    0.24
   6 -23  -5    1.85    0.23
   6 -23  -5    2.00    0.23
  -5  23   5    0.57    0.21
  -5  23   5    0.91    0.21
   5 -23  -5    1.09    0.19
   5 -23  -5    0.72    0.18
   4 -23  -5    1.07    0.20
   4 -23  -5    1.22    0.22
  -3  23   5    0.67    0.24
   3 -23  -5    0.39    0.23
   3 -23  -5    0.63    0.21
  -2  23   5    0.48    0.24
   2 -23  -5    0.45    0.24
   2 -23  -5    0.82    0.21
  -1  23   5    2.71    0.35
   1 -23  -5    2.53    0.34
   0  23   5    6.38    0.48
   1  23   5    0.91    0.25
   2  23   5    4.67    0.42
  -2 -23  -5    4.52    0.40
   3  23   5    0.21    0.23
  -3 -23  -5    0.29    0.21
   4  23   5    4.44    0.39
  -4 -23  -5    4.43    0.34
   5  23   5    0.11    0.22
  -5 -23  -5    0.37    0.16
   6  23   5   -0.07    0.20
  -6 -23  -5    0.09    0.13
  -5  23   6    0.47    0.18
   5 -23  -6    0.88    0.17
   5 -23  -6    0.48    0.16
  -4  23   6    0.78    0.20
   4 -23  -6    0.54    0.18
  -3  23   6    1.02    0.22
   3 -23  -6    0.86    0.19
   3 -23  -6    0.96    0.21
  -2  23   6    1.48    0.25
   2 -23  -6    2.31    0.28
   2 -23  -6    2.29    0.34
  -1  23   6    2.46    0.32
   1 -23  -6    2.76    0.38
   0  23   6    1.14    0.24
   1  23   6    0.41    0.23
   2  23   6    1.85    0.27
  -2 -23  -6    1.77    0.25
   3  23   6    0.96    0.24
  -3 -23  -6    0.63    0.20
   4  23   6    3.16    0.33
  -4 -23  -6    2.97    0.27
   5  23   6    0.58    0.22
  -5 -23  -6    0.19    0.14
  -4  23   7    0.32    0.16
   4 -23  -7    0.61    0.16
   4 -23  -7    0.64    0.14
  -3  23   7    0.14    0.18
   3 -23  -7    0.62    0.18
   3 -23  -7    0.53    0.15
  -2  23   7    0.57    0.21
   2 -23  -7    0.89    0.22
   2 -23  -7    0.70    0.18
  -1  23   7    0.74    0.22
   1 -23  -7    1.26    0.24
   0  23   7    1.16    0.23
   1  23   7    0.19    0.21
   2  23   7    2.37    0.31
  -3 -23  -7    0.88    0.19
  -4 -23  -7    0.67    0.16
  -2  23   8    0.56    0.17
   2 -23  -8    0.37    0.17
  -1  23   8    0.54    0.19
   1 -23  -8   -0.01    0.19
   0  23   8    0.58    0.19
   1  23   8    0.26    0.21
  -3  24  -7    0.43    0.18
  -2  24  -7    0.59    0.17
  -1  24  -7    1.00    0.19
  -1  24  -7    0.67    0.21
   0  24  -7    1.82    0.23
   0  24  -7    2.44    0.26
   0  24  -7    2.17    0.25
   0 -24   7    2.16    0.24
   1  24  -7    0.19    0.19
   1  24  -7    0.18    0.17
   1  24  -7   -0.09    0.17
  -1 -24   7    0.19    0.16
   2  24  -7    0.27    0.20
   2  24  -7    0.13    0.16
  -2 -24   7    0.20    0.15
   3  24  -7    0.06    0.15
  -3 -24   7    0.29    0.13
  -4  24  -6   -0.05    0.17
  -3  24  -6    0.12    0.19
  -3  24  -6    0.42    0.22
  -2  24  -6   -0.06    0.19
  -2  24  -6    0.54    0.20
  -1  24  -6    1.33    0.21
  -1  24  -6    0.90    0.22
   0  24  -6    3.54    0.30
   0  24  -6    3.47    0.33
   0  24  -6    2.90    0.33
   0 -24   6    3.27    0.31
   1  24  -6   -0.01    0.18
   1  24  -6    0.19    0.20
   1  24  -6   -0.04    0.25
  -1 -24   6    0.25    0.18
   2  24  -6    4.36    0.31
  -2 -24   6    3.33    0.30
   3  24  -6    0.60    0.17
  -3 -24   6    1.03    0.17
   4  24  -6    1.96    0.22
  -4 -24   6    2.04    0.20
  -4  24  -5    0.70    0.20
  -4  24  -5    0.69    0.22
  -3  24  -5    0.58    0.19
  -3  24  -5    0.43    0.23
  -2  24  -5    0.33    0.19
  -1  24  -5    1.15    0.21
   0  24  -5    2.74    0.30
   0 -24   5    3.07    0.32
   1  24  -5    0.24    0.19
  -1 -24   5    0.27    0.19
   2  24  -5    5.34    0.36
  -2 -24   5    4.03    0.35
   3  24  -5    1.03    0.20
  -3 -24   5    1.26    0.19
   4  24  -5    2.58    0.27
  -4 -24   5    3.75    0.27
   5  24  -5    0.41    0.16
  -5 -24   5    0.17    0.13
  -5  24  -4    0.11    0.17
  -4  24  -4    0.89    0.19
  -3  24  -4    0.88    0.19
  -2  24  -4    3.72    0.33
  -1  24  -4    0.67    0.20
   0  24  -4    0.53    0.20
   0 -24   4    0.26    0.22
   1  24  -4    0.10    0.20
  -1 -24   4    0.07    0.20
   2  24  -4    4.25    0.35
  -2 -24   4    4.28    0.35
   3  24  -4    1.96    0.29
  -3 -24   4    1.74    0.22
   4  24  -4    2.20    0.28
  -4 -24   4    2.96    0.26
   5  24  -4   -0.08    0.17
  -5 -24   4    0.39    0.16
   6  24  -4    1.04    0.18
  -6 -24   4    1.16    0.16
  -6  24  -3    0.77    0.17
  -5  24  -3    0.51    0.18
  -4  24  -3    2.63    0.28
  -3  24  -3    2.42    0.29
  -2  24  -3    5.09    0.38
  -1  24  -3    0.10    0.19
   0  24  -3    1.54    0.22
   0 -24   3    1.45    0.24
   1  24  -3    0.18    0.20
  -1 -24   3    0.67    0.21
   2  24  -3    2.39    0.32
  -2 -24   3    1.96    0.29
   3  24  -3    1.07    0.22
  -3 -24   3    1.09    0.20
   4  24  -3    0.87    0.22
  -4 -24   3    1.45    0.19
   5  24  -3    0.20    0.20
  -5 -24   3    0.09    0.16
   6  24  -3    1.64    0.22
  -6 -24   3    1.45    0.22
  -6  24  -2    0.52    0.16
  -5  24  -2    0.10    0.17
  -4  24  -2    3.48    0.31
  -3  24  -2    0.85    0.20
  -2  24  -2    6.76    0.46
  -1  24  -2    0.24    0.20
   0  24  -2    3.79    0.36
   0 -24   2    3.82    0.39
   1  24  -2    0.60    0.21
  -1 -24   2    0.82    0.22
   2  24  -2    1.20    0.23
  -2 -24   2    0.80    0.21
   3  24  -2    0.28    0.28
   3  24  -2   -0.11    0.21
  -3 -24   2    0.02    0.18
   4  24  -2   -0.04    0.23
   4  24  -2   -0.01    0.22
  -4 -24   2    0.33    0.18
   5  24  -2    0.21    0.22
   5  24  -2    0.18    0.22
  -5 -24   2    0.18    0.17
   6  24  -2    1.27    0.22
  -6 -24   2    1.66    0.21
  -6  24  -1    0.19    0.15
   6 -24   1    0.57    0.25
  -5  24  -1    0.89    0.18
  -4  24  -1    2.44    0.27
  -3  24  -1    0.95    0.20
  -2  24  -1    2.85    0.33
  -1  24  -1    0.37    0.21
   0  24  -1   10.04    0.60
   0 -24   1    9.87    0.63
   1  24  -1    4.39    0.39
  -1 -24   1    4.51    0.39
   2  24  -1    1.62    0.28
   2  24  -1    1.31    0.25
  -2 -24   1    1.48    0.22
   3  24  -1    0.17    0.23
   3  24  -1    0.00    0.24
  -3 -24   1    0.63    0.19
   4  24  -1    0.56    0.25
   4  24  -1    0.58    0.23
  -4 -24   1    0.31    0.18
   5  24  -1   -0.01    0.21
  -5 -24   1    0.14    0.17
   6  24  -1    0.98    0.20
  -6 -24   1    0.96    0.17
  -7  24   0    0.52    0.14
  -6  24   0    0.72    0.16
   6 -24   0    1.09    0.25
  -5  24   0    0.15    0.17
   5 -24   0    0.47    0.28
  -4  24   0    4.31    0.34
  -3  24   0    0.52    0.20
  -2  24   0    6.45    0.45
  -1  24   0    0.52    0.22
   0  24   0   21.24    1.08
   0  24   0   19.34    1.15
   1  24   0    0.53    0.23
   1  24   0    0.59    0.27
  -1 -24   0    0.62    0.22
   2  24   0    6.45    0.48
   2  24   0    6.14    0.49
  -2 -24   0    6.19    0.45
   3  24   0    0.74    0.24
   3  24   0    0.64    0.26
  -3 -24   0    0.36    0.19
   4  24   0    3.63    0.37
  -4 -24   0    4.00    0.34
   5  24   0   -0.08    0.20
  -5 -24   0    0.13    0.17
   6  24   0    0.20    0.19
  -6 -24   0    0.69    0.17
   7  24   0    0.45    0.16
  -7 -24   0    0.22    0.15
  -6  24   1    0.97    0.17
   6 -24  -1    1.08    0.22
  -5  24   1    0.14    0.17
   5 -24  -1   -0.08    0.24
  -4  24   1    0.58    0.19
  -3  24   1    0.55    0.20
  -2  24   1    1.38    0.29
  -2  24   1    1.35    0.23
  -1  24   1    4.16    0.39
  -1  24   1    4.00    0.41
   0  24   1    9.86    0.65
   0  24   1   10.13    0.62
   1  24   1    0.61    0.24
   1  24   1    1.01    0.25
  -1 -24  -1    0.76    0.23
   2  24   1    2.83    0.39
  -2 -24  -1    3.48    0.36
   3  24   1    0.79    0.24
  -3 -24  -1    0.80    0.20
   4  24   1    2.61    0.35
  -4 -24  -1    3.29    0.31
   5  24   1    0.82    0.22
  -5 -24  -1    0.95    0.19
   6  24   1    0.08    0.18
  -6 -24  -1    0.20    0.16
  -6  24   2    1.91    0.22
   6 -24  -2    1.89    0.28
  -5  24   2    0.12    0.17
   5 -24  -2    0.34    0.22
  -4  24   2    0.31    0.20
   4 -24  -2    0.64    0.25
   4 -24  -2    0.66    0.26
  -3  24   2    0.46    0.25
  -3  24   2    0.20    0.21
   3 -24  -2    0.12    0.23
  -2  24   2    1.05    0.23
  -2  24   2    1.05    0.27
  -1  24   2    0.92    0.25
  -1  24   2    0.99    0.24
   0  24   2    3.97    0.40
   0  24   2    3.47    0.40
   1  24   2    0.13    0.23
  -1 -24  -2    0.26    0.23
   2  24   2    6.31    0.49
  -2 -24  -2    6.04    0.45
   3  24   2    0.87    0.25
  -3 -24  -2    1.22    0.21
   4  24   2    3.72    0.38
  -4 -24  -2    3.86    0.34
   5  24   2    0.33    0.21
  -5 -24  -2    0.30    0.17
   6  24   2    0.10    0.19
  -6 -24  -2    0.18    0.15
  -6  24   3    1.68    0.21
   6 -24  -3    1.23    0.20
  -5  24   3   -0.15    0.24
  -5  24   3   -0.04    0.17
   5 -24  -3    0.35    0.22
   5 -24  -3    0.27    0.21
  -4  24   3    0.69    0.25
  -4  24   3    1.09    0.22
   4 -24  -3    1.48    0.23
   4 -24  -3    1.46    0.25
  -3  24   3    1.75    0.24
  -3  24   3    1.26    0.26
   3 -24  -3    1.56    0.24
  -2  24   3    2.34    0.35
  -2  24   3    2.46    0.35
   2 -24  -3    2.07    0.27
  -1  24   3    0.11    0.24
   0  24   3    1.61    0.27
   1  24   3    0.29    0.24
  -1 -24  -3   -0.10    0.23
   2  24   3    4.88    0.42
  -2 -24  -3    5.02    0.41
   3  24   3    1.96    0.28
  -3 -24  -3    2.39    0.31
   4  24   3    2.43    0.32
  -4 -24  -3    1.71    0.23
   5  24   3    0.65    0.21
  -5 -24  -3    0.81    0.18
   6  24   3    0.45    0.19
  -6 -24  -3    0.65    0.15
  -6  24   4    1.08    0.17
   6 -24  -4    1.06    0.17
  -5  24   4    0.07    0.21
  -5  24   4    0.40    0.19
   5 -24  -4    0.21    0.18
   5 -24  -4    0.16    0.19
  -4  24   4    2.51    0.31
  -4  24   4    2.56    0.31
   4 -24  -4    2.87    0.32
   4 -24  -4    2.97    0.30
  -3  24   4    2.38    0.33
  -3  24   4    1.46    0.26
   3 -24  -4    1.98    0.28
   3 -24  -4    1.67    0.24
  -2  24   4    4.86    0.39
   2 -24  -4    4.15    0.38
  -1  24   4    0.14    0.24
   0  24   4    0.43    0.24
   1  24   4    0.78    0.24
   2  24   4    3.45    0.38
  -2 -24  -4    4.14    0.36
   3  24   4    1.04    0.24
  -3 -24  -4    0.95    0.21
   4  24   4    1.48    0.24
  -4 -24  -4    1.38    0.20
   5  24   4    0.56    0.20
  -5 -24  -4    0.28    0.16
   6  24   4    0.61    0.18
  -5  24   5    0.09    0.18
   5 -24  -5    0.25    0.15
   5 -24  -5   -0.12    0.16
  -4  24   5    3.13    0.31
   4 -24  -5    3.67    0.33
   4 -24  -5    3.70    0.29
  -3  24   5    1.05    0.23
   3 -24  -5    0.97    0.23
   3 -24  -5    1.39    0.20
   2 -24  -5    3.74    0.42
   2 -24  -5    4.42    0.36
  -1  24   5    0.11    0.22
   0  24   5    2.92    0.33
   1  24   5    1.06    0.23
   2  24   5    0.62    0.22
  -2 -24  -5    0.42    0.22
   3  24   5    0.44    0.22
  -3 -24  -5    0.49    0.20
   4  24   5    0.89    0.22
  -4 -24  -5    0.52    0.17
   5  24   5    0.34    0.18
  -5 -24  -5    0.23    0.14
  -4  24   6    2.02    0.24
   4 -24  -6    2.14    0.26
   4 -24  -6    2.25    0.22
  -3  24   6    0.80    0.19
   3 -24  -6    0.91    0.17
   3 -24  -6    0.96    0.21
  -2  24   6    4.44    0.34
   2 -24  -6    3.49    0.38
  -1  24   6    0.06    0.20
   0  24   6    3.82    0.34
   1  24   6    1.37    0.23
   2  24   6    0.57    0.21
  -2 -24  -6    0.07    0.22
   3  24   6    0.04    0.20
  -3 -24  -6    0.18    0.17
   4  24   6    0.59    0.20
  -4 -24  -6    0.00    0.15
  -3  24   7    0.13    0.15
   3 -24  -7    0.38    0.19
  -2  24   7    0.45    0.17
   2 -24  -7    0.04    0.20
  -1  24   7    0.30    0.18
   0  24   7    2.16    0.25
   1  24   7    0.91    0.21
   2  24   7    0.41    0.20
   3  24   7    0.98    0.22
   1  25  -7    0.08    0.16
  -1 -25   7    0.36    0.15
  -2  25  -6    2.53    0.27
  -1  25  -6    0.31    0.17
   0  25  -6    1.34    0.19
   0 -25   6    1.21    0.20
   1  25  -6    0.38    0.15
   2  25  -6    0.26    0.15
  -2 -25   6    0.67    0.16
   3  25  -6    0.68    0.15
  -3 -25   6    0.53    0.14
  -4  25  -5    1.71    0.25
  -3  25  -5    0.16    0.17
  -2  25  -5    3.36    0.29
  -1  25  -5    0.24    0.18
   0  25  -5    2.96    0.29
   0 -25   5    2.68    0.31
   1  25  -5    0.53    0.17
  -1 -25   5    0.74    0.19
   2  25  -5    0.37    0.17
  -2 -25   5    0.22    0.17
   3  25  -5    0.40    0.16
  -3 -25   5    0.74    0.16
   4  25  -5    0.06    0.15
  -4 -25   5    0.15    0.14
  -5  25  -4    0.14    0.18
  -4  25  -4    1.54    0.19
  -3  25  -4    0.24    0.17
  -2  25  -4    2.57    0.27
  -1  25  -4    0.25    0.18
   0  25  -4    5.12    0.38
   0 -25   4    5.71    0.40
   1  25  -4    0.79    0.19
  -1 -25   4    0.76    0.20
   2  25  -4    2.23    0.27
  -2 -25   4    1.42    0.21
   3  25  -4    0.23    0.18
  -3 -25   4    0.29    0.16
   4  25  -4    0.53    0.18
  -4 -25   4    0.69    0.16
   5  25  -4    0.35    0.16
  -5 -25   4    0.25    0.13
  -5  25  -3    0.48    0.16
  -4  25  -3    0.93    0.17
  -3  25  -3    0.65    0.18
  -2  25  -3    0.97    0.19
  -1  25  -3    1.40    0.21
   0  25  -3    4.68    0.35
   0 -25   3    4.23    0.38
   1  25  -3    0.10    0.19
  -1 -25   3    0.41    0.20
   2  25  -3    3.83    0.33
  -2 -25   3    3.00    0.32
   3  25  -3   -0.16    0.19
  -3 -25   3    0.10    0.17
   4  25  -3    0.85    0.20
   5  25  -3    0.30    0.19
  -5 -25   3    0.23    0.14
  -6  25  -2    0.77    0.15
  -5  25  -2    0.13    0.15
  -4  25  -2    0.22    0.17
  -3  25  -2    0.14    0.18
  -2  25  -2    0.11    0.18
  -1  25  -2    0.78    0.20
   0  25  -2    2.71    0.31
   0 -25   2    2.29    0.35
   1  25  -2    0.02    0.20
  -1 -25   2    0.24    0.20
   2  25  -2    3.86    0.37
  -2 -25   2    4.36    0.35
   3  25  -2   -0.10    0.21
  -3 -25   2    0.08    0.17
   4  25  -2    1.38    0.26
   4  25  -2    1.27    0.23
  -4 -25   2    1.82    0.25
   5  25  -2    0.11    0.22
   5  25  -2    0.17    0.21
  -5 -25   2    0.03    0.15
  -6 -25   2    0.39    0.14
  -6  25  -1    3.84    0.27
  -5  25  -1   -0.01    0.15
  -4  25  -1    0.95    0.18
  -3  25  -1    0.29    0.18
  -2  25  -1    1.97    0.29
  -1  25  -1    0.35    0.20
   0  25  -1    2.16    0.25
   1  25  -1    0.85    0.22
  -1 -25   1    0.93    0.22
   2  25  -1   11.55    0.64
   2  25  -1   10.15    0.68
  -2 -25   1   10.41    0.63
   3  25  -1    0.34    0.23
   3  25  -1    0.31    0.22
  -3 -25   1    0.46    0.18
   4  25  -1    3.18    0.33
   4  25  -1    3.03    0.35
  -4 -25   1    3.16    0.29
   5  25  -1    0.18    0.20
  -5 -25   1    0.23    0.16
   6  25  -1    1.11    0.19
  -6 -25   1    0.67    0.15
  -6  25   0    2.48    0.22
  -5  25   0    0.39    0.16
  -4  25   0    2.10    0.26
  -3  25   0    0.02    0.18
  -2  25   0    4.77    0.39
  -1  25   0    1.69    0.24
   0  25   0   -0.03    0.20
   0  25   0   -0.19    0.26
   1  25   0    1.09    0.27
   1  25   0    1.14    0.24
  -1 -25   0    1.45    0.23
   2  25   0    4.13    0.40
   2  25   0    4.16    0.40
  -2 -25   0    4.47    0.37
   3  25   0    0.21    0.22
   3  25   0    0.27    0.25
  -3 -25   0    0.28    0.19
   4  25   0    2.23    0.30
  -4 -25   0    2.55    0.28
   5  25   0    0.11    0.19
  -5 -25   0    0.51    0.16
   6  25   0    2.45    0.25
  -6 -25   0    2.33    0.23
   6 -25  -1    0.43    0.20
  -5  25   1    0.41    0.16
   5 -25  -1    0.26    0.25
  -4  25   1    4.10    0.32
  -3  25   1    0.45    0.19
  -2  25   1   11.46    0.66
  -1  25   1    0.73    0.25
  -1  25   1    1.01    0.23
   0  25   1    1.62    0.27
   0  25   1    1.69    0.25
   1  25   1    0.07    0.23
   1  25   1    0.15    0.23
  -1 -25  -1    0.46    0.22
   2  25   1    1.95    0.27
  -2 -25  -1    2.28    0.31
   3  25   1    0.23    0.22
  -3 -25  -1    0.12    0.18
   4  25   1    0.48    0.21
  -4 -25  -1    0.85    0.19
   5  25   1   -0.06    0.19
  -5 -25  -1    0.07    0.15
   6  25   1    3.26    0.29
  -6 -25  -1    3.65    0.26
  -6  25   2    0.77    0.14
   6 -25  -2    0.35    0.20
  -5  25   2    0.20    0.16
   5 -25  -2    0.18    0.22
  -4  25   2    2.01    0.27
  -3  25   2    0.06    0.20
  -3  25   2   -0.02    0.26
  -2  25   2    3.73    0.36
  -2  25   2    3.73    0.39
  -1  25   2    0.23    0.24
  -1  25   2    0.48    0.24
   0  25   2    2.69    0.37
   0  25   2    2.63    0.35
   1  25   2    0.79    0.24
  -1 -25  -2    0.85    0.24
   2  25   2    0.08    0.23
  -2 -25  -2    0.63    0.21
   3  25   2    0.02    0.22
  -3 -25  -2    0.02    0.19
   4  25   2   -0.03    0.21
  -4 -25  -2    0.05    0.17
   5  25   2    0.29    0.18
  -5 -25  -2    0.00    0.15
   6  25   2    0.48    0.17
  -6 -25  -2    0.56    0.14
  -5  25   3    0.51    0.17
   5 -25  -3    0.15    0.19
  -4  25   3    1.49    0.26
  -4  25   3    1.50    0.22
   4 -25  -3    1.57    0.25
  -3  25   3    0.20    0.21
  -3  25   3    0.17    0.23
  -2  25   3    4.05    0.38
  -2  25   3    3.49    0.37
  -1  25   3    0.45    0.23
   0  25   3    4.82    0.41
   1  25   3    1.27    0.25
   2  25   3    1.09    0.24
   3  25   3    0.33    0.21
  -3 -25  -3    0.25    0.19
   4  25   3    0.88    0.21
  -4 -25  -3    0.52    0.17
   5  25   3    0.44    0.18
  -5 -25  -3    0.21    0.15
  -5  25   4    0.49    0.19
   5 -25  -4    0.06    0.18
  -4  25   4    0.89    0.21
  -4  25   4    0.82    0.21
   4 -25  -4    0.80    0.20
   4 -25  -4    0.88    0.22
  -3  25   4    0.23    0.21
  -2  25   4    2.17    0.30
  -1  25   4    0.44    0.22
   0  25   4    5.09    0.40
   1  25   4    0.35    0.22
   2  25   4    2.96    0.33
  -2 -25  -4    3.07    0.33
   3  25   4    0.26    0.21
  -3 -25  -4    0.16    0.18
   4  25   4    1.66    0.22
  -4 -25  -4    1.29    0.19
   5  25   4    0.50    0.18
  -5 -25  -4    0.23    0.14
  -4  25   5    0.22    0.18
   4 -25  -5    0.20    0.18
   4 -25  -5    0.20    0.16
  -3  25   5    0.80    0.20
   3 -25  -5    0.65    0.22
  -2  25   5    0.61    0.22
  -1  25   5    0.48    0.20
   0  25   5    3.08    0.32
   1  25   5    0.12    0.20
   2  25   5    3.55    0.35
  -2 -25  -5    4.86    0.37
   3  25   5    0.05    0.19
  -3 -25  -5    0.31    0.18
   4  25   5    1.47    0.22
  -4 -25  -5    2.23    0.22
  -3  25   6    0.58    0.17
  -2  25   6    0.41    0.18
  -1  25   6    0.61    0.19
   0  25   6    1.92    0.25
   1  25   6    0.15    0.19
   2  25   6    2.15    0.27
   3  25   6    0.61    0.18
  -3 -25  -6    0.09    0.21
  -1  25   7    0.28    0.15
   0  25   7    0.14    0.16
   1  25   7    1.27    0.19
  -1  26  -6    0.67    0.16
   0  26  -6    2.36    0.22
   1  26  -6    0.42    0.16
  -1 -26   6   -0.05    0.16
  -3  26  -5   -0.01    0.16
  -2  26  -5    0.25    0.16
  -1  26  -5    0.87    0.17
   0  26  -5    1.35    0.18
   0 -26   5    1.01    0.21
   1  26  -5    0.26    0.15
  -1 -26   5    0.14    0.17
   2  26  -5    2.27    0.21
  -2 -26   5    1.60    0.22
   3  26  -5    0.22    0.14
  -3 -26   5    0.46    0.14
  -4  26  -4    0.98    0.16
  -3  26  -4    0.14    0.15
  -2  26  -4    0.45    0.16
  -1  26  -4    0.59    0.17
   0  26  -4    0.71    0.18
   0 -26   4    0.39    0.20
   1  26  -4    0.23    0.17
  -1 -26   4    0.31    0.18
   2  26  -4    1.46    0.19
  -2 -26   4    1.30    0.18
   3  26  -4   -0.11    0.16
  -3 -26   4   -0.07    0.14
   4  26  -4    1.21    0.18
  -4 -26   4    1.16    0.15
  -5  26  -3    0.30    0.14
  -4  26  -3    1.99    0.21
  -3  26  -3    0.01    0.16
  -2  26  -3    2.87    0.27
  -1  26  -3    0.19    0.17
   0  26  -3    0.38    0.18
   1  26  -3   -0.02    0.17
  -1 -26   3    0.04    0.19
   2  26  -3    0.38    0.18
  -2 -26   3   -0.07    0.17
   3  26  -3   -0.04    0.17
  -3 -26   3    0.15    0.16
   4  26  -3    0.92    0.18
  -4 -26   3    0.69    0.15
  -5  26  -2    0.07    0.14
  -4  26  -2    1.47    0.21
  -3  26  -2    0.46    0.17
  -2  26  -2    3.44    0.30
  -1  26  -2    0.65    0.19
   0  26  -2    1.54    0.21
   1  26  -2   -0.03    0.19
  -1 -26   2    0.47    0.20
   2  26  -2    0.26    0.20
  -2 -26   2    0.12    0.18
   3  26  -2   -0.07    0.19
  -3 -26   2    0.10    0.16
   4  26  -2    0.25    0.20
  -4 -26   2   -0.01    0.14
  -5 -26   2    0.19    0.13
  -5  26  -1    0.24    0.14
  -4  26  -1    1.58    0.22
  -3  26  -1    0.10    0.17
  -2  26  -1    2.89    0.30
  -1  26  -1   -0.08    0.18
   0  26  -1    5.49    0.39
   1  26  -1    0.42    0.21
  -1 -26   1    0.39    0.20
   2  26  -1    0.92    0.23
  -2 -26   1    1.07    0.20
   3  26  -1    0.07    0.21
   3  26  -1    0.08    0.23
  -3 -26   1    0.29    0.17
   4  26  -1    0.08    0.20
  -4 -26   1    0.01    0.16
   5  26  -1    0.31    0.19
  -5 -26   1    0.22    0.14
  -5  26   0    0.13    0.14
  -4  26   0    0.45    0.16
  -3  26   0    0.32    0.18
  -2  26   0    2.40    0.29
  -1  26   0   -0.10    0.19
   0  26   0    5.46    0.41
   1  26   0    0.01    0.22
   1  26   0    0.12    0.24
  -1 -26   0    0.04    0.21
   2  26   0    2.49    0.33
   2  26   0    2.37    0.34
  -2 -26   0    2.44    0.30
   3  26   0    0.12    0.21
  -3 -26   0    0.53    0.18
   4  26   0    0.42    0.20
  -4 -26   0    0.36    0.16
   5  26   0    0.04    0.17
  -5 -26   0    0.25    0.14
  -5  26   1    0.25    0.15
  -4  26   1    0.05    0.16
  -3  26   1    0.37    0.18
  -2  26   1    1.10    0.22
  -1  26   1    0.62    0.21
  -1  26   1    0.11    0.25
   0  26   1    5.17    0.44
   0  26   1    5.75    0.42
   1  26   1   -0.17    0.24
   1  26   1   -0.25    0.23
  -1 -26  -1    0.54    0.22
   2  26   1    2.56    0.34
  -2 -26  -1    3.98    0.33
   3  26   1    0.12    0.20
  -3 -26  -1    0.34    0.18
   4  26   1    1.33    0.22
  -4 -26  -1    2.06    0.23
   5  26   1    0.12    0.17
  -5 -26  -1   -0.12    0.14
  -5  26   2    0.36    0.15
  -4  26   2    0.14    0.17
  -3  26   2    0.19    0.19
  -2  26   2    0.05    0.22
  -2  26   2    0.66    0.21
  -1  26   2   -0.02    0.22
  -1  26   2    0.22    0.22
   0  26   2    1.55    0.25
   1  26   2    0.85    0.23
   2  26   2    3.64    0.35
  -2 -26  -2    3.17    0.33
   3  26   2    0.63    0.21
  -3 -26  -2    0.38    0.18
  -4 -26  -2    0.93    0.18
   5  26   2    0.06    0.16
  -5 -26  -2    0.12    0.14
  -5  26   3    0.28    0.16
  -4  26   3    0.97    0.25
  -4  26   3    1.22    0.19
  -3  26   3   -0.24    0.21
  -3  26   3    0.54    0.20
  -2  26   3    0.61    0.22
  -2  26   3    0.74    0.24
  -1  26   3    0.08    0.21
   0  26   3    0.58    0.21
   1  26   3   -0.19    0.21
   2  26   3    2.81    0.32
  -2 -26  -3    2.99    0.32
   3  26   3    0.42    0.20
  -3 -26  -3    0.45    0.18
   4  26   3    1.88    0.24
  -4 -26  -3    1.50    0.22
  -4  26   4    1.07    0.21
  -3  26   4   -0.04    0.19
  -2  26   4    1.55    0.22
  -1  26   4    0.12    0.19
   0  26   4    0.16    0.20
   1  26   4    0.28    0.20
  -2 -26  -4    1.14    0.22
   3  26   4    0.27    0.19
  -3 -26  -4    0.15    0.18
   4  26   4    0.69    0.18
  -3  26   5    0.24    0.17
  -2  26   5    2.08    0.24
  -1  26   5    0.14    0.18
   0  26   5    1.02    0.20
   1  26   5    0.68    0.19
   2  26   5    0.49    0.18
  -3 -26  -5   -0.01    0.19
  -1  26   6    0.10    0.15
   0  26   6    2.18    0.23
   1  26   6    0.79    0.18
  -1  27  -5    0.72    0.15
   0  27  -5    1.56    0.19
   1  27  -5    0.16    0.13
  -3  27  -4    0.18    0.14
  -2  27  -4    0.41    0.15
  -1  27  -4    0.15    0.15
   0  27  -4    1.94    0.22
   1  27  -4    0.15    0.15
  -1 -27   4    0.21    0.17
   2  27  -4    0.30    0.15
  -2 -27   4    0.63    0.15
   3  27  -4    0.15    0.14
  -3 -27   4    0.27    0.13
  -3  27  -3    0.08    0.14
  -2  27  -3    0.75    0.16
  -1  27  -3    0.10    0.15
   0  27  -3    2.92    0.26
   1  27  -3    0.34    0.16
  -1 -27   3    0.09    0.18
   2  27  -3    0.94    0.17
  -2 -27   3    0.55    0.16
   3  27  -3   -0.35    0.16
  -3 -27   3    0.27    0.14
  -4  27  -2    0.24    0.13
  -3  27  -2    0.10    0.14
  -2  27  -2    0.11    0.15
  -1  27  -2    0.28    0.16
   0  27  -2    1.91    0.25
   1  27  -2   -0.05    0.18
  -1 -27   2    0.14    0.19
   2  27  -2    1.28    0.20
   3  27  -2    0.25    0.18
  -3 -27   2   -0.04    0.15
   4  27  -2    0.81    0.21
  -4 -27   2    1.29    0.15
  -4  27  -1    1.27    0.19
  -3  27  -1    0.16    0.15
  -2  27  -1    0.30    0.17
  -1  27  -1   -0.15    0.17
   0  27  -1    0.82    0.19
   1  27  -1    0.73    0.21
  -1 -27   1    0.85    0.21
   2  27  -1    2.55    0.30
  -2 -27   1    2.27    0.27
   3  27  -1    1.14    0.22
  -3 -27   1    0.75    0.17
   4  27  -1    1.10    0.23
  -4 -27   1    1.87    0.20
  -4  27   0    0.70    0.15
  -3  27   0    1.23    0.19
  -2  27   0    0.82    0.18
  -1  27   0    0.43    0.18
   0  27   0    0.20    0.19
   1  27   0    0.16    0.21
   1  27   0    0.48    0.26
   2  27   0    0.20    0.23
   2  27   0    0.52    0.22
  -2 -27   0    0.74    0.18
   3  27   0    1.06    0.21
  -3 -27   0    1.07    0.18
   4  27   0    0.75    0.19
  -4 -27   0    1.12    0.16
  -4  27   1    1.51    0.21
  -3  27   1    1.23    0.19
  -2  27   1    2.87    0.28
  -1  27   1    0.68    0.20
   0  27   1    0.55    0.24
   0  27   1    0.85    0.22
   1  27   1    0.02    0.21
   2  27   1    0.50    0.21
  -2 -27  -1    0.35    0.19
   3  27   1    0.05    0.19
  -3 -27  -1    0.20    0.17
   4  27   1    0.76    0.18
  -4 -27  -1    1.03    0.17
  -4  27   2    1.07    0.17
  -3  27   2    0.55    0.18
  -2  27   2    1.25    0.25
  -2  27   2    1.61    0.22
  -1  27   2    0.14    0.21
  -1  27   2   -0.15    0.21
   0  27   2    2.19    0.30
   1  27   2   -0.15    0.21
   2  27   2    0.13    0.19
  -2 -27  -2   -0.19    0.19
   3  27   2    0.18    0.18
  -3 -27  -2    0.00    0.16
   4  27   2    0.47    0.16
  -4 -27  -2    0.39    0.15
  -3  27   3    0.39    0.20
  -3  27   3   -0.18    0.21
  -2  27   3    1.10    0.21
  -1  27   3    0.10    0.19
   0  27   3    2.36    0.28
   1  27   3    0.17    0.20
   2  27   3    0.62    0.19
  -2 -27  -3    0.58    0.23
   3  27   3    0.06    0.17
  -3 -27  -3    0.26    0.16
  -3  27   4   -0.19    0.18
  -2  27   4    0.38    0.18
  -1  27   4    0.21    0.18
   0  27   4    1.58    0.24
   1  27   4    0.09    0.18
   2  27   4    0.41    0.17
   3  27   4    0.10    0.15
  -1  27   5    0.19    0.16
   0  27   5    1.48    0.21
   1  27   5    0.51    0.16
   0  28  -4    0.04    0.12
  -2  28  -3    0.22    0.13
  -1  28  -3    0.17    0.12
   0  28  -3    0.41    0.15
   1  28  -3    0.23    0.14
   2  28  -3    0.05    0.14
  -2 -28   3    0.14    0.15
  -3  28  -2    0.47    0.12
  -2  28  -2    0.43    0.14
  -1  28  -2    0.78    0.16
   0  28  -2    0.69    0.17
   1  28  -2    0.19    0.16
   2  28  -2    0.03    0.16
  -2 -28   2    0.31    0.16
   3  28  -2   -0.01    0.20
  -3 -28   2    0.17    0.14
  -3  28  -1    0.28    0.12
  -2  28  -1    0.50    0.15
  -1  28  -1    0.05    0.15
   0  28  -1    2.16    0.25
   1  28  -1    0.66    0.19
   2  28  -1    0.01    0.19
  -2 -28   1    0.73    0.17
  -3 -28   1    0.21    0.14
  -3  28   0    0.38    0.14
  -2  28   0    0.23    0.16
  -1  28   0    0.87    0.18
   0  28   0    1.02    0.20
   1  28   0    0.87    0.21
  -2 -28   0    0.57    0.18
   3  28   0    0.45    0.20
  -3 -28   0    0.50    0.15
  -3  28   1    0.03    0.15
  -2  28   1    0.64    0.17
  -1  28   1    0.65    0.19
   0  28   1    2.09    0.29
   1  28   1    0.59    0.21
   2  28   1    0.47    0.19
  -2 -28  -1    0.65    0.19
   3  28   1    0.38    0.17
  -3 -28  -1    0.05    0.15
  -3  28   2    0.13    0.17
  -2  28   2    0.55    0.19
  -1  28   2    0.04    0.22
   0  28   2    0.62    0.21
   1  28   2    0.83    0.20
   2  28   2    0.50    0.18
   3  28   2    0.23    0.15
  -1  28   3    0.18    0.18
   0  28   3    0.05    0.18
   1  28   3    0.30    0.17
   2  28   3    0.38    0.16
   0  28   4    0.03    0.16
   0  29  -2    0.48    0.14
  -1  29  -1    0.19    0.15
   0  29  -1    0.14    0.15
   1  29  -1    0.91    0.18
  -1  29   0    0.17    0.16
   0  29   0    0.21    0.18
   0   0   0    0.00    0.00
;
_shelx_hkl_checksum              49836
loop_
_space_group_symop_operation_xyz
'x, y, z'
'-x, y+1/2, -z'
loop_
_atom_site_label
_atom_site_type_symbol
_atom_site_fract_x
_atom_site_fract_y
_atom_site_fract_z
_atom_site_U_iso_or_equiv
_atom_site_adp_type
_atom_site_occupancy
_atom_site_site_symmetry_order
_atom_site_calc_flag
_atom_site_refinement_flags_posn
_atom_site_refinement_flags_occupancy
_atom_site_disorder_assembly
_atom_site_disorder_group
Co1 Co -0.04432(12) 0.18183(5) 1.07918(12) 0.0301(3) Uani 1 1 d . . . .
Co2 Co 0.45687(12) 0.26113(5) 1.05656(12) 0.0298(3) Uani 1 1 d . . . .
O1 O 0.7688(6) 0.2142(3) 1.0750(6) 0.0357(14) Uani 1 1 d . . . .
O2 O 0.2687(6) 0.2283(3) 1.0642(5) 0.0346(14) Uani 1 1 d . . . .
O3 O 0.6465(6) 0.2880(3) 1.0555(5) 0.0352(14) Uani 1 1 d . . . .
O4 O 0.1451(6) 0.1556(2) 1.0814(6) 0.0343(14) Uani 1 1 d . . . .
N5 N -0.0433(7) 0.1761(4) 1.2676(7) 0.0391(17) Uani 1 1 d . . . .
N6 N -0.0429(7) 0.1779(4) 1.8872(6) 0.0369(16) Uani 1 1 d . . . .
N7 N 0.4600(7) 0.2640(4) 0.8650(6) 0.0366(17) Uani 1 1 d . . . .
C8 C -0.1509(10) 0.1838(6) 1.8289(10) 0.053(3) Uani 1 1 d . . . .
H8 H -0.2294 0.1901 1.8710 0.063 Uiso 1 1 calc R . . .
N9 N 0.4630(7) 0.2686(4) 0.2440(6) 0.0359(17) Uani 1 1 d . . . .
C10 C 0.2517(8) 0.1794(4) 1.0737(7) 0.0307(18) Uani 1 1 d . . . .
N11 N 0.3758(8) 0.3408(3) 1.0416(7) 0.0382(18) Uani 1 1 d . . . .
C12 C 0.3563(11) 0.2525(7) 0.8037(11) 0.063(4) Uani 1 1 d . . . .
H12 H 0.2811 0.2400 0.8442 0.075 Uiso 1 1 calc R . . .
O13 O 0.9869(6) 0.2692(3) 1.0909(6) 0.0399(14) Uani 1 1 d D . . .
H13 H 1.035(7) 0.283(3) 1.146(8) 0.060 Uiso 1 1 d DR . . .
C14 C -0.0463(9) 0.1710(4) 1.5118(8) 0.040(2) Uani 1 1 d . . . .
N15 N 0.1231(7) 0.6018(3) 0.9274(7) 0.0391(18) Uani 1 1 d . . . .
C16 C 0.3487(10) 0.2574(7) 0.6835(10) 0.064(4) Uani 1 1 d . . . .
H16 H 0.2681 0.2509 0.6445 0.076 Uiso 1 1 calc R . . .
O17 O 0.4864(6) 0.1736(3) 1.0508(6) 0.0435(15) Uani 1 1 d D . . .
H17 H 0.506(8) 0.170(4) 0.976(3) 0.065 Uiso 1 1 d DR . . .
C18 C 0.0651(9) 0.1811(6) 1.3328(8) 0.049(3) Uani 1 1 d . . . .
H18 H 0.1453 0.1872 1.2932 0.059 Uiso 1 1 calc R . . .
C19 C -0.0444(9) 0.1714(5) 1.6412(9) 0.045(2) Uani 1 1 d . . . .
C20 C -0.1565(9) 0.1814(6) 1.7083(9) 0.051(3) Uani 1 1 d . . . .
H20 H -0.2380 0.1866 1.6699 0.061 Uiso 1 1 calc R . . .
C21 C 0.5763(10) 0.2679(6) 0.4306(9) 0.054(3) Uani 1 1 d . . . .
H21 H 0.6571 0.2663 0.4716 0.065 Uiso 1 1 calc R . . .
C22 C 0.5631(11) 0.2832(5) 0.8078(10) 0.050(3) Uani 1 1 d . . . .
H22 H 0.6376 0.2945 0.8512 0.060 Uiso 1 1 calc R . . .
C23 C 0.0627(11) 0.1629(7) 1.8270(11) 0.064(4) Uani 1 1 d . . . .
H23 H 0.1402 0.1544 1.8691 0.077 Uiso 1 1 calc R . . .
C24 C 0.0683(10) 0.1780(6) 1.4509(9) 0.057(3) Uani 1 1 d . . . .
H24 H 0.1491 0.1808 1.4916 0.069 Uiso 1 1 calc R . . .
C25 C 0.4590(9) 0.2718(5) 0.6196(9) 0.043(2) Uani 1 1 d . . . .
C26 C -0.1579(10) 0.1632(5) 1.4492(9) 0.052(3) Uani 1 1 d . . . .
H26 H -0.2378 0.1555 1.4879 0.062 Uiso 1 1 calc R . . .
C27 C 0.4606(9) 0.2729(5) 0.4898(8) 0.041(2) Uani 1 1 d . . . .
C28 C 0.7542(8) 0.2654(4) 1.0668(7) 0.0314(19) Uani 1 1 d . . . .
C30 C 0.5653(10) 0.2873(5) 0.6835(9) 0.050(3) Uani 1 1 d . . . .
H30 H 0.6409 0.3008 0.6451 0.060 Uiso 1 1 calc R . . .
C31 C 0.5727(9) 0.2653(6) 0.3109(8) 0.048(3) Uani 1 1 d . . . .
H31 H 0.6536 0.2608 0.2714 0.057 Uiso 1 1 calc R . . .
C32 C -0.1536(10) 0.1667(5) 1.3304(9) 0.052(3) Uani 1 1 d . . . .
H32 H -0.2332 0.1623 1.2886 0.063 Uiso 1 1 calc R . . .
C33 C 0.0650(11) 0.1591(6) 1.7079(10) 0.063(4) Uani 1 1 d . . . .
H33 H 0.1429 0.1479 1.6699 0.076 Uiso 1 1 calc R . . .
C38 C 0.3730(9) 0.1426(4) 1.0755(9) 0.042(2) Uani 1 1 d D . . .
H38 H 0.3627 0.1148 1.0125 0.050 Uiso 1 1 calc R . . .
C39 C 0.2770(9) 0.4432(4) 0.9900(9) 0.040(2) Uani 1 1 d . . . .
C40 C 0.8751(9) 0.3015(4) 1.0723(9) 0.042(2) Uani 1 1 d D . . .
H40 H 0.8656 0.3268 1.1401 0.050 Uiso 1 1 calc R . . .
C41 C 0.3524(9) 0.2765(5) 0.3038(9) 0.049(3) Uani 1 1 d . . . .
H41 H 0.2732 0.2806 0.2612 0.059 Uiso 1 1 calc R . . .
C46 C 0.2477(11) 0.5925(5) 0.9377(15) 0.068(4) Uani 1 1 d . . . .
H46 H 0.3058 0.6223 0.9306 0.081 Uiso 1 1 calc R . . .
O47 O 0.5681(7) 0.1396(4) 0.8451(8) 0.064(2) Uani 1 1 d . . . .
C49 C 0.2526(11) 0.3494(5) 1.0216(14) 0.061(4) Uani 1 1 d . . . .
H49 H 0.1954 0.3191 1.0243 0.073 Uiso 1 1 calc R . . .
C50 C 0.4524(12) 0.3825(6) 1.034(2) 0.100(7) Uani 1 1 d . . . .
H50 H 0.5436 0.3776 1.0458 0.120 Uiso 1 1 calc R . . .
C51 C 0.2235(9) 0.4984(4) 0.9636(9) 0.039(2) Uani 1 1 d . . . .
C52 C 0.8820(10) 0.3349(5) 0.9603(10) 0.053(3) Uani 1 1 d . . . .
O56 O 0.5242(12) 0.1353(7) 0.6619(10) 0.109(4) Uani 1 1 d . . . .
C57 C 0.3477(9) 0.2791(5) 0.4237(8) 0.048(3) Uani 1 1 d . . . .
H57 H 0.2665 0.2852 0.4617 0.057 Uiso 1 1 calc R . . .
C59 C 0.4052(13) 0.4346(6) 1.009(2) 0.115(9) Uani 1 1 d . . . .
H59 H 0.4645 0.4641 1.0058 0.138 Uiso 1 1 calc R . . .
C61 C 0.1988(11) 0.3992(5) 0.9968(13) 0.061(3) Uani 1 1 d . . . .
H61 H 0.1073 0.4026 0.9846 0.074 Uiso 1 1 calc R . . .
C62 C 0.0524(12) 0.5590(6) 0.927(2) 0.102(7) Uani 1 1 d . . . .
H62 H -0.0388 0.5635 0.9148 0.122 Uiso 1 1 calc R . . .
C64 C 0.3817(10) 0.1136(5) 1.1918(10) 0.052(3) Uani 1 1 d . . . .
C65 C 0.371(2) 0.0683(12) 1.418(2) 0.156(12) Uani 1 1 d . . . .
H65 H 0.3718 0.0521 1.4930 0.187 Uiso 1 1 calc R . . .
C67 C 0.4558(16) 0.1353(6) 1.2810(13) 0.077(4) Uani 1 1 d . . . .
H67 H 0.5118 0.1653 1.2676 0.092 Uiso 1 1 calc R . . .
C68 C 0.3013(11) 0.5419(5) 0.9584(14) 0.063(4) Uani 1 1 d . . . .
H68 H 0.3930 0.5380 0.9689 0.076 Uiso 1 1 calc R . . .
C70 C 0.0963(14) 0.5075(6) 0.944(2) 0.118(9) Uani 1 1 d . . . .
H70 H 0.0367 0.4780 0.9411 0.142 Uiso 1 1 calc R . . .
C75 C 0.9492(18) 0.3166(6) 0.8649(13) 0.084(5) Uani 1 1 d . . . .
H75 H 0.9974 0.2837 0.8678 0.101 Uiso 1 1 calc R . . .
C91 C 0.3018(16) 0.0697(7) 1.2197(15) 0.088(5) Uani 1 1 d . . . .
H91 H 0.2503 0.0538 1.1595 0.105 Uiso 1 1 calc R . . .
O42 O 0.0645(7) 0.3097(4) 1.2934(8) 0.058(2) Uani 1 1 d . . . .
O44 O -0.1310(8) 0.2975(4) 1.3578(9) 0.074(3) Uani 1 1 d . . . .
O45 O 0.0249(9) 0.3160(5) 1.4806(8) 0.081(3) Uani 1 1 d . . . .
N48 N -0.0155(9) 0.3079(4) 1.3787(9) 0.052(2) Uani 1 1 d . . . .
C72 C 0.8113(19) 0.4153(8) 0.857(2) 0.108(7) Uani 1 1 d . . . .
H72 H 0.7659 0.4489 0.8562 0.130 Uiso 1 1 calc R . . .
C1 C 0.945(3) 0.3493(10) 0.7578(14) 0.123(9) Uani 1 1 d . . . .
H1 H 0.9889 0.3384 0.6887 0.148 Uiso 1 1 calc R . . .
C6 C 0.8168(13) 0.3837(6) 0.9570(16) 0.080(5) Uani 1 1 d . . . .
H6 H 0.7741 0.3961 1.0257 0.096 Uiso 1 1 calc R . . .
C3 C 0.872(3) 0.3967(10) 0.762(2) 0.122(9) Uani 1 1 d . . . .
H3 H 0.8659 0.4175 0.6923 0.146 Uiso 1 1 calc R . . .
C11 C 0.446(2) 0.1115(8) 1.3929(15) 0.104(6) Uani 1 1 d . . . .
H11 H 0.4951 0.1271 1.4549 0.125 Uiso 1 1 calc R . . .
N1 N 0.4864(11) 0.1349(5) 0.7663(10) 0.070(3) Uani 1 1 d . . . .
O5 O 0.3677(8) 0.1299(5) 0.7877(11) 0.088(3) Uani 1 1 d . . . .
C2 C 0.295(2) 0.0488(10) 1.3288(19) 0.119(8) Uani 1 1 d . . . .
H2 H 0.2355 0.0201 1.3442 0.143 Uiso 1 1 calc R . . .
C1G C 0.177(2) 0.4775(12) 1.611(2) 0.104(13) Uiso 0.372(14) 1 d D P A 2
C1C C 0.279(3) 0.5117(10) 1.644(3) 0.096(13) Uiso 0.372(14) 1 d DG P A 2
H1C H 0.2664 0.5498 1.6431 0.115 Uiso 0.372(14) 1 calc R P A 2
C1A C 0.398(3) 0.4901(13) 1.679(3) 0.109(15) Uiso 0.372(14) 1 d G P A 2
H1A H 0.4672 0.5134 1.7019 0.131 Uiso 0.372(14) 1 calc R P A 2
C1B C 0.416(3) 0.4343(14) 1.681(3) 0.121(17) Uiso 0.372(14) 1 d G P A 2
H1B H 0.4972 0.4195 1.7049 0.145 Uiso 0.372(14) 1 calc R P A 2
C15 C 0.314(3) 0.4001(10) 1.648(3) 0.100(14) Uiso 0.372(14) 1 d G P A 2
H15 H 0.3264 0.3620 1.6491 0.120 Uiso 0.372(14) 1 calc R P A 2
C1F C 0.195(3) 0.4217(11) 1.613(3) 0.088(12) Uiso 0.372(14) 1 d DG P A 2
H1F H 0.1255 0.3984 1.5903 0.105 Uiso 0.372(14) 1 calc R P A 2
O6 O -0.025(4) 0.470(2) 1.524(4) 0.160(19) Uiso 0.372(14) 1 d D P A 2
N2 N 0.723(2) 0.5079(7) 1.1390(18) 0.091(7) Uiso 0.558(13) 1 d D P B 1
O7 O 0.828(3) 0.5269(12) 1.116(3) 0.139(10) Uiso 0.558(13) 1 d D P B 1
O8 O 0.633(2) 0.5183(11) 1.074(2) 0.127(9) Uiso 0.558(13) 1 d D P B 1
C29 C 0.592(3) 0.4590(16) 1.293(3) 0.25(2) Uiso 0.558(13) 1 d D P B 1
H29 H 0.5115 0.4707 1.2608 0.299 Uiso 0.558(13) 1 calc R P B 1
C9 C 0.593(4) 0.4265(18) 1.393(3) 0.22(3) Uiso 0.558(13) 1 d G P B 1
H9 H 0.5130 0.4160 1.4280 0.269 Uiso 0.558(13) 1 calc R P B 1
C4 C 0.711(5) 0.4095(13) 1.441(2) 0.149(17) Uiso 0.558(13) 1 d G P B 1
H4 H 0.7118 0.3873 1.5084 0.178 Uiso 0.558(13) 1 calc R P B 1
C5 C 0.828(4) 0.4249(17) 1.389(3) 0.23(3) Uiso 0.558(13) 1 d G P B 1
H5 H 0.9091 0.4133 1.4216 0.281 Uiso 0.558(13) 1 calc R P B 1
C13 C 0.828(3) 0.4574(15) 1.290(3) 0.27(3) Uiso 0.558(13) 1 d DG P B 1
H13A H 0.9076 0.4680 1.2544 0.325 Uiso 0.558(13) 1 calc R P B 1
C7 C 0.709(3) 0.4745(8) 1.2419(18) 0.120(12) Uiso 0.558(13) 1 d DG P B 1
N8 N 0.051(3) 0.4994(17) 1.576(3) 0.143(19) Uiso 0.372(14) 1 d D P A 2
C1H C 0.264(3) 0.4639(14) 1.514(2) 0.101(16) Uiso 0.271(13) 1 d D P C 1
C1I C 0.203(3) 0.4283(13) 1.437(3) 0.077(13) Uiso 0.271(13) 1 d DG P C 1
H1I H 0.1817 0.3926 1.4621 0.093 Uiso 0.271(13) 1 calc R P C 1
C1D C 0.171(4) 0.4449(16) 1.324(3) 0.105(18) Uiso 0.271(13) 1 d G P C 1
H1D H 0.1292 0.4206 1.2720 0.126 Uiso 0.271(13) 1 calc R P C 1
C17 C 0.202(4) 0.4971(18) 1.288(3) 0.094(11) Uiso 0.271(13) 1 d G P C 1
H17A H 0.1806 0.5084 1.2107 0.113 Uiso 0.271(13) 1 calc R P C 1
C1E C 0.264(4) 0.5327(14) 1.364(3) 0.097(17) Uiso 0.271(13) 1 d G P C 1
H1E H 0.2843 0.5683 1.3395 0.116 Uiso 0.271(13) 1 calc R P C 1
C1J C 0.295(4) 0.5161(14) 1.477(3) 0.097(17) Uiso 0.271(13) 1 d DG P C 1
H1J H 0.3368 0.5404 1.5296 0.116 Uiso 0.271(13) 1 calc R P C 1
N49 N 0.294(3) 0.4438(18) 1.631(3) 0.109(14) Uiso 0.271(13) 1 d D P C 1
O57 O 0.254(7) 0.398(2) 1.652(6) 0.17(3) Uiso 0.271(13) 1 d D P C 1
O58 O 0.033(7) 0.546(2) 1.601(7) 0.31(5) Uiso 0.372(14) 1 d D P A 2
O59 O 0.355(7) 0.473(3) 1.697(5) 0.19(3) Uiso 0.271(13) 1 d D P C 1
C92 C 0.380(3) 0.4588(17) 1.357(3) 0.13(2) Uiso 0.326(16) 1 d D P D 2
C93 C 0.276(4) 0.4237(13) 1.338(3) 0.088(13) Uiso 0.326(16) 1 d DG P D 2
H93 H 0.2873 0.3859 1.3495 0.106 Uiso 0.326(16) 1 calc R P D 2
C94 C 0.157(3) 0.4440(16) 1.301(4) 0.117(18) Uiso 0.326(16) 1 d G P D 2
H94 H 0.0855 0.4200 1.2870 0.140 Uiso 0.326(16) 1 calc R P D 2
C17A C 0.141(3) 0.4993(17) 1.283(4) 0.094(11) Uiso 0.326(16) 1 d G P D 2
H17B H 0.0588 0.5131 1.2577 0.113 Uiso 0.326(16) 1 calc R P D 2
C95 C 0.245(4) 0.5343(13) 1.303(5) 0.14(2) Uiso 0.326(16) 1 d G P D 2
H95 H 0.2338 0.5721 1.2910 0.163 Uiso 0.326(16) 1 calc R P D 2
C96 C 0.365(4) 0.5141(16) 1.340(4) 0.14(2) Uiso 0.326(16) 1 d DG P D 2
H96 H 0.4356 0.5381 1.3535 0.171 Uiso 0.326(16) 1 calc R P D 2
N50 N 0.505(4) 0.438(2) 1.397(4) 0.22(3) Uiso 0.326(16) 1 d D P D 2
O60 O 0.521(8) 0.389(3) 1.397(9) 0.34(5) Uiso 0.326(16) 1 d D P D 2
O29A O 0.592(6) 0.468(3) 1.431(8) 0.25(2) Uiso 0.326(16) 1 d D P D 2
loop_
_atom_site_aniso_label
_atom_site_aniso_U_11
_atom_site_aniso_U_22
_atom_site_aniso_U_33
_atom_site_aniso_U_23
_atom_site_aniso_U_13
_atom_site_aniso_U_12
Co1 0.0279(7) 0.0313(8) 0.0311(7) -0.0005(6) 0.0015(5) -0.0006(6)
Co2 0.0281(7) 0.0315(8) 0.0298(7) 0.0016(6) 0.0010(5) 0.0001(6)
O1 0.030(3) 0.031(4) 0.045(4) 0.002(3) -0.003(3) 0.001(3)
O2 0.031(3) 0.035(4) 0.038(3) 0.004(3) 0.000(3) -0.003(3)
O3 0.033(3) 0.036(3) 0.037(3) -0.001(3) -0.003(3) 0.003(3)
O4 0.027(3) 0.031(3) 0.045(4) 0.001(3) 0.004(2) -0.002(3)
N5 0.036(4) 0.042(5) 0.039(4) -0.003(4) 0.003(3) -0.004(4)
N6 0.035(4) 0.039(4) 0.037(4) 0.002(4) 0.002(3) 0.004(3)
N7 0.036(4) 0.047(5) 0.026(4) 0.004(4) 0.003(3) 0.000(4)
C8 0.037(5) 0.077(8) 0.044(6) -0.006(6) 0.001(4) -0.002(5)
N9 0.033(4) 0.047(5) 0.028(4) 0.002(3) 0.002(3) -0.001(3)
C10 0.034(5) 0.034(5) 0.024(4) -0.007(4) -0.001(3) 0.008(4)
N11 0.038(4) 0.027(4) 0.050(5) 0.000(3) 0.001(3) 0.000(3)
C12 0.042(6) 0.098(11) 0.048(7) 0.012(7) 0.002(5) -0.009(6)
O13 0.031(3) 0.036(4) 0.052(4) 0.003(3) -0.003(3) -0.002(3)
C14 0.032(5) 0.053(6) 0.034(5) -0.004(4) 0.006(4) 0.004(4)
N15 0.035(4) 0.040(5) 0.042(4) 0.004(3) 0.001(3) 0.001(3)
C16 0.031(5) 0.117(11) 0.043(6) -0.004(7) 0.006(4) -0.012(6)
O17 0.038(3) 0.032(4) 0.061(4) 0.001(3) 0.003(3) 0.003(3)
C18 0.033(5) 0.095(8) 0.020(4) -0.002(5) 0.004(3) -0.006(5)
C19 0.035(5) 0.054(7) 0.047(6) 0.001(5) 0.003(4) 0.000(4)
C20 0.028(5) 0.077(8) 0.047(6) -0.005(6) -0.001(4) -0.001(5)
C21 0.036(5) 0.088(9) 0.040(6) -0.001(6) -0.003(4) -0.004(6)
C22 0.041(5) 0.065(7) 0.043(6) 0.001(5) -0.001(4) -0.006(5)
C23 0.032(5) 0.110(12) 0.051(7) -0.003(7) 0.002(5) 0.016(6)
C24 0.037(5) 0.092(10) 0.043(6) 0.000(6) -0.008(4) -0.012(6)
C25 0.040(5) 0.053(6) 0.035(5) 0.009(4) -0.002(4) -0.001(4)
C26 0.037(5) 0.080(9) 0.040(6) 0.001(5) 0.003(4) -0.002(5)
C27 0.035(5) 0.065(7) 0.022(4) 0.005(4) -0.001(4) -0.007(4)
C28 0.028(4) 0.039(5) 0.027(4) -0.005(4) 0.000(3) 0.000(4)
C30 0.043(5) 0.074(8) 0.032(5) 0.013(5) 0.002(4) -0.011(5)
C31 0.030(4) 0.084(8) 0.029(5) 0.004(5) 0.006(4) 0.000(5)
C32 0.040(5) 0.082(9) 0.034(5) 0.008(5) 0.001(4) 0.000(5)
C33 0.036(5) 0.116(12) 0.037(6) -0.011(6) 0.002(4) 0.021(6)
C38 0.039(5) 0.039(6) 0.047(6) -0.003(4) 0.000(4) 0.009(4)
C39 0.030(5) 0.032(5) 0.059(6) 0.002(4) -0.002(4) -0.001(4)
C40 0.031(5) 0.038(6) 0.056(6) 0.001(4) -0.003(4) 0.001(4)
C41 0.028(5) 0.081(8) 0.037(5) 0.001(5) -0.005(4) 0.000(5)
C46 0.035(6) 0.040(7) 0.127(12) 0.001(7) -0.010(6) -0.004(5)
O47 0.042(4) 0.078(6) 0.073(6) -0.020(4) -0.007(4) 0.001(4)
C49 0.036(6) 0.029(6) 0.118(11) 0.021(6) 0.006(6) -0.004(4)
C50 0.029(6) 0.035(7) 0.24(2) 0.017(9) -0.015(9) 0.007(5)
C51 0.033(5) 0.038(5) 0.047(6) -0.002(4) 0.006(4) 0.001(4)
C52 0.049(6) 0.051(6) 0.059(7) 0.014(5) -0.006(5) -0.021(5)
O56 0.095(8) 0.163(13) 0.068(7) -0.028(7) 0.001(6) -0.008(8)
C57 0.032(5) 0.087(9) 0.024(5) 0.004(5) 0.004(4) 0.001(5)
C59 0.032(6) 0.031(7) 0.28(3) 0.021(10) 0.002(10) -0.006(5)
C61 0.034(5) 0.038(6) 0.113(11) 0.014(6) -0.002(6) 0.000(5)
C62 0.034(7) 0.046(8) 0.23(2) 0.018(10) -0.021(9) -0.003(6)
C64 0.048(6) 0.057(6) 0.051(6) 0.018(5) 0.004(5) 0.008(5)
C65 0.15(2) 0.18(2) 0.13(2) 0.111(19) -0.063(17) -0.053(18)
C67 0.095(10) 0.065(8) 0.070(9) 0.017(7) -0.024(8) 0.009(7)
C68 0.031(5) 0.042(6) 0.117(11) 0.010(6) -0.009(6) 0.000(5)
C70 0.044(7) 0.032(7) 0.28(3) 0.020(10) -0.031(11) 0.000(6)
C75 0.123(13) 0.061(8) 0.069(9) 0.001(7) 0.014(9) -0.038(9)
C91 0.091(10) 0.078(10) 0.095(11) 0.031(8) -0.035(9) -0.035(8)
O42 0.037(4) 0.071(5) 0.067(5) -0.020(4) 0.007(3) -0.011(3)
O44 0.040(4) 0.105(7) 0.077(6) -0.009(5) 0.007(4) -0.001(4)
O45 0.070(6) 0.116(8) 0.057(5) -0.026(5) -0.010(4) 0.008(5)
N48 0.048(5) 0.054(6) 0.055(6) -0.006(4) -0.003(4) -0.003(4)
C72 0.095(12) 0.087(13) 0.142(19) 0.059(13) -0.024(12) -0.002(10)
C1 0.21(2) 0.120(17) 0.037(8) -0.007(9) 0.032(11) -0.061(17)
C6 0.057(7) 0.056(8) 0.126(13) 0.040(8) -0.007(8) -0.005(6)
C3 0.17(2) 0.097(16) 0.098(15) 0.049(12) -0.047(15) -0.057(15)
C11 0.160(18) 0.089(12) 0.063(9) 0.015(8) -0.036(11) 0.017(12)
N1 0.064(7) 0.086(8) 0.061(7) -0.015(6) 0.005(5) 0.008(6)
O5 0.044(5) 0.107(8) 0.112(9) 0.007(7) -0.009(5) -0.012(5)
C2 0.112(14) 0.138(18) 0.108(15) 0.066(14) -0.017(12) -0.034(13)
loop_
_atom_type_symbol
_atom_type_description
_atom_type_scat_dispersion_real
_atom_type_scat_dispersion_imag
_atom_type_scat_source
C C 0.0181 0.0091 'International Tables Vol C Tables 4.2.6.8 and 6.1.1.4'
H H 0.0000 0.0000 'International Tables Vol C Tables 4.2.6.8 and 6.1.1.4'
Co Co -2.3653 3.6143 'International Tables Vol C Tables 4.2.6.8 and 6.1.1.4'
N N 0.0311 0.0180 'International Tables Vol C Tables 4.2.6.8 and 6.1.1.4'
O O 0.0492 0.0322 'International Tables Vol C Tables 4.2.6.8 and 6.1.1.4'
loop_
_geom_angle_atom_site_label_1
_geom_angle_atom_site_label_2
_geom_angle_atom_site_label_3
_geom_angle
_geom_angle_site_symmetry_1
_geom_angle_site_symmetry_3
O1 Co1 N5 92.9(3) 1_455 .
O1 Co1 N6 90.1(3) 1_455 1_554
O1 Co1 O13 75.8(2) 1_455 1_455
O1 Co1 N15 90.5(3) 1_455 2_547
O4 Co1 O1 175.7(3) . 1_455
O4 Co1 N5 87.9(3) . .
O4 Co1 N6 89.4(3) . 1_554
O4 Co1 O13 100.0(2) . 1_455
O4 Co1 N15 93.7(3) . 2_547
N5 Co1 N6 173.6(4) . 1_554
N5 Co1 O13 90.2(3) . 1_455
O13 Co1 N6 96.0(3) 1_455 1_554
N15 Co1 N5 88.6(3) 2_547 .
N15 Co1 N6 85.8(3) 2_547 1_554
N15 Co1 O13 166.2(3) 2_547 1_455
O2 Co2 N7 94.0(3) . .
O2 Co2 N9 90.9(3) . 1_556
O2 Co2 N11 90.2(3) . .
O2 Co2 O17 75.2(3) . .
O3 Co2 O2 175.5(3) . .
O3 Co2 N7 88.2(3) . .
O3 Co2 N9 87.3(3) . 1_556
O3 Co2 N11 93.9(3) . .
O3 Co2 O17 100.9(3) . .
N9 Co2 N7 172.8(4) 1_556 .
N9 Co2 O17 96.3(3) 1_556 .
N11 Co2 N7 84.1(3) . .
N11 Co2 N9 90.7(3) . 1_556
N11 Co2 O17 163.8(3) . .
O17 Co2 N7 90.0(3) . .
C28 O1 Co1 119.5(5) . 1_655
C10 O2 Co2 121.1(6) . .
C28 O3 Co2 133.9(6) . .
C10 O4 Co1 132.9(6) . .
C18 N5 Co1 123.4(6) . .
C18 N5 C32 114.2(8) . .
C32 N5 Co1 122.4(6) . .
C8 N6 Co1 120.0(7) . 1_556
C8 N6 C23 117.1(9) . .
C23 N6 Co1 122.3(7) . 1_556
C12 N7 Co2 121.2(7) . .
C12 N7 C22 117.4(9) . .
C22 N7 Co2 121.1(7) . .
N6 C8 H8 118.6 . .
N6 C8 C20 122.8(10) . .
C20 C8 H8 118.6 . .
C31 N9 Co2 125.3(6) . 1_554
C41 N9 Co2 119.9(6) . 1_554
C41 N9 C31 114.8(8) . .
O2 C10 O4 126.8(8) . .
O2 C10 C38 118.0(8) . .
O4 C10 C38 115.2(9) . .
C49 N11 Co2 122.6(7) . .
C50 N11 Co2 120.1(7) . .
C50 N11 C49 116.4(10) . .
N7 C12 H12 117.9 . .
N7 C12 C16 124.1(10) . .
C16 C12 H12 117.9 . .
Co1 O13 H13 121(6) 1_655 .
C40 O13 Co1 115.6(6) . 1_655
C40 O13 H13 110(3) . .
C24 C14 C19 119.7(9) . .
C26 C14 C19 122.5(9) . .
C26 C14 C24 117.9(9) . .
C46 N15 Co1 122.5(8) . 2_557
C62 N15 Co1 123.4(8) . 2_557
C62 N15 C46 114.0(11) . .
C12 C16 H16 120.0 . .
C12 C16 C25 120.0(10) . .
C25 C16 H16 120.0 . .
Co2 O17 H17 99(8) . .
C38 O17 Co2 114.6(6) . .
C38 O17 H17 109(3) . .
N5 C18 H18 117.7 . .
N5 C18 C24 124.6(9) . .
C24 C18 H18 117.7 . .
C20 C19 C14 122.6(9) . .
C33 C19 C14 123.8(9) . .
C33 C19 C20 113.5(10) . .
C8 C20 C19 121.3(9) . .
C8 C20 H20 119.3 . .
C19 C20 H20 119.3 . .
C27 C21 H21 120.8 . .
C27 C21 C31 118.4(9) . .
C31 C21 H21 120.8 . .
N7 C22 H22 119.0 . .
N7 C22 C30 122.0(10) . .
C30 C22 H22 119.0 . .
N6 C23 H23 118.4 . .
N6 C23 C33 123.3(10) . .
C33 C23 H23 118.4 . .
C14 C24 H24 120.2 . .
C18 C24 C14 119.5(9) . .
C18 C24 H24 120.2 . .
C16 C25 C27 122.7(9) . .
C30 C25 C16 115.9(10) . .
C30 C25 C27 121.4(9) . .
C14 C26 H26 120.4 . .
C32 C26 C14 119.2(10) . .
C32 C26 H26 120.4 . .
C21 C27 C25 120.2(9) . .
C21 C27 C57 117.4(9) . .
C57 C27 C25 122.4(9) . .
O1 C28 C40 118.8(8) . .
O3 C28 O1 123.8(8) . .
O3 C28 C40 117.4(9) . .
C22 C30 H30 120.0 . .
C25 C30 C22 120.0(9) . .
C25 C30 H30 120.0 . .
N9 C31 C21 125.4(9) . .
N9 C31 H31 117.3 . .
C21 C31 H31 117.3 . .
N5 C32 C26 124.4(10) . .
N5 C32 H32 117.8 . .
C26 C32 H32 117.8 . .
C19 C33 H33 119.4 . .
C23 C33 C19 121.2(10) . .
C23 C33 H33 119.4 . .
C10 C38 H38 108.2 . .
O17 C38 C10 109.7(8) . .
O17 C38 H38 108.2 . .
O17 C38 C64 112.5(8) . .
C64 C38 C10 109.8(8) . .
C64 C38 H38 108.2 . .
C59 C39 C51 122.2(9) . .
C59 C39 C61 116.0(10) . .
C61 C39 C51 121.8(8) . .
O13 C40 C28 109.3(8) . .
O13 C40 H40 108.5 . .
O13 C40 C52 113.2(8) . .
C28 C40 H40 108.5 . .
C52 C40 C28 108.7(8) . .
C52 C40 H40 108.5 . .
N9 C41 H41 118.4 . .
N9 C41 C57 123.2(9) . .
C57 C41 H41 118.4 . .
N15 C46 H46 117.9 . .
N15 C46 C68 124.2(11) . .
C68 C46 H46 117.9 . .
N11 C49 H49 117.6 . .
N11 C49 C61 124.7(10) . .
C61 C49 H49 117.6 . .
N11 C50 H50 118.9 . .
N11 C50 C59 122.3(11) . .
C59 C50 H50 118.9 . .
C68 C51 C39 121.5(8) . .
C68 C51 C70 115.8(11) . .
C70 C51 C39 122.7(10) . .
C75 C52 C40 121.0(12) . .
C75 C52 C6 120.8(13) . .
C6 C52 C40 118.2(12) . .
C27 C57 H57 119.7 . .
C41 C57 C27 120.5(9) . .
C41 C57 H57 119.7 . .
C39 C59 C50 120.9(12) . .
C39 C59 H59 119.5 . .
C50 C59 H59 119.5 . .
C39 C61 C49 119.6(10) . .
C39 C61 H61 120.2 . .
C49 C61 H61 120.2 . .
N15 C62 H62 117.1 . .
N15 C62 C70 125.8(12) . .
C70 C62 H62 117.1 . .
C67 C64 C38 119.8(11) . .
C67 C64 C91 117.2(12) . .
C91 C64 C38 122.3(11) . .
C11 C65 H65 121.7 . .
C11 C65 C2 116.6(17) . .
C2 C65 H65 121.7 . .
C64 C67 H67 121.1 . .
C64 C67 C11 117.8(15) . .
C11 C67 H67 121.1 . .
C46 C68 H68 120.1 . .
C51 C68 C46 119.8(10) . .
C51 C68 H68 120.1 . .
C51 C70 C62 120.0(13) . .
C51 C70 H70 120.0 . .
C62 C70 H70 120.0 . .
C52 C75 H75 121.1 . .
C52 C75 C1 117.8(17) . .
C1 C75 H75 121.1 . .
C64 C91 H91 118.7 . .
C2 C91 C64 122.6(16) . .
C2 C91 H91 118.7 . .
O44 N48 O42 118.4(9) . .
O44 N48 O45 121.9(10) . .
O45 N48 O42 119.7(9) . .
C6 C72 H72 121.4 . .
C3 C72 H72 121.4 . .
C3 C72 C6 117.3(19) . .
C75 C1 H1 121.5 . .
C3 C1 C75 116.9(18) . .
C3 C1 H1 121.5 . .
C52 C6 C72 122.3(18) . .
C52 C6 H6 118.8 . .
C72 C6 H6 118.8 . .
C72 C3 C1 124.7(17) . .
C72 C3 H3 117.6 . .
C1 C3 H3 117.6 . .
C65 C11 C67 124.3(19) . .
C65 C11 H11 117.8 . .
C67 C11 H11 117.8 . .
O47 N1 O56 118.9(11) . .
O47 N1 O5 121.7(12) . .
O5 N1 O56 119.3(12) . .
C65 C2 H2 119.4 . .
C91 C2 C65 121.3(18) . .
C91 C2 H2 119.4 . .
C1C C1G C1F 120.0 . .
C1C C1G N8 121(2) . .
C1F C1G N8 119(2) . .
C1G C1C H1C 120.0 . .
C1A C1C C1G 120.0 . .
C1A C1C H1C 120.0 . .
C1C C1A H1A 120.0 . .
C1C C1A C1B 120.0 . .
C1B C1A H1A 120.0 . .
C1A C1B H1B 120.0 . .
C1A C1B C15 120.0 . .
C15 C1B H1B 120.0 . .
C1B C15 H15 120.0 . .
C1F C15 C1B 120.0 . .
C1F C15 H15 120.0 . .
C1G C1F H1F 120.0 . .
C15 C1F C1G 120.0 . .
C15 C1F H1F 120.0 . .
O7 N2 O8 118(3) . .
O7 N2 C7 119(2) . .
O8 N2 C7 123(2) . .
C9 C29 H29 120.0 . .
C9 C29 C7 120.0 . .
C7 C29 H29 120.0 . .
C29 C9 H9 120.0 . .
C29 C9 C4 120.0 . .
C4 C9 H9 120.0 . .
C9 C4 H4 120.0 . .
C5 C4 C9 120.0 . .
C5 C4 H4 120.0 . .
C4 C5 H5 120.0 . .
C4 C5 C13 120.0 . .
C13 C5 H5 120.0 . .
C5 C13 H13A 120.0 . .
C7 C13 C5 120.0 . .
C7 C13 H13A 120.0 . .
C29 C7 N2 126(2) . .
C13 C7 N2 114(2) . .
C13 C7 C29 120.0 . .
O6 N8 C1G 119(3) . .
O58 N8 C1G 115(4) . .
O58 N8 O6 126(4) . .
C1I C1H C1J 120.0 . .
C1I C1H N49 117(2) . .
C1J C1H N49 123(2) . .
C1H C1I H1I 120.0 . .
C1D C1I C1H 120.0 . .
C1D C1I H1I 120.0 . .
C1I C1D H1D 120.0 . .
C1I C1D C17 120.0 . .
C17 C1D H1D 120.0 . .
C1D C17 H17A 120.0 . .
C1E C17 C1D 120.0 . .
C1E C17 H17A 120.0 . .
C17 C1E H1E 120.0 . .
C17 C1E C1J 120.0 . .
C1J C1E H1E 120.0 . .
C1H C1J H1J 120.0 . .
C1E C1J C1H 120.0 . .
C1E C1J H1J 120.0 . .
O57 N49 C1H 115(3) . .
O59 N49 C1H 119(4) . .
O59 N49 O57 126(4) . .
C93 C92 C96 120.0 . .
C93 C92 N50 120(2) . .
C96 C92 N50 120(2) . .
C92 C93 H93 120.0 . .
C92 C93 C94 120.0 . .
C94 C93 H93 120.0 . .
C93 C94 H94 120.0 . .
C17A C94 C93 120.0 . .
C17A C94 H94 120.0 . .
C94 C17A H17B 120.0 . .
C94 C17A C95 120.0 . .
C95 C17A H17B 120.0 . .
C17A C95 H95 120.0 . .
C17A C95 C96 120.0 . .
C96 C95 H95 120.0 . .
C92 C96 H96 120.0 . .
C95 C96 C92 120.0 . .
C95 C96 H96 120.0 . .
O60 N50 C92 118(4) . .
O60 N50 O29A 120(4) . .
O29A N50 C92 121(4) . .
loop_
_geom_bond_atom_site_label_1
_geom_bond_atom_site_label_2
_geom_bond_distance
_geom_bond_site_symmetry_2
Co1 O1 2.073(6) 1_455
Co1 O4 2.043(6) .
Co1 N5 2.158(8) .
Co1 N6 2.195(8) 1_554
Co1 O13 2.185(7) 1_455
Co1 N15 2.136(8) 2_547
Co2 O2 2.091(6) .
Co2 O3 2.050(6) .
Co2 N7 2.189(7) .
Co2 N9 2.150(7) 1_556
Co2 N11 2.142(8) .
Co2 O17 2.184(7) .
O1 Co1 2.073(6) 1_655
O1 C28 1.275(13) .
O2 C10 1.224(13) .
O3 C28 1.242(11) .
O4 C10 1.242(11) .
N5 C18 1.341(12) .
N5 C32 1.357(13) .
N6 Co1 2.195(8) 1_556
N6 C8 1.298(13) .
N6 C23 1.334(14) .
N7 C12 1.302(14) .
N7 C22 1.329(14) .
C8 H8 0.9500 .
C8 C20 1.381(15) .
N9 Co2 2.150(7) 1_554
N9 C31 1.360(12) .
N9 C41 1.337(13) .
C10 C38 1.539(13) .
N11 C49 1.298(14) .
N11 C50 1.298(16) .
C12 H12 0.9500 .
C12 C16 1.380(17) .
O13 Co1 2.185(7) 1_655
O13 H13 0.88(2) .
O13 C40 1.411(12) .
C14 C19 1.479(15) .
C14 C24 1.374(14) .
C14 C26 1.360(14) .
N15 Co1 2.136(8) 2_557
N15 C46 1.300(14) .
N15 C62 1.283(17) .
C16 H16 0.9500 .
C16 C25 1.392(15) .
O17 H17 0.88(2) .
O17 C38 1.418(13) .
C18 H18 0.9500 .
C18 C24 1.352(14) .
C19 C20 1.402(14) .
C19 C33 1.386(15) .
C20 H20 0.9500 .
C21 H21 0.9500 .
C21 C27 1.369(15) .
C21 C31 1.369(14) .
C22 H22 0.9500 .
C22 C30 1.424(15) .
C23 H23 0.9500 .
C23 C33 1.364(17) .
C24 H24 0.9500 .
C25 C27 1.483(13) .
C25 C30 1.364(15) .
C26 H26 0.9500 .
C26 C32 1.360(16) .
C27 C57 1.388(13) .
C28 C40 1.527(13) .
C30 H30 0.9500 .
C31 H31 0.9500 .
C32 H32 0.9500 .
C33 H33 0.9500 .
C38 H38 1.0000 .
C38 C64 1.513(14) .
C39 C51 1.498(12) .
C39 C59 1.347(17) .
C39 C61 1.352(15) .
C40 H40 1.0000 .
C40 C52 1.525(15) .
C41 H41 0.9500 .
C41 C57 1.372(15) .
C46 H46 0.9500 .
C46 C68 1.385(18) .
O47 N1 1.233(14) .
C49 H49 0.9500 .
C49 C61 1.378(16) .
C50 H50 0.9500 .
C50 C59 1.40(2) .
C51 C68 1.338(16) .
C51 C70 1.340(18) .
C52 C75 1.37(2) .
C52 C6 1.379(19) .
O56 N1 1.255(16) .
C57 H57 0.9500 .
C59 H59 0.9500 .
C61 H61 0.9500 .
C62 H62 0.9500 .
C62 C70 1.36(2) .
C64 C67 1.378(19) .
C64 C91 1.395(18) .
C65 H65 0.9500 .
C65 C11 1.34(3) .
C65 C2 1.37(3) .
C67 H67 0.9500 .
C67 C11 1.41(2) .
C68 H68 0.9500 .
C70 H70 0.9500 .
C75 H75 0.9500 .
C75 C1 1.47(2) .
C91 H91 0.9500 .
C91 C2 1.35(2) .
O42 N48 1.274(12) .
O44 N48 1.233(12) .
O45 N48 1.250(13) .
C72 H72 0.9500 .
C72 C6 1.38(2) .
C72 C3 1.34(3) .
C1 H1 0.9500 .
C1 C3 1.39(3) .
C6 H6 0.9500 .
C3 H3 0.9500 .
C11 H11 0.9500 .
N1 O5 1.245(14) .
C2 H2 0.9500 .
C1G C1C 1.3900 .
C1G C1F 1.3900 .
C1G N8 1.45(2) .
C1C H1C 0.9500 .
C1C C1A 1.3900 .
C1A H1A 0.9500 .
C1A C1B 1.3900 .
C1B H1B 0.9500 .
C1B C15 1.3900 .
C15 H15 0.9500 .
C15 C1F 1.3900 .
C1F H1F 0.9500 .
O6 N8 1.22(3) .
N2 O7 1.20(2) .
N2 O8 1.21(2) .
N2 C7 1.44(2) .
C29 H29 0.9500 .
C29 C9 1.3900 .
C29 C7 1.3900 .
C9 H9 0.9500 .
C9 C4 1.3900 .
C4 H4 0.9500 .
C4 C5 1.3900 .
C5 H5 0.9500 .
C5 C13 1.3900 .
C13 H13A 0.9500 .
C13 C7 1.3900 .
N8 O58 1.21(3) .
C1H C1I 1.3900 .
C1H C1J 1.3900 .
C1H N49 1.45(2) .
C1I H1I 0.9500 .
C1I C1D 1.3900 .
C1D H1D 0.9500 .
C1D C17 1.3900 .
C17 H17A 0.9500 .
C17 C1E 1.3900 .
C1E H1E 0.9500 .
C1E C1J 1.3900 .
C1J H1J 0.9500 .
N49 O57 1.22(3) .
N49 O59 1.21(3) .
C92 C93 1.3900 .
C92 C96 1.3900 .
C92 N50 1.44(2) .
C93 H93 0.9500 .
C93 C94 1.3900 .
C94 H94 0.9500 .
C94 C17A 1.3900 .
C17A H17B 0.9500 .
C17A C95 1.3900 .
C95 H95 0.9500 .
C95 C96 1.3900 .
C96 H96 0.9500 .
N50 O60 1.22(3) .
N50 O29A 1.23(3) .
loop_
_geom_torsion_atom_site_label_1
_geom_torsion_atom_site_label_2
_geom_torsion_atom_site_label_3
_geom_torsion_atom_site_label_4
_geom_torsion
_geom_torsion_site_symmetry_1
Co1 O1 C28 O3 174.8(6) 1_655
Co1 O1 C28 C40 -5.9(10) 1_655
Co1 O4 C10 O2 1.5(13) .
Co1 O4 C10 C38 -178.0(6) .
Co1 N5 C18 C24 179.5(12) .
Co1 N5 C32 C26 -179.4(10) .
Co1 N6 C8 C20 -179.6(11) 1_556
Co1 N6 C23 C33 178.7(12) 1_556
Co1 O13 C40 C28 8.7(9) 1_655
Co1 O13 C40 C52 -112.7(8) 1_655
Co1 N15 C46 C68 170.7(12) 2_557
Co1 N15 C62 C70 -173(2) 2_557
Co2 O2 C10 O4 178.4(6) .
Co2 O2 C10 C38 -2.1(10) .
Co2 O3 C28 O1 5.1(13) .
Co2 O3 C28 C40 -174.2(6) .
Co2 N7 C12 C16 175.0(12) .
Co2 N7 C22 C30 -177.7(9) .
Co2 N9 C31 C21 -177.3(11) 1_554
Co2 N9 C41 C57 176.9(10) 1_554
Co2 N11 C49 C61 -171.5(12) .
Co2 N11 C50 C59 171.6(19) .
Co2 O17 C38 C10 12.3(9) .
Co2 O17 C38 C64 -110.3(8) .
O1 C28 C40 O13 -2.2(12) .
O1 C28 C40 C52 121.8(9) .
O2 C10 C38 O17 -7.2(11) .
O2 C10 C38 C64 117.0(10) .
O3 C28 C40 O13 177.1(7) .
O3 C28 C40 C52 -58.8(11) .
O4 C10 C38 O17 172.4(7) .
O4 C10 C38 C64 -63.4(11) .
N5 C18 C24 C14 -2(2) .
N6 C8 C20 C19 1(2) .
N6 C23 C33 C19 1(3) .
N7 C12 C16 C25 5(3) .
N7 C22 C30 C25 0.7(19) .
C8 N6 C23 C33 7(2) .
N9 C41 C57 C27 -1(2) .
C10 C38 C64 C67 -93.8(13) .
C10 C38 C64 C91 76.1(16) .
N11 C49 C61 C39 1(2) .
N11 C50 C59 C39 -1(4) .
C12 N7 C22 C30 -4.8(19) .
C12 C16 C25 C27 174.3(13) .
C12 C16 C25 C30 -8(2) .
O13 C40 C52 C75 30.5(15) .
O13 C40 C52 C6 -150.6(10) .
C14 C19 C20 C8 -177.3(12) .
C14 C19 C33 C23 176.6(13) .
C14 C26 C32 N5 2(2) .
N15 C46 C68 C51 3(3) .
N15 C62 C70 C51 1(4) .
C16 C25 C27 C21 -156.4(15) .
C16 C25 C27 C57 23.9(19) .
C16 C25 C30 C22 5.9(19) .
O17 C38 C64 C67 28.7(15) .
O17 C38 C64 C91 -161.4(13) .
C18 N5 C32 C26 0.9(19) .
C19 C14 C24 C18 -175.8(13) .
C19 C14 C26 C32 175.9(11) .
C20 C19 C33 C23 -7(2) .
C21 C27 C57 C41 4.4(19) .
C22 N7 C12 C16 2(2) .
C23 N6 C8 C20 -8(2) .
C24 C14 C19 C20 159.6(14) .
C24 C14 C19 C33 -24.2(18) .
C24 C14 C26 C32 -4.8(19) .
C25 C27 C57 C41 -175.9(11) .
C26 C14 C19 C20 -21.1(18) .
C26 C14 C19 C33 155.1(14) .
C26 C14 C24 C18 5(2) .
C27 C21 C31 N9 2(2) .
C27 C25 C30 C22 -176.8(11) .
C28 C40 C52 C75 -91.2(13) .
C28 C40 C52 C6 87.7(12) .
C30 C25 C27 C21 26.4(18) .
C30 C25 C27 C57 -153.3(12) .
C31 N9 C41 C57 -2.5(18) .
C31 C21 C27 C25 175.5(12) .
C31 C21 C27 C57 -5(2) .
C32 N5 C18 C24 -1(2) .
C33 C19 C20 C8 6(2) .
C38 C64 C67 C11 170.7(14) .
C38 C64 C91 C2 -169.6(18) .
C39 C51 C68 C46 -177.8(13) .
C39 C51 C70 C62 176.0(19) .
C40 C52 C75 C1 176.2(13) .
C40 C52 C6 C72 -176.3(14) .
C41 N9 C31 C21 2(2) .
C46 N15 C62 C70 4(3) .
C49 N11 C50 C59 2(3) .
C50 N11 C49 C61 -2(2) .
C51 C39 C59 C50 179.8(19) .
C51 C39 C61 C49 -179.8(12) .
C52 C75 C1 C3 0(3) .
C59 C39 C51 C68 0(2) .
C59 C39 C51 C70 180(2) .
C59 C39 C61 C49 0(2) .
C61 C39 C51 C68 179.2(14) .
C61 C39 C51 C70 -1(2) .
C61 C39 C59 C50 0(3) .
C62 N15 C46 C68 -6(2) .
C64 C67 C11 C65 2(3) .
C64 C91 C2 C65 -3(4) .
C67 C64 C91 C2 0(3) .
C68 C51 C70 C62 -4(3) .
C70 C51 C68 C46 2(2) .
C75 C52 C6 C72 3(2) .
C75 C1 C3 C72 2(3) .
C91 C64 C67 C11 0(2) .
C6 C52 C75 C1 -3(2) .
C6 C72 C3 C1 -3(3) .
C3 C72 C6 C52 0(3) .
C11 C65 C2 C91 5(4) .
C2 C65 C11 C67 -4(4) .
C1G C1C C1A C1B 0.0 .
C1C C1G C1F C15 0.0 .
C1C C1G N8 O6 165(3) .
C1C C1G N8 O58 -16(3) .
C1C C1A C1B C15 0.0 .
C1A C1B C15 C1F 0.0 .
C1B C15 C1F C1G 0.0 .
C1F C1G C1C C1A 0.0 .
C1F C1G N8 O6 -16(3) .
C1F C1G N8 O58 164(3) .
O7 N2 C7 C29 166(2) .
O7 N2 C7 C13 -14(2) .
O8 N2 C7 C29 -14(2) .
O8 N2 C7 C13 166(2) .
C29 C9 C4 C5 0.0 .
C9 C29 C7 N2 180.0(8) .
C9 C29 C7 C13 0.0 .
C9 C4 C5 C13 0.0 .
C4 C5 C13 C7 0.0 .
C5 C13 C7 N2 -180.0(7) .
C5 C13 C7 C29 0.0 .
C7 C29 C9 C4 0.0 .
N8 C1G C1C C1A 179.3(8) .
N8 C1G C1F C15 -179.4(8) .
C1H C1I C1D C17 0.0 .
C1I C1H C1J C1E 0.0 .
C1I C1H N49 O57 -4(4) .
C1I C1H N49 O59 175(4) .
C1I C1D C17 C1E 0.0 .
C1D C17 C1E C1J 0.0 .
C17 C1E C1J C1H 0.0 .
C1J C1H C1I C1D 0.0 .
C1J C1H N49 O57 176(4) .
C1J C1H N49 O59 -5(4) .
N49 C1H C1I C1D 180.0(8) .
N49 C1H C1J C1E -180.0(8) .
C92 C93 C94 C17A 0.0 .
C93 C92 C96 C95 0.0 .
C93 C92 N50 O60 10(5) .
C93 C92 N50 O29A -169(5) .
C93 C94 C17A C95 0.0 .
C94 C17A C95 C96 0.0 .
C17A C95 C96 C92 0.0 .
C96 C92 C93 C94 0.0 .
C96 C92 N50 O60 -170(5) .
C96 C92 N50 O29A 10(5) .
N50 C92 C93 C94 179.4(8) .
N50 C92 C96 C95 -179.4(8) .
