#------------------------------------------------------------------------------
#$Date: 2019-11-25 06:44:42 +0200 (Mon, 25 Nov 2019) $
#$Revision: 240271 $
#$URL: file:///home/coder/svn-repositories/cod/cif/4/12/95/4129574.cif $
#------------------------------------------------------------------------------
#
# This file is available in the Crystallography Open Database (COD),
# http://www.crystallography.net/
#
# All data on this site have been placed in the public domain by the
# contributors.
#
data_4129574
loop_
_publ_author_name
'Beyzavi, M. Hassan'
'Vermeulen, Nicolaas A.'
'Howarth, Ashlee J.'
'Tussupbayev, Samat'
'League, Aaron B.'
'Schweitzer, Neil M.'
'Gallagher, James R.'
'Platero-Prats, Ana E'
'Hafezi, Nema'
'Sarjeant, Amy A.'
'Miller, Jeffrey T.'
'Chapman, Karena W.'
'Stoddart, J. Fraser'
'Cramer, Christopher J.'
'Hupp, Joseph T.'
'Farha, Omar K.'
_publ_section_title
;
 A Hafnium-Based Metal-Organic Framework as a Nature-Inspired Tandem
 Reaction Catalyst.
;
_journal_issue                   42
_journal_name_full               'Journal of the American Chemical Society'
_journal_page_first              13624
_journal_page_last               13631
_journal_paper_doi               10.1021/jacs.5b08440
_journal_volume                  137
_journal_year                    2015
_chemical_formula_moiety         '(C96 H56 Cl2 Fe2 Hf6 N8 O32), 2(Fe)'
_chemical_formula_sum            'C96 H56 Cl2 Fe4 Hf6 N8 O32'
_chemical_formula_weight         3198.72
_space_group_crystal_system      hexagonal
_space_group_IT_number           191
_space_group_name_Hall           '-P 6 2'
_space_group_name_H-M_alt        'P 6/m m m'
_atom_sites_solution_hydrogens   geom
_atom_sites_solution_primary     direct
_audit_creation_date             2015-02-20
_audit_creation_method
;
Olex2 1.2
(compiled 2015.01.26 svn.r3150 for OlexSys, GUI svn.r4998)
;
_cell_angle_alpha                90
_cell_angle_beta                 90
_cell_angle_gamma                120
_cell_formula_units_Z            3
_cell_length_a                   42.7645(13)
_cell_length_b                   42.7645(13)
_cell_length_c                   16.7556(5)
_cell_measurement_reflns_used    4053
_cell_measurement_temperature    250(2)
_cell_measurement_theta_max      52.852
_cell_measurement_theta_min      2.637
_cell_volume                     26537.3(14)
_computing_cell_refinement       'SAINT v8.34A (Bruker, 2013)'
_computing_data_collection       'APEX2 V2.1-4 (Bruker, 2007)'
_computing_data_reduction        'SAINT v8.34A (Bruker, 2013)'
_computing_molecular_graphics    'Olex2 (Dolomanov et al., 2009)'
_computing_publication_material  'Olex2 (Dolomanov et al., 2009)'
_computing_structure_refinement  'XL (Sheldrick, 2008)'
_computing_structure_solution    'XT (Sheldrick, 2015)'
_diffrn_ambient_temperature      249.99
_diffrn_detector_area_resol_mean 8
_diffrn_measured_fraction_theta_full 0.665
_diffrn_measured_fraction_theta_max 0.999
_diffrn_measurement_device_type  'Bruker Kappa APEX CCD area detector'
_diffrn_measurement_method       '\w and \f scans'
_diffrn_radiation_monochromator  'MX optics'
_diffrn_radiation_type           CuK\a
_diffrn_radiation_wavelength     1.54178
_diffrn_reflns_av_R_equivalents  0.1282
_diffrn_reflns_av_unetI/netI     0.0673
_diffrn_reflns_Laue_measured_fraction_full 0.665
_diffrn_reflns_Laue_measured_fraction_max 0.999
_diffrn_reflns_limit_h_max       42
_diffrn_reflns_limit_h_min       -44
_diffrn_reflns_limit_k_max       44
_diffrn_reflns_limit_k_min       -35
_diffrn_reflns_limit_l_max       6
_diffrn_reflns_limit_l_min       -17
_diffrn_reflns_number            58687
_diffrn_reflns_point_group_measured_fraction_full 0.665
_diffrn_reflns_point_group_measured_fraction_max 0.999
_diffrn_reflns_theta_full        67.679
_diffrn_reflns_theta_max         53.437
_diffrn_reflns_theta_min         1.193
_diffrn_source                   microsource
_exptl_absorpt_coefficient_mu    4.751
_exptl_absorpt_correction_T_max  0.7505
_exptl_absorpt_correction_T_min  0.6401
_exptl_absorpt_correction_type   multi-scan
_exptl_absorpt_process_details
;
SADABS-2014/5 (Bruker,2014/5) was used for absorption correction.
wR2(int) was 0.1106 before and 0.0687 after correction.
The Ratio of minimum to maximum transmission is 0.8529.
The \l/2 correction factor is 0.00150.
;
_exptl_crystal_colour            orange
_exptl_crystal_colour_primary    orange
_exptl_crystal_density_diffrn    0.600
_exptl_crystal_description       needle
_exptl_crystal_F_000             4542
_exptl_crystal_size_max          0.112
_exptl_crystal_size_mid          0.017
_exptl_crystal_size_min          0.017
_refine_diff_density_max         1.371
_refine_diff_density_min         -0.942
_refine_diff_density_rms         0.106
_refine_ls_extinction_method     none
_refine_ls_goodness_of_fit_ref   0.962
_refine_ls_hydrogen_treatment    constr
_refine_ls_matrix_type           full
_refine_ls_number_parameters     195
_refine_ls_number_reflns         5902
_refine_ls_number_restraints     204
_refine_ls_restrained_S_all      0.963
_refine_ls_R_factor_all          0.0555
_refine_ls_R_factor_gt           0.0433
_refine_ls_shift/su_max          0.001
_refine_ls_shift/su_mean         0.000
_refine_ls_structure_factor_coef Fsqd
_refine_ls_weighting_details
'w=1/[\s^2^(Fo^2^)+(0.0778P)^2^] where P=(Fo^2^+2Fc^2^)/3'
_refine_ls_weighting_scheme      calc
_refine_ls_wR_factor_gt          0.1228
_refine_ls_wR_factor_ref         0.1280
_reflns_Friedel_coverage         0.000
_reflns_number_gt                4223
_reflns_number_total             5902
_reflns_threshold_expression     'I > 2\s(I)'
_cod_data_source_file            ja5b08440_si_002.cif
_cod_data_source_block           cx0273
_cod_original_cell_volume        26537.3(18)
_cod_database_code               4129574
_shelxl_version_number           2014-3
_shelx_space_group_comment
;
The symmetry employed for this shelxl refinement is uniquely defined
by the following loop, which should always be used as a source of
symmetry information in preference to the above space-group names.
They are only intended as comments.
;
_shelx_estimated_absorpt_t_max   0.924
_shelx_estimated_absorpt_t_min   0.618
_olex2_refinement_description
;
1. Fixed Uiso
 At 1.2 times of:
  All C(H) groups, All C(H,H) groups
2. Uiso/Uaniso restraints and constraints
Uanis(Fe2) \\sim Ueq: with sigma of 0.1 and sigma for terminal atoms of 0.2
Uanis(Cl1A) = Uanis(Cl1)
3. Rigid body (RIGU) restrains
 All non-hydrogen atoms
 with sigma for 1-2 distances of 0.004 and sigma for 1-3 distances of 0.004
4. Others
 Sof(Cl1A)=0.25*(1-FVAR(2))
 Sof(Cl1)=0.25*FVAR(2)
 Fixed Sof: Fe2(0.125) Fe3(0.125)
5.a Secondary CH2 refined with riding coordinates:
 C11(H11A,H11B)
5.b Aromatic/amide H refined with riding coordinates:
 C3(H3), C4(H4), C6(H6), C7(H7), C10(H10)
;
_smtbx_masks_special_details
;
The solvent masking procedure as implemented in Olex2 was used to remove the
electronic contribution of solvent molecules from the refinement.  As the exact
solvent content is not known, only the atoms used in the refinement model are
reported in the formula here.  Evidence exists that suggests additional Cl atoms
are present in the void space to balance charges of the additional Fe atoms. 

While we were able to locate the Fe atoms surrounding the Hf core, we did not
observe localized electron density corresponding to partially occupied Cl atoms.
It is likely they they have been removed via solvent masking.

Total solvent accessible volume / cell = 20041.7 Ang^3^ [75.5%]
Total electron count / cell = 7718.1
;
_shelx_res_file
;
TITL cx0273_a.res in P6/mmm
REM Old TITL cx0273 in P6/mmm #191
REM SHELXT solution in P6/mmm
REM R1 0.202, Rweak 0.013, Alpha 0.034, Orientation as input
REM Formula found by SHELXT: C50 N4 O19 Fe Hf3
CELL 1.54178 42.7645 42.7645 16.7556 90 90 120
ZERR 3 0.0013 0.0013 0.0005 0 0 0
LATT 1
SYMM -Y,+X-Y,+Z
SYMM +Y-X,-X,+Z
SYMM -X,-Y,+Z
SYMM +Y,-X+Y,+Z
SYMM -Y+X,+X,+Z
SYMM +Y,+X,-Z
SYMM -Y+X,-Y,-Z
SYMM -X,-X+Y,-Z
SYMM -Y,-X,-Z
SYMM +Y-X,+Y,-Z
SYMM +X,+X-Y,-Z
SFAC C H Cl Fe Hf N O
UNIT 288 168 6 12 18 24 96
RIGU
ISOR Fe2
EADP Cl1A Cl1

L.S. 4
PLAN  20
SIZE 0.017 0.017 0.112
TEMP -23.16
BIND Cl1A Fe1
BOND $H
fmap 2
ACTA
BOND $H
CONF
WPDB -2
OMIT -1 2 0
REM <olex2.extras>
REM <HklSrc "%.\\cx0273-mask.hkl">
REM </olex2.extras>

WGHT    0.077800
FVAR       0.07695   0.71286
HF1   5    0.466554    0.533446    0.500000    10.25000    0.06000    0.06000 =
         0.01818    0.00000    0.00000    0.04608
HF2   5    0.459201    0.459201    0.603211    10.50000    0.05310    0.05310 =
         0.02774    0.00680    0.00680    0.03550
PART 1
FE1   4    0.495743    0.747872    1.000000    10.25000    0.36023    0.11052 =
         0.02445    0.00000    0.00000    0.18012

PART 0
FE2   4    0.575799    0.628396    0.500000    10.12500    0.20716    0.73146 =
         0.07337    0.00000    0.00000    0.26399

FE3   4    0.467651    0.532349    0.796663    10.12500    0.16229    0.16229 =
         0.08862   -0.02319    0.02319    0.07843
PART 1
CL1   3    0.429919    0.714960    1.000000    20.25000    0.28522    0.15697 =
         0.15586    0.00000    0.00000    0.14261
PART 0
PART 2
CL1A  3    0.583874    0.791937    1.000000   -20.25000    0.28522    0.15697 =
         0.15586    0.00000    0.00000    0.14261
PART 0
O1    7    0.483990    0.516010    0.605644    10.50000    0.06757    0.06757 =
         0.10841    0.02524   -0.02524    0.03041
O2    7    0.443874    0.476881    0.500000    10.50000    0.12125    0.09104 =
         0.02999    0.00000    0.00000    0.08164
O3    7    0.481982    0.579007    0.580558    11.00000    0.08401    0.06162 =
         0.03083   -0.00846   -0.00623    0.05765
O4    7    0.531148    0.585378    0.644552    11.00000    0.11793    0.09637 =
         0.06886   -0.03514   -0.02374    0.08161
O5    7    0.460558    0.460558    0.736000    10.50000    0.11517    0.11517 =
         0.03938    0.01166    0.01166    0.06888
O6    7    0.409249    0.409249    0.587778    10.50000    0.06787    0.06787 =
         0.11621    0.00068    0.00068    0.03879
N1    6    0.501322    0.750661    0.879184    10.50000    0.23536    0.07887 =
         0.02846   -0.00105   -0.00210    0.11768
N2    6    0.502680    0.705077    1.000000    10.50000    0.25013    0.08467 =
         0.03171    0.00000    0.00000    0.12187
C1    1    0.506427    0.594008    0.630383    11.00000    0.10564    0.10321 =
         0.06278   -0.02851   -0.01475    0.07856
C2    1    0.506984    0.622705    0.684789    11.00000    0.11639    0.08295 =
         0.04692   -0.02105   -0.00435    0.07198
C3    1    0.476166    0.625010    0.690793    11.00000    0.14065    0.11956 =
         0.06371   -0.03407   -0.01454    0.10488
AFIX  43
H3    2    0.455804    0.609965    0.659686    11.00000   -1.20000
AFIX   0
C4    1    0.475326    0.649832    0.743369    11.00000    0.16453    0.13782 =
         0.06194   -0.03899   -0.01413    0.11972
AFIX  43
H4    2    0.454839    0.652516    0.746221    11.00000   -1.20000
AFIX   0
C5    1    0.505188    0.670618    0.791642    11.00000    0.17833    0.08531 =
         0.04062   -0.00983   -0.00758    0.09860
C6    1    0.535426    0.665878    0.787615    11.00000    0.18406    0.13210 =
         0.07762   -0.04610   -0.02703    0.11274
AFIX  43
H6    2    0.555277    0.679341    0.821389    11.00000   -1.20000
AFIX   0
C7    1    0.536138    0.641984    0.735272    11.00000    0.14256    0.12720 =
         0.07701   -0.05649   -0.03351    0.09676
AFIX  43
H7    2    0.556191    0.638560    0.733302    11.00000   -1.20000
AFIX   0
C8    1    0.503803    0.695724    0.855955    11.00000    0.19722    0.07925 =
         0.03258   -0.00705   -0.00267    0.09958
C9    1    0.504218    0.726959    0.830338    11.00000    0.22098    0.07957 =
         0.03696   -0.00283   -0.00087    0.11587
C10   1    0.506409    0.738102    0.748422    11.00000    0.26840    0.11509 =
         0.02785    0.00143    0.00938    0.14871
AFIX  43
H10   2    0.507617    0.725686    0.703301    11.00000   -1.20000
AFIX   0
C11   1    0.501889    0.653447    0.959356    11.00000    0.21185    0.07818 =
         0.05282    0.00246    0.00849    0.10192
AFIX  23
H11A  2    0.480304    0.632019    0.939160    11.00000   -1.20000
H11B  2    0.523251    0.653162    0.939155    11.00000   -1.20000
AFIX   0
C12   1    0.502210    0.684926    0.934087    11.00000    0.20567    0.06596 =
         0.03646   -0.00076   -0.00737    0.09664
HKLF 4

REM  cx0273_a.res in P6/mmm
REM R1 =  0.0433 for    4223 Fo > 4sig(Fo)  and  0.0555 for all    5902 data
REM    195 parameters refined using    204 restraints

END

WGHT      0.0778      0.0000

REM Highest difference peak  1.371,  deepest hole -0.942,  1-sigma level  0.106
Q1    1   0.5690  0.6107  0.5000  10.50000  0.05    1.37
Q2    1   0.6174  0.6675  0.5000  10.50000  0.05    0.92
Q3    1   0.5305  0.7653  1.0000  10.25000  0.05    0.91
Q4    1   0.6017  0.7741  1.0000  10.50000  0.05    0.85
Q5    1   0.6110  0.7909  0.9585  11.00000  0.05    0.77
Q6    1   0.5483  0.6279  0.4224  11.00000  0.05    0.66
Q7    1   0.4598  0.5402  0.8693  10.50000  0.05    0.64
Q8    1   0.3946  0.3946  0.5000  10.25000  0.05    0.59
Q9    1   0.4548  0.5452  0.5000  10.25000  0.05    0.54
Q10   1   0.5619  0.6496  0.5000  10.50000  0.05    0.51
Q11   1   0.5058  0.7273  0.7807  11.00000  0.05    0.44
Q12   1   0.5291  0.7435  0.6988  11.00000  0.05    0.42
Q13   1   0.5321  0.7355  0.7232  11.00000  0.05    0.42
Q14   1   0.4946  0.7473  0.9182  10.50000  0.05    0.41
Q15   1   0.4266  0.7133  0.9133  10.50000  0.05    0.41
Q16   1   0.4907  0.7181  0.7019  11.00000  0.05    0.41
Q17   1   0.5769  0.6641  0.5359  11.00000  0.05    0.40
Q18   1   0.5542  0.7653  1.0000  10.50000  0.05    0.38
Q19   1   0.4781  0.7390  0.7040  10.50000  0.05    0.36
Q20   1   0.5356  0.7678  0.7553  10.50000  0.05    0.36
;
_shelx_res_checksum              82420
_shelx_hkl_file
;
   0   0   2  623.97  277.23
   0   0   3  395.33    4.07
   0   0   4  232.37   86.99
   0   0   5 2287.27  137.79
   0   0   6   29.61    4.00
   0   0   7   46.93   11.53
   0   0   8 3562.22  280.59
   0   0   9 3749.68  263.19
   0   0  10 4061.32  292.93
   0   0  11 1913.87  133.10
   0   0  12 1319.72   95.49
   0   0  13   17.35    9.70
   0   0  14    4.21    9.60
   0   0  15  218.53   28.40
   0   0  16  112.72   16.30
   0   0  17  135.54   18.60
   1   0   011475.22    0.14
   1   0   1  124.20  266.62
   1   0   2   55.04   13.43
   1   0   3   43.21    1.47
   1   0   4   25.43    5.12
   1   0   5  204.13    6.54
   1   0   6    0.84    4.24
   1   0   7    3.23    2.34
   1   0   8  369.31   12.33
   1   0   9  364.42   10.81
   1   0  10  422.16   13.29
   1   0  11  197.30    6.96
   1   0  12  147.50    7.08
   1   0  13    2.24    3.67
   1   0  14    1.09    3.80
   1   0  15   18.49    4.18
   1   0  16   15.81    4.41
   1   0  17   14.20    3.76
   1   1   1 2554.87  821.52
   1   1   2  152.98    4.57
   1   1   3   32.98    2.00
   1   1   4  389.99   28.11
   1   1   5  113.10    9.45
   1   1   6  144.12   13.35
   1   1   7  137.67    4.47
   1   1   8  118.51    4.07
   1   1   9  543.20   15.36
   1   1  10  300.94    9.60
   1   1  11  219.79    8.15
   1   1  12    5.31    3.13
   1   1  13   14.59    3.63
   1   1  14   26.83    4.25
   1   1  15    4.94    3.87
   1   1  16   14.68    3.96
   1   1  17   21.96    4.16
   2   0   0 9803.55    0.57
   2   0   111445.67  677.34
   2   0   2  939.94   54.33
   2   0   3   13.94    1.61
   2   0   4 1011.69   63.88
   2   0   5  797.08   36.88
   2   0   6  382.19   30.03
   2   0   7  520.75   15.10
   2   0   8 1471.77   39.98
   2   0   9 3553.50   99.01
   2   0  10 2740.94   80.83
   2   0  11 1703.40   49.78
   2   0  12  303.70   12.25
   2   0  13   94.21    5.33
   2   0  14   51.21    4.81
   2   0  15   33.10    4.57
   2   0  16    1.85    3.80
   2   0  17  161.19    8.54
   2   1   0   41.83   38.14
   2   1   1 2054.07   41.35
   2   1   2  188.57    2.92
   2   1   3    4.56    1.31
   2   1   4  235.67   12.19
   2   1   5   29.46    3.88
   2   1   6   46.09    3.75
   2   1   7   74.16    2.24
   2   1   8   98.45    2.59
   2   1   9  334.03    7.03
   2   1  10  252.90    5.77
   2   1  11  162.24    4.65
   2   1  12   13.89    2.40
   2   1  13   16.39    2.46
   2   1  14   10.02    2.75
   2   1  15    0.00    2.66
   2   1  16    2.57    2.56
   2   1  17   18.03    2.87
   2   2   0  136.34  238.95
   2   2   1 5429.65  188.82
   2   2   2 1693.61   41.03
   2   2   3   12.09    2.92
   2   2   4 1067.76   80.97
   2   2   5  812.54   45.19
   2   2   6  252.58   17.85
   2   2   7  154.34    4.77
   2   2   8 1037.91   25.57
   2   2   9 1859.83   50.34
   2   2  10 1535.52   47.04
   2   2  11  620.06   19.35
   2   2  12  112.77    5.85
   2   2  13    6.06    3.95
   2   2  14  111.34    6.26
   2   2  15   43.47    4.76
   2   2  16   21.01    3.97
   2   2  17   52.34    5.57
   3   0   1    0.14   11.03
   3   0   2    6.93    6.48
   3   0   3    0.86    1.94
   3   0   4   75.53    3.69
   3   0   5   10.91    3.45
   3   0   6   23.92    5.35
   3   0   7   20.71    2.34
   3   0   8  146.20    6.41
   3   0   9  160.25    5.85
   3   0  10  189.77    7.39
   3   0  11  146.82    5.94
   3   0  12  109.50    5.47
   3   0  13   15.08    3.47
   3   0  14   18.80    4.07
   3   0  15    0.53    5.33
   3   0  16   40.40    5.54
   3   0  17   16.49    4.91
   3   1   0  827.11   50.51
   3   1   1   20.24    5.62
   3   1   2  140.87    5.29
   3   1   3   15.29    1.80
   3   1   4  215.52    9.94
   3   1   5  698.68   27.19
   3   1   6  113.28    5.28
   3   1   7   50.01    1.87
   3   1   8  323.17    6.16
   3   1   9  170.73    4.38
   3   1  10  176.47    4.55
   3   1  11    2.47    2.01
   3   1  12   12.35    2.20
   3   1  13   64.85    3.55
   3   1  14   78.52    3.93
   3   1  15  132.87    5.28
   3   1  16   20.04    2.85
   3   1  17    3.53    2.37
   3   2   0  146.46    3.60
   3   2   1  568.91   13.41
   3   2   2  193.79    1.95
   3   2   3   99.55    1.97
   3   2   4    0.49    2.35
   3   2   5   42.37    2.96
   3   2   6   13.84    2.73
   3   2   7  150.32    3.54
   3   2   8   15.36    1.57
   3   2   9  108.37    3.01
   3   2  10   85.46    2.90
   3   2  11  103.48    3.32
   3   2  12   11.92    2.28
   3   2  13   57.17    3.05
   3   2  14    9.55    2.67
   3   2  15   39.29    3.29
   3   2  16    5.07    2.55
   3   2  17   27.57    2.68
   3   3   0  188.27    9.24
   3   3   1   35.31    7.91
   3   3   2  375.08    5.60
   3   3   3  496.50   30.71
   3   3   4  597.79   29.08
   3   3   5  841.80   39.84
   3   3   6  850.37   35.33
   3   3   7   29.66    2.54
   3   3   8    1.07    2.23
   3   3   9  133.18    6.17
   3   3  10    7.99    2.55
   3   3  11    0.05    2.69
   3   3  12  135.51    6.37
   3   3  13  198.77    8.07
   3   3  14  322.86   13.19
   3   3  15  349.26   15.31
   3   3  16  181.91    9.66
   3   3  17    1.77    3.50
   4   0   010601.08  501.18
   4   0   1   40.84   40.33
   4   0   2  638.86   47.30
   4   0   3    3.68    3.98
   4   0   4  131.28    8.76
   4   0   5 1364.21   75.87
   4   0   6   25.27    3.83
   4   0   7   76.57    3.00
   4   0   8 1794.63   49.64
   4   0   9  914.10   27.61
   4   0  10 1219.30   37.38
   4   0  11  180.70    6.83
   4   0  12  364.33   13.19
   4   0  13   64.86    5.09
   4   0  14   53.15    6.58
   4   0  15  213.57   10.29
   4   0  16    7.22    3.65
   4   0  17    0.52    3.18
   4   1   0   99.53   14.03
   4   1   1   40.03    1.44
   4   1   2  193.99   12.40
   4   1   3    2.36    3.50
   4   1   4   74.78    4.62
   4   1   5  150.02    5.27
   4   1   6   16.80    2.29
   4   1   7   61.53    2.31
   4   1   8  208.08    4.87
   4   1   9   87.62    2.84
   4   1  10  123.26    3.79
   4   1  11    8.30    2.05
   4   1  12   41.65    2.74
   4   1  13   23.69    2.49
   4   1  14   27.98    2.93
   4   1  15   34.47    3.18
   4   1  16    0.08    2.49
   4   1  17    3.11    2.36
   4   2   0   20.71   21.93
   4   2   1  609.56   21.54
   4   2   2   31.92    8.76
   4   2   3   23.87    2.18
   4   2   4  246.16    7.01
   4   2   5  314.81   11.71
   4   2   6  300.26    9.43
   4   2   7   32.02    1.99
   4   2   8  138.42    3.52
   4   2   9  571.66   12.16
   4   2  10  293.69    7.08
   4   2  11  141.67    4.55
   4   2  12    1.74    2.15
   4   2  13   25.00    2.69
   4   2  14  133.43    4.72
   4   2  15   93.95    4.48
   4   2  16   40.77    3.15
   4   2  17   18.55    3.60
   4   3   0    7.37    2.72
   4   3   1    5.93    2.18
   4   3   2   78.85   12.82
   4   3   3  396.75   15.33
   4   3   4   38.96    3.16
   4   3   5   17.64    2.54
   4   3   6   45.71    2.74
   4   3   7    0.83    1.65
   4   3   8   85.35    2.93
   4   3   9   14.49    1.79
   4   3  10   46.57    2.32
   4   3  11   12.26    2.03
   4   3  12   51.72    2.81
   4   3  13    5.33    2.36
   4   3  14   11.63    2.55
   4   3  15    6.79    2.65
   4   3  16   20.16    3.26
   4   3  17    1.06    2.28
   4   4   0  136.67   11.85
   4   4   1   54.46    4.83
   4   4   2   64.97    3.37
   4   4   3    4.17    2.92
   4   4   4    0.04    3.00
   4   4   5  134.65    9.82
   4   4   6   17.34    3.18
   4   4   7  361.25   10.97
   4   4   8  232.39    8.44
   4   4   9    0.72    2.41
   4   4  10   44.03    3.42
   4   4  11   60.82    3.89
   4   4  12   12.85    3.25
   4   4  13  116.37    6.70
   4   4  14   97.75    5.88
   4   4  15   91.61    5.91
   4   4  16    0.06    3.44
   4   4  17   29.26    3.91
   5   0   0 2249.43   44.89
   5   0   1  101.53    1.75
   5   0   2    1.34    2.45
   5   0   3  296.15   13.02
   5   0   4  521.58   31.66
   5   0   5  119.58    5.52
   5   0   6  385.10   19.18
   5   0   7   96.40    4.88
   5   0   8   61.10    2.82
   5   0   9    0.74    2.21
   5   0  10   40.11    3.12
   5   0  11   22.26    4.66
   5   0  12   66.02    4.45
   5   0  13   60.45    4.23
   5   0  14  166.30    8.02
   5   0  15   49.37    4.93
   5   0  16   95.07    6.72
   5   0  17   28.13    4.23
   5   1   0  204.22    8.33
   5   1   1   21.21    3.50
   5   1   2  290.27    7.06
   5   1   3  227.17    6.61
   5   1   4  548.85   19.41
   5   1   5  503.96   19.46
   5   1   6  782.60   23.65
   5   1   7   10.63    1.76
   5   1   8   19.83    1.67
   5   1   9  156.78    4.08
   5   1  10    3.88    1.81
   5   1  11   20.27    2.29
   5   1  12   97.02    3.67
   5   1  13  122.23    4.34
   5   1  14  283.60    8.87
   5   1  15  212.52    7.48
   5   1  16  129.27    5.15
   5   1  17    0.74    3.15
   5   2   0  370.67    7.59
   5   2   1   29.79    2.90
   5   2   2  125.66    6.35
   5   2   3  333.22   22.84
   5   2   4  443.01   17.29
   5   2   5  418.68   17.72
   5   2   6  312.94    9.66
   5   2   7  285.79    7.20
   5   2   8    1.39    1.56
   5   2   9    0.79    1.59
   5   2  10    0.22    1.80
   5   2  11    3.57    2.01
   5   2  12    6.28    2.25
   5   2  13  132.33    4.66
   5   2  14  145.73    4.96
   5   2  15  157.71    5.84
   5   2  16   43.66    3.32
   5   2  17   41.75    2.86
   5   3   0  141.85    3.78
   5   3   1    1.71    1.13
   5   3   2  482.44   32.09
   5   3   3 2469.02  108.27
   5   3   4  942.67   34.39
   5   3   5 1001.97   37.16
   5   3   6  863.09   26.02
   5   3   7  614.14   14.61
   5   3   8    0.40    1.48
   5   3   9    0.11    1.64
   5   3  10    0.08    1.81
   5   3  11   78.29    2.99
   5   3  12   95.28    3.91
   5   3  13  424.63   11.24
   5   3  14  649.87   17.97
   5   3  15  419.77   12.43
   5   3  16  156.26    5.76
   5   3  17   79.92    3.94
   5   4   0   25.86    4.81
   5   4   1  116.79    4.49
   5   4   2   34.73    4.24
   5   4   3  657.74   26.21
   5   4   4  502.86   19.35
   5   4   5  211.42   10.08
   5   4   6  341.33    9.52
   5   4   7   38.47    2.25
   5   4   8   30.18    1.87
   5   4   9   29.01    1.97
   5   4  10    1.04    1.84
   5   4  11    7.55    2.08
   5   4  12   33.95    2.74
   5   4  13   53.50    3.21
   5   4  14  158.81    5.40
   5   4  15   73.57    3.70
   5   4  16   65.81    3.52
   5   4  17    6.28    2.76
   5   5   0  374.61   32.44
   5   5   1   90.74    7.81
   5   5   2  485.20   18.85
   5   5   3 1598.37   83.41
   5   5   4 2778.35  129.56
   5   5   5  711.39   35.86
   5   5   6 1091.97   43.47
   5   5   7  609.88   21.37
   5   5   8   65.39    3.50
   5   5   9   12.02    3.03
   5   5  10  132.40    6.37
   5   5  11   72.37    4.56
   5   5  12  156.30    9.91
   5   5  13  446.47   17.26
   5   5  14  620.80   22.74
   5   5  15  345.32   14.70
   5   5  16  251.27   12.18
   5   5  17  113.27    7.47
   6   0   0 2925.40  127.69
   6   0   1   64.46    4.10
   6   0   2  245.39   50.74
   6   0   3   35.43    3.13
   6   0   4   24.02    2.99
   6   0   5  245.95   14.99
   6   0   6  360.66   17.81
   6   0   7   22.13    3.16
   6   0   8   15.52    2.38
   6   0   9  324.05   10.33
   6   0  10   56.06    3.70
   6   0  11  160.76    7.25
   6   0  12   45.72    4.47
   6   0  13   63.05    4.53
   6   0  14  110.63    6.23
   6   0  15  149.39    7.48
   6   0  16   32.58    4.00
   6   0  17   25.68    3.71
   6   1   0   59.13    6.04
   6   1   1    5.15    1.59
   6   1   2   23.26    1.92
   6   1   3   58.42    4.92
   6   1   4   62.54    3.37
   6   1   5  187.01    9.43
   6   1   6  210.53    7.63
   6   1   7   14.49    1.84
   6   1   8   17.52    1.82
   6   1   9   77.42    2.54
   6   1  10   51.76    2.46
   6   1  11   56.64    3.01
   6   1  12   11.08    2.24
   6   1  13   36.54    2.74
   6   1  14   61.55    3.30
   6   1  15   61.39    3.56
   6   1  16   32.82    2.89
   6   1  17    0.73    2.31
   6   2   0   34.68   10.87
   6   2   1    0.68    1.46
   6   2   2   32.52   11.32
   6   2   3  393.01   17.77
   6   2   4    6.91    2.56
   6   2   5   74.51    3.84
   6   2   6  207.35    7.61
   6   2   7   27.27    2.07
   6   2   8   49.64    2.28
   6   2   9    3.56    1.60
   6   2  10    7.33    1.89
   6   2  11    1.04    1.99
   6   2  12   64.29    3.14
   6   2  13   53.94    3.21
   6   2  14  135.03    5.03
   6   2  15   36.36    3.10
   6   2  16   31.16    2.87
   6   2  17    0.40    2.52
   6   3   0   85.10    4.89
   6   3   1    1.06    2.03
   6   3   2   71.61    2.85
   6   3   3  162.43    6.99
   6   3   4   95.21    3.58
   6   3   5   11.67    2.47
   6   3   6   12.73    1.99
   6   3   7   14.33    1.72
   6   3   8   13.98    1.68
   6   3   9   53.62    2.13
   6   3  10   29.30    2.23
   6   3  11   88.83    3.24
   6   3  12    1.34    2.14
   6   3  13    9.69    2.41
   6   3  14    1.98    2.41
   6   3  15    2.65    2.46
   6   3  16    0.34    3.31
   6   3  17   17.62    2.83
   6   4   0  658.43   23.43
   6   4   1  188.19   11.81
   6   4   2   47.12    3.33
   6   4   3    1.64    2.14
   6   4   4  101.65    5.17
   6   4   5    2.62    2.24
   6   4   6   43.53    2.58
   6   4   7   63.87    2.63
   6   4   8   83.77    2.58
   6   4   9   10.48    1.82
   6   4  10  163.39    4.89
   6   4  11   58.12    3.05
   6   4  12   38.77    2.66
   6   4  13   39.91    2.77
   6   4  14    3.79    2.41
   6   4  15    8.17    2.90
   6   4  16   15.46    2.87
   6   4  17    6.96    3.19
   6   5   0   13.75    3.89
   6   5   1   69.97    5.96
   6   5   2  108.77    6.21
   6   5   3  315.12   10.56
   6   5   4  354.03   11.17
   6   5   5  159.21    6.34
   6   5   6  102.59    3.92
   6   5   7  123.75    3.39
   6   5   8   12.32    1.51
   6   5   9    0.50    1.59
   6   5  10    1.23    2.08
   6   5  11   16.38    2.47
   6   5  12    2.30    2.21
   6   5  13   59.54    3.26
   6   5  14  103.29    4.11
   6   5  15   53.35    3.20
   6   5  16   18.32    3.34
   6   6   0  423.43   23.23
   6   6   1  938.73   60.14
   6   6   2    0.58    4.32
   6   6   3    0.40    3.28
   6   6   4   64.31    5.94
   6   6   5    6.81    4.00
   6   6   6    1.17    2.57
   6   6   7   59.50    2.71
   6   6   8  127.60    4.67
   6   6   9  194.43    7.67
   6   6  10  238.06    9.05
   6   6  11   62.90    4.25
   6   6  12   75.16    5.90
   6   6  13    4.38    3.45
   6   6  14   39.69    4.16
   6   6  15    4.71    5.13
   6   6  16    0.88    4.43
   7   0   0  301.02   21.18
   7   0   1  305.95   22.24
   7   0   2   47.48   12.05
   7   0   3  251.41   19.65
   7   0   4 1002.73   56.67
   7   0   5 1154.01   64.74
   7   0   6  770.98   37.80
   7   0   7  198.94    9.43
   7   0   8    2.82    2.31
   7   0   9   57.13    3.03
   7   0  10  142.15    5.71
   7   0  11   18.68    3.25
   7   0  12   25.53    3.51
   7   0  13  136.46    6.60
   7   0  14  251.93   11.86
   7   0  15  217.83   11.73
   7   0  16  193.54    9.00
   7   0  17   20.97    3.84
   7   1   0  165.88    7.63
   7   1   1    0.63    1.91
   7   1   2  199.70   13.17
   7   1   3  756.13   27.63
   7   1   4  626.69   21.02
   7   1   5 1006.78   37.02
   7   1   6  563.43   17.68
   7   1   7  406.00   11.14
   7   1   8    4.57    1.75
   7   1   9    0.29    1.58
   7   1  10   48.57    2.64
   7   1  11    4.78    2.03
   7   1  12   40.52    2.67
   7   1  13  236.45    6.82
   7   1  14  334.91    9.73
   7   1  15  251.48    7.64
   7   1  16   97.86    4.33
   7   1  17   39.59    4.10
   7   2   0 1486.08  102.68
   7   2   1   43.96    2.63
   7   2   2    2.77    1.67
   7   2   3  164.03    5.74
   7   2   4  591.59   22.67
   7   2   5 1214.10   42.26
   7   2   6  653.50   18.06
   7   2   7  268.29    7.39
   7   2   8   21.72    1.97
   7   2   9  183.89    4.70
   7   2  10  242.13    6.68
   7   2  11   72.09    3.03
   7   2  12    0.15    2.15
   7   2  13  151.50    6.78
   7   2  14  223.07    7.05
   7   2  15  332.08    9.91
   7   2  16   98.70    4.92
   7   2  17   16.36    3.33
   7   3   0  178.97    5.83
   7   3   1    1.84    1.84
   7   3   2   80.79    4.24
   7   3   3  995.15   33.04
   7   3   4 2176.38   71.11
   7   3   5 1187.54   38.80
   7   3   6  872.12   23.91
   7   3   7  383.99    9.84
   7   3   8   81.55    2.65
   7   3   9    6.87    1.63
   7   3  10   15.70    2.00
   7   3  11   38.01    2.42
   7   3  12  136.35    4.87
   7   3  13  371.37   10.06
   7   3  14  331.09    9.63
   7   3  15  332.64    9.97
   7   3  16  249.34    9.07
   7   4   0  381.03   18.49
   7   4   1  425.63   19.95
   7   4   2   92.93    6.91
   7   4   3  272.80   10.86
   7   4   4  594.69   21.06
   7   4   5  618.27   20.21
   7   4   6  466.90   12.89
   7   4   7   45.83    2.48
   7   4   8    1.19    1.53
   7   4   9  226.29    5.54
   7   4  10  247.58    7.13
   7   4  11  121.75    4.38
   7   4  12    5.52    2.31
   7   4  13   81.46    3.70
   7   4  14  197.93    6.13
   7   4  15  170.91    6.24
   7   4  16   93.78    4.51
   7   5   0   10.21    4.09
   7   5   1   91.23    4.46
   7   5   2   59.14    3.55
   7   5   3  930.42   29.59
   7   5   4  834.90   26.87
   7   5   5 1136.61   34.87
   7   5   6  669.35   18.54
   7   5   7  255.61    6.75
   7   5   8    9.94    1.52
   7   5   9   45.62    2.29
   7   5  10   26.38    2.21
   7   5  11   73.18    3.16
   7   5  12   96.11    3.87
   7   5  13  224.57    6.45
   7   5  14  223.79    7.14
   7   5  15  272.79    9.20
   7   5  16  129.80    6.62
   7   6   0  262.39    9.76
   7   6   1  161.83   10.04
   7   6   2    4.30    2.51
   7   6   3  132.84    5.29
   7   6   4  345.23   11.79
   7   6   5  458.18   13.01
   7   6   6  246.02    7.01
   7   6   7  123.92    3.36
   7   6   8   18.59    1.71
   7   6   9   44.01    2.21
   7   6  10  108.34    4.15
   7   6  11    9.63    2.16
   7   6  12    0.04    2.11
   7   6  13   81.67    3.51
   7   6  14  113.99    4.76
   7   6  15  108.16    5.02
   7   6  16   35.13    3.75
   7   7   0  140.71   14.46
   7   7   1    0.19    4.05
   7   7   2   38.93    5.73
   7   7   3  102.29    8.20
   7   7   4  379.08   13.85
   7   7   5  183.11    8.94
   7   7   6   73.08    4.28
   7   7   7   45.13    3.13
   7   7   8  164.96    6.45
   7   7   9   13.15    2.83
   7   7  10   21.57    3.73
   7   7  11    5.60    3.62
   7   7  12   65.15    4.99
   7   7  13   47.92    5.40
   7   7  14   56.42    5.52
   7   7  15   22.03    6.32
   7   7  16   94.83    7.62
   8   0   0  492.26   91.14
   8   0   1  181.16   20.68
   8   0   2  462.64   23.72
   8   0   3  778.76   52.24
   8   0   4   27.92    4.86
   8   0   5  124.90   10.86
   8   0   6   72.52    5.26
   8   0   7  558.04   18.91
   8   0   8   27.98    3.02
   8   0   9  148.01    5.51
   8   0  10    0.22    2.60
   8   0  11   47.98    4.40
   8   0  12    7.12    3.21
   8   0  13  124.56    6.21
   8   0  14  134.60    7.09
   8   0  15   48.38    4.35
   8   0  16    1.35    3.90
   8   0  17   41.23    4.54
   8   1   0  131.57    6.70
   8   1   1  178.00    8.97
   8   1   2    9.42    2.21
   8   1   3  107.05    5.13
   8   1   4   65.79    4.57
   8   1   5  166.00    8.39
   8   1   6  344.52   10.06
   8   1   7  226.15    6.47
   8   1   8    0.42    1.69
   8   1   9   26.71    1.98
   8   1  10  111.57    3.52
   8   1  11   24.67    2.25
   8   1  12    1.56    2.11
   8   1  13   29.05    2.64
   8   1  14  115.09    4.54
   8   1  15   55.16    3.20
   8   1  16    9.93    2.85
   8   1  17    4.11    3.08
   8   2   0 1654.33   89.87
   8   2   1    8.86    3.65
   8   2   2  148.37    3.90
   8   2   3  207.99    9.49
   8   2   4  355.51   12.10
   8   2   5   10.68    2.38
   8   2   6  150.21    5.02
   8   2   7  188.48    5.44
   8   2   8  219.75    5.94
   8   2   9  117.63    3.67
   8   2  10  132.53    4.34
   8   2  11   77.31    3.24
   8   2  12   61.21    3.07
   8   2  13   36.17    2.71
   8   2  14   34.07    3.05
   8   2  15    0.22    2.70
   8   2  16   14.76    2.90
   8   3   0  199.11   11.81
   8   3   1  184.78    6.59
   8   3   2   39.68    5.43
   8   3   3   25.87    2.21
   8   3   4   56.55    3.79
   8   3   5    1.95    2.73
   8   3   6    4.58    2.19
   8   3   7   42.11    2.14
   8   3   8   33.41    1.90
   8   3   9   34.33    1.99
   8   3  10  133.49    4.34
   8   3  11   66.56    2.89
   8   3  12   48.83    2.94
   8   3  13    4.96    2.35
   8   3  14    3.72    2.50
   8   3  15    1.03    2.67
   8   3  16   15.64    2.84
   8   4   0  133.41    7.18
   8   4   1  629.98   27.67
   8   4   2   99.61    5.02
   8   4   3   30.10    2.60
   8   4   4   58.63    3.39
   8   4   5   10.79    2.12
   8   4   6    1.98    2.12
   8   4   7   58.70    2.27
   8   4   8    1.49    1.54
   8   4   9  452.92    9.90
   8   4  10  165.28    5.19
   8   4  11  214.89    6.35
   8   4  12    4.39    2.18
   8   4  13    0.39    2.42
   8   4  14   10.95    2.72
   8   4  15    1.65    2.64
   8   4  16   11.08    4.42
   8   5   0    5.50    4.21
   8   5   1   31.25    3.85
   8   5   2   90.56    4.66
   8   5   3  147.36    6.14
   8   5   4  140.85    5.81
   8   5   5   89.97    3.77
   8   5   6  108.78    3.84
   8   5   7   61.33    2.52
   8   5   8   27.33    1.94
   8   5   9    5.74    1.80
   8   5  10   81.36    3.58
   8   5  11   39.06    2.69
   8   5  12   30.70    2.81
   8   5  13   36.08    3.07
   8   5  14   25.63    2.98
   8   5  15   37.78    3.79
   8   5  16   33.46    4.44
   8   6   0  795.23   30.01
   8   6   1  163.11   10.34
   8   6   2   34.41    3.00
   8   6   3   44.14    3.13
   8   6   4  159.90    6.40
   8   6   5  486.57   16.61
   8   6   6  482.65   11.56
   8   6   7  148.94    4.35
   8   6   8  125.80    4.23
   8   6   9  139.89    4.39
   8   6  10  206.03    6.55
   8   6  11   22.28    2.50
   8   6  12   11.45    2.62
   8   6  13   68.32    3.69
   8   6  14   64.72    4.02
   8   6  15  165.34    6.89
   8   6  16    7.48    3.07
   8   7   0    0.23    4.87
   8   7   1    0.55    3.06
   8   7   2    9.96    2.80
   8   7   3   33.86    3.16
   8   7   4  210.51    5.94
   8   7   5  205.51    7.81
   8   7   6  251.93    6.67
   8   7   7   84.09    3.07
   8   7   8   43.47    2.52
   8   7   9    1.56    2.07
   8   7  10    1.35    2.55
   8   7  11    0.50    2.67
   8   7  12   23.45    3.09
   8   7  13   40.79    4.11
   8   7  14   29.20    3.29
   8   7  15   53.27    3.85
   8   7  16   40.80    3.63
   8   8   0   70.89    7.70
   8   8   1  139.43   13.42
   8   8   2  120.56    8.77
   8   8   3   66.43    5.76
   8   8   4  869.39   30.76
   8   8   5 1453.26   58.07
   8   8   6 1396.11   47.10
   8   8   7  137.69    5.65
   8   8   8   54.67    3.69
   8   8   9  225.03   10.89
   8   8  10    7.04    3.52
   8   8  11   15.50    3.92
   8   8  12   85.27    6.09
   8   8  13  102.60    7.17
   8   8  14  288.35   13.06
   8   8  15  175.24    9.74
   8   8  16  190.70   11.59
   9   0   0  375.52   13.85
   9   0   1 1411.02   75.65
   9   0   2    0.08    3.75
   9   0   3    9.67    3.49
   9   0   4  561.47   24.82
   9   0   5 1091.02   59.54
   9   0   6 1649.91   65.33
   9   0   7  102.60    5.28
   9   0   8  105.13    4.84
   9   0   9  703.19   21.41
   9   0  10  604.35   19.94
   9   0  11  247.04    9.59
   9   0  12    0.81    3.01
   9   0  13   50.65    4.33
   9   0  14  373.83   15.17
   9   0  15  316.89   15.00
   9   0  16  190.69   10.20
   9   1   0   30.75    5.91
   9   1   1   59.61    4.14
   9   1   2   50.25    2.85
   9   1   3  164.97    6.63
   9   1   4  930.99   32.31
   9   1   5  827.71   29.26
   9   1   6  773.58   20.76
   9   1   7  234.30    6.23
   9   1   8   15.55    1.77
   9   1   9   63.61    2.46
   9   1  10    5.92    1.88
   9   1  11    2.46    2.04
   9   1  12   23.94    2.47
   9   1  13  121.85    4.47
   9   1  14  165.45    5.90
   9   1  15  164.32    6.31
   9   1  16  120.62    5.29
   9   2   0 3449.27  165.56
   9   2   1  641.55   21.44
   9   2   2   82.27    4.57
   9   2   3   41.73    3.51
   9   2   4  242.06    9.29
   9   2   5 1028.22   41.67
   9   2   6  743.88   21.54
   9   2   7  162.00    4.52
   9   2   8  355.27    8.95
   9   2   9  860.23   18.58
   9   2  10  787.83   18.34
   9   2  11  312.86    8.21
   9   2  12   54.85    2.92
   9   2  13   68.33    3.73
   9   2  14  276.28    8.52
   9   2  15  354.60   11.19
   9   2  16   53.81    3.69
   9   3   0   67.65    7.33
   9   3   1    1.84    2.96
   9   3   2   69.62    3.88
   9   3   3  337.85   14.02
   9   3   4  455.48   15.38
   9   3   5  984.68   34.89
   9   3   6  745.68   19.70
   9   3   7  106.97    3.24
   9   3   8    2.62    1.75
   9   3   9    2.08    1.76
   9   3  10    0.41    1.99
   9   3  11   19.30    2.35
   9   3  12   50.06    3.07
   9   3  13   84.48    3.65
   9   3  14  152.20    5.60
   9   3  15  212.38    7.55
   9   3  16   92.44    4.47
   9   4   0  901.56   46.97
   9   4   1 1126.64   45.64
   9   4   2  130.77    6.62
   9   4   3   19.31    2.92
   9   4   4  404.31   13.70
   9   4   5  496.77   17.32
   9   4   6  514.36   13.79
   9   4   7    0.18    1.62
   9   4   8   99.98    3.27
   9   4   9  677.92   15.97
   9   4  10  609.96   16.15
   9   4  11  372.47   10.74
   9   4  12    3.74    2.42
   9   4  13   29.05    3.60
   9   4  14  226.44    7.17
   9   4  15  145.18    6.03
   9   4  16   53.46    4.04
   9   5   0    3.73    4.27
   9   5   1    6.09    1.79
   9   5   2  123.34    5.78
   9   5   3  120.63    5.91
   9   5   4  140.42    5.84
   9   5   5  111.17    4.16
   9   5   6   95.88    3.82
   9   5   7   39.05    2.10
   9   5   8   38.67    2.02
   9   5   9    0.82    2.22
   9   5  10   29.41    2.41
   9   5  11    2.50    2.44
   9   5  12   24.65    2.71
   9   5  13   20.05    2.85
   9   5  14   97.07    4.40
   9   5  15   18.70    3.36
   9   5  16   57.37    4.07
   9   6   0  593.08   26.50
   9   6   1  249.86   12.81
   9   6   2   17.45    2.36
   9   6   3   35.81    2.88
   9   6   4  101.28    4.25
   9   6   5  441.60   14.20
   9   6   6  251.70    7.81
   9   6   7   63.36    2.56
   9   6   8  109.31    3.51
   9   6   9  156.21    5.36
   9   6  10  254.75    7.80
   9   6  11   53.08    3.40
   9   6  12   11.36    2.62
   9   6  13   34.57    3.37
   9   6  14  115.87    5.09
   9   6  15   91.09    4.83
   9   6  16   17.66    3.10
   9   7   0   19.23    5.30
   9   7   1   78.07    5.23
   9   7   2   32.27    3.52
   9   7   3    0.25    2.64
   9   7   4   51.41    2.80
   9   7   5  105.28    3.83
   9   7   6   30.83    2.28
   9   7   7   20.31    2.21
   9   7   8    1.92    1.82
   9   7   9   68.38    3.26
   9   7  10    1.49    2.45
   9   7  11    3.68    2.67
   9   7  12    4.28    3.03
   9   7  13    0.13    2.83
   9   7  14   26.80    3.36
   9   7  15    0.43    2.79
   9   7  16    8.24    3.05
   9   8   0    2.54    5.09
   9   8   1    2.75    3.50
   9   8   2    6.23    2.99
   9   8   3    5.03    2.36
   9   8   4   69.67    4.71
   9   8   5  132.91    4.97
   9   8   6  228.75    6.54
   9   8   7   41.61    2.62
   9   8   8   10.66    2.05
   9   8   9   16.98    2.49
   9   8  10    0.60    2.45
   9   8  11    2.11    2.59
   9   8  12    6.55    2.65
   9   8  13   16.05    3.05
   9   8  14   34.36    3.42
   9   8  15   35.99    3.46
   9   8  16   18.63    3.30
   9   9   0  401.94   46.20
   9   9   1    3.32    7.67
   9   9   2    4.92    7.81
   9   9   3  549.25   35.90
   9   9   4  620.98   28.60
   9   9   5  474.11   18.55
   9   9   6  109.23    5.01
   9   9   7  123.49    6.18
   9   9   8   58.01    3.94
   9   9   9   25.78    3.64
   9   9  10   73.79    5.29
   9   9  11    0.25    3.65
   9   9  12   17.41    4.06
   9   9  13  155.86    9.12
   9   9  14   62.33    5.72
   9   9  15  177.73    9.76
  10   0   0  140.69   10.43
  10   0   1  351.51   13.72
  10   0   2    7.44    3.88
  10   0   3  249.56   12.77
  10   0   4  602.54   30.16
  10   0   5  145.40   12.64
  10   0   6   67.95    3.76
  10   0   7  369.60   13.57
  10   0   8  385.26   12.47
  10   0   9  146.49    6.33
  10   0  10  325.73   10.72
  10   0  11  104.18    5.63
  10   0  12   37.27    3.64
  10   0  13   82.48    5.65
  10   0  14    1.40    3.76
  10   0  15    1.23    3.70
  10   0  16   11.63    5.33
  10   1   0  230.99   13.71
  10   1   1  329.47   13.21
  10   1   2   68.93    3.05
  10   1   3   35.36    2.73
  10   1   4  165.90    6.25
  10   1   5  144.95    9.88
  10   1   6  263.50    7.96
  10   1   7  136.58    5.67
  10   1   8   14.11    1.89
  10   1   9  178.37    5.11
  10   1  10   99.81    3.60
  10   1  11   60.26    2.94
  10   1  12   15.24    2.64
  10   1  13   15.53    2.72
  10   1  14   30.97    3.46
  10   1  15   32.24    3.32
  10   1  16    8.17    3.28
  10   2   0  871.85   37.84
  10   2   1   91.19    4.38
  10   2   2   68.05    4.29
  10   2   3   45.26    3.23
  10   2   4   94.72    4.10
  10   2   5   35.63    3.08
  10   2   6  110.63    3.56
  10   2   7   41.12    2.19
  10   2   8  191.30    5.61
  10   2   9  323.42    8.33
  10   2  10  289.93    8.53
  10   2  11  139.57    4.87
  10   2  12   61.27    3.28
  10   2  13    1.08    2.52
  10   2  14   11.85    2.83
  10   2  15    6.06    2.83
  10   2  16    4.93    2.71
  10   3   0  348.22   17.02
  10   3   1  324.46   15.80
  10   3   2  126.45    6.77
  10   3   3   78.01    4.84
  10   3   4   10.70    2.57
  10   3   5    3.72    2.18
  10   3   6    5.79    1.69
  10   3   7    4.86    1.81
  10   3   8   38.44    2.20
  10   3   9  202.16    5.80
  10   3  10  184.02    5.82
  10   3  11  159.86    5.74
  10   3  12   42.63    3.00
  10   3  13    0.81    2.87
  10   3  14    1.13    2.63
  10   3  15    0.86    3.10
  10   3  16    2.73    2.94
  10   4   0  305.59   18.65
  10   4   1  205.80   10.87
  10   4   2  130.87    5.99
  10   4   3   22.85    3.36
  10   4   4   54.91    3.55
  10   4   5  131.59    4.88
  10   4   6  182.09    5.51
  10   4   7    1.26    1.98
  10   4   8   83.87    2.98
  10   4   9  158.69    4.96
  10   4  10  242.83    7.21
  10   4  11   87.07    3.67
  10   4  12    2.59    2.44
  10   4  13    9.57    2.74
  10   4  14   65.52    3.85
  10   4  15   81.36    4.87
  10   4  16    0.97    2.86
  10   5   0  171.88    8.27
  10   5   1  153.57    6.96
  10   5   2   98.35    5.39
  10   5   3  135.32    5.94
  10   5   4   11.51    2.09
  10   5   5    2.22    2.11
  10   5   6   62.10    2.49
  10   5   7  104.63    3.47
  10   5   8   81.75    2.84
  10   5   9  122.67    4.38
  10   5  10  180.75    5.73
  10   5  11   94.35    4.12
  10   5  12   23.50    2.91
  10   5  13   12.27    2.73
  10   5  14   28.29    3.80
  10   5  15    6.70    3.05
  10   5  16    3.65    2.87
  10   6   0  144.58   10.42
  10   6   1  138.48    7.38
  10   6   2   15.64    3.14
  10   6   3  178.50    7.20
  10   6   4  401.01   11.91
  10   6   5 1171.73   33.12
  10   6   6  772.76   18.09
  10   6   7  176.03    5.49
  10   6   8    1.39    1.74
  10   6   9   77.45    3.37
  10   6  10   55.03    3.19
  10   6  11    1.24    2.68
  10   6  12    9.77    2.91
  10   6  13   64.77    3.95
  10   6  14  330.94   11.45
  10   6  15  100.57    5.35
  10   6  16   76.81    4.26
  10   7   0  165.02   11.61
  10   7   1  153.06    7.43
  10   7   2    1.67    4.33
  10   7   3   52.68    3.91
  10   7   4   13.06    2.97
  10   7   5   57.67    3.01
  10   7   6   45.04    2.29
  10   7   7  123.77    3.87
  10   7   8   85.48    4.41
  10   7   9  111.60    4.20
  10   7  10   42.29    2.94
  10   7  11   44.32    3.30
  10   7  12   19.89    2.86
  10   7  13   14.12    3.74
  10   7  14    9.68    3.05
  10   7  15    5.94    3.10
  10   7  16    6.59    2.98
  10   8   0   27.13    8.40
  10   8   1   75.99    6.90
  10   8   2    5.22    5.40
  10   8   3  853.85   31.86
  10   8   4 1122.55   34.97
  10   8   5 1286.87   33.37
  10   8   6  930.84   20.36
  10   8   7  632.15   15.91
  10   8   8   13.08    2.17
  10   8   9    0.97    2.24
  10   8  10    2.19    2.47
  10   8  11   22.60    3.25
  10   8  12   94.38    4.70
  10   8  13  321.53    9.97
  10   8  14  277.17    9.38
  10   8  15  385.13   13.09
  10   9   0  258.51   45.00
  10   9   1  116.10   13.47
  10   9   2    6.72    4.62
  10   9   3   10.17    3.19
  10   9   4    3.64    2.75
  10   9   5   13.37    2.40
  10   9   6   36.80    2.21
  10   9   7   54.85    2.89
  10   9   8   51.68    2.84
  10   9   9   74.07    3.46
  10   9  10   49.81    4.18
  10   9  11   35.73    3.05
  10   9  12   11.35    3.50
  10   9  13    3.11    2.81
  10   9  14   11.18    2.99
  10   9  15    1.23    3.48
  10  10   0  159.36   41.30
  10  10   1   32.23    5.17
  10  10   2  439.65   17.29
  10  10   3  710.24   33.07
  10  10   4 1092.44   42.73
  10  10   5  890.93   35.00
  10  10   6 1082.01   38.84
  10  10   7  364.86   14.62
  10  10   8  132.02    7.79
  10  10   9    0.43    3.28
  10  10  10   46.66    4.44
  10  10  11   81.62    6.04
  10  10  12  142.70    9.08
  10  10  13  253.36   11.45
  10  10  14  547.76   24.46
  10  10  15  293.96   14.91
  11   0   0 2352.48  166.51
  11   0   1 2481.61  102.57
  11   0   2  120.24    5.61
  11   0   3   27.73    4.47
  11   0   4  193.20   10.76
  11   0   5  602.98   45.24
  11   0   6  965.40   34.86
  11   0   7   36.09    3.17
  11   0   8  753.40   24.01
  11   0   9 1642.72   51.30
  11   0  10 1276.22   39.76
  11   0  11  552.10   20.02
  11   0  12  103.48    5.93
  11   0  13   23.79    6.19
  11   0  14  319.50   14.40
  11   0  15  259.38   12.88
  11   0  16   36.55    4.83
  11   1   0  625.32   23.83
  11   1   1   53.49    3.91
  11   1   2    1.58    2.84
  11   1   3   97.43    4.99
  11   1   4  132.89    7.03
  11   1   5  521.54   21.75
  11   1   6  402.52   11.21
  11   1   7   50.43    2.28
  11   1   8   69.56    2.71
  11   1   9   54.74    2.87
  11   1  10   51.83    2.92
  11   1  11    8.65    2.30
  11   1  12    0.30    2.83
  11   1  13   23.37    3.12
  11   1  14   60.30    3.72
  11   1  15  102.61    4.73
  11   1  16   10.26    3.56
  11   2   0 4446.51  179.69
  11   2   1 1374.54   50.35
  11   2   2  345.07   13.80
  11   2   3    6.79    2.29
  11   2   4  197.47    8.58
  11   2   5  537.91   19.44
  11   2   6  279.79    8.01
  11   2   7    0.79    1.67
  11   2   8  775.58   17.97
  11   2   9 1507.70   36.55
  11   2  10 1348.26   33.32
  11   2  11  621.10   15.75
  11   2  12  137.34    4.89
  11   2  13   36.43    3.10
  11   2  14  185.67    6.61
  11   2  15  197.96    7.26
  11   2  16    2.87    2.82
  11   3   0   44.34    5.27
  11   3   1   65.61    3.75
  11   3   2   15.52    2.27
  11   3   3   70.60    4.64
  11   3   4   70.14    4.71
  11   3   5   49.37    3.57
  11   3   6   30.88    2.04
  11   3   7    2.99    1.72
  11   3   8    3.73    1.80
  11   3   9   54.00    2.90
  11   3  10    3.67    2.21
  11   3  11    3.25    2.22
  11   3  12    2.59    2.45
  11   3  13   11.68    2.77
  11   3  14   59.92    3.77
  11   3  15   11.67    2.86
  11   3  16   18.94    3.17
  11   4   0 1542.70   76.91
  11   4   1 1134.96   43.38
  11   4   2  232.21   11.13
  11   4   3    3.45    2.78
  11   4   4  167.21    6.50
  11   4   5  289.78    9.08
  11   4   6  150.88    4.52
  11   4   7   21.60    1.93
  11   4   8  340.71    8.09
  11   4   9  945.87   22.44
  11   4  10  814.25   21.18
  11   4  11  419.71   11.32
  11   4  12   29.15    2.86
  11   4  13   13.36    2.86
  11   4  14  112.35    5.10
  11   4  15   90.61    4.78
  11   4  16    8.92    3.09
  11   5   0   19.39    5.29
  11   5   1   17.37    3.53
  11   5   2    1.16    2.80
  11   5   3    0.70    2.78
  11   5   4   68.30    4.10
  11   5   5  235.22    8.19
  11   5   6   52.18    2.27
  11   5   7    2.70    2.00
  11   5   8   35.30    2.16
  11   5   9    1.40    2.10
  11   5  10    0.10    2.28
  11   5  11    0.05    2.48
  11   5  12   14.04    2.77
  11   5  13    2.67    2.86
  11   5  14    8.74    3.10
  11   5  15    2.15    3.25
  11   5  16   24.48    3.75
  11   6   0  508.53   26.07
  11   6   1  282.17   11.69
  11   6   2    1.95    4.81
  11   6   3   10.30    3.68
  11   6   4   32.84    3.70
  11   6   5  104.33    4.44
  11   6   6  115.51    3.61
  11   6   7   11.37    2.56
  11   6   8  196.42    6.34
  11   6   9  219.63    7.40
  11   6  10  194.31    6.82
  11   6  11   49.05    3.48
  11   6  12   22.24    2.89
  11   6  13   19.64    3.07
  11   6  14   71.53    4.29
  11   6  15   48.95    4.31
  11   6  16    0.77    2.95
  11   7   0  203.22   29.89
  11   7   1   11.49    6.02
  11   7   2   14.45    5.43
  11   7   3  408.39   17.00
  11   7   4  647.49   20.45
  11   7   5  493.69   13.69
  11   7   6  202.52    5.26
  11   7   7  109.41    4.06
  11   7   8   13.93    2.38
  11   7   9    8.24    2.36
  11   7  10   34.76    2.86
  11   7  11    0.07    2.59
  11   7  12   13.31    2.86
  11   7  13   87.06    4.35
  11   7  14   74.83    6.28
  11   7  15  134.51    5.70
  11   8   1   11.68    8.09
  11   8   2   25.02    4.78
  11   8   3   13.66    2.79
  11   8   4    8.51    2.76
  11   8   5   25.11    2.46
  11   8   6   49.63    2.59
  11   8   7   23.52    2.49
  11   8   8    2.32    2.09
  11   8   9    4.50    2.28
  11   8  10    1.01    2.44
  11   8  11    0.33    2.57
  11   8  12    4.87    2.77
  11   8  13   23.60    3.18
  11   8  14   15.40    3.18
  11   8  15   16.78    3.44
  11   9   0  350.85   18.64
  11   9   1  372.93   11.20
  11   9   2  155.50    6.16
  11   9   3  357.74   11.01
  11   9   4 1024.72   30.16
  11   9   5  698.15   20.61
  11   9   6  698.71   19.46
  11   9   7   34.76    2.81
  11   9   8    0.84    2.12
  11   9   9  276.54    8.42
  11   9  10   69.49    3.74
  11   9  11   13.96    2.84
  11   9  12   21.25    2.99
  11   9  13  124.31    5.25
  11   9  14  325.64   11.34
  11   9  15  238.70    9.81
  11  10   0  264.62   14.94
  11  10   1  227.17    7.72
  11  10   2   37.48    3.10
  11  10   3   20.05    2.82
  11  10   4    0.44    2.62
  11  10   5    0.02    2.82
  11  10   6    0.70    2.97
  11  10   7   36.18    2.83
  11  10   8   45.66    2.94
  11  10   9   98.25    4.32
  11  10  10   76.86    4.65
  11  10  11   52.15    3.46
  11  10  12   18.67    2.99
  11  10  13    9.65    3.28
  11  10  14    2.38    3.63
  11  10  15    0.20    3.19
  11  11   0  853.76   45.29
  11  11   1  328.80   22.06
  11  11   2   16.06    4.19
  11  11   3  436.02   17.95
  11  11   4  719.95   26.85
  11  11   5 1262.37   49.51
  11  11   6  613.11   26.19
  11  11   7  127.62    9.69
  11  11   8  236.18    9.58
  11  11   9  232.90   11.93
  11  11  10  369.72   16.02
  11  11  11   60.40    7.70
  11  11  12    4.44    5.60
  11  11  13  108.14    7.74
  11  11  14  316.09   16.51
  11  11  15  363.89   19.14
  12   0   0   15.12    7.75
  12   0   1  630.54   29.46
  12   0   2    8.38    4.22
  12   0   3   72.88    5.93
  12   0   4   11.73    4.60
  12   0   5  169.43   11.70
  12   0   6   76.76    4.81
  12   0   7   99.49    4.61
  12   0   8  116.30    5.95
  12   0   9  490.38   17.28
  12   0  10  282.12   11.09
  12   0  11  185.57    8.98
  12   0  12   39.25    4.43
  12   0  13    0.89    4.66
  12   0  14   19.21    4.17
  12   0  15    2.80    6.06
  12   0  16    1.22    3.84
  12   1   0  525.38   27.50
  12   1   1  414.07   13.97
  12   1   2   82.89    4.75
  12   1   3    0.15    3.03
  12   1   4   49.65    5.03
  12   1   5  129.51    6.02
  12   1   6  159.71    5.54
  12   1   7    0.65    1.64
  12   1   8  105.14    3.21
  12   1   9  176.60    5.91
  12   1  10  234.01    7.35
  12   1  11  113.12    4.15
  12   1  12   10.02    2.53
  12   1  13    0.64    2.52
  12   1  14   13.85    2.82
  12   1  15   17.48    3.09
  12   1  16    0.17    2.73
  12   2   0  771.98   36.15
  12   2   1   99.43    5.53
  12   2   2   81.71    5.15
  12   2   3    6.59    2.59
  12   2   4    5.76    2.57
  12   2   5   13.42    2.41
  12   2   6    4.12    1.74
  12   2   7    1.20    1.64
  12   2   8  192.49    5.72
  12   2   9  194.86    6.33
  12   2  10  248.06    7.19
  12   2  11   85.71    3.38
  12   2  12   43.72    3.19
  12   2  13   14.51    2.74
  12   2  14    5.87    2.73
  12   2  15   32.70    3.58
  12   2  16    3.20    2.80
  12   3   0  816.95   35.12
  12   3   1  238.81   11.61
  12   3   2  142.87    5.80
  12   3   3   25.97    3.60
  12   3   4    0.13    2.45
  12   3   5  102.10    4.09
  12   3   6   27.63    2.12
  12   3   7   26.85    2.08
  12   3   8  161.63    4.78
  12   3   9  240.08    7.05
  12   3  10  312.93    8.68
  12   3  11  121.52    4.32
  12   3  12   31.03    2.75
  12   3  13    9.17    2.69
  12   3  14    0.13    2.81
  12   3  15    9.77    3.22
  12   3  16    0.81    3.05
  12   4   0   47.17    6.58
  12   4   1  393.73   16.48
  12   4   2    4.57    2.58
  12   4   3   19.03    3.45
  12   4   4  321.41   12.37
  12   4   5  340.76   10.18
  12   4   6  177.14    4.72
  12   4   7    0.18    1.64
  12   4   8    4.78    1.76
  12   4   9  176.92    5.40
  12   4  10   43.63    2.97
  12   4  11   58.65    3.33
  12   4  12    7.18    2.53
  12   4  13   14.61    2.95
  12   4  14  129.15    6.06
  12   4  15    7.51    2.96
  12   4  16   46.31    3.69
  12   5   0  477.39   22.15
  12   5   1  208.99   10.06
  12   5   2  111.69    6.07
  12   5   3    6.81    3.49
  12   5   4    0.57    2.71
  12   5   5   40.54    3.21
  12   5   6   17.59    1.70
  12   5   7   43.98    2.30
  12   5   8  168.20    5.04
  12   5   9  210.93    6.60
  12   5  10  222.48    6.83
  12   5  11   72.55    4.12
  12   5  12   18.46    3.27
  12   5  13   11.26    3.00
  12   5  14    0.17    2.94
  12   5  15   11.74    3.54
  12   5  16    0.08    3.39
  12   6   0   73.23   10.82
  12   6   1    3.28    5.96
  12   6   2    1.99    3.38
  12   6   3  506.96   19.45
  12   6   4  702.28   21.82
  12   6   5  597.65   16.19
  12   6   6  312.74    7.20
  12   6   7  381.16    9.79
  12   6   8    2.19    2.45
  12   6   9    1.58    2.37
  12   6  10    8.60    2.52
  12   6  11    5.16    2.72
  12   6  12   14.92    2.82
  12   6  13  213.22    7.59
  12   6  14  154.40    6.08
  12   6  15  150.18    6.16
  12   7   1  173.49   16.73
  12   7   2   32.60    4.65
  12   7   3    4.10    2.95
  12   7   4    4.90    2.56
  12   7   5   28.92    2.97
  12   7   6    9.00    2.04
  12   7   7   15.37    2.06
  12   7   8  119.12    4.58
  12   7   9  151.28    5.31
  12   7  10  141.82    5.24
  12   7  11   39.25    3.40
  12   7  12   13.96    2.70
  12   7  13    1.29    2.79
  12   7  14    7.96    2.97
  12   7  15   13.31    3.58
  12   8   0   70.59    6.35
  12   8   1    0.30    2.90
  12   8   2  595.06   18.98
  12   8   3  392.11   11.61
  12   8   4  956.53   27.85
  12   8   5  500.95   14.42
  12   8   6  786.61   21.41
  12   8   7  168.17    5.60
  12   8   8  175.17    5.89
  12   8   9    8.07    2.34
  12   8  10   64.33    3.35
  12   8  11   27.29    3.54
  12   8  12  102.92    4.54
  12   8  13  238.55    8.13
  12   8  14  349.27   12.53
  12   8  15  178.40    7.99
  12   9   0  437.49   19.31
  12   9   1  126.76    6.13
  12   9   2   27.33    3.46
  12   9   3    1.28    2.61
  12   9   4    9.53    2.67
  12   9   5   45.88    3.27
  12   9   6   12.99    2.47
  12   9   7    4.17    2.69
  12   9   8   72.39    3.77
  12   9   9  116.88    5.01
  12   9  10  142.46    5.58
  12   9  11   40.52    3.29
  12   9  12    3.12    3.05
  12   9  13    0.18    2.89
  12   9  14    2.29    3.37
  12   9  15   18.92    4.88
  12  10   0   54.66    4.84
  12  10   1  145.45    5.95
  12  10   2  109.69    4.99
  12  10   3  692.02   18.56
  12  10   4  476.76   13.07
  12  10   5  762.50   23.18
  12  10   6  361.97   13.28
  12  10   7  363.99   11.51
  12  10   8    0.81    2.61
  12  10   9   57.96    3.71
  12  10  10    7.44    3.03
  12  10  11   56.12    4.89
  12  10  12   80.59    5.13
  12  10  13  222.15    7.53
  12  10  14  263.70   10.03
  12  10  15  234.69   12.63
  12  11   0  306.83   12.89
  12  11   1  165.53    5.98
  12  11   2   56.66    3.55
  12  11   3    2.77    2.69
  12  11   4    9.70    2.82
  12  11   5   39.55    3.61
  12  11   6   27.72    3.44
  12  11   7    6.06    3.07
  12  11   8   65.56    4.05
  12  11   9  131.76    5.90
  12  11  10  125.11    5.41
  12  11  11   50.84    4.13
  12  11  12    4.30    3.64
  12  11  13    2.71    3.03
  12  11  14    4.29    3.67
  12  12   0    5.35    5.67
  12  12   1    2.09    4.29
  12  12   2   96.84    7.10
  12  12   3  142.44    8.46
  12  12   4  566.05   21.83
  12  12   5  292.13   13.68
  12  12   6  304.47   21.58
  12  12   7   54.96    5.63
  12  12   8   40.93    6.22
  12  12   9   28.47    6.28
  12  12  10   14.00    5.90
  12  12  11    3.32    5.84
  12  12  12   21.79    7.03
  12  12  13  102.79    8.49
  12  12  14  187.16   11.47
  13   0   0 2962.17  186.70
  13   0   1 3383.59  143.89
  13   0   2  331.93   18.88
  13   0   3   14.11    4.30
  13   0   4  246.93   16.65
  13   0   5  294.82   15.45
  13   0   6  253.13    9.94
  13   0   7  158.47    6.15
  13   0   8  929.45   27.00
  13   0   9 1951.96   70.67
  13   0  10 1810.65   60.77
  13   0  11  949.83   30.75
  13   0  12   98.22    5.60
  13   0  13    5.26    3.79
  13   0  14  163.60    9.22
  13   0  15   61.94    5.88
  13   0  16    0.85    3.52
  13   1   0  254.84   12.76
  13   1   1  218.66    8.21
  13   1   2   34.69    3.58
  13   1   3    2.25    3.04
  13   1   4   62.30    4.87
  13   1   5   59.02    3.42
  13   1   6    1.92    1.71
  13   1   7   20.78    1.80
  13   1   8   34.69    2.22
  13   1   9  176.87    5.98
  13   1  10  107.12    4.20
  13   1  11   74.45    3.34
  13   1  12    2.69    2.51
  13   1  13    4.74    2.74
  13   1  14   33.79    3.19
  13   1  15    0.25    2.60
  13   1  16    2.93    2.57
  13   2   0 4143.34  180.60
  13   2   1 1561.67   48.41
  13   2   2  580.44   20.27
  13   2   3   11.79    4.02
  13   2   4  115.96    7.39
  13   2   5  379.88   10.70
  13   2   6    9.70    2.06
  13   2   7  129.46    4.29
  13   2   8  907.22   20.68
  13   2   9 1424.11   36.27
  13   2  10 1531.95   39.33
  13   2  11  625.77   14.48
  13   2  12  105.16    4.74
  13   2  13    5.91    2.84
  13   2  14   48.27    4.32
  13   2  15   60.72    3.95
  13   2  16    0.88    2.73
  13   3   0   53.27    6.97
  13   3   1    2.13    3.30
  13   3   2   39.60    3.84
  13   3   3    0.09    2.82
  13   3   4   10.99    2.58
  13   3   5  104.86    5.97
  13   3   6  111.95    3.49
  13   3   7   43.28    2.40
  13   3   8   93.94    3.12
  13   3   9   19.67    2.40
  13   3  10   65.86    3.42
  13   3  11   24.17    2.56
  13   3  12    1.91    2.47
  13   3  13    5.37    2.75
  13   3  14    3.58    2.77
  13   3  15    0.75    2.91
  13   3  16   19.65    3.81
  13   4   0 1083.01   61.42
  13   4   1  960.38   41.99
  13   4   2  205.76   10.54
  13   4   3    0.38    3.13
  13   4   4  104.81    7.02
  13   4   5   74.70    3.51
  13   4   6   35.19    1.93
  13   4   7  132.00    4.22
  13   4   8  330.36    8.28
  13   4   9  784.88   20.76
  13   4  10  531.05   15.01
  13   4  11  305.82    9.23
  13   4  12   15.90    2.68
  13   4  13    0.82    2.92
  13   4  14   48.16    3.90
  13   4  15   22.37    3.21
  13   4  16    0.36    3.73
  13   5   0   83.61   12.30
  13   5   1    0.02    6.34
  13   5   2   36.13    6.01
  13   5   3  295.12   23.33
  13   5   4  428.90   13.52
  13   5   5  470.76   12.84
  13   5   6  218.81    6.51
  13   5   7  260.32    6.90
  13   5   8    2.60    2.13
  13   5   9   15.55    2.41
  13   5  10    2.79    2.50
  13   5  11    3.43    2.70
  13   5  12    5.36    2.72
  13   5  13   48.87    3.66
  13   5  14   23.15    3.29
  13   5  15  100.31    6.03
  13   6   0  177.28   24.40
  13   6   1   66.01    5.82
  13   6   2    0.22    3.72
  13   6   3   29.49    3.48
  13   6   4   10.65    2.51
  13   6   5   26.37    2.91
  13   6   6    7.25    2.15
  13   6   7    0.24    2.02
  13   6   8   86.17    3.75
  13   6   9   78.32    4.10
  13   6  10   80.27    3.99
  13   6  11    9.70    2.76
  13   6  12    1.72    2.68
  13   6  13   18.28    3.15
  13   6  14   37.06    3.37
  13   6  15    9.28    3.21
  13   7   0  234.02   12.80
  13   7   1  336.39   10.58
  13   7   2  143.70    5.37
  13   7   3  287.37    9.57
  13   7   4  884.58   22.20
  13   7   5  631.00   18.04
  13   7   6  690.67   18.71
  13   7   7   82.49    3.72
  13   7   8    6.94    2.27
  13   7   9  126.02    4.64
  13   7  10   18.30    2.73
  13   7  11    5.74    2.72
  13   7  12    6.34    2.67
  13   7  13   84.71    4.76
  13   7  14  289.74   10.92
  13   7  15  173.66    8.35
  13   8   0  131.45    6.61
  13   8   1   93.91    4.61
  13   8   2  103.67    4.69
  13   8   3    7.18    2.94
  13   8   4   10.53    2.67
  13   8   5    0.03    2.20
  13   8   6   12.58    2.39
  13   8   7    2.61    2.70
  13   8   8   31.37    3.07
  13   8   9    9.15    2.61
  13   8  10   28.70    3.05
  13   8  11   17.46    3.09
  13   8  12   43.58    6.87
  13   8  13   22.27    3.20
  13   8  14    6.42    3.51
  13   8  15    3.73    4.95
  13   9   0 1001.10   35.19
  13   9   1  199.57    7.97
  13   9   2   15.15    3.09
  13   9   3  533.14   15.57
  13   9   4  569.39   15.40
  13   9   5 1243.98   34.45
  13   9   6  461.30   13.87
  13   9   7  190.85    7.13
  13   9   8  180.97    8.35
  13   9   9  132.77    6.04
  13   9  10  312.02   10.34
  13   9  11   41.15    3.73
  13   9  12    0.19    3.23
  13   9  13  156.62    6.37
  13   9  14  246.04    9.97
  13   9  15  348.85   14.06
  13  10   0  492.17   17.98
  13  10   1  347.20   10.08
  13  10   2   92.35    4.05
  13  10   3   11.47    3.12
  13  10   4    0.75    2.63
  13  10   5    2.79    2.99
  13  10   6    0.66    3.00
  13  10   7   17.04    3.16
  13  10   8   71.86    4.36
  13  10   9  125.43    5.90
  13  10  10  133.63    6.50
  13  10  11   95.64    4.94
  13  10  12   54.99    4.30
  13  10  13    6.57    3.06
  13  10  14    0.89    3.61
  13  11   0 1109.72   36.58
  13  11   1  757.81   20.46
  13  11   2   50.64    3.49
  13  11   3   70.09    3.89
  13  11   4  812.09   21.65
  13  11   5  761.21   22.11
  13  11   6  612.97   17.56
  13  11   7    5.38    3.16
  13  11   8   91.19    5.23
  13  11   9  735.28   24.77
  13  11  10  342.80   11.63
  13  11  11  292.35    9.96
  13  11  12    2.85    3.77
  13  11  13   56.99    4.53
  13  11  14  269.72   11.64
  13  12   0  355.65   14.83
  13  12   1  185.29    7.35
  13  12   2   94.02    4.75
  13  12   3    2.98    2.96
  13  12   4    3.84    2.84
  13  12   5   23.24    3.38
  13  12   6    3.03    3.14
  13  12   7    9.50    3.31
  13  12   8   70.04    5.29
  13  12   9  118.79    7.60
  13  12  10  145.42    8.16
  13  12  11   72.24    8.28
  13  12  12   20.49    4.88
  13  12  13    0.55    3.96
  13  12  14    0.56    5.17
  13  13   0 1630.45   82.68
  13  13   1 1008.78   36.28
  13  13   2  420.83   17.42
  13  13   3   58.89    5.66
  13  13   4  244.73   13.20
  13  13   5  593.22   25.89
  13  13   6  164.36   13.24
  13  13   7   11.85    6.53
  13  13   8  361.22   18.68
  13  13   9  505.59   30.00
  13  13  10 1001.05   50.05
  13  13  11  259.81   18.10
  13  13  12   93.50    9.09
  13  13  13   29.26    6.79
  13  13  14   66.81   10.43
  14   0   0  470.91   33.38
  14   0   1  362.43   18.39
  14   0   2   12.51    4.92
  14   0   3   33.30    6.68
  14   0   4    1.14    3.67
  14   0   5    0.29    2.60
  14   0   6   29.46    2.91
  14   0   7   74.08    4.08
  14   0   8  234.48    8.73
  14   0   9  134.34    9.63
  14   0  10  200.41   10.77
  14   0  11   78.16    5.33
  14   0  12   14.93    3.64
  14   0  13    0.30    3.66
  14   0  14    1.66    5.80
  14   0  15   16.88    3.86
  14   0  16   11.86    3.96
  14   1   0  396.83   19.06
  14   1   1  383.40   14.13
  14   1   2  111.61    5.29
  14   1   3    0.02    3.78
  14   1   4   21.01    3.14
  14   1   5  114.25    4.43
  14   1   6   11.90    1.77
  14   1   7    5.73    1.87
  14   1   8   96.17    3.44
  14   1   9  283.48    9.21
  14   1  10  271.60    8.12
  14   1  11  100.95    3.82
  14   1  12   16.27    2.73
  14   1  13    1.22    2.90
  14   1  14   15.43    2.76
  14   1  15    4.30    3.89
  14   1  16    4.31    3.12
  14   2   0  718.87   31.13
  14   2   1  160.72    8.45
  14   2   2   34.80    4.95
  14   2   3    5.69    3.81
  14   2   4    9.93    2.69
  14   2   5  106.61    4.92
  14   2   6    6.80    1.64
  14   2   7   19.98    2.09
  14   2   8   65.46    3.05
  14   2   9   87.86    3.87
  14   2  10   73.12    3.57
  14   2  11   21.93    2.56
  14   2  12    5.78    2.54
  14   2  13    1.41    2.68
  14   2  14    0.48    3.21
  14   2  15    0.79    2.91
  14   2  16    0.23    3.01
  14   3   0  370.32   40.69
  14   3   1  477.08   25.69
  14   3   2   38.36    6.78
  14   3   3    0.10    5.77
  14   3   4   76.41    7.16
  14   3   5  133.31    4.88
  14   3   6  131.71    4.26
  14   3   7    0.29    1.71
  14   3   8   99.00    3.73
  14   3   9  339.98   10.03
  14   3  10  154.16    5.42
  14   3  11   97.26    4.31
  14   3  12   31.65    2.78
  14   3  13    1.15    2.65
  14   3  14   44.72    3.78
  14   3  15   19.97    3.51
  14   4   0  233.14   20.34
  14   4   1   13.55    8.73
  14   4   2   67.93    7.09
  14   4   3  115.97    7.46
  14   4   4  212.13    7.66
  14   4   5   97.64    3.87
  14   4   6   36.09    2.44
  14   4   7   13.91    2.13
  14   4   8    9.15    2.12
  14   4   9    0.06    2.77
  14   4  10   18.17    2.40
  14   4  11    3.75    2.47
  14   4  12    8.86    2.92
  14   4  13   26.68    3.30
  14   4  14    0.35    2.89
  14   4  15   33.57    3.73
  14   5   0  303.01   19.68
  14   5   1  270.60   13.08
  14   5   2   55.37    3.96
  14   5   3   76.08    4.23
  14   5   4  158.17    7.41
  14   5   5  263.82    7.74
  14   5   6  113.37    4.58
  14   5   7   18.94    2.65
  14   5   8   38.14    2.91
  14   5   9  184.45    6.75
  14   5  10  136.82    4.90
  14   5  11   53.35    3.64
  14   5  12   10.38    2.92
  14   5  13   10.81    3.32
  14   5  14   81.24    4.95
  14   5  15   39.18    3.96
  14   6   0   11.92    4.75
  14   6   1    4.96    2.84
  14   6   2  281.54   10.73
  14   6   3  156.21    6.82
  14   6   4  244.21    7.31
  14   6   5  129.76    5.44
  14   6   6  192.85    6.43
  14   6   7   27.81    2.94
  14   6   8   20.20    2.94
  14   6   9    1.04    2.44
  14   6  10    5.90    2.72
  14   6  11   26.03    3.05
  14   6  12   24.53    3.13
  14   6  13   66.72    4.47
  14   6  14   84.27    5.10
  14   6  15   44.84    4.24
  14   7   0   99.61    6.78
  14   7   1  208.06   10.63
  14   7   2    0.13    2.80
  14   7   3   44.26    3.27
  14   7   4  245.28    7.72
  14   7   5  200.35    6.81
  14   7   6  173.13    5.83
  14   7   7   19.03    2.90
  14   7   8    8.76    2.98
  14   7   9  134.33    5.95
  14   7  10   56.74    3.86
  14   7  11   36.83    3.37
  14   7  12    0.36    2.86
  14   7  13   21.95    3.36
  14   7  14  111.49    6.25
  14   7  15   47.95    4.19
  14   8   0    3.99    3.88
  14   8   1  131.12    6.47
  14   8   2   79.67    4.21
  14   8   3  365.56   11.45
  14   8   4  154.84    5.99
  14   8   5  328.31   10.12
  14   8   6  121.69    5.12
  14   8   7  133.33    5.59
  14   8   8    0.12    3.21
  14   8   9   51.42    4.89
  14   8  10    0.51    3.66
  14   8  11   34.78    5.02
  14   8  12   61.60    4.33
  14   8  13  114.63    5.73
  14   8  14   66.00    5.13
  14   8  15  130.46   10.86
  14   9   0   77.97    6.07
  14   9   1   43.23    3.39
  14   9   2    2.15    3.01
  14   9   3   27.01    3.26
  14   9   4   86.04    4.44
  14   9   5  202.86    7.52
  14   9   6  114.91    5.28
  14   9   7   25.12    3.02
  14   9   8   16.57    3.38
  14   9   9   77.77    5.24
  14   9  10   53.18    4.97
  14   9  11    7.09    3.55
  14   9  12    0.04    3.64
  14   9  13   33.91    4.15
  14   9  14   55.44    4.96
  14  10   0    2.53    4.22
  14  10   1    2.44    2.99
  14  10   2   47.10    3.57
  14  10   3   87.46    4.45
  14  10   4  343.39   10.78
  14  10   5  170.47    6.90
  14  10   6  209.42    7.80
  14  10   7   14.22    3.25
  14  10   8   28.54    3.98
  14  10   9   15.99    3.69
  14  10  10    4.99    3.77
  14  10  11    3.21    3.81
  14  10  12   39.26    4.65
  14  10  13   48.12    4.60
  14  10  14   91.14    6.13
  14  11   0   25.81    6.11
  14  11   1   68.06    4.03
  14  11   2   10.47    3.11
  14  11   3    0.03    2.89
  14  11   4   33.43    3.35
  14  11   5   62.84    4.34
  14  11   6   72.42    4.36
  14  11   7    3.13    3.14
  14  11   8   24.28    4.06
  14  11   9   75.41    6.11
  14  11  10   32.06    4.98
  14  11  11   13.62    5.33
  14  11  12    0.01    4.63
  14  11  13    3.22    4.25
  14  11  14   32.11    5.32
  14  12   0  189.25   10.16
  14  12   1   82.89    4.59
  14  12   2   17.97    3.28
  14  12   3   97.91    5.56
  14  12   4  113.11    5.21
  14  12   5  187.40    7.28
  14  12   6   69.44    4.45
  14  12   7   41.55    3.79
  14  12   8   19.96    4.24
  14  12   9   11.46    5.07
  14  12  10  140.19    8.21
  14  12  11    5.82    5.12
  14  12  12    5.06    5.06
  14  12  13   17.44    6.77
  14  12  14   18.09    6.34
  14  13   0   75.82    6.53
  14  13   1   64.48    4.12
  14  13   2   47.61    4.43
  14  13   3    1.57    3.12
  14  13   4    0.66    3.11
  14  13   5   18.43    3.56
  14  13   6    1.12    3.44
  14  13   7    0.38    3.34
  14  13   8   34.43    4.66
  14  13   9   52.14    5.77
  14  13  10   51.00    6.55
  14  13  11   22.97    5.45
  14  13  12    8.55    5.04
  14  13  13    0.91    4.48
  14  14   0  507.17   25.54
  14  14   1  394.63   17.24
  14  14   2    3.71    4.67
  14  14   3    2.20    4.51
  14  14   4   68.31    6.12
  14  14   5   45.14    9.45
  14  14   6  100.71    7.27
  14  14   7    0.29    4.77
  14  14   8   39.57    6.88
  14  14   9  199.56   12.61
  14  14  10   92.53   10.95
  14  14  11  127.86   12.24
  14  14  12   22.22    7.63
  14  14  13    0.90   10.45
  15   0   0 3218.28  169.78
  15   0   1 2605.18  103.25
  15   0   2  480.83   25.78
  15   0   3   56.66    6.41
  15   0   4   65.91    5.92
  15   0   5  267.88   15.13
  15   0   6   23.14    2.54
  15   0   7  343.38   12.45
  15   0   8  952.44   32.06
  15   0   9 1524.10   60.94
  15   0  10 1537.80   56.48
  15   0  11  591.69   20.46
  15   0  12   98.36    5.81
  15   0  13    4.09    4.72
  15   0  14   14.06    4.02
  15   0  15   18.99    4.02
  15   0  16    0.87    4.45
  15   1   0  254.49   17.57
  15   1   1   78.12    5.75
  15   1   2   67.60    7.15
  15   1   3   13.09    5.96
  15   1   4   13.13    2.95
  15   1   5    0.43    2.43
  15   1   6   23.10    1.86
  15   1   7   55.53    2.72
  15   1   8  129.69    4.55
  15   1   9  101.29    4.54
  15   1  10  168.83    6.20
  15   1  11   64.59    3.22
  15   1  12   10.15    2.46
  15   1  13    6.12    2.63
  15   1  14    0.70    2.71
  15   1  15   11.28    3.38
  15   2   0 2594.21  125.45
  15   2   1 1243.04   66.45
  15   2   2  369.90   23.88
  15   2   3   25.05    8.57
  15   2   4   59.30    3.60
  15   2   5  170.57    5.73
  15   2   6    1.31    1.98
  15   2   7  168.11    4.72
  15   2   8  729.19   18.18
  15   2   9  919.00   25.65
  15   2  10  767.12   20.58
  15   2  11  297.25    8.57
  15   2  12   87.87    3.94
  15   2  13    5.89    2.73
  15   2  14    4.08    3.22
  15   2  15   20.62    3.31
  15   3   1   23.74    6.96
  15   3   2    0.97    3.50
  15   3   3  123.07    9.02
  15   3   4  145.58    6.39
  15   3   5   85.20    3.77
  15   3   6  177.70    6.48
  15   3   7  249.63    8.15
  15   3   8   43.91    2.66
  15   3   9   66.07    3.33
  15   3  10   44.81    3.80
  15   3  11    9.46    2.65
  15   3  12    3.52    2.44
  15   3  13   16.88    3.08
  15   3  14    5.54    4.28
  15   3  15   28.12    6.80
  15   4   0  432.96   19.81
  15   4   1  339.32   11.40
  15   4   2   87.42    4.70
  15   4   3    8.06    3.08
  15   4   4   54.39    3.80
  15   4   5   54.26    3.39
  15   4   6    0.01    2.09
  15   4   7   65.78    4.47
  15   4   8  135.10    5.30
  15   4   9  254.06    8.02
  15   4  10  195.34    6.49
  15   4  11   67.34    3.97
  15   4  12    7.59    2.76
  15   4  13    0.43    3.19
  15   4  14   10.72    3.37
  15   4  15    4.67    3.24
  15   5   0   81.18    6.94
  15   5   1   97.28    6.87
  15   5   2   89.95    4.80
  15   5   3  201.01    8.72
  15   5   4  494.81   13.14
  15   5   5  370.64   10.80
  15   5   6  468.84   12.59
  15   5   7  110.86    4.80
  15   5   8   73.79    4.50
  15   5   9    5.94    2.96
  15   5  10    0.39    2.67
  15   5  11    0.23    3.00
  15   5  12    8.21    2.87
  15   5  13   60.57    4.31
  15   5  14  136.17    6.66
  15   5  15   76.47    5.44
  15   6   0   19.13    4.17
  15   6   1    7.44    2.74
  15   6   2   32.46    3.08
  15   6   3   20.42    2.83
  15   6   4   13.53    2.93
  15   6   5    9.75    2.55
  15   6   6    1.02    2.79
  15   6   7    0.80    2.58
  15   6   8    2.98    2.83
  15   6   9    0.09    3.12
  15   6  10    0.06    2.85
  15   6  11   10.52    3.10
  15   6  12   11.14    2.96
  15   6  13   12.70    3.50
  15   6  14   11.69    3.57
  15   6  15    3.44    5.45
  15   7   0  470.80   16.44
  15   7   1  141.38    6.71
  15   7   2    1.31    2.69
  15   7   3  404.79   11.40
  15   7   4  517.32   15.36
  15   7   5  737.85   21.50
  15   7   6  397.15   11.58
  15   7   7  165.29    7.89
  15   7   8   33.74    3.92
  15   7   9   38.16    4.77
  15   7  10  112.87    6.11
  15   7  11   26.06    4.01
  15   7  12    6.76    3.63
  15   7  13  102.84    7.14
  15   7  14  216.95   10.25
  15   7  15  208.38   10.89
  15   8   0  387.15   14.33
  15   8   1  393.37   10.32
  15   8   2   81.43    4.23
  15   8   3   18.03    3.08
  15   8   4    0.64    2.99
  15   8   5    2.25    2.94
  15   8   6    1.56    2.55
  15   8   7   23.55    2.99
  15   8   8   48.56    4.11
  15   8   9   80.00    4.99
  15   8  10  107.88    6.28
  15   8  11  120.79    6.63
  15   8  12   48.16    4.72
  15   8  13   22.41    4.06
  15   8  14    1.44    4.33
  15   9   0  841.89   29.17
  15   9   1  474.33   13.21
  15   9   2    2.31    2.99
  15   9   3   83.90    4.65
  15   9   4  670.33   18.78
  15   9   5  570.72   17.73
  15   9   6  449.48   14.07
  15   9   7    7.82    3.73
  15   9   8   28.84    4.49
  15   9   9  433.95   14.68
  15   9  10  210.90    9.23
  15   9  11  189.18    7.71
  15   9  12    0.06    4.07
  15   9  13   84.86    5.57
  15   9  14  210.97   13.53
  15  10   0  658.46   22.67
  15  10   1  364.86   11.22
  15  10   2   73.56    4.09
  15  10   3    7.24    3.09
  15  10   4    2.63    2.90
  15  10   5    6.89    3.30
  15  10   6    2.00    3.13
  15  10   7   32.36    3.76
  15  10   8   78.41    5.14
  15  10   9  154.64    7.38
  15  10  10  194.11    8.64
  15  10  11  138.26    7.18
  15  10  12   49.43    4.99
  15  10  13    4.64    3.75
  15  10  14    0.12    5.88
  15  11   0 1265.98   43.37
  15  11   1  840.64   23.21
  15  11   2  201.96    7.39
  15  11   3   37.79    3.46
  15  11   4  243.14    9.48
  15  11   5  444.85   14.54
  15  11   6  207.39   10.41
  15  11   7    1.53    3.32
  15  11   8  256.07   11.41
  15  11   9  424.35   15.99
  15  11  10  743.07   26.14
  15  11  11  212.22    9.32
  15  11  12   29.93    7.40
  15  11  13   17.02    4.74
  15  11  14   72.19    9.86
  15  12   0  254.14   12.37
  15  12   1  198.32    8.57
  15  12   2   46.24    3.96
  15  12   3    8.53    3.40
  15  12   4   10.29    3.07
  15  12   5    6.10    3.40
  15  12   6    0.57    3.32
  15  12   7   37.09    3.91
  15  12   8   53.12    5.20
  15  12   9  121.27    7.35
  15  12  10  126.17    8.42
  15  12  11   88.35    7.30
  15  12  12   10.46    5.19
  15  12  13    1.02    4.72
  15  13   0 1504.26   51.79
  15  13   1 1244.32   31.06
  15  13   2  179.50    6.82
  15  13   3   35.87    3.88
  15  13   4   71.42    4.49
  15  13   5  124.02    5.94
  15  13   6   85.96    5.39
  15  13   7   22.53    3.69
  15  13   8  277.76   11.39
  15  13   9  763.05   25.90
  15  13  10  519.74   19.95
  15  13  11  442.21   18.46
  15  13  12   91.87    6.73
  15  13  13    0.90    5.25
  15  14   0   70.12    7.62
  15  14   1   62.09    4.09
  15  14   2   23.25    3.73
  15  14   3    6.62    3.39
  15  14   4    0.19    3.19
  15  14   5    1.97    3.78
  15  14   6    0.67    3.77
  15  14   7   12.30    3.61
  15  14   8   23.55    4.68
  15  14   9   45.28    5.28
  15  14  10   45.91    6.03
  15  14  11   23.38    5.54
  15  14  12    5.65    5.06
  15  14  13    0.20    4.94
  15  15   0 1266.06   73.43
  15  15   1  625.19   25.07
  15  15   2  423.77   20.42
  15  15   3   29.09    5.59
  15  15   4    1.27    4.71
  15  15   5   20.88    6.01
  15  15   6    1.53    5.56
  15  15   7   62.78    7.33
  15  15   8  214.76   13.99
  15  15   9  433.52   22.81
  15  15  10  582.74   30.33
  15  15  11  314.85   19.37
  15  15  12   84.88   12.82
  16   0   0  121.49   12.64
  16   0   1  522.17   41.42
  16   0   2    4.27    7.52
  16   0   3   31.84    9.60
  16   0   4   30.05    3.88
  16   0   5    7.79    3.19
  16   0   6    1.49    3.09
  16   0   7   97.55    4.85
  16   0   8   28.55    3.09
  16   0   9  119.43    6.48
  16   0  10   14.57    3.60
  16   0  11    7.44    3.16
  16   0  12    7.29    3.58
  16   0  13   65.57    5.81
  16   0  14    0.06    3.69
  16   0  15   72.02    7.22
  16   1   0  545.46   27.64
  16   1   1  182.99   13.57
  16   1   2   53.70    5.16
  16   1   3   20.76    3.81
  16   1   4   71.23    5.35
  16   1   5   88.74    3.50
  16   1   6   95.50    3.83
  16   1   7    2.72    2.07
  16   1   8  125.98    4.64
  16   1   9  143.76    6.03
  16   1  10  165.40    5.95
  16   1  11   69.22    3.45
  16   1  12   16.04    2.56
  16   1  13    3.01    3.65
  16   1  14   14.61    3.36
  16   1  15   70.31    5.24
  16   2   0  169.70   17.06
  16   2   1   28.41    3.35
  16   2   2   96.02    4.51
  16   2   3    3.56    3.02
  16   2   4    3.02    3.12
  16   2   5    1.80    2.50
  16   2   6   41.15    2.60
  16   2   7    8.12    2.25
  16   2   8   42.40    3.07
  16   2   9    5.19    2.23
  16   2  10    0.53    2.34
  16   2  11    0.54    2.30
  16   2  12    6.31    2.45
  16   2  13   18.75    3.22
  16   2  14   36.62    3.75
  16   2  15   20.70    4.09
  16   3   0  534.43   24.49
  16   3   1  179.81    7.07
  16   3   2    4.10    2.86
  16   3   3  136.59    5.52
  16   3   4  361.24   11.01
  16   3   5  373.83   11.79
  16   3   6  307.66    8.58
  16   3   7   83.67    4.29
  16   3   8   17.16    2.98
  16   3   9   74.75    4.16
  16   3  10  112.05    5.17
  16   3  11   44.78    3.85
  16   3  12    6.22    2.84
  16   3  13   47.25    4.95
  16   3  14   88.12    5.10
  16   3  15  129.84    6.45
  16   4   0   23.81    4.26
  16   4   1   42.84    3.24
  16   4   2   47.43    3.28
  16   4   3    4.07    2.77
  16   4   4    1.17    2.69
  16   4   5   11.59    2.49
  16   4   6    2.90    2.43
  16   4   7   60.47    3.28
  16   4   8   26.61    3.77
  16   4   9    6.35    3.13
  16   4  10   18.47    3.35
  16   4  11    2.72    3.09
  16   4  12    3.09    2.83
  16   4  13    8.12    3.14
  16   4  14    0.13    3.22
  16   4  15   33.04    5.16
  16   5   0  211.61    8.17
  16   5   1   40.35    3.11
  16   5   2    0.70    2.63
  16   5   3  288.89    8.87
  16   5   4  576.58   15.39
  16   5   5  579.79   18.49
  16   5   6  383.26   10.93
  16   5   7  169.09    6.27
  16   5   8    0.38    2.82
  16   5   9   12.35    3.08
  16   5  10   70.38    4.48
  16   5  11   12.71    4.68
  16   5  12   11.82    3.70
  16   5  13  122.44    6.54
  16   5  14  138.15    7.53
  16   5  15  186.81    9.60
  16   6   0   24.42    3.81
  16   6   1   20.51    2.79
  16   6   2   24.38    3.06
  16   6   3   43.45    3.36
  16   6   4    2.55    2.75
  16   6   5    4.30    3.16
  16   6   6    3.90    2.43
  16   6   7    5.04    2.66
  16   6   8    6.00    3.64
  16   6   9   24.25    3.89
  16   6  10    7.69    3.67
  16   6  11   27.08    4.58
  16   6  12    8.25    3.67
  16   6  13    1.51    3.74
  16   6  14    3.27    4.18
  16   6  15    0.16    4.21
  16   7   0   35.33    4.13
  16   7   1    1.39    2.72
  16   7   2   26.05    3.24
  16   7   3  225.86    7.61
  16   7   4  384.07   12.34
  16   7   5  453.61   14.86
  16   7   6  344.91   12.74
  16   7   7  156.00    5.86
  16   7   8    1.83    3.37
  16   7   9    6.35    3.58
  16   7  10   10.52    3.78
  16   7  11    1.00    3.87
  16   7  12   27.04    4.13
  16   7  13  126.00    8.94
  16   7  14  162.71    8.89
  16   8   0    6.91    3.81
  16   8   1    0.03    2.73
  16   8   2   21.75    2.98
  16   8   3    0.21    2.91
  16   8   4   44.04    3.65
  16   8   5    5.99    3.20
  16   8   6   16.39    3.37
  16   8   7    5.29    2.89
  16   8   8   19.22    3.35
  16   8   9   19.88    4.17
  16   8  10   18.92    4.11
  16   8  11    0.45    3.91
  16   8  12   11.34    3.93
  16   8  13    4.16    4.40
  16   8  14   13.10    6.16
  16   9   0    0.03    4.06
  16   9   1    7.85    3.11
  16   9   2   21.34    3.24
  16   9   3   81.02    4.41
  16   9   4  145.47    6.31
  16   9   5  167.10    7.68
  16   9   6  172.30    9.34
  16   9   7   77.72    4.64
  16   9   8    0.46    3.91
  16   9   9    1.33    3.25
  16   9  10    1.09    3.77
  16   9  11    2.92    3.77
  16   9  12   23.01    5.02
  16   9  13   84.02    5.23
  16   9  14   81.40    7.02
  16  10   0   50.64    5.30
  16  10   1   63.34    3.98
  16  10   2   36.38    3.40
  16  10   3   13.71    3.22
  16  10   4   15.38    3.19
  16  10   5   66.01    4.67
  16  10   6   11.84    3.59
  16  10   7    1.62    3.35
  16  10   8   20.55    4.28
  16  10   9    8.11    4.14
  16  10  10   92.16    6.37
  16  10  11    1.66    4.48
  16  10  12    1.98    5.10
  16  10  13    0.43    3.99
  16  10  14    0.31    5.21
  16  11   0    4.13    4.23
  16  11   1    0.50    2.99
  16  11   2    0.73    3.06
  16  11   3    3.69    3.07
  16  11   4    9.93    3.16
  16  11   5   14.56    3.53
  16  11   6   40.95    4.06
  16  11   7   12.58    3.60
  16  11   8    1.41    3.99
  16  11   9    1.78    4.53
  16  11  10    0.51    5.16
  16  11  11    0.09    8.76
  16  11  12    3.99    5.84
  16  11  13   14.09    4.46
  16  12   0  327.04   13.91
  16  12   1  337.68   13.41
  16  12   2   11.12    3.54
  16  12   3    7.91    3.39
  16  12   4   17.39    3.29
  16  12   5   46.83    4.27
  16  12   6   44.82    4.29
  16  12   7    0.08    3.51
  16  12   8   49.58    5.12
  16  12   9  191.35    8.91
  16  12  10   74.63    6.59
  16  12  11   83.68    7.13
  16  12  12   25.02    6.02
  16  12  13    5.73    4.32
  16  13   0    8.84    4.45
  16  13   1    6.23    3.22
  16  13   2   10.18    3.53
  16  13   3   10.06    3.50
  16  13   4    4.34    3.37
  16  13   5    5.16    3.63
  16  13   6    1.11    3.78
  16  13   7    0.79    3.68
  16  13   8    2.40    4.39
  16  13   9    2.48    4.64
  16  13  10    2.06    5.17
  16  13  11    5.56    5.33
  16  13  12    2.06    5.94
  16  13  13    0.15    4.97
  16  14   0  550.31   23.93
  16  14   1  189.74    7.66
  16  14   2  186.59    7.77
  16  14   3    1.11    3.43
  16  14   4    9.82    3.50
  16  14   5   47.72    6.10
  16  14   6    3.96    4.05
  16  14   7    4.48    3.88
  16  14   8   70.74    6.34
  16  14   9  158.26   10.35
  16  14  10  229.94   12.85
  16  14  11  116.13    7.87
  16  14  12   22.41    5.57
  16  15   0   10.28    5.32
  16  15   1    9.70    3.41
  16  15   2    6.97    3.70
  16  15   3   18.51    3.64
  16  15   4   13.46    3.60
  16  15   5   20.40    4.45
  16  15   6   12.90    4.37
  16  15   7    7.27    4.20
  16  15   8    2.57    5.36
  16  15   9    1.81    4.70
  16  15  10    3.74    5.61
  16  15  11    4.24    5.26
  16  15  12    6.25    6.65
  16  16   0  137.34   20.22
  16  16   1  272.86   14.99
  16  16   2   17.14    5.43
  16  16   3    2.58    5.07
  16  16   4   14.66    5.39
  16  16   5   32.73    6.94
  16  16   6   11.52    6.22
  16  16   7   24.07    6.72
  16  16   8   51.07    8.39
  16  16   9  132.95   11.98
  16  16  10  158.55   15.73
  16  16  11   65.94   11.10
  16  16  12    2.26   29.65
  17   0   0 1975.63  114.18
  17   0   1 1531.29   66.72
  17   0   2  206.44   19.06
  17   0   3    7.18    4.53
  17   0   4   19.06    4.98
  17   0   5   71.79    7.24
  17   0   6   51.45    4.30
  17   0   7  163.22    7.95
  17   0   8  639.23   25.53
  17   0   9  759.64   28.64
  17   0  10  447.46   18.05
  17   0  11  247.77   10.09
  17   0  12  107.94    5.77
  17   0  13   38.97    6.10
  17   0  14    3.07    4.84
  17   0  15    3.73    5.67
  17   1   0  146.98    8.93
  17   1   1  162.89    5.95
  17   1   2    0.95    2.83
  17   1   3   11.98    2.94
  17   1   4    3.13    2.78
  17   1   5   13.37    2.72
  17   1   6    1.16    2.17
  17   1   7   64.35    3.15
  17   1   8   45.92    4.71
  17   1   9  135.99    5.33
  17   1  10   48.48    3.25
  17   1  11   35.11    3.20
  17   1  12    8.37    2.88
  17   1  13    1.92    3.24
  17   1  14   16.15    4.81
  17   1  15    0.52    3.24
  17   2   0 1150.33   45.66
  17   2   1  447.56   12.86
  17   2   2   95.13    4.50
  17   2   3    2.11    2.80
  17   2   4   38.56    3.33
  17   2   5   54.49    4.29
  17   2   6    1.89    2.08
  17   2   7   41.11    2.74
  17   2   8  216.90    8.44
  17   2   9  240.71    9.18
  17   2  10  160.27    6.39
  17   2  11   87.01    4.55
  17   2  12   57.70    3.57
  17   2  13    7.31    3.29
  17   2  14    0.72    3.36
  17   2  15    3.23    4.64
  17   3   0   26.39    4.23
  17   3   1    0.93    3.02
  17   3   2  106.36    5.52
  17   3   3   14.03    2.90
  17   3   4   87.18    5.62
  17   3   5   61.86    4.77
  17   3   6  106.71    4.80
  17   3   7   34.68    3.06
  17   3   8  124.61    5.54
  17   3   9    9.66    3.18
  17   3  10   14.26    3.65
  17   3  11    6.98    3.29
  17   3  12   10.08    3.29
  17   3  13   15.56    3.33
  17   3  14   23.14    3.74
  17   3  15    4.71    9.07
  17   4   0   16.18    4.07
  17   4   1   14.05    2.72
  17   4   2    0.24    2.98
  17   4   3   16.38    3.02
  17   4   4   34.79    3.39
  17   4   5   10.37    3.36
  17   4   6    3.48    2.53
  17   4   7    4.51    2.70
  17   4   8    3.44    4.14
  17   4   9    6.70    3.21
  17   4  10    0.84    3.50
  17   4  11    3.34    3.70
  17   4  12    2.20    4.14
  17   4  13    0.31    3.48
  17   4  14    3.29    4.25
  17   4  15    1.16    4.93
  17   5   0   58.64    4.53
  17   5   1    2.27    2.55
  17   5   2    0.30    2.67
  17   5   3  249.87    8.00
  17   5   4  191.02    7.11
  17   5   5  352.93   11.12
  17   5   6  106.12    5.30
  17   5   7  128.00    5.69
  17   5   8    0.01    3.17
  17   5   9    2.02    3.71
  17   5  10   33.20    5.61
  17   5  11    0.26    4.15
  17   5  12   15.09    3.83
  17   5  13   65.22    5.32
  17   5  14   63.60    5.63
  17   6   0  226.89   12.11
  17   6   1  184.82    7.40
  17   6   2  106.10    5.10
  17   6   3   13.33    2.96
  17   6   4    0.10    2.89
  17   6   5    0.01    3.15
  17   6   6    7.38    3.03
  17   6   7   21.08    2.98
  17   6   8   16.08    3.54
  17   6   9   64.32    5.53
  17   6  10   86.70    6.07
  17   6  11   82.84    5.64
  17   6  12   20.16    4.19
  17   6  13    9.73    4.55
  17   6  14    5.88    4.17
  17   7   0  235.60    9.53
  17   7   1  144.19    5.24
  17   7   2    0.76    2.75
  17   7   3   90.46    4.52
  17   7   4  435.16   13.58
  17   7   5  301.20   10.83
  17   7   6  222.90    9.25
  17   7   7   10.62    3.30
  17   7   8    0.32    3.31
  17   7   9  179.33    7.70
  17   7  10   40.23    4.73
  17   7  11   38.91    4.64
  17   7  12    8.19    3.72
  17   7  13   58.05    4.78
  17   7  14  141.18   10.19
  17   8   0  620.25   21.03
  17   8   1  366.47   10.23
  17   8   2  107.88    4.90
  17   8   3    4.65    3.03
  17   8   4    3.33    3.02
  17   8   5   19.91    3.66
  17   8   6    2.06    3.50
  17   8   7   30.60    3.67
  17   8   8   98.16    6.41
  17   8   9  158.13    7.06
  17   8  10  216.32    9.17
  17   8  11  102.58    6.43
  17   8  12   49.08    4.60
  17   8  13    8.66    4.18
  17   8  14    1.12    4.84
  17   9   0  607.99   22.89
  17   9   1  308.02    9.89
  17   9   2   74.00    4.25
  17   9   3   67.08    4.40
  17   9   4  157.02    6.05
  17   9   5  360.90   13.05
  17   9   6   91.83    5.48
  17   9   7    3.82    3.68
  17   9   8  132.85    7.15
  17   9   9  165.96    7.92
  17   9  10  386.86   14.82
  17   9  11   38.43    6.98
  17   9  12    4.41    5.01
  17   9  13   42.23    4.81
  17   9  14   39.63    8.88
  17  10   0  378.09   15.74
  17  10   1  251.57    9.19
  17  10   2   57.62    3.98
  17  10   3    0.58    3.12
  17  10   4   19.40    3.23
  17  10   5   31.35    4.06
  17  10   6    0.13    3.58
  17  10   7   28.39    4.28
  17  10   8   97.82    6.24
  17  10   9  175.30    8.94
  17  10  10  160.83    8.39
  17  10  11   67.97    6.17
  17  10  12   21.65    5.36
  17  10  13    1.50    4.01
  17  11   0  850.48   30.37
  17  11   1  658.90   18.76
  17  11   2   59.93    4.25
  17  11   3   14.19    3.20
  17  11   4   44.37    3.68
  17  11   5  108.36    5.91
  17  11   6   81.80    5.42
  17  11   7   15.66    3.86
  17  11   8  235.60    9.48
  17  11   9  482.12   17.52
  17  11  10  260.68   12.83
  17  11  11  177.91   10.21
  17  11  12   26.01    6.20
  17  11  13    0.19    4.50
  17  12   0  154.24    8.28
  17  12   1   76.05    4.46
  17  12   2   25.47    3.68
  17  12   3    1.90    3.34
  17  12   4   16.14    3.56
  17  12   5   33.60    4.76
  17  12   6    0.65    3.69
  17  12   7   13.35    3.89
  17  12   8   63.52    5.45
  17  12   9   81.96    6.77
  17  12  10   76.31    6.93
  17  12  11   25.88    5.94
  17  12  12    2.97    5.30
  17  12  13    2.84    4.99
  17  13   0  915.74   36.88
  17  13   1  366.32   11.84
  17  13   2  363.52   11.99
  17  13   3    9.16    3.56
  17  13   4    0.03    3.45
  17  13   5   30.52    4.40
  17  13   6    2.00    3.87
  17  13   7   42.75    4.36
  17  13   8  211.28   10.19
  17  13   9  334.68   13.90
  17  13  10  379.68   17.62
  17  13  11  201.20    9.76
  17  13  12   49.94    6.19
  17  14   0   42.83    5.92
  17  14   1   22.18    3.63
  17  14   2    3.13    3.51
  17  14   3    0.17    3.49
  17  14   4    2.95    3.55
  17  14   5   12.94    4.05
  17  14   6    0.99    4.09
  17  14   7    5.06    4.01
  17  14   8   21.31    5.06
  17  14   9   30.22    5.37
  17  14  10   15.68    6.03
  17  14  11    4.33    5.93
  17  14  12    0.05    5.50
  17  15   0  281.80   19.38
  17  15   1  398.74   12.20
  17  15   2   57.89    5.12
  17  15   3   60.84    4.88
  17  15   4   11.62    3.66
  17  15   5    2.59    4.06
  17  15   6    9.57    4.48
  17  15   7   93.99    6.50
  17  15   8  110.46    7.66
  17  15   9  183.06   10.17
  17  15  10  186.78   10.36
  17  15  11  107.15    8.36
  17  15  12   24.90   10.06
  17  16   0    7.89    5.53
  17  16   1    3.10    3.50
  17  16   2    1.75    3.75
  17  16   3    4.66    3.76
  17  16   4    7.45    3.76
  17  16   5    5.01    5.03
  17  16   6    5.08    4.50
  17  16   7    5.12    4.47
  17  16   8    4.86    5.60
  17  16   9    1.54    5.03
  17  16  10    0.03    7.05
  17  16  11    0.60    8.21
  17  17   0   99.98   11.52
  17  17   1   21.45    5.49
  17  17   2   36.29    6.45
  17  17   3   21.82    5.70
  17  17   4   12.61    5.82
  17  17   5    7.72    9.46
  17  17   6   58.32    7.78
  17  17   7   27.92    6.87
  17  17   8   69.99    9.55
  17  17   9   20.46    7.81
  17  17  10   13.50   19.18
  17  17  11    2.79    9.62
  18   0   0    6.87    6.21
  18   0   1    1.42    3.83
  18   0   2  173.08   10.75
  18   0   3   38.52    6.17
  18   0   4  134.85    7.74
  18   0   5  248.03   14.38
  18   0   6  125.42    7.89
  18   0   7   27.65    3.74
  18   0   8   89.65    7.36
  18   0   9   10.83    4.60
  18   0  10    2.94    3.98
  18   0  11    0.46    4.27
  18   0  12   25.43    4.52
  18   0  13   46.45    7.89
  18   0  14  167.84   11.47
  18   0  15   63.20    6.68
  18   1   0  306.58   14.32
  18   1   1  252.35    9.58
  18   1   2   17.67    2.81
  18   1   3  107.42    5.90
  18   1   4  209.07    9.25
  18   1   5  314.72   11.84
  18   1   6  202.32    7.31
  18   1   7   21.75    2.46
  18   1   8    0.39    2.87
  18   1   9   81.02    4.42
  18   1  10   81.34    5.45
  18   1  11   16.21    3.22
  18   1  12    0.37    2.87
  18   1  13   14.74    3.41
  18   1  14  101.66    5.82
  18   1  15   53.65    6.11
  18   2   0   14.87    3.87
  18   2   1   20.65    2.92
  18   2   2   12.05    2.90
  18   2   3  161.49    8.10
  18   2   4  216.21    8.04
  18   2   5  328.09   11.59
  18   2   6  240.37   10.30
  18   2   7  109.15    4.39
  18   2   8    3.10    2.78
  18   2   9   18.20    3.35
  18   2  10   23.54    3.97
  18   2  11    1.30    3.18
  18   2  12   18.66    3.85
  18   2  13   49.58    4.77
  18   2  14  142.89    7.97
  18   2  15  100.65    7.48
  18   3   0  124.41    5.87
  18   3   1  102.34    4.51
  18   3   2   93.47    4.55
  18   3   3  269.01    8.25
  18   3   4  677.69   20.55
  18   3   5  725.67   22.93
  18   3   6  549.93   17.97
  18   3   7  139.29    5.90
  18   3   8   50.03    4.61
  18   3   9   25.40    3.50
  18   3  10   17.08    5.35
  18   3  11    3.92    3.43
  18   3  12   34.51    4.95
  18   3  13   81.23    5.92
  18   3  14  214.79   13.79
  18   3  15  139.79   12.47
  18   4   0   87.56    5.45
  18   4   1  123.32    5.05
  18   4   2   50.31    3.64
  18   4   3   20.60    3.03
  18   4   4  266.54    8.96
  18   4   5  223.65    8.20
  18   4   6  283.31    9.74
  18   4   7   22.19    3.09
  18   4   8   23.17    3.93
  18   4   9   81.89    5.57
  18   4  10   20.21    4.56
  18   4  11    8.79    4.09
  18   4  12    2.04    3.44
  18   4  13   24.81    4.23
  18   4  14   94.28    7.45
  18   5   0    0.68    3.66
  18   5   1    0.83    2.64
  18   5   2  162.42    5.42
  18   5   3  387.27   11.09
  18   5   4  672.56   18.08
  18   5   5  759.82   22.78
  18   5   6  533.42   16.07
  18   5   7  219.10    7.60
  18   5   8   73.17    5.14
  18   5   9    0.33    3.61
  18   5  10    0.52    3.75
  18   5  11   24.80    5.22
  18   5  12   80.88    5.16
  18   5  13  160.83    7.98
  18   5  14  252.50   20.59
  18   6   0   44.63    4.23
  18   6   1   31.36    3.27
  18   6   2    2.80    2.77
  18   6   3   54.78    3.52
  18   6   4   76.54    4.29
  18   6   5  176.62    8.62
  18   6   6   67.21    4.73
  18   6   7   26.23    3.81
  18   6   8    2.02    4.00
  18   6   9    1.82    3.68
  18   6  10   54.84    4.91
  18   6  11    1.67    3.91
  18   6  12    2.62    3.77
  18   6  13   11.43    4.46
  18   6  14   23.83    5.53
  18   7   0   85.36    6.41
  18   7   1   26.86    3.18
  18   7   2  215.18    6.97
  18   7   3  259.12    8.79
  18   7   4  415.43   13.06
  18   7   5  296.87   11.03
  18   7   6  305.70   12.10
  18   7   7  131.40    6.60
  18   7   8   84.00    5.43
  18   7   9    2.54    4.80
  18   7  10   17.30    4.13
  18   7  11   40.87    4.79
  18   7  12  112.94    7.55
  18   7  13  128.28    7.86
  18   7  14  211.31   12.22
  18   8   0    7.64    3.81
  18   8   1    0.48    2.94
  18   8   2   78.36    5.91
  18   8   3   10.02    3.21
  18   8   4   43.90    3.87
  18   8   5   14.18    3.63
  18   8   6   26.52    3.99
  18   8   7    6.91    3.65
  18   8   8   32.32    4.97
  18   8   9    1.87    4.12
  18   8  10   15.83    5.14
  18   8  11    0.06    7.10
  18   8  12   10.53    6.26
  18   8  13    4.04    4.38
  18   9   0   37.85    4.91
  18   9   1   58.13    4.03
  18   9   2  102.61    4.84
  18   9   3   79.96    5.17
  18   9   4   51.55    3.89
  18   9   5   69.17    4.98
  18   9   6   44.30    4.41
  18   9   7   48.99    4.51
  18   9   8   42.08    6.10
  18   9   9   20.67    4.47
  18   9  10   14.48    5.57
  18   9  11   38.31    5.58
  18   9  12   48.56    5.00
  18   9  13   75.90    6.25
  18  10   0  134.93    8.08
  18  10   1  143.79    6.04
  18  10   2   28.72    3.56
  18  10   3   49.12    4.00
  18  10   4    3.22    3.19
  18  10   5    0.19    3.54
  18  10   6    5.08    3.91
  18  10   7    9.48    3.80
  18  10   8   61.24    6.17
  18  10   9   88.35    6.99
  18  10  10   22.34    6.04
  18  10  11   58.82    6.65
  18  10  12   24.24    5.87
  18  10  13   15.78    5.26
  18  11   0   29.12    6.50
  18  11   1   13.67    3.28
  18  11   2   14.81    3.31
  18  11   3    1.38    3.39
  18  11   4    7.24    3.31
  18  11   5    6.11    3.69
  18  11   6    0.02    3.74
  18  11   7    0.11    3.71
  18  11   8   11.01    5.54
  18  11   9   15.39    5.50
  18  11  10   16.26    7.82
  18  11  11   10.06    6.17
  18  11  12   12.03    6.18
  18  11  13    0.01    5.60
  18  12   0  348.63   17.25
  18  12   1  116.56    5.19
  18  12   2  168.00    7.11
  18  12   3    2.10    3.38
  18  12   4    0.43    3.56
  18  12   5   10.93    3.85
  18  12   6    1.16    3.88
  18  12   7    4.64    3.87
  18  12   8   80.20    6.10
  18  12   9  123.66    7.97
  18  12  10  153.36    9.34
  18  12  11   78.67    7.88
  18  12  12   31.02   10.81
  18  13   0   16.27    5.48
  18  13   1    5.23    3.36
  18  13   2    5.44    3.49
  18  13   3   33.01    3.96
  18  13   4   72.51    4.96
  18  13   5   69.37    6.00
  18  13   6   63.48    5.45
  18  13   7    7.36    4.06
  18  13   8    4.45    4.89
  18  13   9   14.42    5.32
  18  13  10    6.54    6.00
  18  13  11    0.95    7.30
  18  13  12    2.31    5.81
  18  14   0  137.85    9.10
  18  14   1  223.74    8.23
  18  14   2   15.26    3.92
  18  14   3    3.61    3.64
  18  14   4    9.41    3.60
  18  14   5   14.88    4.21
  18  14   6   14.14    4.52
  18  14   7   17.02    4.52
  18  14   8   58.46    5.83
  18  14   9  118.18    7.17
  18  14  10  117.06    9.34
  18  14  11   73.67    7.71
  18  14  12    6.23    6.88
  18  15   0    9.90    5.50
  18  15   1    1.63    3.46
  18  15   2    2.52    3.67
  18  15   3   47.33    4.46
  18  15   4  100.06    5.35
  18  15   5  129.40    7.41
  18  15   6   90.77    6.57
  18  15   7   15.52    4.78
  18  15   8    3.61    5.22
  18  15   9    7.85    5.24
  18  15  10    5.29    6.51
  18  15  11    0.10    7.56
  18  16   0   93.12    7.24
  18  16   1   13.71    3.90
  18  16   2   13.10    3.90
  18  16   3    8.88    3.85
  18  16   4   52.92    4.75
  18  16   5   63.49    5.79
  18  16   6    4.44    4.52
  18  16   7    0.54    4.45
  18  16   8   41.03    5.92
  18  16   9   31.66    5.67
  18  16  10   40.63    7.45
  18  16  11    2.73    7.10
  18  17   0    6.29    5.52
  18  17   1    2.18    4.29
  18  17   2    0.73    3.97
  18  17   3   29.48    4.46
  18  17   4   68.55    5.58
  18  17   5   73.61    5.89
  18  17   6   57.23    5.67
  18  17   7   13.32    4.58
  18  17   8    0.06    5.20
  18  17   9    6.03    5.60
  18  17  10    5.86    6.64
  18  18   0    1.30    7.77
  18  18   1    1.14    6.13
  18  18   2    9.78    5.91
  18  18   3   75.70    7.75
  18  18   4   91.46    9.34
  18  18   5   65.41   10.84
  18  18   6   97.59    9.16
  18  18   7    0.36    6.31
  18  18   8    1.60    7.12
  18  18   9    3.94    7.38
  18  18  10   10.76   10.88
  19   0   0  576.73   32.00
  19   0   1  531.05   20.40
  19   0   2   19.19    4.39
  19   0   3   12.69    4.05
  19   0   4   23.85    4.42
  19   0   5   18.04    4.61
  19   0   6    3.52    4.64
  19   0   7   18.47    3.45
  19   0   8   53.86    5.53
  19   0   9   95.18    7.09
  19   0  10  102.46    9.04
  19   0  11   55.35    6.67
  19   0  12   50.47    6.23
  19   0  13    7.09    7.62
  19   0  14    1.32    7.36
  19   0  15    1.18   22.90
  19   1   0  212.39   10.83
  19   1   1   52.94    3.90
  19   1   2   31.07    3.81
  19   1   3   50.60    3.42
  19   1   4   73.69    3.95
  19   1   5   64.11    4.04
  19   1   6   10.07    3.30
  19   1   7   10.83    2.76
  19   1   8   33.64    3.53
  19   1   9   26.34    3.40
  19   1  10   28.93    4.78
  19   1  11   17.13    3.48
  19   1  12    2.31    3.38
  19   1  13    6.08    3.74
  19   1  14   13.47    4.97
  19   1  15   15.78    6.94
  19   2   0  121.83    6.84
  19   2   1   31.67    3.11
  19   2   2    0.99    2.71
  19   2   3   11.85    2.82
  19   2   4   28.73    3.31
  19   2   5   10.38    3.40
  19   2   6    0.25    3.41
  19   2   7    0.23    2.77
  19   2   8    0.16    3.48
  19   2   9    0.55    3.63
  19   2  10    5.16    3.47
  19   2  11    6.77    3.46
  19   2  12    1.03    3.22
  19   2  13    0.18    6.28
  19   2  14    0.12    6.38
  19   3   0   38.86    4.10
  19   3   1   44.10    3.18
  19   3   2    1.15    2.78
  19   3   3   10.06    2.82
  19   3   4    0.21    2.91
  19   3   5   10.17    3.42
  19   3   6    4.76    3.40
  19   3   7   22.40    3.78
  19   3   8    0.01    3.42
  19   3   9   22.09    4.08
  19   3  10    5.75    4.25
  19   3  11    9.96    4.75
  19   3  12    8.21    4.54
  19   3  13    1.72    3.70
  19   3  14    1.16    5.94
  19   4   0   85.60    5.87
  19   4   1   95.51    4.30
  19   4   2   38.68    3.74
  19   4   3   17.02    3.06
  19   4   4    0.58    2.86
  19   4   5    1.30    3.17
  19   4   6    0.16    3.38
  19   4   7    6.63    3.75
  19   4   8   41.16    5.55
  19   4   9   47.14    4.70
  19   4  10   44.40    5.28
  19   4  11   37.16    4.98
  19   4  12   14.26    3.92
  19   4  13    4.56    5.63
  19   4  14    1.07    9.43
  19   5   0    0.41    4.93
  19   5   1    0.57    2.62
  19   5   2    2.29    2.72
  19   5   3   26.59    3.27
  19   5   4  106.09    4.92
  19   5   5   47.58    3.85
  19   5   6   63.37    4.40
  19   5   7    9.29    3.74
  19   5   8    0.36    5.02
  19   5   9   21.30    5.13
  19   5  10    4.85    4.78
  19   5  11    0.33    4.76
  19   5  12   10.03    4.28
  19   5  13   15.88    4.68
  19   5  14   34.67    6.93
  19   6   0  463.43   15.87
  19   6   1  262.30    7.62
  19   6   2  125.77    4.88
  19   6   3    9.33    3.13
  19   6   4    6.31    3.40
  19   6   5   32.03    3.78
  19   6   6    2.27    3.47
  19   6   7   18.14    3.92
  19   6   8   90.19    6.48
  19   6   9  154.89    8.72
  19   6  10  144.33    8.51
  19   6  11   96.25    6.72
  19   6  12   31.26    4.75
  19   6  13    6.18    7.81
  19   6  14    0.99    4.86
  19   7   0   55.64    7.32
  19   7   1   54.30    3.58
  19   7   2    4.44    2.90
  19   7   3   47.56    3.74
  19   7   4   98.45    5.45
  19   7   5  108.32    5.51
  19   7   6   55.50    4.47
  19   7   7    4.41    3.68
  19   7   8   33.43    5.21
  19   7   9   25.11    5.70
  19   7  10   48.33    5.89
  19   7  11    0.29    4.77
  19   7  12    4.62    4.32
  19   7  13   20.52    4.56
  19   8   0  298.55   13.03
  19   8   1  293.94    9.29
  19   8   2   63.07    4.18
  19   8   3    0.86    3.05
  19   8   4   48.42    4.35
  19   8   5   55.60    4.45
  19   8   6   27.35    3.97
  19   8   7   10.75    3.78
  19   8   8  113.76    6.77
  19   8   9  195.90   10.13
  19   8  10  126.30    8.27
  19   8  11   58.42    5.96
  19   8  12   13.28    4.63
  19   8  13    4.48    5.94
  19   9   0  199.22    9.46
  19   9   1  160.46    6.92
  19   9   2    1.57    3.01
  19   9   3    0.29    3.19
  19   9   4   40.00    3.99
  19   9   5   58.84    4.51
  19   9   6   43.05    4.38
  19   9   7    2.40    3.71
  19   9   8   80.79    6.49
  19   9   9  159.49    9.18
  19   9  10   33.84    5.92
  19   9  11   22.60    5.71
  19   9  12    0.28    4.75
  19   9  13    4.71    6.94
  19  10   0  155.83    9.67
  19  10   1   97.70    5.07
  19  10   2   13.58    3.47
  19  10   3   15.24    3.47
  19  10   4   77.85    5.01
  19  10   5   66.89    4.93
  19  10   6   22.68    4.48
  19  10   7    0.15    3.85
  19  10   8   67.66    7.74
  19  10   9  118.12    8.53
  19  10  10   67.37    7.68
  19  10  11   13.60    7.39
  19  10  12    1.99    5.09
  19  10  13   10.50    5.48
  19  11   0  258.51   13.38
  19  11   1   91.54    5.03
  19  11   2  115.26    5.64
  19  11   3    0.99    3.42
  19  11   4    2.29    3.53
  19  11   5    7.21    3.81
  19  11   6    1.76    4.42
  19  11   7   17.80    4.04
  19  11   8  118.68    6.92
  19  11   9  134.51    8.93
  19  11  10  105.21    8.90
  19  11  11   40.15    9.90
  19  11  12    4.00    4.79
  19  12   0   45.73    6.03
  19  12   1   23.10    4.16
  19  12   2    0.73    3.55
  19  12   3   27.15    4.01
  19  12   4   80.52    5.51
  19  12   5   57.16    5.56
  19  12   6   42.59    4.64
  19  12   7    0.09    4.02
  19  12   8   22.04    5.08
  19  12   9   48.81    6.18
  19  12  10   12.60    7.09
  19  12  11    4.07    6.60
  19  12  12    5.79    5.70
  19  13   0   66.03    6.52
  19  13   1  156.53    6.98
  19  13   2   15.63    3.79
  19  13   3   30.15    4.16
  19  13   4    3.80    3.90
  19  13   5    4.79    4.10
  19  13   6    2.39    4.26
  19  13   7   46.11    4.89
  19  13   8   67.31    6.18
  19  13   9   90.25    7.30
  19  13  10   67.39    8.15
  19  13  11   36.34    6.72
  19  13  12    6.32    5.15
  19  14   0   15.79    6.49
  19  14   1    4.53    3.70
  19  14   2    0.73    3.76
  19  14   3   12.93    3.84
  19  14   4   34.43    5.25
  19  14   5   43.91    5.38
  19  14   6   23.51    4.76
  19  14   7    1.51    4.34
  19  14   8   13.58    5.42
  19  14   9    8.84    5.33
  19  14  10    6.43    6.48
  19  14  11    1.70    6.63
  19  15   0   49.08    6.47
  19  15   1    3.62    3.71
  19  15   2   18.41    4.13
  19  15   3   11.12    4.07
  19  15   4    5.91    4.34
  19  15   5   13.84    5.10
  19  15   6   47.43    5.13
  19  15   7    9.84    4.50
  19  15   8   41.04    6.06
  19  15   9   10.33    5.09
  19  15  10   10.07    7.10
  19  15  11    0.08    7.55
  19  16   0    4.83    5.49
  19  16   1    2.70    4.09
  19  16   2    0.27    3.87
  19  16   3    0.31    3.88
  19  16   4    3.15    4.14
  19  16   5    0.33    4.44
  19  16   6    1.05    4.61
  19  16   7    0.01    4.35
  19  16   8    3.63    5.31
  19  16   9    2.73    5.02
  19  16  10    0.11    7.82
  19  17   0   26.53    6.28
  19  17   1    2.24    4.28
  19  17   2    2.78    3.99
  19  17   3    1.09    3.93
  19  17   4    4.92    4.62
  19  17   5   30.26    4.61
  19  17   6    2.61    5.46
  19  17   7   21.22    4.86
  19  17   8    0.17    5.26
  19  17   9    2.44    5.68
  19  17  10   52.13    8.89
  19  18   0    0.21    5.49
  19  18   1    0.31    4.29
  19  18   2    0.50    3.91
  19  18   3    5.17    3.94
  19  18   4   11.73    4.79
  19  18   5   23.32    5.12
  19  18   6   13.97    4.72
  19  18   7    2.68    4.36
  19  18   8    0.54    5.07
  19  18   9    0.48    4.79
  19  19   0   42.04    9.46
  19  19   1  102.25    9.51
  19  19   2   31.00    6.84
  19  19   3    7.10    6.57
  19  19   4    0.22    6.43
  19  19   5    3.19    8.35
  19  19   6   22.87    6.91
  19  19   7   13.13    6.49
  19  19   8   12.66    7.01
  19  19   9   87.85   11.75
  20   0   0  315.28   48.32
  20   0   1    5.16    3.67
  20   0   2   22.23    4.50
  20   0   3  480.34   18.85
  20   0   4  676.68   25.70
  20   0   5  789.34   32.49
  20   0   6  416.33   20.15
  20   0   7  345.76   17.67
  20   0   8   34.40    5.18
  20   0   9   32.92    4.88
  20   0  10   41.37    6.34
  20   0  11    0.91    5.52
  20   0  12   20.13    5.39
  20   0  13  130.06   10.18
  20   0  14  172.49   18.43
  20   1   0  147.88    7.88
  20   1   1   34.74    2.98
  20   1   2    0.30    2.76
  20   1   3  311.85    9.76
  20   1   4  395.90   11.92
  20   1   5  448.42   15.27
  20   1   6  281.70   10.07
  20   1   7  176.10    7.99
  20   1   8    1.60    3.63
  20   1   9    5.86    3.71
  20   1  10   20.92    3.65
  20   1  11    0.04    3.53
  20   1  12   14.34    4.14
  20   1  13   56.86    7.11
  20   1  14   87.45    8.83
  20   2   0  310.96   13.33
  20   2   1  159.68    5.96
  20   2   2    0.67    2.74
  20   2   3  341.01   11.37
  20   2   4  750.31   21.81
  20   2   5  796.69   23.59
  20   2   6  643.51   21.45
  20   2   7  170.95    7.32
  20   2   8   11.84    5.31
  20   2   9  120.24    6.61
  20   2  10   44.39    4.81
  20   2  11    6.64    3.80
  20   2  12    9.10    4.36
  20   2  13   99.04    7.28
  20   2  14  225.35   15.23
  20   3   0   12.64    3.80
  20   3   1   12.55    2.79
  20   3   2   48.73    3.62
  20   3   3  412.08   12.27
  20   3   4  583.19   17.64
  20   3   5  720.88   20.21
  20   3   6  504.90   15.86
  20   3   7  289.11   10.62
  20   3   8    2.06    5.04
  20   3   9    0.15    4.71
  20   3  10    6.24    5.47
  20   3  11   38.91    5.57
  20   3  12   55.03    5.27
  20   3  13  125.08    8.17
  20   3  14  180.14   11.71
  20   4   0  287.43   12.61
  20   4   1   86.54    3.96
  20   4   2    1.18    2.83
  20   4   3  295.82    9.60
  20   4   4  424.37   12.56
  20   4   5  637.77   19.03
  20   4   6  332.08   12.07
  20   4   7  165.98   10.53
  20   4   8   45.21    6.43
  20   4   9   23.47    5.57
  20   4  10  113.27    8.11
  20   4  11    3.82    5.03
  20   4  12    3.30    4.13
  20   4  13   77.81    6.33
  20   4  14  107.64    9.41
  20   5   0   68.68    5.18
  20   5   1  111.88    4.65
  20   5   2   99.06    4.61
  20   5   3  510.85   14.57
  20   5   4  469.11   13.14
  20   5   5  399.83   13.54
  20   5   6  305.58   12.40
  20   5   7  248.48    9.65
  20   5   8   19.05    4.90
  20   5   9   26.19    5.76
  20   5  10   43.94    5.63
  20   5  11   88.23    6.15
  20   5  12  111.45    6.73
  20   5  13  154.62    8.24
  20   5  14  175.89   13.54
  20   6   0   73.90    5.63
  20   6   1    3.97    2.88
  20   6   2    1.94    2.91
  20   6   3  145.14    5.88
  20   6   4  253.36    8.21
  20   6   5  253.08    9.12
  20   6   6  163.11    7.53
  20   6   7   65.95    5.22
  20   6   8    0.93    4.59
  20   6   9   38.78    6.30
  20   6  10    0.64    4.93
  20   6  11    8.35    4.77
  20   6  12    8.40    4.68
  20   6  13   40.55    5.99
  20   7   0  113.77    6.47
  20   7   1  157.51    5.64
  20   7   2  143.53    5.84
  20   7   3  254.08    9.06
  20   7   4  147.57    6.54
  20   7   5   83.31    5.19
  20   7   6   70.41    4.82
  20   7   7  107.40    5.99
  20   7   8   31.80    5.26
  20   7   9   57.65    6.61
  20   7  10   84.56    7.11
  20   7  11   88.39    7.28
  20   7  12   92.49    7.80
  20   7  13  108.30    6.56
  20   8   0   10.56    4.46
  20   8   1   27.03    3.53
  20   8   2    4.89    3.30
  20   8   3  121.50    5.79
  20   8   4   85.39    5.03
  20   8   5   63.35    4.81
  20   8   6   36.97    4.29
  20   8   7   36.07    5.63
  20   8   8    1.49    4.80
  20   8   9   10.79    5.02
  20   8  10    0.77    5.26
  20   8  11   18.50    5.34
  20   8  12   20.67    4.85
  20   8  13   27.62    4.63
  20   9   0  121.88    7.65
  20   9   1  111.95    5.11
  20   9   2   46.07    3.99
  20   9   3   14.05    3.41
  20   9   4    0.23    3.39
  20   9   5    1.72    3.64
  20   9   6    0.07    3.82
  20   9   7    3.63    3.83
  20   9   8   16.32    5.37
  20   9   9   68.34    6.91
  20   9  10   90.94    8.37
  20   9  11   58.31    7.28
  20   9  12   39.39    5.69
  20   9  13    9.25    5.62
  20  10   0  118.87    8.50
  20  10   1   38.65    3.74
  20  10   2   99.81    5.41
  20  10   3   19.78    3.75
  20  10   4   15.47    3.83
  20  10   5    1.98    3.75
  20  10   6    6.01    5.09
  20  10   7   15.69    5.18
  20  10   8   14.68    4.92
  20  10   9   48.47    6.30
  20  10  10   72.92    7.86
  20  10  11   56.04    8.22
  20  10  12   21.12    5.46
  20  11   0  115.01   11.32
  20  11   1   66.74    4.55
  20  11   2    0.01    3.49
  20  11   3   23.61    3.98
  20  11   4   92.93    5.21
  20  11   5  101.35    5.58
  20  11   6   67.87    5.46
  20  11   7    7.63    4.18
  20  11   8    0.99    5.57
  20  11   9   77.05    7.05
  20  11  10   61.80    7.92
  20  11  11   32.65    6.60
  20  11  12    1.12    4.79
  20  12   0   79.90    6.57
  20  12   1  153.33    7.61
  20  12   2    5.26    3.70
  20  12   3   13.91    3.71
  20  12   4    0.16    3.80
  20  12   5    5.30    4.79
  20  12   6    5.43    4.19
  20  12   7    7.75    4.18
  20  12   8   26.33    5.20
  20  12   9   88.41    7.57
  20  12  10  103.55    8.51
  20  12  11   45.21    7.11
  20  12  12   14.44    5.74
  20  13   0  106.43    8.55
  20  13   1   42.46    4.40
  20  13   2    2.30    3.74
  20  13   3   80.32    5.22
  20  13   4  189.11    8.53
  20  13   5  297.59   10.95
  20  13   6  176.12    8.59
  20  13   7   31.92    4.97
  20  13   8    7.92    4.97
  20  13   9   47.80    6.35
  20  13  10   56.56    7.88
  20  13  11    5.72    5.94
  20  14   0   93.74    8.25
  20  14   1   21.89    3.96
  20  14   2    7.08    3.89
  20  14   3    2.20    3.78
  20  14   4   32.11    5.09
  20  14   5   36.21    5.21
  20  14   6    3.39    4.48
  20  14   7    1.61    4.39
  20  14   8   25.75    5.76
  20  14   9   37.97    7.25
  20  14  10   39.89    8.92
  20  14  11   10.94    7.50
  20  15   0   69.18    7.58
  20  15   1   50.09    5.34
  20  15   2    0.43    3.91
  20  15   3   72.02    5.88
  20  15   4  251.91    9.67
  20  15   5  285.33   11.60
  20  15   6  193.76    9.34
  20  15   7   33.39    5.28
  20  15   8    5.96    5.34
  20  15   9   47.74    6.55
  20  15  10   31.58    8.82
  20  16   0    0.06    5.42
  20  16   1    5.39    4.36
  20  16   2    7.53    4.03
  20  16   3   58.40    4.90
  20  16   4   71.82    5.53
  20  16   5   49.09    5.26
  20  16   6   73.75    7.72
  20  16   7    0.63    4.50
  20  16   8    1.54    5.24
  20  16   9    6.70    5.58
  20  16  10    2.65    7.59
  20  17   0   71.42   11.71
  20  17   1   36.29    5.17
  20  17   2    0.57    4.01
  20  17   3   50.80    4.58
  20  17   4  131.52    7.64
  20  17   5  153.09    8.65
  20  17   6  108.97    8.06
  20  17   7   25.57    4.80
  20  17   8    1.11    5.09
  20  17   9   28.60    6.01
  20  18   0    1.25    5.66
  20  18   1   34.11    4.89
  20  18   2   49.08    4.99
  20  18   3   78.53    5.38
  20  18   4   91.42    6.27
  20  18   5  118.81    7.03
  20  18   6   23.87    4.88
  20  18   7   67.16    5.73
  20  18   8   14.04    5.15
  20  18   9   34.66    6.36
  20  19   0   18.19    6.55
  20  19   1    9.86    4.44
  20  19   2    0.89    5.12
  20  19   3   14.58    4.14
  20  19   4   34.57    5.08
  20  19   5   52.80    5.10
  20  19   6   31.05    6.02
  20  19   7    6.56    4.36
  20  19   8    0.04    5.14
  20  20   0  122.47   26.80
  20  20   1   32.53    6.54
  20  20   2  111.06    9.67
  20  20   3   54.51    6.55
  20  20   4   69.24    8.47
  20  20   5   16.14    7.49
  20  20   6   67.41    8.21
  20  20   7   26.89    6.74
  21   0   0    0.03    6.25
  21   0   1   13.60    3.89
  21   0   2    0.06    3.88
  21   0   3   14.72    4.12
  21   0   4    9.97    4.38
  21   0   5    1.03    4.14
  21   0   6    1.07    4.79
  21   0   7    2.03    4.92
  21   0   8    7.37    7.66
  21   0   9    7.12    5.67
  21   0  10    0.11    7.26
  21   0  11    0.01    8.87
  21   0  12    2.83    8.49
  21   0  13    0.30    8.58
  21   0  14    0.22    8.31
  21   1   0  105.82    6.26
  21   1   1   72.92    3.72
  21   1   2    0.38    2.79
  21   1   3   27.95    3.15
  21   1   4  206.57    7.45
  21   1   5  122.66    5.69
  21   1   6  122.79    6.37
  21   1   7    4.85    3.53
  21   1   8    0.01    4.89
  21   1   9   43.41    7.27
  21   1  10    4.00    5.10
  21   1  11    9.52    8.49
  21   1  12    1.95    4.64
  21   1  13   20.04    6.00
  21   1  14   34.95    7.04
  21   2   0   75.94    5.60
  21   2   1   77.35    4.04
  21   2   2   21.23    3.21
  21   2   3    1.86    2.88
  21   2   4    2.65    3.09
  21   2   5    0.12    3.20
  21   2   6    0.35    3.58
  21   2   7    8.88    3.62
  21   2   8   22.42    5.39
  21   2   9   39.49    5.78
  21   2  10   47.83    5.67
  21   2  11   38.72    5.58
  21   2  12   16.58    5.36
  21   2  13    4.37    4.60
  21   2  14    0.22    7.06
  21   3   0   47.77    4.42
  21   3   1   42.25    3.19
  21   3   2   12.58    2.95
  21   3   3    7.46    3.02
  21   3   4    6.76    3.16
  21   3   5   18.74    3.39
  21   3   6    0.50    3.53
  21   3   7    1.47    3.80
  21   3   8   11.36    5.19
  21   3   9    1.34    5.20
  21   3  10   65.11    6.34
  21   3  11    7.85    5.42
  21   3  12    0.21    4.69
  21   3  13    1.85    4.51
  21   3  14    0.00    5.75
  21   4   0  392.93   14.04
  21   4   1  218.20    6.40
  21   4   2   54.34    4.49
  21   4   3   10.68    3.28
  21   4   4    2.15    3.05
  21   4   5   22.97    3.53
  21   4   6    4.71    3.91
  21   4   7    6.78    3.93
  21   4   8   53.26    6.20
  21   4   9   97.58    8.08
  21   4  10  125.50    8.67
  21   4  11   82.67    6.78
  21   4  12   41.47    5.05
  21   4  13    3.15    4.40
  21   5   0    8.45    3.90
  21   5   1   10.64    2.94
  21   5   2    1.24    2.92
  21   5   3   21.25    3.22
  21   5   4    3.09    3.05
  21   5   5   11.98    3.74
  21   5   6    1.60    3.85
  21   5   7    2.01    3.84
  21   5   8    0.52    4.55
  21   5   9   26.78    5.96
  21   5  10    0.33    5.24
  21   5  11   24.86    6.59
  21   5  12    4.11    4.16
  21   5  13    6.50    5.11
  21   6   0  315.09   12.36
  21   6   1  197.73    7.42
  21   6   2   84.22    4.07
  21   6   3    0.34    3.21
  21   6   4   38.62    3.94
  21   6   5  106.35    5.78
  21   6   6   37.45    4.66
  21   6   7    3.04    3.97
  21   6   8   44.80    5.84
  21   6   9  113.20    8.61
  21   6  10  127.77    7.63
  21   6  11   69.05    6.89
  21   6  12   19.28    4.45
  21   6  13    0.36    5.83
  21   7   0    2.44    5.18
  21   7   1    2.86    2.98
  21   7   2   18.32    3.52
  21   7   3    4.68    3.25
  21   7   4   13.74    3.64
  21   7   5   16.00    3.91
  21   7   6    6.57    4.03
  21   7   7    0.88    3.96
  21   7   8    0.09    4.83
  21   7   9    0.71    5.55
  21   7  10    4.37    5.86
  21   7  11    1.11    4.93
  21   7  12    4.78    5.20
  21   7  13    7.91    4.42
  21   8   0  152.20    9.44
  21   8   1   88.61    4.57
  21   8   2    9.99    3.45
  21   8   3   26.95    3.74
  21   8   4   89.73    5.25
  21   8   5  152.51    7.07
  21   8   6   55.52    4.91
  21   8   7    6.96    4.69
  21   8   8   20.15    5.36
  21   8   9   69.08    7.49
  21   8  10   78.22    9.26
  21   8  11   18.15    5.35
  21   8  12    0.84    6.97
  21   9   0   12.35    5.21
  21   9   1    1.45    3.38
  21   9   2   15.99    3.32
  21   9   3    5.13    3.40
  21   9   4    3.49    3.54
  21   9   5    6.02    3.85
  21   9   6    0.15    3.88
  21   9   7    1.75    4.14
  21   9   8    1.23    4.98
  21   9   9    1.97    5.57
  21   9  10    5.08    7.61
  21   9  11    0.14    6.06
  21   9  12    1.92    5.14
  21  10   0   44.68    6.06
  21  10   1   12.71    3.53
  21  10   2    8.84    3.64
  21  10   3   79.77    4.83
  21  10   4  144.43    6.37
  21  10   5  146.81    7.95
  21  10   6   92.50    5.79
  21  10   7   18.99    4.44
  21  10   8    0.68    5.01
  21  10   9   27.82    6.26
  21  10  10   18.80    6.60
  21  10  11    1.52    5.65
  21  10  12   11.76    5.33
  21  11   0    1.18    4.92
  21  11   1    4.75    3.54
  21  11   2    1.07    3.65
  21  11   3    3.64    3.64
  21  11   4    8.67    3.95
  21  11   5    0.11    3.86
  21  11   6    0.13    4.08
  21  11   7   10.26    4.21
  21  11   8    7.24    5.19
  21  11   9    2.89    5.59
  21  11  10    3.98    6.44
  21  11  11    1.03    6.21
  21  12   0    9.27    8.64
  21  12   1    0.09    3.46
  21  12   2   10.77    3.90
  21  12   3   82.85    5.42
  21  12   4  129.90    7.30
  21  12   5  199.09    8.50
  21  12   6   98.18    6.63
  21  12   7   17.60    4.92
  21  12   8    0.00    5.02
  21  12   9    2.60    5.51
  21  12  10    3.55    6.32
  21  12  11    0.39    5.80
  21  13   0    0.45    5.11
  21  13   1   13.30    3.92
  21  13   2    0.27    3.88
  21  13   3    4.63    3.91
  21  13   4    2.20    4.02
  21  13   5    4.12    4.47
  21  13   6   20.75    4.88
  21  13   7    1.38    4.45
  21  13   8    2.05    5.83
  21  13   9    0.34    5.99
  21  13  10    0.02    6.27
  21  13  11    1.21    6.83
  21  14   0    3.15    5.49
  21  14   1    1.49    4.08
  21  14   2    2.55    3.95
  21  14   3   33.76    4.68
  21  14   4   98.84    8.33
  21  14   5  107.31    6.48
  21  14   6   66.06    5.86
  21  14   7   11.55    4.51
  21  14   8    0.11    6.34
  21  14   9    6.01    8.63
  21  14  10    1.47    6.94
  21  15   0   53.39    6.90
  21  15   1   14.49    4.52
  21  15   2    9.31    4.10
  21  15   3    4.20    3.99
  21  15   4    4.84    4.27
  21  15   5   21.76    4.81
  21  15   6    0.51    4.54
  21  15   7   10.31    4.55
  21  15   8   16.59    5.36
  21  15   9    4.66    6.48
  21  15  10   43.11    8.38
  21  16   0   20.20    6.02
  21  16   1    6.06    4.50
  21  16   2    0.92    4.03
  21  16   3   10.84    4.09
  21  16   4   17.97    5.40
  21  16   5   26.00    5.34
  21  16   6   15.05    4.84
  21  16   7    3.06    4.38
  21  16   8    0.28    5.41
  21  16   9    4.30    6.07
  21  17   0   42.32    8.87
  21  17   1  104.76    6.64
  21  17   2   36.70    4.97
  21  17   3    5.98    3.95
  21  17   4    0.83    4.62
  21  17   5    0.00    4.54
  21  17   6   21.97    4.98
  21  17   7   12.57    4.71
  21  17   8   17.87    5.37
  21  17   9   90.38    9.16
  21  18   0   11.25    6.51
  21  18   1    3.72    4.58
  21  18   2    0.22    4.04
  21  18   3    0.06    3.91
  21  18   4    0.03    4.54
  21  18   5    0.07    4.56
  21  18   6    0.03    5.02
  21  18   7    0.62    4.34
  21  18   8    0.24    5.19
  21  19   0  181.58   12.83
  21  19   1   61.53    5.27
  21  19   2   64.05    5.40
  21  19   3    3.42    3.88
  21  19   4    0.14    4.50
  21  19   5   18.94    5.09
  21  19   6    2.29    4.38
  21  19   7    2.29    4.30
  21  20   0    2.81    6.89
  21  20   1    0.72    4.21
  21  20   2    3.69    4.21
  21  20   3    4.80    4.13
  21  20   4    7.27    4.06
  21  20   5    3.20    4.39
  21  20   6    2.81    6.14
  21  21   0   78.26   12.28
  21  21   1  127.26    9.30
  21  21   2    2.41    5.63
  21  21   3    0.81    6.39
  21  21   4   14.17    6.96
  21  21   5    5.94    7.60
  22   0   0  658.71   32.39
  22   0   1  347.32   14.52
  22   0   2   12.52    4.89
  22   0   3  216.23   12.96
  22   0   4 1175.06   45.78
  22   0   5 1062.45   43.92
  22   0   6  966.24   43.16
  22   0   7   53.11    6.11
  22   0   8   10.86    7.79
  22   0   9  298.24   20.70
  22   0  10   48.61    8.71
  22   0  11   31.32    9.96
  22   0  12    6.37    8.07
  22   0  13  129.82   11.07
  22   0  14  294.68   23.51
  22   1   0   21.92    4.38
  22   1   1   16.64    2.95
  22   1   2   42.78    3.44
  22   1   3  114.81    4.97
  22   1   4  358.08   11.85
  22   1   5  396.95   12.43
  22   1   6  375.78   13.57
  22   1   7   49.68    4.42
  22   1   8    0.74    4.46
  22   1   9   21.47    5.39
  22   1  10    1.77    5.30
  22   1  11   10.75    6.46
  22   1  12   20.68    5.06
  22   1  13   58.20    5.89
  22   1  14  121.88   11.50
  22   2   0  569.92   19.72
  22   2   1  395.71   10.22
  22   2   2    0.09    2.87
  22   2   3  254.08    9.61
  22   2   4  740.47   21.81
  22   2   5  954.28   29.83
  22   2   6  603.59   18.71
  22   2   7   50.67    4.57
  22   2   8   55.81    5.73
  22   2   9  169.70   10.08
  22   2  10  182.52    9.63
  22   2  11   36.58    6.32
  22   2  12    2.16    4.62
  22   2  13  103.01    6.58
  22   3   0   26.29    4.19
  22   3   1   14.48    3.01
  22   3   2  115.60    4.82
  22   3   3  181.39    6.67
  22   3   4  398.93   12.39
  22   3   5  312.36   11.26
  22   3   6  337.74   13.76
  22   3   7   51.30    5.06
  22   3   8   11.11    5.07
  22   3   9    0.64    5.61
  22   3  10   48.31    7.37
  22   3  11   44.81    5.83
  22   3  12   56.28    5.75
  22   3  13   91.05    6.68
  22   4   0  312.45   12.52
  22   4   1  196.65    6.98
  22   4   2    3.18    2.93
  22   4   3  100.88    5.07
  22   4   4  491.57   13.95
  22   4   5  417.06   13.28
  22   4   6  376.40   13.10
  22   4   7   22.18    4.35
  22   4   8   20.12    4.65
  22   4   9  213.10   12.22
  22   4  10   41.02    5.93
  22   4  11   50.90    5.95
  22   4  12    0.25    4.57
  22   4  13   60.32    5.64
  22   5   0   83.06    5.76
  22   5   1   88.12    4.26
  22   5   2  153.86    6.94
  22   5   3  190.41    6.88
  22   5   4  170.15    6.66
  22   5   5   87.98    5.81
  22   5   6   94.99    6.43
  22   5   7   37.11    4.66
  22   5   8   31.43    4.95
  22   5   9   28.24    5.94
  22   5  10   95.08    6.61
  22   5  11   73.53    6.32
  22   5  12   58.28    8.86
  22   5  13   90.71    8.39
  22   6   0   49.75    5.03
  22   6   1   15.22    3.32
  22   6   2    0.39    3.07
  22   6   3   86.69    4.71
  22   6   4  190.67    7.24
  22   6   5  201.25    8.43
  22   6   6  139.14    7.43
  22   6   7    7.29    4.09
  22   6   8    7.81    4.88
  22   6   9   29.53    7.04
  22   6  10   20.03    4.98
  22   6  11    1.07    4.95
  22   6  12    1.54    4.38
  22   6  13   41.24    5.21
  22   7   0  131.43    7.82
  22   7   1   94.15    4.94
  22   7   2   91.70    5.32
  22   7   3   28.02    3.67
  22   7   4    7.25    3.60
  22   7   5    0.35    4.58
  22   7   6    1.95    4.08
  22   7   7    0.13    4.06
  22   7   8   20.29    4.93
  22   7   9   56.86    6.74
  22   7  10  129.44    7.81
  22   7  11   71.75    6.41
  22   7  12   34.47    4.83
  22   8   0    2.06    4.87
  22   8   1    0.46    3.30
  22   8   2   52.69    4.13
  22   8   3   18.53    3.62
  22   8   4   38.78    4.22
  22   8   5   56.16    4.89
  22   8   6   42.41    5.11
  22   8   7    2.59    4.26
  22   8   8    0.04    4.61
  22   8   9    0.24    5.45
  22   8  10   12.39    5.75
  22   8  11   12.73    5.94
  22   8  12    7.00    5.06
  22   9   0  156.04   11.78
  22   9   1   96.02    5.07
  22   9   2    4.33    3.43
  22   9   3   17.11    3.61
  22   9   4   57.96    4.52
  22   9   5   73.56    5.17
  22   9   6   78.91    5.82
  22   9   7   28.29    4.89
  22   9   8    5.87    4.78
  22   9   9   78.55    7.21
  22   9  10  116.42    9.48
  22   9  11   61.93    7.06
  22   9  12    1.17    5.18
  22  10   0   16.20    9.59
  22  10   1   50.98    4.28
  22  10   2    6.00    3.77
  22  10   3   20.14    3.91
  22  10   4   13.05    3.87
  22  10   5    0.07    3.99
  22  10   6    0.39    4.15
  22  10   7    1.89    4.33
  22  10   8    9.08    4.89
  22  10   9   21.56    5.68
  22  10  10   51.85    7.26
  22  10  11   35.83    6.20
  22  11   0  169.61   11.59
  22  11   1   82.29    5.09
  22  11   2    0.15    3.65
  22  11   3   78.88    5.25
  22  11   4  231.44    9.42
  22  11   5  326.89   11.54
  22  11   6  210.05    8.83
  22  11   7   61.53    5.70
  22  11   8    5.63    5.22
  22  11   9   65.95    6.98
  22  11  10  122.09    8.99
  22  11  11   27.10    5.87
  22  12   0   70.72    7.38
  22  12   1   21.65    4.11
  22  12   2   12.86    3.86
  22  12   3    1.78    3.88
  22  12   4    7.63    4.18
  22  12   5   13.88    4.54
  22  12   6    2.47    4.57
  22  12   7    6.33    5.09
  22  12   8   21.02    5.33
  22  12   9   28.84    6.33
  22  12  10   61.93    8.17
  22  12  11   13.20    6.58
  22  13   0  161.75    9.96
  22  13   1  109.59    7.95
  22  13   2    2.23    4.01
  22  13   3  102.16    5.72
  22  13   4  367.58   12.76
  22  13   5  425.34   16.03
  22  13   6  290.13   11.98
  22  13   7   59.54    5.82
  22  13   8   10.43    5.92
  22  13   9   91.88    8.14
  22  13  10   82.47   11.48
  22  14   0    7.27    7.15
  22  14   1   17.72    4.28
  22  14   2    0.17    4.02
  22  14   3   30.34    4.50
  22  14   4   32.50    4.79
  22  14   5   20.69    5.82
  22  14   6   52.34    5.66
  22  14   7    0.43    4.58
  22  14   8    0.08    5.39
  22  14   9   16.22    6.45
  22  14  10    0.53    7.11
  22  15   0  229.56   11.78
  22  15   1  100.56    6.92
  22  15   2    2.22    3.97
  22  15   3   93.73    5.56
  22  15   4  250.45    9.90
  22  15   5  333.38   13.16
  22  15   6  211.76   10.41
  22  15   7   44.52    5.23
  22  15   8   18.24    5.74
  22  15   9   71.48    7.46
  22  16   0    2.59    6.21
  22  16   1   13.77    4.55
  22  16   2   16.01    4.46
  22  16   3   44.55    4.83
  22  16   4   57.93    5.79
  22  16   5   76.40    8.82
  22  16   6   11.53    4.75
  22  16   7   49.55    5.12
  22  16   8    4.65    5.35
  22  16   9   14.05    6.43
  22  17   0  134.22   10.05
  22  17   1   68.86    5.62
  22  17   2    0.52    4.08
  22  17   3   37.62    4.50
  22  17   4  119.38    7.39
  22  17   5  131.63    9.38
  22  17   6   99.16    6.10
  22  17   7   11.38    4.65
  22  17   8    5.48    5.14
  22  18   0   85.19    9.36
  22  18   1   26.85    4.57
  22  18   2   69.78    5.44
  22  18   3   42.62    4.67
  22  18   4   44.05    5.49
  22  18   5   12.88    4.52
  22  18   6   56.39    5.36
  22  18   7   20.89    4.79
  22  19   0   32.34    7.35
  22  19   1   11.65    4.28
  22  19   2    0.29    4.42
  22  19   3   11.33    4.28
  22  19   4   21.28    4.36
  22  19   5   39.94    4.95
  22  19   6   17.99    4.56
  22  20   0  109.14   10.07
  22  20   1  153.85    7.32
  22  20   2   18.78    4.22
  22  20   3   30.46    5.06
  22  20   4    1.62    4.49
  22  20   5    1.65    4.22
  22  21   0    0.08    6.12
  22  21   1    0.25    4.51
  22  21   2    0.71    3.92
  22  21   3    3.85    4.65
  22  21   4    3.03    4.32
  22  22   0  169.10   18.73
  22  22   1   77.41    8.47
  22  22   2   48.31    6.43
  23   0   0  203.48   15.12
  23   0   1  114.87    8.13
  23   0   2   34.41    4.94
  23   0   3    2.27    4.03
  23   0   4    1.16    4.57
  23   0   5    0.51    5.71
  23   0   6    3.54    5.31
  23   0   7   14.61    5.36
  23   0   8   15.73    9.89
  23   0   9   41.72    8.96
  23   0  10   87.12   10.65
  23   0  11   86.77   12.10
  23   0  12   21.45    6.96
  23   0  13    3.70    6.16
  23   0  14    1.73    7.88
  23   1   0  106.31    6.90
  23   1   1   29.82    3.31
  23   1   2    2.18    2.95
  23   1   3   39.98    3.61
  23   1   4   99.78    5.09
  23   1   5  191.34    7.21
  23   1   6   65.95    5.15
  23   1   7   15.86    3.88
  23   1   8   24.49    4.93
  23   1   9   13.51    5.44
  23   1  10   43.73    6.57
  23   1  11    1.51    5.31
  23   1  12    2.57    4.60
  23   1  13   31.18    4.99
  23   2   0  276.78   12.57
  23   2   1  214.78    7.86
  23   2   2   47.78    3.72
  23   2   3    3.01    2.95
  23   2   4    0.69    3.18
  23   2   5    4.35    3.39
  23   2   6    0.18    3.68
  23   2   7    6.24    4.01
  23   2   8   26.83    5.35
  23   2   9   74.67    6.80
  23   2  10  118.73    8.03
  23   2  11   92.85    7.44
  23   2  12   32.60    5.04
  23   2  13    6.80    5.40
  23   3   0  107.66    6.19
  23   3   1   60.72    4.01
  23   3   2   11.35    3.05
  23   3   3    0.09    3.10
  23   3   4   17.32    3.37
  23   3   5   12.98    3.50
  23   3   6   10.26    4.11
  23   3   7    0.02    3.78
  23   3   8   19.68    4.47
  23   3   9  117.59    7.93
  23   3  10   30.09    5.82
  23   3  11   32.55    5.64
  23   3  12    2.45    4.62
  23   3  13    2.12    4.32
  23   4   0  201.76    9.97
  23   4   1  175.42    6.02
  23   4   2   49.45    3.75
  23   4   3    1.25    3.09
  23   4   4   22.41    3.65
  23   4   5   38.02    3.94
  23   4   6   25.54    4.33
  23   4   7    0.52    3.98
  23   4   8   19.72    5.65
  23   4   9   62.22    7.25
  23   4  10  105.78    7.75
  23   4  11   74.77    6.81
  23   4  12   15.08    4.87
  23   4  13    2.55    4.42
  23   5   0   65.57    7.08
  23   5   1   32.94    3.59
  23   5   2   46.70    3.79
  23   5   3    6.03    3.22
  23   5   4    0.68    3.39
  23   5   5    2.22    3.78
  23   5   6    0.04    4.03
  23   5   7    5.65    4.70
  23   5   8   58.51    5.92
  23   5   9   53.55    6.86
  23   5  10   64.93    6.03
  23   5  11   14.76    5.52
  23   5  12   12.08    4.68
  23   6   0   87.23    6.52
  23   6   1   64.68    4.12
  23   6   2    8.81    3.36
  23   6   3   15.56    3.47
  23   6   4   80.25    5.04
  23   6   5  111.18    6.81
  23   6   6   61.57    5.25
  23   6   7   14.07    4.39
  23   6   8    0.24    4.59
  23   6   9   34.89    6.23
  23   6  10   57.20    5.66
  23   6  11   30.47    5.67
  23   6  12    0.48    4.47
  23   7   0   45.33    5.91
  23   7   1   44.25    4.15
  23   7   2    5.08    3.45
  23   7   3   20.11    3.69
  23   7   4    3.14    3.61
  23   7   5    4.82    3.87
  23   7   6    0.25    4.18
  23   7   7    9.53    4.41
  23   7   8   46.95    5.37
  23   7   9   40.34    6.75
  23   7  10   22.11    5.59
  23   7  11    8.68    5.62
  23   7  12   14.67    5.17
  23   8   0   17.10    5.54
  23   8   1    9.15    3.61
  23   8   2   24.86    3.59
  23   8   3   81.81    4.81
  23   8   4  146.97    8.57
  23   8   5  138.11   10.13
  23   8   6  162.49    8.02
  23   8   7   59.31    5.55
  23   8   8    9.18    4.76
  23   8   9   11.15    6.76
  23   8  10   12.16    5.44
  23   8  11    2.29    5.64
  23   8  12   19.01    5.70
  23   9   0   91.72    7.38
  23   9   1   15.64    3.86
  23   9   2   29.97    4.22
  23   9   3    0.22    3.48
  23   9   4    1.88    4.26
  23   9   5    0.68    4.01
  23   9   6    0.78    4.42
  23   9   7    0.66    4.38
  23   9   8   16.45    4.95
  23   9   9   23.19    5.87
  23   9  10   12.48    5.96
  23   9  11    8.53    5.60
  23  10   0    0.33    5.75
  23  10   1    2.45    3.77
  23  10   2   46.38    4.49
  23  10   3  129.54    6.57
  23  10   4  204.66    9.71
  23  10   5  241.14    9.76
  23  10   6  190.00   10.45
  23  10   7   91.35    6.25
  23  10   8   12.48    4.94
  23  10   9    0.62    5.39
  23  10  10    1.80    6.25
  23  10  11    5.27    5.73
  23  11   0   56.61    6.62
  23  11   1   54.03    5.52
  23  11   2    9.83    3.97
  23  11   3    1.50    3.85
  23  11   4    0.80    4.14
  23  11   5    1.68    4.56
  23  11   6    1.86    4.57
  23  11   7    5.41    4.51
  23  11   8    3.24    8.82
  23  11   9   24.65    6.02
  23  11  10   10.65    6.45
  23  12   0    5.12    6.02
  23  12   1    0.66    3.99
  23  12   2   19.19    4.24
  23  12   3   98.00    5.55
  23  12   4  250.57    9.46
  23  12   5  221.19    9.63
  23  12   6  163.82    8.71
  23  12   7   62.78    6.02
  23  12   8   10.34    5.74
  23  12   9    0.00    5.90
  23  12  10    0.19   11.36
  23  13   0  101.39    8.42
  23  13   1   34.31    4.76
  23  13   2   10.65    4.20
  23  13   3    7.20    4.10
  23  13   4    2.07    4.33
  23  13   5   14.50    4.51
  23  13   6    0.43    4.89
  23  13   7    0.04    4.68
  23  13   8   28.36    5.99
  23  13   9   18.23    7.36
  23  13  10   41.43    8.32
  23  14   0   16.73    6.47
  23  14   1    3.31    4.44
  23  14   2    6.60    4.07
  23  14   3   65.74    5.25
  23  14   4  109.31    6.37
  23  14   5  126.73    7.33
  23  14   6   82.72    6.00
  23  14   7   38.03    5.39
  23  14   8    0.37    5.39
  23  14   9    3.92    6.01
  23  15   0   54.58    8.31
  23  15   1   73.29    5.82
  23  15   2   36.84    4.95
  23  15   3    4.94    3.98
  23  15   4    0.05    4.57
  23  15   5    0.34    4.58
  23  15   6   15.37    4.73
  23  15   7   23.85    5.77
  23  15   8   31.35    8.95
  23  16   0   36.73    7.41
  23  16   1   24.61    4.68
  23  16   2    0.51    4.30
  23  16   3   12.71    4.44
  23  16   4   38.65    5.19
  23  16   5   39.12    5.30
  23  16   6   21.88    4.84
  23  16   7    3.45    4.55
  23  16   8    0.74    5.19
  23  17   0  152.22   11.47
  23  17   1   47.27    6.06
  23  17   2   52.88    5.27
  23  17   3    5.00    3.91
  23  17   4    0.42    4.40
  23  17   5    7.97    4.78
  23  17   6    2.08    4.76
  23  17   7    5.07    4.57
  23  18   0   35.41    7.51
  23  18   1   29.07    4.46
  23  18   2    6.98    4.15
  23  18   3    0.01    4.46
  23  18   4    3.96    4.49
  23  18   5    5.26    4.49
  23  18   6    0.57    4.25
  23  19   0   85.88   15.01
  23  19   1   95.42    6.56
  23  19   2    2.03    3.99
  23  19   3    2.64    4.44
  23  19   4    3.67    3.96
  23  19   5    5.21    4.44
  23  20   0   26.36   13.77
  23  20   1   23.02    4.75
  23  20   2   11.26    4.15
  23  20   3    3.46    4.56
  23  20   4    0.16    4.28
  23  21   0   75.88   10.22
  23  21   1   18.86    5.75
  23  21   2   14.59    4.11
  24   0   0 1063.79   53.01
  24   0   1  454.06   17.09
  24   0   2   43.04    4.79
  24   0   3  215.52   11.17
  24   0   4  561.39   24.35
  24   0   5  989.81   41.37
  24   0   6  307.22   16.26
  24   0   7   29.80    7.38
  24   0   8  151.94   12.04
  24   0   9  164.31   13.87
  24   0  10  479.17   40.39
  24   0  11   93.70   12.28
  24   0  12    0.48    6.29
  24   0  13  120.62   11.40
  24   1   0    8.88    4.14
  24   1   1    6.82    3.49
  24   1   2    2.53    2.98
  24   1   3  104.64    5.98
  24   1   4  145.60    9.70
  24   1   5  222.68    9.30
  24   1   6   81.32    5.35
  24   1   7   15.61    3.91
  24   1   8    2.12    5.24
  24   1   9    0.15    5.16
  24   1  10   20.28    5.66
  24   1  11    1.67    5.77
  24   1  12   21.08    6.76
  24   1  13   51.68    5.40
  24   2   0  726.83   25.96
  24   2   1  460.72   12.77
  24   2   2   37.98    3.51
  24   2   3   89.10    4.78
  24   2   4  353.79   14.09
  24   2   5  440.45   13.87
  24   2   6  182.72    7.80
  24   2   7    6.38    4.16
  24   2   8  104.87    6.94
  24   2   9  314.04   13.76
  24   2  10  319.04   14.34
  24   2  11  143.90   10.24
  24   2  12    0.74    5.77
  24   2  13   59.66    5.52
  24   3   0    1.16    4.17
  24   3   1   10.19    3.17
  24   3   2   29.72    3.54
  24   3   3   89.81    4.94
  24   3   4   87.38    4.81
  24   3   5   98.24    7.15
  24   3   6   26.40    4.52
  24   3   7   16.60    4.30
  24   3   8    1.78    4.65
  24   3   9   13.83    6.28
  24   3  10    1.01    7.51
  24   3  11    9.94    4.89
  24   3  12   26.36    5.03
  24   3  13   55.13    5.61
  24   4   0  323.78   17.06
  24   4   1  169.90    6.55
  24   4   2   52.81    3.90
  24   4   3   51.34    4.02
  24   4   4  139.28    7.24
  24   4   5  203.72    8.86
  24   4   6   75.88    5.44
  24   4   7    0.83    4.61
  24   4   8   85.74    6.35
  24   4   9  112.45    9.18
  24   4  10  235.03   13.53
  24   4  11   60.83    5.96
  24   4  12    0.81    5.30
  24   5   0   30.26    4.97
  24   5   1   29.36    3.68
  24   5   2   21.49    3.55
  24   5   3   25.72    3.67
  24   5   4    6.20    3.67
  24   5   5    0.51    3.68
  24   5   6    0.03    4.05
  24   5   7    0.24    4.19
  24   5   8    6.30    4.66
  24   5   9   41.79    7.01
  24   5  10   18.15    4.98
  24   5  11   21.15    5.33
  24   5  12   16.68    5.92
  24   6   0   52.31    6.27
  24   6   1   67.61    4.54
  24   6   2    0.10    3.40
  24   6   3    2.54    3.41
  24   6   4   42.33    4.31
  24   6   5   92.60    5.73
  24   6   6   26.69    4.66
  24   6   7    0.37    5.36
  24   6   8   24.83    5.05
  24   6   9   26.62    6.27
  24   6  10   40.70    5.50
  24   6  11    8.75    5.08
  24   6  12    0.08    4.57
  24   7   0   87.46    9.87
  24   7   1   29.39    3.96
  24   7   2    1.65    3.50
  24   7   3    7.24    3.58
  24   7   4   32.95    4.62
  24   7   5   58.18    4.98
  24   7   6   83.55    5.85
  24   7   7   18.94    4.61
  24   7   8    3.15    4.77
  24   7   9   68.35    7.37
  24   7  10   40.78    5.96
  24   7  11   23.13    7.23
  24   8   0    2.38    6.35
  24   8   1    0.47    3.46
  24   8   2    0.01    3.42
  24   8   3   11.94    3.65
  24   8   4   20.69    4.49
  24   8   5    4.29    4.00
  24   8   6    0.02    4.51
  24   8   7    0.23    4.34
  24   8   8    0.03    4.70
  24   8   9    1.12    5.58
  24   8  10    0.05    5.02
  24   8  11    3.06    5.56
  24   9   0  140.27   10.18
  24   9   1   47.43    4.42
  24   9   2    0.25    3.75
  24   9   3   66.02    4.68
  24   9   4  152.00    7.27
  24   9   5  287.75   11.01
  24   9   6  237.91   10.09
  24   9   7   64.17    5.37
  24   9   8    3.40    4.68
  24   9   9   69.95    7.43
  24   9  10   70.46    6.84
  24   9  11   24.85    6.50
  24  10   0   38.62    6.80
  24  10   1    7.32    3.99
  24  10   2   14.89    4.05
  24  10   3   14.02    4.12
  24  10   4    0.15    4.08
  24  10   5    7.69    4.34
  24  10   6    2.27    4.66
  24  10   7    0.87    6.20
  24  10   8   11.19    6.34
  24  10   9   21.62    5.83
  24  10  10   24.28    6.24
  24  11   0  155.91   10.39
  24  11   1   97.78    5.93
  24  11   2    5.34    3.96
  24  11   3   87.52    6.57
  24  11   4  376.65   18.12
  24  11   5  438.77   16.49
  24  11   6  290.09   12.31
  24  11   7   69.11    6.09
  24  11   8    4.12    5.06
  24  11   9  105.66    7.74
  24  11  10   85.32    8.54
  24  12   0   31.36    6.74
  24  12   1   34.74    4.50
  24  12   2   14.25    4.18
  24  12   3    3.79    4.12
  24  12   4    5.61    4.24
  24  12   5   11.67    4.85
  24  12   6   33.57    5.37
  24  12   7    0.00    4.66
  24  12   8    0.91    5.63
  24  12   9   39.64    7.49
  24  13   0  291.15   14.83
  24  13   1  145.34    7.50
  24  13   2    3.94    4.06
  24  13   3   93.18    8.08
  24  13   4  289.74   13.44
  24  13   5  403.11   16.04
  24  13   6  243.10   10.94
  24  13   7   42.80    5.51
  24  13   8   21.14    5.99
  24  13   9  119.76    8.71
  24  14   0   30.68    7.24
  24  14   1    2.29    4.27
  24  14   2    0.38    4.20
  24  14   3    5.43    4.11
  24  14   4   25.70    4.79
  24  14   5   50.46    5.51
  24  14   6    2.27    5.22
  24  14   7   21.74    4.90
  24  14   8    0.10    5.26
  24  15   0  264.93   14.05
  24  15   1  126.85    7.57
  24  15   2    6.16    4.42
  24  15   3   34.84    4.64
  24  15   4  153.38    8.03
  24  15   5  216.12   10.21
  24  15   6  117.48    7.03
  24  15   7    6.37    4.68
  24  15   8   29.41    5.98
  24  16   0   19.77    7.82
  24  16   1    2.54    4.34
  24  16   2   20.42    4.59
  24  16   3    9.79    4.17
  24  16   4   20.31    4.69
  24  16   5    5.67    4.62
  24  16   6   36.43    5.24
  24  16   7    5.28    5.04
  24  17   0  102.54   14.17
  24  17   1   69.03    5.55
  24  17   2    8.45    4.79
  24  17   3    3.83    4.54
  24  17   4   38.50    4.66
  24  17   5   55.10    5.58
  24  17   6   26.35    4.86
  24  18   0   65.25    8.10
  24  18   1   93.00    6.24
  24  18   2    6.23    4.04
  24  18   3    8.53    4.46
  24  18   4    0.02    5.19
  24  18   5    1.15    4.46
  24  19   0   20.85    8.32
  24  19   1   14.88    4.31
  24  19   2    3.23    3.91
  24  19   3    0.52    4.57
  24  19   4    1.37    5.15
  24  20   0  154.29   14.62
  24  20   1   55.62    5.36
  24  20   2   38.92    4.35
  25   0   0  330.61   19.76
  25   0   1  124.33    8.05
  25   0   2   38.09    5.43
  25   0   3   14.25    4.47
  25   0   4    0.45    4.75
  25   0   5    2.27    5.02
  25   0   6    0.35    5.55
  25   0   7    4.77    5.41
  25   0   8   42.13    9.00
  25   0   9   98.22   10.12
  25   0  10   74.66   10.12
  25   0  11   62.31   11.55
  25   0  12   36.20    7.20
  25   0  13    6.39    8.95
  25   1   0  120.27    7.14
  25   1   1   75.79    4.45
  25   1   2    5.72    3.09
  25   1   3    6.39    3.22
  25   1   4   60.26    4.34
  25   1   5   34.76    3.98
  25   1   6   26.62    4.34
  25   1   7    0.19    4.53
  25   1   8   15.11    5.05
  25   1   9   97.78    7.52
  25   1  10   42.37    6.03
  25   1  11   41.40    6.07
  25   1  12    0.19    4.44
  25   1  13   13.94    4.91
  25   2   0  112.23    7.41
  25   2   1   90.53    4.58
  25   2   2   32.79    3.60
  25   2   3    7.51    3.23
  25   2   4    0.36    3.19
  25   2   5    7.29    3.65
  25   2   6    2.72    3.91
  25   2   7    2.46    4.09
  25   2   8   37.37    5.42
  25   2   9   55.70    6.43
  25   2  10   55.31    6.91
  25   2  11   24.78    5.55
  25   2  12   19.14    4.77
  25   3   0  166.77    8.70
  25   3   1  115.07    5.32
  25   3   2   67.22    4.20
  25   3   3    0.36    3.25
  25   3   4    3.26    3.36
  25   3   5    9.13    3.75
  25   3   6    2.92    4.23
  25   3   7   10.33    4.34
  25   3   8   63.89    6.10
  25   3   9  106.07    8.14
  25   3  10  143.54   11.63
  25   3  11   54.18    5.76
  25   3  12    5.62    4.34
  25   4   0   36.75    6.28
  25   4   1   18.27    3.44
  25   4   2    6.28    3.29
  25   4   3    1.95    3.33
  25   4   4   18.63    3.73
  25   4   5   27.22    4.27
  25   4   6   15.26    4.47
  25   4   7    8.27    4.37
  25   4   8    2.73    4.80
  25   4   9   20.93    5.92
  25   4  10   20.52    4.87
  25   4  11    7.51    4.88
  25   4  12    2.40    4.42
  25   5   0  124.49    7.74
  25   5   1  174.05    6.39
  25   5   2   15.89    3.51
  25   5   3   23.65    3.73
  25   5   4    0.46    3.68
  25   5   5   15.80    4.24
  25   5   6    1.40    4.44
  25   5   7   41.75    4.93
  25   5   8   81.38    6.63
  25   5   9  109.39    8.36
  25   5  10   90.34    6.71
  25   5  11   58.17    5.94
  25   5  12    7.51    4.61
  25   6   0    3.00    5.33
  25   6   1    1.09    3.55
  25   6   2   10.40    3.67
  25   6   3   39.60    4.31
  25   6   4   60.03    4.92
  25   6   5   78.46    5.49
  25   6   6   90.78    6.52
  25   6   7   74.33    6.52
  25   6   8    5.26    4.79
  25   6   9    2.85    6.72
  25   6  10    1.41    5.21
  25   6  11    0.89    5.53
  25   7   0  166.60   15.48
  25   7   1   75.89    4.90
  25   7   2   56.80    4.41
  25   7   3    1.00    3.55
  25   7   4    8.79    4.00
  25   7   5    5.34    4.33
  25   7   6    0.65    4.47
  25   7   7   24.24    4.72
  25   7   8   45.67    5.36
  25   7   9   67.52    7.13
  25   7  10   67.69    6.42
  25   7  11   37.26    6.10
  25   8   0    5.17    5.49
  25   8   1   25.63    4.29
  25   8   2   51.91    4.45
  25   8   3   91.73    5.67
  25   8   4  118.09    6.19
  25   8   5  211.98    9.12
  25   8   6  199.88   10.04
  25   8   7  130.41    7.83
  25   8   8   20.54    4.90
  25   8   9    3.32    5.29
  25   8  10    1.51    5.07
  25   8  11   14.77    6.27
  25   9   0   96.31    9.36
  25   9   1  121.23    6.39
  25   9   2    9.04    4.09
  25   9   3    2.00    3.95
  25   9   4    1.26    3.96
  25   9   5    0.09    4.26
  25   9   6    0.60    4.63
  25   9   7   19.14    5.56
  25   9   8   13.71    4.83
  25   9   9   47.39    6.10
  25   9  10   38.13    5.78
  25  10   0   25.07    6.58
  25  10   1   23.13    4.36
  25  10   2   30.26    4.41
  25  10   3  114.31    6.11
  25  10   4  245.74    9.96
  25  10   5  247.98   10.78
  25  10   6  197.66    9.31
  25  10   7  123.93    6.91
  25  10   8   25.50    5.46
  25  10   9    2.07    5.14
  25  10  10    5.99    6.57
  25  11   0   97.36    9.24
  25  11   1   47.46    4.82
  25  11   2    6.92    4.15
  25  11   3    1.97    4.03
  25  11   4    3.78    4.58
  25  11   5    4.92    5.03
  25  11   6    5.91    4.88
  25  11   7    1.50    4.65
  25  11   8   23.77    6.23
  25  11   9   17.91    6.33
  25  12   0    2.61    6.51
  25  12   1    1.58    4.26
  25  12   2   19.00    4.32
  25  12   3   96.06    6.09
  25  12   4  160.84    7.76
  25  12   5  187.75    9.50
  25  12   6  137.59    9.01
  25  12   7   61.05    5.94
  25  12   8    3.42    5.41
  25  12   9    0.48    6.53
  25  13   0   24.06    6.51
  25  13   1   58.44    5.58
  25  13   2   14.29    4.62
  25  13   3    0.32    4.04
  25  13   4    0.14    4.54
  25  13   5    0.48    4.88
  25  13   6    5.98    4.83
  25  13   7   25.36    5.07
  25  13   8   18.36    5.78
  25  14   0   40.81    7.31
  25  14   1    8.96    4.40
  25  14   2    1.92    4.27
  25  14   3   28.92    4.70
  25  14   4   76.14    6.11
  25  14   5   91.27    6.61
  25  14   6   57.80    6.06
  25  14   7   10.12    4.59
  25  14   8    0.92    6.03
  25  15   0   84.16    9.73
  25  15   1   25.97    4.50
  25  15   2   28.00    4.75
  25  15   3    1.80    5.34
  25  15   4    0.65    4.15
  25  15   5    2.71    4.69
  25  15   6    8.35    4.99
  25  15   7    4.82    4.42
  25  16   0   56.23   10.46
  25  16   1   34.89    5.70
  25  16   2    7.91    4.16
  25  16   3    1.69    4.38
  25  16   4   19.98    4.37
  25  16   5   34.85    5.12
  25  16   6    9.33    4.58
  25  17   0   44.10    7.56
  25  17   1   76.05    5.87
  25  17   2    0.18    4.00
  25  17   3    3.29    4.97
  25  17   4    0.64    4.04
  25  17   5    0.24    4.41
  25  18   0   61.20    7.87
  25  18   1   45.89    5.08
  25  18   2   25.90    4.62
  25  18   3    2.19    4.24
  25  18   4    3.25    4.42
  25  19   0   55.15   11.54
  25  19   1   11.91    4.56
  25  19   2    7.44    4.61
  26   0   0  986.33   40.54
  26   0   1  592.49   22.89
  26   0   2   65.21    8.00
  26   0   3    5.04    4.58
  26   0   4  209.08   11.42
  26   0   5  156.25   10.03
  26   0   6   95.55    8.12
  26   0   7    1.25    5.69
  26   0   8  133.47   14.92
  26   0   9  657.06   35.61
  26   0  10  342.25   22.16
  26   0  11  266.80   19.28
  26   0  12    8.53    6.73
  26   1   0   45.50    5.24
  26   1   1   46.77    3.92
  26   1   2    0.01    2.99
  26   1   3    9.56    3.34
  26   1   4   46.55    4.71
  26   1   5   19.20    3.76
  26   1   6   15.27    4.18
  26   1   7    2.18    4.11
  26   1   8    0.55    5.09
  26   1   9   50.04    6.46
  26   1  10   20.79    5.69
  26   1  11   17.72    5.61
  26   1  12    0.55    4.48
  26   2   0  629.15   24.00
  26   2   1  422.12   12.86
  26   2   2  126.88    5.37
  26   2   3    0.64    3.18
  26   2   4   43.16    4.05
  26   2   5   63.13    4.43
  26   2   6   29.80    6.51
  26   2   7    5.84    4.41
  26   2   8  181.81    8.97
  26   2   9  415.60   18.97
  26   2  10  370.35   15.07
  26   2  11  168.20    9.04
  26   2  12   18.32    4.78
  26   3   0   11.33    4.92
  26   3   1    4.34    3.28
  26   3   2    0.19    3.22
  26   3   3    0.05    3.29
  26   3   4    2.19    3.35
  26   3   5    0.64    3.91
  26   3   6    2.47    4.40
  26   3   7    0.53    4.32
  26   3   8    0.67    4.86
  26   3   9    5.99    5.52
  26   3  10    1.08    5.18
  26   3  11    3.38    4.87
  26   3  12    0.22    4.58
  26   4   0  247.24   11.90
  26   4   1  238.61    8.32
  26   4   2   33.80    3.91
  26   4   3   11.28    3.73
  26   4   4    9.29    3.96
  26   4   5   28.62    4.73
  26   4   6   10.93    4.55
  26   4   7   14.29    4.45
  26   4   8   82.96    6.36
  26   4   9  195.61   10.37
  26   4  10  145.33    7.96
  26   4  11   93.29    6.85
  26   5   0    0.59    4.91
  26   5   1    0.44    3.36
  26   5   2    5.36    3.66
  26   5   3   12.70    3.78
  26   5   4   27.26    4.06
  26   5   5   27.79    4.65
  26   5   6   33.68    5.02
  26   5   7    8.27    4.59
  26   5   8    0.52    4.55
  26   5   9    2.28    5.38
  26   5  10    2.21    4.53
  26   5  11    0.29    5.41
  26   6   0   80.12    7.48
  26   6   1   18.36    3.91
  26   6   2   33.80    3.78
  26   6   3    0.08    3.56
  26   6   4    3.97    3.93
  26   6   5    4.06    4.28
  26   6   6    0.25    4.54
  26   6   7    0.50    4.42
  26   6   8    9.68    4.69
  26   6   9   34.72    5.92
  26   6  10   23.84    5.62
  26   6  11   15.28    5.48
  26   7   0   27.82    6.29
  26   7   1    5.29    3.86
  26   7   2    4.97    3.74
  26   7   3   42.77    4.38
  26   7   4  112.39    6.13
  26   7   5  212.69    9.27
  26   7   6  152.56    8.10
  26   7   7   35.31    5.00
  26   7   8    2.98    4.60
  26   7   9   12.89    5.46
  26   7  10   22.73    5.39
  26   8   0    2.23    6.06
  26   8   1    0.03    4.03
  26   8   2    4.57    3.98
  26   8   3    4.77    3.91
  26   8   4    1.58    3.97
  26   8   5    3.05    4.38
  26   8   6    0.01    5.62
  26   8   7    0.33    4.48
  26   8   8    5.92    4.71
  26   8   9    0.72    5.10
  26   8  10    4.86    5.96
  26   9   0   56.51    8.01
  26   9   1   55.43    5.00
  26   9   2    0.04    3.96
  26   9   3   68.18    5.64
  26   9   4  299.27   10.77
  26   9   5  310.65   12.46
  26   9   6  229.70    9.99
  26   9   7   53.13    5.42
  26   9   8    2.32    4.76
  26   9   9   51.55    6.22
  26   9  10   54.38    7.20
  26  10   0   31.08    9.81
  26  10   1   47.49    4.96
  26  10   2   22.60    4.35
  26  10   3    0.02    3.97
  26  10   4    3.98    4.35
  26  10   5    4.26    5.03
  26  10   6   19.65    5.15
  26  10   7    3.02    6.58
  26  10   8    5.99    5.03
  26  10   9   35.29    5.69
  26  11   0  215.34   16.07
  26  11   1  107.52    6.65
  26  11   2    3.64    4.17
  26  11   3   95.84    6.52
  26  11   4  266.21   11.57
  26  11   5  306.39   14.76
  26  11   6  192.43    9.90
  26  11   7   35.01    5.18
  26  11   8   15.51    5.68
  26  11   9  100.62    7.62
  26  12   0   89.35    8.89
  26  12   1   36.36    4.88
  26  12   2    7.86    4.39
  26  12   3    0.21    4.23
  26  12   4   12.51    4.46
  26  12   5   28.65    5.30
  26  12   6    0.26    5.29
  26  12   7    6.01    4.79
  26  12   8    7.14    5.40
  26  13   0  264.75   16.04
  26  13   1  160.20    7.82
  26  13   2    5.87    4.31
  26  13   3   30.16    4.70
  26  13   4  156.35    7.47
  26  13   5  179.58    9.09
  26  13   6   95.32    6.64
  26  13   7    0.96    6.33
  26  14   0    3.96    6.24
  26  14   1   19.31    4.87
  26  14   2    0.07    4.05
  26  14   3    0.26    4.17
  26  14   4    8.43    4.44
  26  14   5    2.91    4.79
  26  14   6   20.43    5.09
  26  14   7    0.20    4.37
  26  15   0  182.43   13.20
  26  15   1  113.92    7.23
  26  15   2   26.53    4.46
  26  15   3    1.41    4.50
  26  15   4   32.76    4.76
  26  15   5   55.85    5.87
  26  15   6   15.02    5.27
  26  16   0    4.33    9.89
  26  16   1   19.14    5.55
  26  16   2    1.88    4.04
  26  16   3    1.17    4.35
  26  16   4    0.51    5.03
  26  16   5    0.56    4.72
  26  17   0   66.37    8.44
  26  17   1   56.93    5.32
  26  17   2   26.58    5.55
  26  17   3    4.46    4.39
  26  17   4    0.31    4.63
  26  18   0   66.45    8.32
  26  18   1   17.91    4.61
  26  18   2   12.78    4.30
  27   0   0   41.51    7.53
  27   0   1   16.31    4.99
  27   0   2   18.26    4.61
  27   0   3   15.16    4.90
  27   0   4    4.10    4.75
  27   0   5    0.48    5.14
  27   0   6    0.58    5.40
  27   0   7   23.84    7.16
  27   0   8   36.59    9.57
  27   0   9   24.64    8.38
  27   0  10   16.28    8.07
  27   0  11    7.99    7.09
  27   0  12    2.86    6.54
  27   1   0  263.04   11.57
  27   1   1  103.91    5.05
  27   1   2   50.50    3.99
  27   1   3    0.84    3.44
  27   1   4    2.90    3.42
  27   1   5   10.78    3.66
  27   1   6    6.07    4.00
  27   1   7    0.01    4.11
  27   1   8   62.62    5.68
  27   1   9  115.67    8.06
  27   1  10  125.88    8.65
  27   1  11   48.53    6.41
  27   1  12   12.60    4.76
  27   2   0    0.53    4.91
  27   2   1    1.64    3.16
  27   2   2    1.04    3.19
  27   2   3    2.42    3.52
  27   2   4    0.84    3.46
  27   2   5    0.08    3.70
  27   2   6    3.05    4.35
  27   2   7   11.80    4.53
  27   2   8    5.54    4.76
  27   2   9    2.38    5.58
  27   2  10    1.25    5.20
  27   2  11    0.19    4.59
  27   3   0  239.44   12.52
  27   3   1  232.59    8.63
  27   3   2   28.86    3.67
  27   3   3   10.10    3.83
  27   3   4    3.36    3.64
  27   3   5   19.60    4.56
  27   3   6    2.76    4.52
  27   3   7   12.84    4.51
  27   3   8   86.76    7.40
  27   3   9  158.73   10.44
  27   3  10  141.22    8.87
  27   3  11   69.00    6.49
  27   4   0   15.48    5.35
  27   4   1    9.98    3.57
  27   4   2    5.75    3.42
  27   4   3    6.97    3.62
  27   4   4    5.28    3.97
  27   4   5    0.58    4.27
  27   4   6    9.88    4.63
  27   4   7    2.64    4.35
  27   4   8    4.76    4.92
  27   4   9    1.19    5.42
  27   4  10    3.40    4.59
  27   4  11    3.04    4.75
  27   5   0  260.75   14.53
  27   5   1  118.33    6.19
  27   5   2   72.25    5.07
  27   5   3    0.06    3.58
  27   5   4   17.23    4.18
  27   5   5   17.78    4.61
  27   5   6    0.00    5.06
  27   5   7    6.28    5.53
  27   5   8   78.23    6.56
  27   5   9  120.03    7.63
  27   5  10  105.93    7.54
  27   5  11   46.75    6.82
  27   6   0   46.08    7.80
  27   6   1   37.83    4.59
  27   6   2   35.77    4.41
  27   6   3   20.63    4.10
  27   6   4   27.97    4.38
  27   6   5   62.85    5.63
  27   6   6   77.55    6.01
  27   6   7   38.95    5.21
  27   6   8   23.35    5.18
  27   6   9   14.34    5.61
  27   6  10   13.21    5.85
  27   7   0  146.16   13.09
  27   7   1   96.06    6.52
  27   7   2   16.07    4.01
  27   7   3    3.34    4.24
  27   7   4    5.07    4.09
  27   7   5   11.45    4.56
  27   7   6    2.21    4.66
  27   7   7    4.64    4.53
  27   7   8   33.49    5.05
  27   7   9   72.49    6.98
  27   7  10   49.17    6.17
  27   8   0   69.01   12.27
  27   8   1   36.12    4.73
  27   8   2   32.50    4.55
  27   8   3   44.80    4.91
  27   8   4  125.03    6.93
  27   8   5  126.91    7.44
  27   8   6  126.73    7.73
  27   8   7   59.51    5.67
  27   8   8   36.96    5.00
  27   8   9   16.65    7.02
  27   9   0   79.63    8.36
  27   9   1   32.22    4.61
  27   9   2    0.38    4.00
  27   9   3    0.02    4.11
  27   9   4    5.04    4.44
  27   9   5    8.83    5.22
  27   9   6    0.94    4.61
  27   9   7    0.53    4.36
  27   9   8   19.21    5.17
  27   9   9   18.16    5.89
  27  10   0    2.96    6.56
  27  10   1    7.41    4.18
  27  10   2   25.19    4.54
  27  10   3   88.13    5.74
  27  10   4  108.06    7.60
  27  10   5  114.51    7.39
  27  10   6  101.86    7.47
  27  10   7   41.05    5.30
  27  10   8   10.56    5.15
  27  11   0    4.92    6.52
  27  11   1   11.96    4.52
  27  11   2    5.95    4.43
  27  11   3    2.00    4.22
  27  11   4    0.77    4.29
  27  11   5    0.26    4.93
  27  11   6    3.86    4.68
  27  11   7    4.83    4.62
  27  11   8    5.14    5.00
  27  12   0   18.46    6.72
  27  12   1    3.27    4.54
  27  12   2    9.16    4.99
  27  12   3   33.01    4.72
  27  12   4   71.11    5.52
  27  12   5   69.86    6.02
  27  12   6   53.86    5.82
  27  12   7    3.03    5.15
  27  13   0   15.47    6.55
  27  13   1    2.40    4.55
  27  13   2    8.31    6.14
  27  13   3    0.19    4.04
  27  13   4    0.08    4.12
  27  13   5    0.72    4.89
  27  13   6   15.09    7.42
  27  13   7    0.26    4.26
  27  14   0   46.09    8.07
  27  14   1   26.88    5.18
  27  14   2    2.36    4.16
  27  14   3    3.93    5.56
  27  14   4   23.66    4.49
  27  14   5   33.12    5.23
  27  14   6   16.48    5.63
  27  15   0   11.56   10.27
  27  15   1   20.52    6.17
  27  15   2    0.01    4.01
  27  15   3    2.62    4.36
  27  15   4    0.21    5.19
  27  15   5    3.07    4.41
  27  16   0   61.31    8.46
  27  16   1   58.70    5.89
  27  16   2   20.00    4.43
  27  16   3    1.38    4.06
  27  17   0   17.80    8.00
  27  17   1    1.22    4.19
  28   0   0  816.06   40.04
  28   0   1  377.06   14.54
  28   0   2  224.59   12.78
  28   0   3    8.56    4.98
  28   0   4    0.37    4.69
  28   0   5   16.96    5.31
  28   0   6    7.88    5.91
  28   0   7   26.87    7.14
  28   0   8  307.36   16.45
  28   0   9  444.86   25.81
  28   0  10  438.88   25.83
  28   0  11  165.32   12.51
  28   0  12   46.88    8.10
  28   1   0  108.51   11.12
  28   1   1   79.01    4.65
  28   1   2   45.18    3.89
  28   1   3    1.64    3.50
  28   1   4    0.00    3.33
  28   1   5    3.74    3.75
  28   1   6   11.51    4.34
  28   1   7    0.10    4.42
  28   1   8   35.98    5.30
  28   1   9   63.51    6.79
  28   1  10   69.38    6.95
  28   1  11   29.52    4.77
  28   2   0  378.06   22.90
  28   2   1  366.26   12.67
  28   2   2  105.70    5.06
  28   2   3   55.22    4.41
  28   2   4    5.11    3.55
  28   2   5    5.91    4.23
  28   2   6    1.08    4.35
  28   2   7   52.67    5.39
  28   2   8  214.44    9.71
  28   2   9  285.37   13.16
  28   2  10  256.73   11.76
  28   2  11  122.83    6.82
  28   3   0   35.15    6.39
  28   3   1   28.56    3.72
  28   3   2   32.68    3.82
  28   3   3   30.10    4.04
  28   3   4   16.04    4.05
  28   3   5    1.59    4.20
  28   3   6    0.18    4.32
  28   3   7    5.74    4.29
  28   3   8   18.91    5.36
  28   3   9   13.25    5.41
  28   3  10   23.94    4.70
  28   3  11   14.67    4.75
  28   4   0  177.05   10.51
  28   4   1   83.55    4.89
  28   4   2  109.11    5.45
  28   4   3   10.86    4.13
  28   4   4    0.85    4.00
  28   4   5    0.96    4.16
  28   4   6    1.20    5.21
  28   4   7   14.83    4.44
  28   4   8   65.16    6.08
  28   4   9   91.72    8.54
  28   4  10   94.66    8.72
  28   5   0    3.08    6.04
  28   5   1    3.25    3.82
  28   5   2   25.77    4.01
  28   5   3   38.07    4.51
  28   5   4   65.50    5.12
  28   5   5   87.65    6.01
  28   5   6   51.34    5.25
  28   5   7   17.38    4.47
  28   5   8    1.97    4.93
  28   5   9    0.30    4.99
  28   5  10    1.81    5.00
  28   6   0    2.53    7.97
  28   6   1   12.84    4.12
  28   6   2    1.85    3.74
  28   6   3    1.85    4.04
  28   6   4    5.76    4.02
  28   6   5    5.95    4.61
  28   6   6    0.16    4.44
  28   6   7    1.18    4.23
  28   6   8    1.51    4.83
  28   6   9    6.62    5.44
  28   6  10    1.85    5.40
  28   7   0    9.87    6.49
  28   7   1    1.75    4.02
  28   7   2    0.78    3.90
  28   7   3   48.64    5.04
  28   7   4  171.68    7.49
  28   7   5  221.80    9.37
  28   7   6  102.28    6.40
  28   7   7   28.60    5.05
  28   7   8    0.02    6.02
  28   7   9   10.89    5.35
  28   8   0   19.60    6.35
  28   8   1   31.88    4.68
  28   8   2   12.99    4.18
  28   8   3    2.27    4.27
  28   8   4    5.74    4.72
  28   8   5    2.73    4.60
  28   8   6    5.20    4.60
  28   8   7    3.61    4.28
  28   8   8    3.60    5.06
  28   8   9   29.56    6.14
  28   9   0   92.79   10.68
  28   9   1   55.48    4.92
  28   9   2    0.76    4.19
  28   9   3   76.38    5.77
  28   9   4  163.59    7.22
  28   9   5  184.21   11.12
  28   9   6  116.11    9.28
  28   9   7   21.99    4.67
  28   9   8    5.94    5.09
  28  10   0  138.47    9.94
  28  10   1   60.72    5.49
  28  10   2   14.46    4.39
  28  10   3    1.52    4.12
  28  10   4    7.86    4.15
  28  10   5   24.95    5.35
  28  10   6    0.42    4.56
  28  10   7    0.14    4.29
  28  10   8   21.61    5.31
  28  11   0  199.39   12.23
  28  11   1   99.21    7.04
  28  11   2    3.84    4.19
  28  11   3   34.98    4.80
  28  11   4  102.13    6.13
  28  11   5  111.33    7.03
  28  11   6   48.28    5.42
  28  11   7    0.26    4.19
  28  12   0   59.97    8.62
  28  12   1   75.49    6.45
  28  12   2    7.97    4.38
  28  12   3    0.30    4.35
  28  12   4    3.01    4.15
  28  12   5    3.52    5.08
  28  12   6   10.05    4.44
  28  13   0  176.04   13.20
  28  13   1  125.81    7.15
  28  13   2   23.55    4.63
  28  13   3    0.71    4.41
  28  13   4   22.57    4.57
  28  13   5   33.14    5.05
  28  14   0   17.19    9.15
  28  14   1    4.61    4.46
  28  14   2   16.31    4.19
  28  14   3    0.10    4.35
  28  14   4    0.04    4.05
  28  15   0  106.64    9.77
  28  15   1   91.98    6.77
  28  15   2   42.84    4.75
  28  15   3    9.00    5.25
  28  16   0    4.44    6.28
  29   0   0   11.09    7.22
  29   0   1   16.72    4.72
  29   0   2    2.77    4.57
  29   0   3    6.19    5.56
  29   0   4   17.88    6.56
  29   0   5   18.69    5.96
  29   0   6   50.12    7.26
  29   0   7   29.40    7.04
  29   0   8    2.11    6.01
  29   0   9    3.10    7.45
  29   0  10    3.00    7.09
  29   0  11    5.39    6.61
  29   1   0  229.47   12.49
  29   1   1  195.27    7.58
  29   1   2   33.49    3.71
  29   1   3   14.42    3.84
  29   1   4    2.79    3.49
  29   1   5   23.28    4.50
  29   1   6   18.18    4.69
  29   1   7    5.44    4.64
  29   1   8   67.47    5.52
  29   1   9  138.81    8.77
  29   1  10  107.44    7.71
  29   1  11   67.77    5.73
  29   2   0   54.53    6.14
  29   2   1   37.97    3.85
  29   2   2   11.18    4.15
  29   2   3    0.18    3.59
  29   2   4   19.09    3.89
  29   2   5   36.82    5.07
  29   2   6   41.09    5.21
  29   2   7    9.09    4.77
  29   2   8    0.79    4.50
  29   2   9   15.30    5.57
  29   2  10   20.69    5.56
  29   3   0  259.54   14.75
  29   3   1  137.13    5.99
  29   3   2   74.14    5.23
  29   3   3    1.62    3.87
  29   3   4   34.24    4.27
  29   3   5   27.72    5.12
  29   3   6   10.24    4.49
  29   3   7    1.62    4.54
  29   3   8   49.49    5.78
  29   3   9  136.71    8.75
  29   3  10  101.55    7.99
  29   4   0   68.31    8.56
  29   4   1   64.64    6.24
  29   4   2   17.49    4.43
  29   4   3    0.82    3.93
  29   4   4    8.41    3.85
  29   4   5    2.68    4.39
  29   4   6    2.28    4.45
  29   4   7    0.89    4.47
  29   4   8    9.21    4.81
  29   4   9   41.14    5.90
  29   4  10   27.43    5.27
  29   5   0   84.97    8.78
  29   5   1  128.27    6.85
  29   5   2    7.18    3.81
  29   5   3    7.18    3.97
  29   5   4   41.66    4.23
  29   5   5   21.28    4.75
  29   5   6   37.31    4.88
  29   5   7    0.51    5.51
  29   5   8   25.59    5.35
  29   5   9   85.14   10.54
  29   6   0   78.21    8.78
  29   6   1   54.71    4.93
  29   6   2   11.45    3.89
  29   6   3    1.87    3.89
  29   6   4    6.32    4.27
  29   6   5   13.69    4.59
  29   6   6    4.17    4.46
  29   6   7   16.00    4.39
  29   6   8   23.90    5.16
  29   6   9   31.08    5.56
  29   7   0   47.59    8.55
  29   7   1    7.64    4.24
  29   7   2    0.30    5.19
  29   7   3    2.89    4.31
  29   7   4   22.96    4.07
  29   7   5   43.93    7.09
  29   7   6   10.03    4.47
  29   7   7    3.99    4.23
  29   7   8   10.15    4.75
  29   7   9   11.61    5.64
  29   8   0    9.13    6.03
  29   8   1   13.36    4.36
  29   8   2   17.66    4.29
  29   8   3   21.15    4.27
  29   8   4   15.95    4.18
  29   8   5   24.51    4.96
  29   8   6   16.59    4.55
  29   8   7   13.74    4.30
  29   8   8    8.87    5.23
  29   9   0    5.09    6.16
  29   9   1    0.79    4.37
  29   9   2    0.60    4.02
  29   9   3    7.01    4.20
  29   9   4    7.87    4.25
  29   9   5    0.63    4.39
  29   9   6   29.41    4.82
  29   9   7    0.01    4.27
  29  10   0    8.61    6.07
  29  10   1    0.45    4.45
  29  10   2    9.72    4.35
  29  10   3   19.71    4.37
  29  10   4   19.49    4.49
  29  10   5   23.35    6.70
  29  10   6    6.21    4.50
  29  10   7    1.19    4.18
  29  11   0    3.43    5.94
  29  11   1    9.06    4.79
  29  11   2    1.22    4.21
  29  11   3    1.25    4.04
  29  11   4    0.50    4.03
  29  11   5    0.02    5.42
  29  11   6    1.60    4.26
  29  12   0   37.23    7.76
  29  12   1   16.92    4.53
  29  12   2    0.01    4.01
  29  12   3    2.93    4.35
  29  12   4   11.37    4.19
  29  12   5   18.43    4.96
  29  13   0    6.59    6.56
  29  13   1    0.13    4.23
  29  13   2    2.09    4.13
  29  13   3    1.60    3.95
  29  13   4    1.00    4.24
  29  14   0   66.20   15.96
  29  14   1   42.92    6.37
  29  14   2   14.56    4.58
  29  14   3    0.39    4.29
  30   0   0  340.95   45.37
  30   0   1  338.56   14.19
  30   0   2   81.90    7.04
  30   0   3  118.93    8.36
  30   0   4   18.11    5.16
  30   0   5    4.57    6.08
  30   0   6    2.47    6.73
  30   0   7   96.06    9.51
  30   0   8  211.08   12.80
  30   0   9  248.21   15.90
  30   0  10  213.68   14.86
  30   1   0   93.69    8.14
  30   1   1  116.05    5.29
  30   1   2   43.52    4.03
  30   1   3   27.90    4.23
  30   1   4    0.59    3.69
  30   1   5   24.05    4.78
  30   1   6    4.09    4.71
  30   1   7    8.08    4.73
  30   1   8   41.84    5.48
  30   1   9   53.16    6.29
  30   1  10   73.80    6.62
  30   2   0  186.94   10.84
  30   2   1  134.95    6.09
  30   2   2   95.88    5.47
  30   2   3   41.50    4.48
  30   2   4    9.54    3.90
  30   2   5    0.17    5.02
  30   2   6   14.70    4.75
  30   2   7   55.56    5.81
  30   2   8   98.78    6.91
  30   2   9  117.36    8.20
  30   2  10   99.96    6.49
  30   3   0   28.28    6.24
  30   3   1   40.74    5.43
  30   3   2   30.23    4.08
  30   3   3   40.19    4.60
  30   3   4   12.41    4.25
  30   3   5    3.50    4.58
  30   3   6    5.41    4.45
  30   3   7   15.27    4.76
  30   3   8   15.10    5.05
  30   3   9   21.57    5.90
  30   3  10   26.17    5.90
  30   4   0   15.26    6.08
  30   4   1   37.88    4.59
  30   4   2   12.60    3.82
  30   4   3    7.67    4.12
  30   4   4   12.62    3.95
  30   4   5    8.29    5.13
  30   4   6    3.02    4.43
  30   4   7   16.55    4.78
  30   4   8   13.41    4.83
  30   4   9   20.98    5.22
  30   5   0    6.68   10.07
  30   5   1    2.99    4.13
  30   5   2    4.87    3.75
  30   5   3   28.37    5.01
  30   5   4   86.50    5.21
  30   5   5   53.38    5.28
  30   5   6   42.67    5.37
  30   5   7   20.43    4.87
  30   5   8    3.51    4.74
  30   5   9    1.18    5.35
  30   6   0   11.42    6.12
  30   6   1   10.59    4.29
  30   6   2    2.36    3.94
  30   6   3    9.10    4.10
  30   6   4   10.00    3.97
  30   6   5    1.13    4.38
  30   6   6    9.45    6.76
  30   6   7    0.53    4.40
  30   6   8    0.81    5.35
  30   7   0   30.08    7.48
  30   7   1    3.61    4.28
  30   7   2    0.72    3.95
  30   7   3   42.08    5.12
  30   7   4   74.86    5.30
  30   7   5   91.27    5.68
  30   7   6   59.06    5.34
  30   7   7   14.11    4.59
  30   7   8    0.92    6.44
  30   8   0  146.59   10.62
  30   8   1   51.72    5.32
  30   8   2   14.16    4.52
  30   8   3    0.02    4.03
  30   8   4    7.90    4.03
  30   8   5   15.69    4.77
  30   8   6    0.81    4.47
  30   8   7    0.03    4.57
  30   9   0  100.95   14.40
  30   9   1   39.68    5.34
  30   9   2    0.04    4.12
  30   9   3   20.12    4.62
  30   9   4   48.22    4.91
  30   9   5   47.49    5.24
  30   9   6   24.32    4.83
  30  10   0  124.64   14.89
  30  10   1  102.25    7.07
  30  10   2   12.98    4.22
  30  10   3    1.83    4.23
  30  10   4    4.10    4.08
  30  10   5    3.17    4.39
  30  10   6    8.79    4.37
  30  11   0  119.94   10.29
  30  11   1   67.69    7.12
  30  11   2   12.19    4.34
  30  11   3    0.44    3.95
  30  11   4    9.78    3.98
  30  11   5   10.12    4.41
  30  12   0   88.49    9.22
  30  12   1   30.32    4.57
  30  12   2   31.77    5.00
  30  12   3    0.40    4.19
  30  12   4    0.12    4.18
  30  13   0  103.30   15.18
  30  13   1   70.29    5.56
  30  13   2   37.79    5.20
  31   0   0   95.22   11.81
  31   0   1   71.83    9.16
  31   0   2   16.33    5.01
  31   0   3    6.07    5.57
  31   0   4   49.63    6.26
  31   0   5  162.10   11.36
  31   0   6  102.07    9.43
  31   0   7   24.36    6.75
  31   0   8    2.52    7.76
  31   0   9   18.08   10.16
  31   0  10   53.47    8.31
  31   1   0  224.60   11.83
  31   1   1   94.91    5.30
  31   1   2   43.23    4.22
  31   1   3    0.09    3.75
  31   1   4   21.94    4.01
  31   1   5   49.41    5.51
  31   1   6   15.05    5.09
  31   1   7    0.30    4.51
  31   1   8   35.24    5.45
  31   1   9   70.29    6.83
  31   1  10   89.06    7.39
  31   2   0  128.04   11.46
  31   2   1   67.13    4.80
  31   2   2   15.93    3.84
  31   2   3   11.82    4.21
  31   2   4   78.37    5.15
  31   2   5  128.20    6.90
  31   2   6   81.97    6.36
  31   2   7   17.17    4.64
  31   2   8    4.48    4.66
  31   2   9   37.67    5.80
  31   3   0  116.49    8.96
  31   3   1   77.46    5.60
  31   3   2    3.76    3.71
  31   3   3   30.03    4.42
  31   3   4   42.65    4.42
  31   3   5   76.69    5.90
  31   3   6   44.86    5.45
  31   3   7    1.87    4.53
  31   3   8   14.54    5.55
  31   3   9   48.17    8.06
  31   4   0  114.95    8.79
  31   4   1   53.51    5.12
  31   4   2    0.71    3.75
  31   4   3   12.10    4.06
  31   4   4   22.31    4.17
  31   4   5   65.91    5.40
  31   4   6   33.41    5.23
  31   4   7    2.77    4.44
  31   4   8   17.00    4.89
  31   5   0   23.38    6.76
  31   5   1    5.35    4.22
  31   5   2    1.99    3.79
  31   5   3   21.90    4.22
  31   5   4   57.85    4.78
  31   5   5  100.20    6.25
  31   5   6   36.82    4.93
  31   5   7   16.39    4.75
  31   5   8    4.90    4.79
  31   6   0   37.46    6.80
  31   6   1   13.25    5.35
  31   6   2    1.21    4.19
  31   6   3    1.79    4.39
  31   6   4    6.54    3.88
  31   6   5   18.61    4.62
  31   6   6    6.39    4.58
  31   6   7    0.18    4.37
  31   7   0   10.14    5.92
  31   7   1    5.99    4.50
  31   7   2    8.51    4.40
  31   7   3   18.82    4.56
  31   7   4   23.40    4.26
  31   7   5   34.62    5.13
  31   7   6   59.89    5.40
  31   7   7    6.88    4.60
  31   8   0    0.30    5.57
  31   8   1    0.38    4.19
  31   8   2    0.86    4.08
  31   8   3    0.01    3.96
  31   8   4    0.10    4.76
  31   8   5    2.54    4.37
  31   8   6    2.36    4.28
  31   9   0   27.22    6.21
  31   9   1   36.27    5.18
  31   9   2    7.55    4.21
  31   9   3    6.50    4.11
  31   9   4    1.71    4.20
  31   9   5    8.10    4.93
  31  10   0   14.20    5.85
  31  10   1    9.18    6.26
  31  10   2    0.53    4.47
  31  10   3    0.31    5.09
  31  10   4    0.58    4.09
  31  11   0   51.18    7.69
  31  11   1   14.48    4.29
  31  11   2   14.60    4.62
  31  11   3    0.29    4.05
  31  12   0   42.09    7.47
  31  12   1   30.81    4.78
  32   0   0  169.37   17.39
  32   0   1   65.56    6.90
  32   0   2   78.76    7.15
  32   0   3   23.21    5.49
  32   0   4    2.33    5.49
  32   0   5    9.37    7.12
  32   0   6   30.38    7.82
  32   0   7   49.03   14.49
  32   0   8   68.96    8.67
  32   0   9   78.09    9.37
  32   1   0   76.48    7.76
  32   1   1   53.25    4.89
  32   1   2   37.58    4.00
  32   1   3    1.00    3.72
  32   1   4   13.99    4.35
  32   1   5    8.33    4.80
  32   1   6    2.37    4.66
  32   1   7    2.03    4.51
  32   1   8   14.49    5.11
  32   1   9   44.03    5.84
  32   2   0   30.35    7.14
  32   2   1   30.99    4.61
  32   2   2    9.51    3.92
  32   2   3    3.40    3.74
  32   2   4    7.94    3.95
  32   2   5   16.60    4.73
  32   2   6   15.45    4.88
  32   2   7   26.66    4.97
  32   2   8   20.04    5.41
  32   2   9   21.49    5.86
  32   3   0   31.27    6.84
  32   3   1   15.75    4.39
  32   3   2    6.63    4.21
  32   3   3    3.99    3.92
  32   3   4    3.74    3.93
  32   3   5    3.87    4.55
  32   3   6    2.75    4.55
  32   3   7    4.79    4.56
  32   3   8   14.39    5.20
  32   4   0    0.17    5.71
  32   4   1    6.39    4.09
  32   4   2    0.01    3.88
  32   4   3    1.68    3.86
  32   4   4    4.85    3.92
  32   4   5    8.69    4.60
  32   4   6   17.16    4.74
  32   4   7    0.81    4.31
  32   4   8    0.36    5.46
  32   5   0    4.13    5.82
  32   5   1    0.20    4.12
  32   5   2    0.83    4.93
  32   5   3   12.29    4.01
  32   5   4   17.90    4.02
  32   5   5   17.04    4.97
  32   5   6   20.17    4.89
  32   5   7    9.00    5.05
  32   6   0   87.54    8.83
  32   6   1   43.28    5.25
  32   6   2   10.16    4.48
  32   6   3    0.02    3.85
  32   6   4    4.63    3.86
  32   6   5   17.21    4.65
  32   6   6    0.02    4.35
  32   7   0   14.17    6.04
  32   7   1    5.84    4.25
  32   7   2    0.02    4.41
  32   7   3    3.35    3.92
  32   7   4   13.40    4.15
  32   7   5   22.13    4.65
  32   7   6    9.04    4.60
  32   8   0   90.69    8.86
  32   8   1  116.36    7.06
  32   8   2   16.66    4.83
  32   8   3    0.62    4.04
  32   8   4    4.52    4.25
  32   8   5    4.20    4.33
  32   9   0   25.93    9.26
  32   9   1   26.69    4.72
  32   9   2    2.52    4.59
  32   9   3    0.01    4.20
  32   9   4    1.20    4.22
  32  10   0  102.02   12.34
  32  10   1   52.35    5.33
  32  10   2   35.62    5.02
  32  10   3    0.31    4.34
  33   0   0  112.85   12.22
  33   0   1   93.53    7.56
  33   0   2    6.30    5.16
  33   0   3   33.45    6.72
  33   0   4  206.01   12.55
  33   0   5  209.40   13.94
  33   0   6  171.95   11.53
  33   0   7   31.25    6.93
  33   0   8    0.45    6.92
  33   0   9   56.50   16.09
  33   1   0   74.76    7.35
  33   1   1   55.35    5.17
  33   1   2    0.03    4.52
  33   1   3   21.23    4.20
  33   1   4   57.42    4.89
  33   1   5   49.50    5.89
  33   1   6   41.79    6.07
  33   1   7    1.76    4.36
  33   1   8    4.46    5.18
  33   2   0  121.15   10.01
  33   2   1   61.18    5.58
  33   2   2    0.31    4.24
  33   2   3   55.15    4.58
  33   2   4  172.30    7.93
  33   2   5  192.31    8.58
  33   2   6  144.89    7.55
  33   2   7   30.80    4.84
  33   2   8    5.14    5.40
  33   3   0   21.89    6.43
  33   3   1    4.31    4.02
  33   3   2    9.34    4.53
  33   3   3   40.02    4.37
  33   3   4  113.41    5.68
  33   3   5  105.99    6.74
  33   3   6   46.43    5.85
  33   3   7   18.94    4.58
  33   4   0   55.97    7.48
  33   4   1   28.77    4.66
  33   4   2    2.39    4.42
  33   4   3   21.99    4.05
  33   4   4  113.77    6.11
  33   4   5  125.96    7.16
  33   4   6   68.84    5.64
  33   4   7    8.74    4.60
  33   5   0   18.43    5.74
  33   5   1    4.96    4.39
  33   5   2   18.07    5.08
  33   5   3   50.33    4.65
  33   5   4   83.76    5.34
  33   5   5   50.66    5.37
  33   5   6   80.29    5.74
  33   6   0   10.56    5.83
  33   6   1    3.65    4.25
  33   6   2    0.74    4.71
  33   6   3   17.66    4.13
  33   6   4   41.00    4.98
  33   6   5   46.73    5.50
  33   7   0   33.39    6.41
  33   7   1   62.31    5.36
  33   7   2   21.87    4.90
  33   7   3   17.89    4.89
  33   7   4   19.00    4.24
  33   8   0    0.69    5.45
  33   8   1    1.36    5.13
  33   8   2    1.33    4.58
  33   8   3    7.27    4.15
  33   9   0   87.19    9.12
  33   9   1   38.40    4.83
  33   9   2   36.42    5.96
  34   0   0   11.08   11.14
  34   0   1   10.93    5.51
  34   0   2    0.25    6.33
  34   0   3    0.76    5.74
  34   0   4   10.35    5.85
  34   0   5   17.80    6.94
  34   0   6   12.20    6.83
  34   0   7   18.07    8.87
  34   0   8    9.73   12.41
  34   1   0   33.80    7.90
  34   1   1   21.73    4.47
  34   1   2    1.39    4.23
  34   1   3   18.78    4.32
  34   1   4   12.19    4.25
  34   1   5   19.38    4.84
  34   1   6   13.96    4.73
  34   1   7    0.38    4.23
  34   2   0    1.86    6.03
  34   2   1    1.51    4.01
  34   2   2    5.52    4.28
  34   2   3    0.46    3.95
  34   2   4    3.62    4.08
  34   2   5    5.36    4.61
  34   2   6   11.84    4.71
  34   2   7    3.23    4.43
  34   3   0    7.81    6.53
  34   3   1    7.25    4.02
  34   3   2    0.07    4.42
  34   3   3    0.28    3.85
  34   3   4    0.79    3.97
  34   3   5    1.83    4.53
  34   3   6    0.76    4.31
  34   4   0   59.76    7.47
  34   4   1   27.13    4.71
  34   4   2    8.26    4.89
  34   4   3    5.88    4.02
  34   4   4    2.54    4.42
  34   4   5   11.77    4.49
  34   4   6    0.03    4.52
  34   5   0    1.24    6.27
  34   5   1    0.72    4.07
  34   5   2    0.02    4.26
  34   5   3    0.06    4.36
  34   5   4    1.64    4.37
  34   5   5    0.05    4.37
  34   6   0   87.50    9.19
  34   6   1   72.30    5.90
  34   6   2   16.03    4.98
  34   6   3    2.19    5.12
  34   6   4    3.54    4.35
  34   7   0    1.74    5.56
  34   7   1    0.03    4.08
  34   7   2    0.02    5.93
  34   7   3    1.83    4.53
  35   0   0  135.16   35.89
  35   0   1   57.46    7.81
  35   0   2    0.09    8.57
  35   0   3  115.30    9.16
  35   0   4  202.55   17.45
  35   0   5  301.59   19.56
  35   0   6  194.37   13.69
  35   0   7   46.76    7.10
  35   1   0   22.98    6.82
  35   1   1    3.43    4.34
  35   1   2    8.37    4.93
  35   1   3   43.91    4.72
  35   1   4   76.96    5.27
  35   1   5   90.58    7.57
  35   1   6   34.94    4.89
  35   2   0   93.51   11.96
  35   2   1   39.37    5.21
  35   2   2    0.27    4.62
  35   2   3   69.95    5.53
  35   2   4  200.98    9.13
  35   2   5  236.29   10.07
  35   2   6  139.68    7.46
  35   3   0    1.41    5.95
  35   3   1    3.80    4.34
  35   3   2   19.54    5.02
  35   3   3   81.96    5.64
  35   3   4   87.89    5.69
  35   3   5   73.16    6.04
  35   4   0   42.06    6.26
  35   4   1   18.81    4.60
  35   4   2    1.01    4.55
  35   4   3   45.44    5.38
  35   4   4   95.74    5.91
  35   5   0   33.39    6.32
  35   5   1   39.45    4.86
  35   5   2   23.70    5.01
  35   5   3   50.23    5.70
  35   6   0    7.01    6.00
  35   6   1    2.40    4.15
  36   0   0   10.30   17.90
  36   0   1    9.85    6.32
  36   0   2   13.68    7.11
  36   0   3    0.28    5.95
  36   0   4    1.72    5.66
  36   0   5    0.53    6.16
  36   0   6   10.10    6.43
  36   1   0    7.71    6.35
  36   1   1    5.81    4.30
  36   1   2    1.15    4.58
  36   1   3    7.86    4.31
  36   1   4   52.32    4.77
  36   1   5   46.38    4.79
  36   2   0   38.32    7.79
  36   2   1   24.01    5.36
  36   2   2   14.20    4.83
  36   2   3    5.35    4.51
  36   2   4    0.97    4.36
  36   3   0    9.86    6.18
  36   3   1    6.06    4.30
  36   3   2    0.90    4.93
  36   3   3    1.29    4.76
  36   4   0   47.36   13.41
  36   4   1   47.83    5.63
  36   4   2   10.89    5.26
  37   0   0   97.71   23.10
  37   0   1   56.55    8.23
  37   0   2    0.40    7.41
  37   0   3   54.17    7.57
  37   0   4  221.47   14.54
  37   1   0    1.60    6.33
  37   1   1    0.11    4.46
  37   1   2   10.92    5.03
  37   1   3   40.75    6.16
  37   1   4   74.27    7.33
  37   2   0   84.18    7.78
  37   2   1   39.37    6.48
  37   2   2    0.10    4.92
  37   3   0    2.66    6.07
  38   0   0   28.90   10.48
  38   0   1   21.08    7.58
  38   0   2   11.53    7.33
  38   0   3   12.77    7.96
  38   1   0   13.36    6.28
  38   1   1    5.93    4.83
   0   0   0    0.00    0.00
;
_shelx_hkl_checksum              95743
_olex2_date_sample_data_collection 2015-02-12
_olex2_date_sample_submission    2015-02-11
_olex2_diffrn_ambient_temperature_device 'Oxford Cryosystems'
_olex2_exptl_crystal_mounting_method
'The crystal was mounted on a MITIGEN holder in oil'
_olex2_submission_original_sample_id 218
_olex2_submission_special_instructions 'No special instructions were received'
loop_
_space_group_symop_operation_xyz
'x, y, z'
'-y, x-y, z'
'-x+y, -x, z'
'-x, -y, z'
'y, -x+y, z'
'x-y, x, z'
'y, x, -z'
'x-y, -y, -z'
'-x, -x+y, -z'
'-y, -x, -z'
'-x+y, y, -z'
'x, x-y, -z'
'-x, -y, -z'
'y, -x+y, -z'
'x-y, x, -z'
'x, y, -z'
'-y, x-y, -z'
'-x+y, -x, -z'
'-y, -x, z'
'-x+y, y, z'
'x, x-y, z'
'y, x, z'
'x-y, -y, z'
'-x, -x+y, z'
loop_
_atom_site_label
_atom_site_type_symbol
_atom_site_fract_x
_atom_site_fract_y
_atom_site_fract_z
_atom_site_U_iso_or_equiv
_atom_site_adp_type
_atom_site_occupancy
_atom_site_site_symmetry_order
_atom_site_calc_flag
_atom_site_refinement_flags_posn
_atom_site_refinement_flags_adp
_atom_site_refinement_flags_occupancy
_atom_site_disorder_assembly
_atom_site_disorder_group
Hf1 Hf 0.46655(2) 0.53345(2) 0.5000 0.0389(2) Uani 1 4 d S TU P . .
Hf2 Hf 0.45920(2) 0.45920(2) 0.60321(2) 0.04067(17) Uani 1 2 d S TU P . .
Fe1 Fe 0.49574(13) 0.74787(6) 1.0000 0.1373(17) Uani 1 4 d S TU P A 1
Fe2 Fe 0.5758(5) 0.6284(8) 0.5000 0.324(15) Uani 0.25 2 d S TU P . .
Fe3 Fe 0.46765(16) 0.53235(16) 0.7967(6) 0.139(4) Uani 0.25 2 d S TU P . .
Cl1 Cl 0.4299(4) 0.71496(19) 1.0000 0.185(4) Uani 0.713(8) 4 d S TU P A 1
Cl1A Cl 0.5839(9) 0.7919(5) 1.0000 0.185(4) Uani 0.287(8) 4 d S TU P A 2
O1 O 0.48399(10) 0.51601(10) 0.6056(4) 0.083(2) Uani 1 2 d S TU P . .
O2 O 0.4439(2) 0.47688(19) 0.5000 0.0681(19) Uani 1 2 d S TU P . .
O3 O 0.48198(12) 0.57901(11) 0.5806(2) 0.0494(11) Uani 1 1 d . U . . .
O4 O 0.53115(15) 0.58538(14) 0.6446(3) 0.0819(16) Uani 1 1 d . U . . .
O5 O 0.46056(19) 0.46056(19) 0.7360(4) 0.085(2) Uani 1 2 d S TU P . .
O6 O 0.40925(17) 0.40925(17) 0.5878(4) 0.082(2) Uani 1 2 d S TU P . .
N1 N 0.5013(3) 0.75066(17) 0.8792(4) 0.097(4) Uani 1 2 d S TU P . .
N2 N 0.5027(4) 0.7051(2) 1.0000 0.105(4) Uani 1 2 d S TU P . .
C1 C 0.5064(2) 0.5940(2) 0.6304(4) 0.079(2) Uani 1 1 d . U . . .
C2 C 0.5070(2) 0.6227(2) 0.6848(4) 0.072(2) Uani 1 1 d . U . . .
C3 C 0.4762(3) 0.6250(2) 0.6908(4) 0.090(3) Uani 1 1 d . U . . .
H3 H 0.4558 0.6100 0.6597 0.108 Uiso 1 1 calc R . . . .
C4 C 0.4753(3) 0.6498(3) 0.7434(4) 0.102(3) Uani 1 1 d . U . . .
H4 H 0.4548 0.6525 0.7462 0.122 Uiso 1 1 calc R . . . .
C5 C 0.5052(3) 0.6706(2) 0.7916(4) 0.087(2) Uani 1 1 d . U . . .
C6 C 0.5354(3) 0.6659(3) 0.7876(5) 0.116(3) Uani 1 1 d . U . . .
H6 H 0.5553 0.6793 0.8214 0.140 Uiso 1 1 calc R . . . .
C7 C 0.5361(3) 0.6420(3) 0.7353(4) 0.103(3) Uani 1 1 d . U . . .
H7 H 0.5562 0.6386 0.7333 0.123 Uiso 1 1 calc R . . . .
C8 C 0.5038(3) 0.6957(2) 0.8560(3) 0.089(3) Uani 1 1 d . U . . .
C9 C 0.5042(3) 0.7270(2) 0.8303(4) 0.094(3) Uani 1 1 d . U . . .
C10 C 0.5064(3) 0.7381(2) 0.7484(3) 0.114(4) Uani 1 1 d . U . . .
H10 H 0.5076 0.7257 0.7033 0.136 Uiso 1 1 calc R . . . .
C11 C 0.5019(3) 0.6534(2) 0.9594(3) 0.101(3) Uani 1 1 d . U . . .
H11A H 0.4803 0.6320 0.9392 0.121 Uiso 1 1 calc R . . . .
H11B H 0.5233 0.6532 0.9392 0.121 Uiso 1 1 calc R . . . .
C12 C 0.5022(3) 0.6849(2) 0.9341(3) 0.090(3) Uani 1 1 d . U . . .
loop_
_atom_site_aniso_label
_atom_site_aniso_U_11
_atom_site_aniso_U_22
_atom_site_aniso_U_33
_atom_site_aniso_U_23
_atom_site_aniso_U_13
_atom_site_aniso_U_12
Hf1 0.0600(3) 0.0600(3) 0.0182(3) 0.000 0.000 0.0461(4)
Hf2 0.0531(3) 0.0531(3) 0.0277(2) 0.00680(16) 0.00680(16) 0.0355(3)
Fe1 0.360(5) 0.1105(15) 0.0244(10) 0.000 0.000 0.180(3)
Fe2 0.207(16) 0.73(5) 0.073(6) 0.000 0.000 0.26(2)
Fe3 0.162(7) 0.162(7) 0.089(6) -0.023(3) 0.023(3) 0.078(8)
Cl1 0.285(10) 0.157(5) 0.156(7) 0.000 0.000 0.143(5)
Cl1A 0.285(10) 0.157(5) 0.156(7) 0.000 0.000 0.143(5)
O1 0.068(3) 0.068(3) 0.108(5) 0.025(2) -0.025(2) 0.030(4)
O2 0.121(6) 0.091(4) 0.030(3) 0.000 0.000 0.082(4)
O3 0.084(3) 0.062(3) 0.031(2) -0.008(2) -0.006(2) 0.058(3)
O4 0.118(4) 0.096(4) 0.069(3) -0.035(3) -0.024(3) 0.082(4)
O5 0.115(5) 0.115(5) 0.039(3) 0.012(3) 0.012(3) 0.069(5)
O6 0.068(3) 0.068(3) 0.116(5) 0.001(3) 0.001(3) 0.039(4)
N1 0.235(12) 0.079(4) 0.028(3) -0.001(2) -0.002(4) 0.118(6)
N2 0.250(12) 0.085(6) 0.032(4) 0.000 0.000 0.122(8)
C1 0.106(5) 0.103(6) 0.063(4) -0.029(4) -0.015(4) 0.079(5)
C2 0.116(6) 0.083(5) 0.047(3) -0.021(3) -0.004(4) 0.072(5)
C3 0.141(6) 0.120(6) 0.064(4) -0.034(4) -0.015(4) 0.105(6)
C4 0.165(7) 0.138(7) 0.062(4) -0.039(5) -0.014(4) 0.120(6)
C5 0.178(7) 0.085(5) 0.041(3) -0.010(3) -0.008(4) 0.099(5)
C6 0.184(8) 0.132(7) 0.078(5) -0.046(5) -0.027(5) 0.113(7)
C7 0.143(7) 0.127(7) 0.077(5) -0.056(5) -0.034(5) 0.097(6)
C8 0.197(9) 0.079(5) 0.033(3) -0.007(3) -0.003(4) 0.100(6)
C9 0.221(10) 0.080(5) 0.037(3) -0.003(3) -0.001(4) 0.116(6)
C10 0.268(12) 0.115(7) 0.028(3) 0.001(3) 0.009(4) 0.149(8)
C11 0.212(10) 0.078(5) 0.053(3) 0.002(4) 0.008(5) 0.102(6)
C12 0.206(10) 0.066(4) 0.036(3) -0.001(3) -0.007(4) 0.097(6)
loop_
_atom_type_symbol
_atom_type_description
_atom_type_scat_dispersion_real
_atom_type_scat_dispersion_imag
_atom_type_scat_source
C C 0.0181 0.0091 'International Tables Vol C Tables 4.2.6.8 and 6.1.1.4'
H H 0.0000 0.0000 'International Tables Vol C Tables 4.2.6.8 and 6.1.1.4'
Cl Cl 0.3639 0.7018 'International Tables Vol C Tables 4.2.6.8 and 6.1.1.4'
Fe Fe -1.1336 3.1974 'International Tables Vol C Tables 4.2.6.8 and 6.1.1.4'
Hf Hf -6.1794 4.9776 'International Tables Vol C Tables 4.2.6.8 and 6.1.1.4'
N N 0.0311 0.0180 'International Tables Vol C Tables 4.2.6.8 and 6.1.1.4'
O O 0.0492 0.0322 'International Tables Vol C Tables 4.2.6.8 and 6.1.1.4'
loop_
_geom_angle_atom_site_label_1
_geom_angle_atom_site_label_2
_geom_angle_atom_site_label_3
_geom_angle
_geom_angle_site_symmetry_1
_geom_angle_site_symmetry_3
Hf2 Hf1 Hf2 59.429(13) 4_665 13_666
Hf2 Hf1 Hf2 89.519(15) . 13_666
Hf2 Hf1 Hf2 59.429(13) . 16_556
Hf2 Hf1 Hf2 89.519(15) 4_665 16_556
Hf2 Hf1 Hf2 60.014(15) 16_556 13_666
Hf2 Hf1 Hf2 60.013(15) . 4_665
O1 Hf1 Hf2 88.96(18) . 16_556
O1 Hf1 Hf2 35.02(10) . .
O1 Hf1 Hf2 35.02(10) 16_556 16_556
O1 Hf1 Hf2 88.96(18) 16_556 .
O1 Hf1 Hf2 35.02(10) . 4_665
O1 Hf1 Hf2 35.02(10) 16_556 13_666
O1 Hf1 Hf2 88.96(18) 16_556 4_665
O1 Hf1 Hf2 88.96(18) . 13_666
O1 Hf1 O1 107.8(4) . 16_556
O2 Hf1 Hf2 34.46(9) . 16_556
O2 Hf1 Hf2 88.81(17) 19_665 .
O2 Hf1 Hf2 88.81(17) 19_665 16_556
O2 Hf1 Hf2 88.81(17) . 4_665
O2 Hf1 Hf2 88.81(17) . 13_666
O2 Hf1 Hf2 34.46(9) 19_665 4_665
O2 Hf1 Hf2 34.46(9) . .
O2 Hf1 Hf2 34.46(9) 19_665 13_666
O2 Hf1 O1 69.47(14) 19_665 .
O2 Hf1 O1 69.47(14) . .
O2 Hf1 O1 69.46(14) 19_665 16_556
O2 Hf1 O1 69.46(14) . 16_556
O2 Hf1 O2 107.0(4) 19_665 .
O2 Hf1 O3 141.64(10) 19_665 19_665
O2 Hf1 O3 79.88(19) 19_665 16_556
O2 Hf1 O3 141.64(10) . .
O2 Hf1 O3 79.88(19) . 10_666
O2 Hf1 O3 141.64(10) . 16_556
O2 Hf1 O3 79.88(19) 19_665 .
O2 Hf1 O3 79.88(19) . 19_665
O2 Hf1 O3 141.64(10) 19_665 10_666
O3 Hf1 Hf2 75.99(10) 10_666 16_556
O3 Hf1 Hf2 110.80(9) 16_556 16_556
O3 Hf1 Hf2 165.46(10) 16_556 .
O3 Hf1 Hf2 165.46(10) . 16_556
O3 Hf1 Hf2 110.80(10) 19_665 4_665
O3 Hf1 Hf2 75.98(10) . 4_665
O3 Hf1 Hf2 111.76(11) 10_666 .
O3 Hf1 Hf2 111.75(11) 19_665 16_556
O3 Hf1 Hf2 75.99(10) 19_665 .
O3 Hf1 Hf2 111.75(11) 16_556 4_665
O3 Hf1 Hf2 110.80(9) . .
O3 Hf1 Hf2 165.46(10) 19_665 13_666
O3 Hf1 Hf2 75.99(10) 16_556 13_666
O3 Hf1 Hf2 165.46(10) 10_666 4_665
O3 Hf1 Hf2 110.80(10) 10_666 13_666
O3 Hf1 Hf2 111.75(11) . 13_666
O3 Hf1 O1 143.19(11) 19_665 16_556
O3 Hf1 O1 143.19(11) . 16_556
O3 Hf1 O1 78.57(19) . .
O3 Hf1 O1 143.19(11) 10_666 .
O3 Hf1 O1 78.57(19) 19_665 .
O3 Hf1 O1 78.58(19) 10_666 16_556
O3 Hf1 O1 143.19(11) 16_556 .
O3 Hf1 O1 78.58(19) 16_556 16_556
O3 Hf1 O3 76.4(2) 16_556 .
O3 Hf1 O3 118.5(2) 19_665 16_556
O3 Hf1 O3 73.3(2) 10_666 16_556
O3 Hf1 O3 118.5(2) 10_666 .
O3 Hf1 O3 76.4(2) 10_666 19_665
O3 Hf1 O3 73.3(2) 19_665 .
Hf1 Hf2 Hf1 90.480(15) 13_666 .
Hf1 Hf2 Hf2 59.994(8) . 4_665
Hf1 Hf2 Hf2 59.993(8) 13_666 4_665
Hf2 Hf2 Hf1 60.286(7) 16_556 .
Hf2 Hf2 Hf1 60.285(7) 16_556 13_666
Hf2 Hf2 Hf2 90.0 16_556 4_665
O1 Hf2 Hf1 36.58(16) . .
O1 Hf2 Hf1 89.72(19) . 13_666
O1 Hf2 Hf1 36.58(16) 4_665 13_666
O1 Hf2 Hf1 89.72(19) 4_665 .
O1 Hf2 Hf2 34.21(16) 4_665 4_665
O1 Hf2 Hf2 91.11(19) 4_665 16_556
O1 Hf2 Hf2 34.22(16) . 4_665
O1 Hf2 Hf2 91.11(19) . 16_556
O1 Hf2 O1 68.4(3) 4_665 .
O1 Hf2 O2 108.7(3) . 7_556
O1 Hf2 O2 70.8(2) 4_665 7_556
O1 Hf2 O2 108.7(3) 4_665 .
O1 Hf2 O2 70.8(2) . .
O1 Hf2 O4 76.5(2) 4_665 4_665
O1 Hf2 O4 140.3(2) 4_665 19_665
O1 Hf2 O4 76.5(2) . 19_665
O1 Hf2 O4 140.3(2) . 4_665
O1 Hf2 O5 87.7(3) 4_665 .
O1 Hf2 O5 87.7(3) . .
O1 Hf2 O6 145.41(16) . .
O1 Hf2 O6 145.41(16) 4_665 .
O2 Hf2 Hf1 34.28(19) . .
O2 Hf2 Hf1 89.61(17) 7_556 .
O2 Hf2 Hf1 89.61(17) . 13_666
O2 Hf2 Hf1 34.28(19) 7_556 13_666
O2 Hf2 Hf2 35.28(14) 7_556 16_556
O2 Hf2 Hf2 88.6(2) 7_556 4_665
O2 Hf2 Hf2 35.28(14) . 16_556
O2 Hf2 Hf2 88.6(2) . 4_665
O2 Hf2 O2 70.5(3) . 7_556
O2 Hf2 O4 140.7(2) 7_556 19_665
O2 Hf2 O4 75.18(19) 7_556 4_665
O2 Hf2 O4 75.19(19) . 19_665
O2 Hf2 O4 140.7(2) . 4_665
O2 Hf2 O5 144.63(14) . .
O2 Hf2 O5 144.63(14) 7_556 .
O2 Hf2 O6 85.7(3) . .
O2 Hf2 O6 85.7(3) 7_556 .
O4 Hf2 Hf1 162.10(12) 4_665 .
O4 Hf2 Hf1 71.64(13) 19_665 .
O4 Hf2 Hf1 71.64(13) 4_665 13_666
O4 Hf2 Hf1 162.10(12) 19_665 13_666
O4 Hf2 Hf2 109.37(15) 4_665 4_665
O4 Hf2 Hf2 107.91(12) 19_665 16_556
O4 Hf2 Hf2 109.37(15) 19_665 4_665
O4 Hf2 Hf2 107.91(12) 4_665 16_556
O4 Hf2 O4 126.2(3) 19_665 4_665
O5 Hf2 Hf1 118.85(12) . .
O5 Hf2 Hf1 118.85(12) . 13_666
O5 Hf2 Hf2 88.5(2) . 4_665
O5 Hf2 Hf2 178.5(2) . 16_556
O5 Hf2 O4 72.61(14) . 4_665
O5 Hf2 O4 72.61(14) . 19_665
O6 Hf2 Hf1 115.91(12) . 13_666
O6 Hf2 Hf1 115.91(12) . .
O6 Hf2 Hf2 83.10(19) . 16_556
O6 Hf2 Hf2 173.1(2) . 4_665
O6 Hf2 O4 73.00(17) . 19_665
O6 Hf2 O4 73.00(17) . 4_665
O6 Hf2 O5 98.4(3) . .
N1 Fe1 Cl1 95.8(4) 16_557 .
N1 Fe1 Cl1 95.8(4) . .
N1 Fe1 Cl1A 84.2(4) 16_557 .
N1 Fe1 Cl1A 84.2(4) . .
N1 Fe1 N1 168.3(8) 16_557 .
N2 Fe1 Cl1 97.4(4) . .
N2 Fe1 Cl1 97.4(4) 21_565 .
N2 Fe1 Cl1A 82.6(4) 21_565 .
N2 Fe1 Cl1A 82.6(4) . .
N2 Fe1 N1 89.25(7) . 16_557
N2 Fe1 N1 89.25(7) 21_565 .
N2 Fe1 N1 89.26(7) 21_565 16_557
N2 Fe1 N1 89.25(7) . .
N2 Fe1 N2 165.2(8) . 21_565
Hf2 O1 Hf1 108.4(2) 4_665 .
Hf2 O1 Hf1 108.4(2) . .
Hf2 O1 Hf2 111.6(3) . 4_665
Hf1 O2 Hf2 111.3(2) . 16_556
Hf1 O2 Hf2 111.3(2) . .
Hf2 O2 Hf2 109.4(3) . 16_556
C1 O3 Hf1 132.8(4) . .
C1 O4 Hf2 134.5(5) . 4_665
C9 N1 Fe1 127.5(3) . .
C9 N1 Fe1 127.5(3) 21_565 .
C9 N1 C9 105.0(7) . 21_565
C12 N2 Fe1 127.2(4) 16_557 .
C12 N2 Fe1 127.2(4) . .
C12 N2 C12 104.7(7) . 16_557
O3 C1 O4 124.8(7) . .
O3 C1 C2 119.4(7) . .
O4 C1 C2 115.6(7) . .
C3 C2 C1 118.3(7) . .
C3 C2 C7 121.5(7) . .
C7 C2 C1 119.5(7) . .
C2 C3 H3 120.3 . .
C2 C3 C4 119.5(9) . .
C4 C3 H3 120.3 . .
C3 C4 H4 120.4 . .
C5 C4 C3 119.2(8) . .
C5 C4 H4 120.4 . .
C4 C5 C6 119.7(7) . .
C4 C5 C8 120.5(8) . .
C6 C5 C8 119.4(8) . .
C5 C6 H6 119.8 . .
C7 C6 C5 120.5(9) . .
C7 C6 H6 119.8 . .
C2 C7 H7 120.3 . .
C6 C7 C2 119.3(9) . .
C6 C7 H7 120.3 . .
C9 C8 C5 117.7(5) . .
C12 C8 C5 116.3(6) . .
C12 C8 C9 126.0(6) . .
N1 C9 C8 124.6(5) . .
N1 C9 C10 110.1(6) . .
C8 C9 C10 125.3(6) . .
C9 C10 H10 126.3 . .
C10 C10 C9 107.4(4) 21_565 .
C10 C10 H10 126.3 21_565 .
C11 C11 H11A 110.2 16_557 .
C11 C11 H11B 110.2 16_557 .
C11 C11 C12 107.5(4) 16_557 .
H11A C11 H11B 108.5 . .
C12 C11 H11A 110.2 . .
C12 C11 H11B 110.2 . .
N2 C12 C11 110.1(5) . .
C8 C12 N2 124.2(6) . .
C8 C12 C11 125.6(6) . .
loop_
_geom_bond_atom_site_label_1
_geom_bond_atom_site_label_2
_geom_bond_distance
_geom_bond_site_symmetry_2
Hf1 Hf2 3.4889(5) 4_665
Hf1 Hf2 3.4889(5) 13_666
Hf1 Hf2 3.4889(5) 16_556
Hf1 Hf2 3.4888(5) .
Hf1 O1 2.191(6) .
Hf1 O1 2.191(6) 16_556
Hf1 O2 2.108(7) 19_665
Hf1 O2 2.109(7) .
Hf1 O3 2.184(4) 16_556
Hf1 O3 2.184(4) 19_665
Hf1 O3 2.184(4) 10_666
Hf1 O3 2.184(4) .
Hf2 Hf1 3.4887(5) 13_666
Hf2 Hf2 3.4587(7) 16_556
Hf2 Hf2 3.4895(9) 4_665
Hf2 O1 2.110(4) .
Hf2 O1 2.110(4) 4_665
Hf2 O2 2.118(4) 7_556
Hf2 O2 2.118(4) .
Hf2 O4 2.252(5) 4_665
Hf2 O4 2.252(5) 19_665
Hf2 O5 2.226(6) .
Hf2 O6 2.152(7) .
Fe1 Cl1 2.438(14) .
Fe1 Cl1A 3.26(3) .
Fe1 N1 2.035(7) .
Fe1 N1 2.035(7) 16_557
Fe1 N2 1.995(8) 21_565
Fe1 N2 1.995(8) .
O1 Hf2 2.110(4) 4_665
O2 Hf2 2.118(4) 16_556
O3 C1 1.237(9) .
O4 Hf2 2.252(5) 4_665
O4 C1 1.304(9) .
N1 C9 1.356(7) 21_565
N1 C9 1.356(7) .
N2 C12 1.395(8) 16_557
N2 C12 1.395(8) .
C1 C2 1.519(10) .
C2 C3 1.374(10) .
C2 C7 1.386(11) .
C3 H3 0.9400 .
C3 C4 1.394(9) .
C4 H4 0.9400 .
C4 C5 1.393(12) .
C5 C6 1.407(12) .
C5 C8 1.543(9) .
C6 H6 0.9400 .
C6 C7 1.358(10) .
C7 H7 0.9400 .
C8 C9 1.395(9) .
C8 C12 1.379(9) .
C9 C10 1.441(8) .
C10 C10 1.292(13) 21_565
C10 H10 0.9400 .
C11 C11 1.362(12) 16_557
C11 H11A 0.9800 .
C11 H11B 0.9800 .
C11 C12 1.405(9) .
loop_
_geom_torsion_atom_site_label_1
_geom_torsion_atom_site_label_2
_geom_torsion_atom_site_label_3
_geom_torsion_atom_site_label_4
_geom_torsion
_geom_torsion_site_symmetry_1
_geom_torsion_site_symmetry_4
Hf1 O3 C1 O4 2.4(13) . .
Hf1 O3 C1 C2 -172.5(5) . .
Hf2 O4 C1 O3 -6.6(14) 4_665 .
Hf2 O4 C1 C2 168.5(5) 4_665 .
Fe1 N1 C9 C8 0.0(18) . .
Fe1 N1 C9 C10 177.9(9) . .
Fe1 N2 C12 C8 13.3(17) . .
Fe1 N2 C12 C11 -169.9(9) . .
O3 C1 C2 C3 15.6(12) . .
O3 C1 C2 C7 -173.8(8) . .
O4 C1 C2 C3 -159.7(8) . .
O4 C1 C2 C7 10.8(12) . .
N1 C9 C10 C10 2.6(10) . 21_565
C1 C2 C3 C4 176.7(7) . .
C1 C2 C7 C6 -175.6(8) . .
C2 C3 C4 C5 -3.1(13) . .
C3 C2 C7 C6 -5.3(14) . .
C3 C4 C5 C6 -1.0(13) . .
C3 C4 C5 C8 -174.2(7) . .
C4 C5 C6 C7 2.0(14) . .
C4 C5 C8 C9 -72.1(12) . .
C4 C5 C8 C12 107.9(10) . .
C5 C6 C7 C2 1.1(15) . .
C5 C8 C9 N1 176.5(11) . .
C5 C8 C9 C10 -1.0(16) . .
C5 C8 C12 N2 176.6(11) . .
C5 C8 C12 C11 0.2(16) . .
C6 C5 C8 C9 114.7(10) . .
C6 C5 C8 C12 -65.4(12) . .
C7 C2 C3 C4 6.3(13) . .
C8 C5 C6 C7 175.3(8) . .
C8 C9 C10 C10 -179.5(9) . 21_565
C9 N1 C9 C8 178.0(7) 21_565 .
C9 N1 C9 C10 -4.1(16) 21_565 .
C9 C8 C12 N2 -3.5(17) . .
C9 C8 C12 C11 -179.8(12) . .
C11 C11 C12 N2 0.4(10) 16_557 .
C11 C11 C12 C8 177.2(9) 16_557 .
C12 N2 C12 C8 -177.5(7) 16_557 .
C12 N2 C12 C11 -0.7(15) 16_557 .
C12 C8 C9 N1 -3.4(18) . .
C12 C8 C9 C10 179.1(11) . .
loop_
_smtbx_masks_void_nr
_smtbx_masks_void_average_x
_smtbx_masks_void_average_y
_smtbx_masks_void_average_z
_smtbx_masks_void_volume
_smtbx_masks_void_count_electrons
1 -0.704 -0.606 -0.776 20041.7 7718.0
