#------------------------------------------------------------------------------
#$Date: 2019-11-25 06:08:51 +0200 (Mon, 25 Nov 2019) $
#$Revision: 240192 $
#$URL: file:///home/coder/svn-repositories/cod/cif/4/12/94/4129481.cif $
#------------------------------------------------------------------------------
#
# This file is available in the Crystallography Open Database (COD),
# http://www.crystallography.net/
#
# All data on this site have been placed in the public domain by the
# contributors.
#
data_4129481
loop_
_publ_author_name
'Zhang, Shi-Yuan'
'Wojtas, Lukasz'
'Zaworotko, Michael J.'
_publ_section_title
;
 Structural Insight into Guest Binding Sites in a Porous Homochiral
 Metal-Organic Material.
;
_journal_issue                   37
_journal_name_full               'Journal of the American Chemical Society'
_journal_page_first              12045
_journal_page_last               12049
_journal_paper_doi               10.1021/jacs.5b06760
_journal_volume                  137
_journal_year                    2015
_chemical_formula_moiety
'C46 H38 Co2 N6 O6, 2(N O3), 2.41(C6 H5 N O2)'
_chemical_formula_sum            'C60.4 H50 Co2 N10.4 O16.8'
_chemical_formula_weight         1308.18
_space_group_crystal_system      monoclinic
_space_group_IT_number           4
_space_group_name_Hall           'P 2yb'
_space_group_name_H-M_alt        'P 1 21 1'
_atom_sites_solution_hydrogens   mixed
_audit_creation_date             2014-03-19
_audit_creation_method
;
Olex2 1.2
(compiled 2014.03.12 svn.r2899 for OlexSys, GUI svn.r4796)
;
_cell_angle_alpha                90
_cell_angle_beta                 91.106(3)
_cell_angle_gamma                90
_cell_formula_units_Z            2
_cell_length_a                   10.2416(6)
_cell_length_b                   24.9560(15)
_cell_length_c                   11.4453(7)
_cell_measurement_reflns_used    9861
_cell_measurement_temperature    100(2)
_cell_measurement_theta_max      66.62
_cell_measurement_theta_min      3.54
_cell_volume                     2924.8(3)
_computing_molecular_graphics    'Olex2 (Dolomanov et al., 2009)'
_computing_publication_material  'Olex2 (Dolomanov et al., 2009)'
_computing_structure_refinement  'XL (Sheldrick, 2008)'
_diffrn_ambient_temperature      100.01
_diffrn_measured_fraction_theta_full 0.996
_diffrn_measured_fraction_theta_max 0.999
_diffrn_measurement_device_type  'Bruker APEX-II CCD'
_diffrn_measurement_method       '\f and \w scans'
_diffrn_radiation_type           CuK\a
_diffrn_radiation_wavelength     1.54178
_diffrn_reflns_av_R_equivalents  0.0408
_diffrn_reflns_av_unetI/netI     0.0566
_diffrn_reflns_Laue_measured_fraction_full 0.996
_diffrn_reflns_Laue_measured_fraction_max 0.999
_diffrn_reflns_limit_h_max       10
_diffrn_reflns_limit_h_min       -11
_diffrn_reflns_limit_k_max       29
_diffrn_reflns_limit_k_min       -29
_diffrn_reflns_limit_l_max       13
_diffrn_reflns_limit_l_min       -13
_diffrn_reflns_number            27521
_diffrn_reflns_point_group_measured_fraction_full 0.981
_diffrn_reflns_point_group_measured_fraction_max 0.982
_diffrn_reflns_theta_full        65.975
_diffrn_reflns_theta_max         66.637
_diffrn_reflns_theta_min         3.542
_diffrn_standards_number         0
_exptl_absorpt_coefficient_mu    5.140
_exptl_absorpt_correction_T_max  0.7528
_exptl_absorpt_correction_T_min  0.4116
_exptl_absorpt_correction_type   multi-scan
_exptl_absorpt_process_details
;
SADABS-2012/1 (Bruker,2012) was used for absorption correction.
wR2(int) was 0.1365 before and 0.0910 after correction.
The Ratio of minimum to maximum transmission is 0.5468.
The \l/2 correction factor is 0.0015.
;
_exptl_crystal_density_diffrn    1.485
_exptl_crystal_F_000             1347
_exptl_crystal_size_max          0.12
_exptl_crystal_size_mid          0.07
_exptl_crystal_size_min          0.04
_refine_diff_density_max         1.906
_refine_diff_density_min         -0.891
_refine_diff_density_rms         0.124
_refine_ls_abs_structure_details
;
 Flack x determined using 3541 quotients [(I+)-(I-)]/[(I+)+(I-)]
 (Parsons and Flack (2004), Acta Cryst. A60, s61).
;
_refine_ls_abs_structure_Flack   0.184(4)
_refine_ls_extinction_method     none
_refine_ls_goodness_of_fit_ref   1.014
_refine_ls_hydrogen_treatment    mixed
_refine_ls_matrix_type           full
_refine_ls_number_parameters     763
_refine_ls_number_reflns         9068
_refine_ls_number_restraints     178
_refine_ls_restrained_S_all      1.009
_refine_ls_R_factor_all          0.0862
_refine_ls_R_factor_gt           0.0840
_refine_ls_shift/su_max          0.000
_refine_ls_shift/su_mean         0.000
_refine_ls_structure_factor_coef Fsqd
_refine_ls_weighting_details
'w=1/[\s^2^(Fo^2^)+(0.0258P)^2^+30.5743P] where P=(Fo^2^+2Fc^2^)/3'
_refine_ls_weighting_scheme      calc
_refine_ls_wR_factor_gt          0.2000
_refine_ls_wR_factor_ref         0.2012
_reflns_Friedel_coverage         0.917
_reflns_Friedel_fraction_full    0.964
_reflns_Friedel_fraction_max     0.964
_reflns_number_gt                8763
_reflns_number_total             9068
_reflns_threshold_expression     'I > 2\s(I)'
_cod_data_source_file            ja5b06760_si_003.cif
_cod_data_source_block           CMOM_1R_NB
_cod_original_formula_sum        'C60.40 H50 Co2 N10.40 O16.80'
_cod_database_code               4129481
_shelxl_version_number           2013-4
_shelx_space_group_comment
;
The symmetry employed for this shelxl refinement is uniquely defined
by the following loop, which should always be used as a source of
symmetry information in preference to the above space-group names.
They are only intended as comments.
;
_shelx_estimated_absorpt_t_max   0.821
_shelx_estimated_absorpt_t_min   0.577
_olex2_refinement_description
;
1. Fixed Uiso
 At 1.2 times of:
  All C(H) groups
 At 1.5 times of:
  All O(H) groups
2. Restrained distances
 O14-H14
 0.88 with sigma of 0.01
 O16-H16
 0.88 with sigma of 0.02
 O18-N10
 1.22 with sigma of 0.02
 N5B-C1N
 1.47 with sigma of 0.02
 O21-N21 = O19-N21
 1.22 with sigma of 0.02
 C1V-C1Y
 1.39 with sigma of 0.02
 C1X-N21
 1.47 with sigma of 0.02
 H47-H16
 -2.2 with sigma of 0.02
 C25-H14
 1.916801 with sigma of 0.02
 Co2-H14
 2.896002 with sigma of 0.02
3. Rigid bond restraints
 N3, C10, C24
 with sigma for 1-2 distances of 0.005 and sigma for 1-3 distances of 0.005
4. Uiso/Uaniso restraints and constraints
O12 \\sim N5B: within 1.7A with sigma of 0.02 and sigma for terminal atoms of
0.04
C37 \\sim C54 \\sim C31 \\sim N15 \\sim C28 \\sim C60: within 1.7A with sigma
of 0.04 and sigma for terminal atoms of 0.08
O1 \\sim C23 \\sim O5 \\sim C47: within 1.7A with sigma of 0.04 and sigma for
terminal atoms of 0.08
C3 \\sim C1B \\sim C15 \\sim C4 \\sim C6 \\sim C5: within 1.7A with sigma of
0.04 and sigma for terminal atoms of 0.08
C17 \\sim C22 \\sim C13: within 1.7A with sigma of 0.04 and sigma for terminal
atoms of 0.08
Uiso(O18) = Uiso(N5B)
5. Rigid body (RIGU) restrains
 O11, N2, O15, C1F, C1E, C1H, C1D, C1G, C1C
 with sigma for 1-2 distances of 0.004 and sigma for 1-3 distances of 0.004
6. Others
 Sof(C1U)=Sof(C1W)=Sof(H1W)=Sof(C1L)=Sof(H1L)=Sof(C1K)=Sof(H1K)=Sof(C1T)=
 Sof(H1T)=Sof(C1R)=Sof(H1R)=Sof(N10)=Sof(O17)=Sof(O18)=FVAR(1)
 Sof(C1N)=Sof(C1P)=Sof(H1P)=Sof(C1M)=Sof(H1M)=Sof(C1J)=Sof(H1J)=Sof(C1I)=
 Sof(H1I)=Sof(C1O)=Sof(H1O)=Sof(O12)=Sof(N5B)=Sof(O13)=FVAR(2)
 Sof(C1X)=Sof(C1S)=Sof(H1S)=Sof(C1Q)=Sof(H1Q)=Sof(C62)=Sof(H62)=Sof(C1Y)=
 Sof(H1Y)=Sof(C1V)=Sof(H1V)=Sof(N21)=Sof(O19)=Sof(O21)=FVAR(3)
7.a Ternary CH refined with riding coordinates:
 C25(H25), C47(H47)
7.b Aromatic/amide H refined with riding coordinates:
 C9(H9), C10(H10), C12(H12), C13(H13), C20(H20), C22(H22), C24(H24), C26(H26),
 C27(H27), C28(H28), C30(H30), C31(H31), C32(H32), C33(H33), C34(H34), C35(H35),
  C42(H42), C46(H46), C54(H54), C58(H58), C60(H60), C61(H61), C1(H1), C4(H4),
 C5(H5), C3(H3), C14(H14A), C18(H18), C7(H7), C11(H11), C15(H15), C16(H16A),
 C1A(H1A), C1B(H1B), C1E(H1E), C1H(H1H), C1D(H1D), C1G(H1G), C1C(H1C), C1P(H1P),
  C1M(H1M), C1J(H1J), C1I(H1I), C1O(H1O), C1W(H1W), C1L(H1L), C1K(H1K),
 C1T(H1T), C1R(H1R), C1S(H1S), C1Q(H1Q), C62(H62), C1Y(H1Y), C1V(H1V)
7.c Fitted hexagon refined as free rotating group:
 C1F(C1E,C1H,C1D,C1G,C1C), C1N(C1P,C1M,C1J,C1I,C1O), C1U(C1W,C1L,C1K,C1T,C1R),
 C1X(C1S,C1Q,C62,C1Y,C1V)
;
_shelx_res_file
;
TITL SZCobpR_0m in P2(1)
CELL 1.54178 10.2416 24.956 11.4453 90 91.1057 90
ZERR 2 0.0006 0.0015 0.0007 0 0.0027 0
LATT -1
SYMM -X,0.5+Y,-Z

SFAC C H Co N O
UNIT 120.80168 100.0014 4 20.80028 33.60056
DFIX 0.88 0.01 O14 H14
DFIX 0.88 O16 H16
DFIX 1.22 O18 N10
DFIX 1.47 N5B C1N
DFIX 1.22 O21 N21 O19 N21
DFIX 1.39 C1V C1Y
DFIX 1.47 C1X N21
DFIX -2.2 H47 H16
DANG 1.916801 0.02 C25 H14
DANG 2.896002 0.02 Co2 H14
DELU 0.005 0.005 N3 C10 C24
SIMU 0.02 0.04 1.7 O12 N5B
SIMU 0.04 0.08 1.7 C37 C54 C31 N15 C28 C60
SIMU 0.04 0.08 1.7 O1 C23 O5 C47
SIMU 0.04 0.08 1.7 C3 C1B C15 C4 C6 C5
SIMU 0.04 0.08 1.7 C17 C22 C13
RIGU O11 N2 O15 C1F C1E C1H C1D C1G C1C
EADP O18 N5B

L.S. 10
PLAN  60
SIZE 0.12 0.07 0.04
TEMP -173.14
BOND
bond $h
list 4
MORE -1
CONF
fmap 2 53
acta 131.95
TWIN 1 0 0 0 -1 0 0 0 -1 2
REM <HKL>P:/Xray_Data/SZ/SZCobpas/SZCobpR/work/refine/SZCobpR_0m.hkl</HKL>

WGHT    0.025800   30.574299
BASF   0.03932
FVAR       0.09225   0.53482   0.39759   0.47313
CO1   3   -0.450868    0.861454   -0.547563    11.00000    0.01263    0.01435 =
         0.01500    0.00284    0.00017    0.00123
CO2   3   -0.950164    0.941288   -0.564262    11.00000    0.01043    0.01225 =
         0.02207   -0.00010    0.00019    0.00107
O1    5   -0.263570    0.893677   -0.552528    11.00000    0.01555    0.01704 =
         0.02597    0.00465   -0.00116    0.00308
O2    5   -0.763761    0.908773   -0.558996    11.00000    0.00876    0.01513 =
         0.03254    0.00501    0.00020    0.00128
N3    4   -0.462062    0.853010   -0.737533    11.00000    0.01365    0.01890 =
         0.03078    0.00306   -0.00257    0.00039
N4    4   -0.453218    0.857365   -1.358297    11.00000    0.02820    0.01148 =
         0.01097    0.00298    0.00345    0.00454
O5    5   -0.139546    0.966596   -0.568714    11.00000    0.00934    0.01672 =
         0.02995    0.00804    0.00201   -0.00020
N6    4   -0.950020    0.944793   -0.377423    11.00000    0.01478    0.02966 =
         0.00644    0.00095    0.00100    0.00245
O7    5   -0.639339    0.835656   -0.548379    11.00000    0.02017    0.01228 =
         0.01951   -0.00150    0.00070    0.00189
C8    1   -0.747546    0.859518   -0.556161    11.00000    0.01402    0.01345 =
         0.01175    0.00445    0.00050   -0.00011
C9    1   -1.055851    0.960942   -0.315394    11.00000    0.00708    0.04565 =
         0.03992    0.00103   -0.00099    0.00628
AFIX  43
H9    2   -1.132683    0.971051   -0.357693    11.00000   -1.20000
AFIX   0
C10   1   -0.569584    0.855123   -0.799317    11.00000    0.01927    0.02908 =
         0.00730    0.00606   -0.00046   -0.00183
AFIX  43
H10   2   -0.650105    0.857663   -0.759851    11.00000   -1.20000
AFIX   0
N11   4   -0.951145    0.946924    0.245960    11.00000    0.01222    0.01677 =
         0.02803    0.00160   -0.00256    0.00068
C12   1   -0.840528    0.934855   -0.304235    11.00000    0.00931    0.02372 =
         0.05519    0.00441    0.00542   -0.00031
AFIX  43
H12   2   -0.761798    0.925247   -0.341466    11.00000   -1.20000
AFIX   0
C13   1   -0.349728    0.870948   -1.286339    11.00000    0.01626    0.04365 =
         0.02303   -0.00762    0.00621   -0.01195
AFIX  43
H13   2   -0.272848    0.883206   -1.323015    11.00000   -1.20000
AFIX   0
O14   5   -0.982419    0.854750   -0.577690    11.00000    0.00709    0.01302 =
         0.05732    0.00501    0.00025   -0.00116
H14   2   -1.040149    0.835044   -0.617505    11.00000   -1.50000
N15   4   -0.126234    0.520733   -0.439541    11.00000    0.01386    0.01341 =
         0.03129   -0.00050   -0.00333   -0.00036
O16   5   -0.481983    0.947910   -0.548937    11.00000    0.01221    0.01502 =
         0.03811    0.00163    0.00500   -0.00211
H16   2   -0.532631    0.956891   -0.490494    11.00000   -1.50000
C17   1   -0.453148    0.849686   -1.108835    11.00000    0.01254    0.01817 =
         0.03570   -0.00117   -0.00205    0.00124
N18   4   -0.369029    0.782713   -0.534380    11.00000    0.01244    0.01751 =
         0.01631    0.00189    0.00163    0.00444
C19   1   -0.948138    0.951147    0.002878    11.00000    0.01903    0.01981 =
         0.01774    0.00072    0.00557    0.00085
C20   1   -0.836391    0.937642   -0.186018    11.00000    0.00999    0.03093 =
         0.02672   -0.00643   -0.00773   -0.00112
AFIX  43
H20   2   -0.757631    0.930345   -0.143777    11.00000   -1.20000
AFIX   0
C21   1   -0.455657    0.848611   -0.982514    11.00000    0.01401    0.02293 =
         0.01502    0.00387    0.00142   -0.00162
C22   1   -0.346611    0.868609   -1.169919    11.00000    0.02334    0.06401 =
         0.01577   -0.02228   -0.00242   -0.00921
AFIX  43
H22   2   -0.270529    0.880034   -1.128160    11.00000   -1.20000
AFIX   0
C23   1   -0.249327    0.942699   -0.562145    11.00000    0.02517    0.01999 =
         0.00536   -0.00570    0.00157    0.00227
C24   1   -0.571883    0.853845   -0.919241    11.00000    0.01024    0.02598 =
         0.01549    0.00785    0.00966    0.00331
AFIX  43
H24   2   -0.653095    0.856529   -0.960345    11.00000   -1.20000
AFIX   0
C25   1   -0.867024    0.822973   -0.562008    11.00000    0.00758    0.02193 =
         0.03311    0.00126   -0.00154    0.00115
AFIX  13
H25   2   -0.858866    0.799033   -0.631549    11.00000   -1.20000
AFIX   0
C26   1   -1.057583    0.963423   -0.194522    11.00000    0.01656    0.05507 =
         0.02819   -0.00489    0.00693    0.00660
AFIX  43
H26   2   -1.135368    0.973689   -0.156551    11.00000   -1.20000
AFIX   0
C27   1   -0.347930    0.846099   -0.794043    11.00000    0.01822    0.02805 =
         0.01404   -0.00089    0.00055    0.00056
AFIX  43
H27   2   -0.269271    0.843008   -0.749191    11.00000   -1.20000
AFIX   0
C28   1   -0.250222    0.530836   -0.455238    11.00000    0.01739    0.01176 =
         0.09297    0.01576   -0.01337   -0.00546
AFIX  43
H28   2   -0.308509    0.501224   -0.455127    11.00000   -1.20000
AFIX   0
C29   1   -0.947067    0.951085   -0.128713    11.00000    0.02827    0.02465 =
         0.02689   -0.00601    0.00324   -0.00401
C30   1   -0.841417    0.954544    0.187937    11.00000    0.01474    0.02444 =
         0.02354   -0.00339   -0.00531    0.00075
AFIX  43
H30   2   -0.762208    0.957980    0.231867    11.00000   -1.20000
AFIX   0
C31   1   -0.049953    0.563274   -0.430587    11.00000    0.01338    0.01781 =
         0.19148   -0.00141   -0.01464    0.00024
AFIX  43
H31   2    0.039320    0.558279   -0.409250    11.00000   -1.20000
AFIX   0
C32   1   -1.060289    0.942076    0.184156    11.00000    0.02221    0.02688 =
         0.01391    0.00091    0.00277   -0.00179
AFIX  43
H32   2   -1.139397    0.936681    0.224529    11.00000   -1.20000
AFIX   0
C33   1   -0.835831    0.957670    0.071186    11.00000    0.02025    0.02585 =
         0.01939    0.00428    0.00347   -0.00134
AFIX  43
H33   2   -0.754690    0.964376    0.035091    11.00000   -1.20000
AFIX   0
C34   1   -0.342152    0.843460   -0.911607    11.00000    0.01104    0.02791 =
         0.04363    0.00234    0.00272    0.00207
AFIX  43
H34   2   -0.260192    0.838038   -0.947244    11.00000   -1.20000
AFIX   0
C35   1   -0.554369    0.836685   -1.298368    11.00000    0.02281    0.02125 =
         0.02911   -0.00575    0.00890   -0.00669
AFIX  43
H35   2   -0.626562    0.823403   -1.342964    11.00000   -1.20000
AFIX   0
C37   1   -0.223760    0.624458   -0.469825    11.00000    0.01023    0.01443 =
         0.03784   -0.00674    0.00598   -0.00210
C39   1   -0.274961    0.679583   -0.491653    11.00000    0.01827    0.01489 =
         0.02875    0.00514    0.00839    0.00026
C42   1   -1.065476    0.944404    0.065342    11.00000    0.01180    0.02825 =
         0.03374   -0.00675    0.01069   -0.00131
AFIX  43
H42   2   -1.146855    0.941544    0.024569    11.00000   -1.20000
AFIX   0
C46   1   -0.561833    0.833203   -1.178196    11.00000    0.01974    0.03033 =
         0.02443    0.00615    0.00035   -0.00629
AFIX  43
H46   2   -0.638518    0.819985   -1.142752    11.00000   -1.20000
AFIX   0
C47   1   -0.368783    0.979667   -0.569138    11.00000    0.01568    0.01265 =
         0.02259    0.00358    0.00083   -0.00161
AFIX  13
H47   2   -0.360807    1.008087   -0.507822    11.00000   -1.20000
AFIX   0
C54   1   -0.094338    0.614401   -0.450835    11.00000    0.01488    0.02580 =
         0.19089    0.00737   -0.02311   -0.00003
AFIX  43
H54   2   -0.033821    0.643242   -0.451618    11.00000   -1.20000
AFIX   0
C58   1   -0.194583    0.723364   -0.478184    11.00000    0.02102    0.01293 =
         0.03522    0.00346   -0.01283    0.00363
AFIX  43
H58   2   -0.105857    0.719007   -0.454333    11.00000   -1.20000
AFIX   0
C60   1   -0.302878    0.580401   -0.471775    11.00000    0.01186    0.01922 =
         0.09220    0.01096   -0.01837   -0.00568
AFIX  43
H60   2   -0.394295    0.584333   -0.484620    11.00000   -1.20000
AFIX   0
C61   1   -0.400851    0.687977   -0.529098    11.00000    0.01956    0.00944 =
         0.10421   -0.00372    0.00125   -0.00340
AFIX  43
H61   2   -0.458869    0.658573   -0.539301    11.00000   -1.20000
AFIX   0

O3    5   -1.061694    0.813691   -0.782031    11.00000    0.01857    0.04309 =
         0.03297   -0.00900    0.00333   -0.00120
O4    5   -0.560366    0.980360   -0.342771    11.00000    0.02908    0.04370 =
         0.03093   -0.00716   -0.00353    0.00231
N1    4   -0.983898    0.816155   -0.866506    11.00000    0.03892    0.02033 =
         0.04137   -0.01504   -0.00630   -0.00101
O6    5   -1.027193    0.808632   -0.969362    11.00000    0.03082    0.07829 =
         0.03968   -0.02361    0.00529    0.00051
O8    5   -0.866906    0.825580   -0.847191    11.00000    0.01418    0.04899 =
         0.06451   -0.01343   -0.00300   -0.00308
O9    5   -0.362136    0.994861   -0.287339    11.00000    0.03156    0.05325 =
         0.06064    0.00705   -0.00659   -0.01227
O10   5   -0.512691    0.988117   -0.161757    11.00000    0.06495    0.15840 =
         0.03396    0.00359    0.00814   -0.01111
N20   4   -0.477459    0.988796   -0.261743    11.00000    0.03427    0.04431 =
         0.02896   -0.00578   -0.00776   -0.00122
C1    1   -0.448936    0.984021   -0.782691    11.00000    0.04025    0.02881 =
         0.03905    0.01264   -0.01389    0.00171
AFIX  43
H1    2   -0.505653    0.954669   -0.768886    11.00000   -1.20000
AFIX   0
C2    1   -0.375146    1.005625   -0.689894    11.00000    0.02401    0.02200 =
         0.02013    0.00074   -0.00017    0.00049
C4    1   -0.935426    0.805935   -0.352679    11.00000    0.04867    0.04942 =
         0.02119   -0.00661   -0.00227   -0.02964
AFIX  43
H4    2   -0.985909    0.837871   -0.352697    11.00000   -1.20000
AFIX   0
C5    1   -0.804568    0.738562   -0.454905    11.00000    0.03132    0.04390 =
         0.09598    0.04518    0.01968    0.00566
AFIX  43
H5    2   -0.766542    0.724680   -0.523646    11.00000   -1.20000
AFIX   0
C6    1   -0.871747    0.788138   -0.453730    11.00000    0.01624    0.02270 =
         0.03232    0.01475   -0.00987   -0.01408
C3    1   -0.797841    0.710956   -0.346318    11.00000    0.04931    0.07743 =
         0.13898    0.08287    0.01152    0.00370
AFIX  43
H3    2   -0.751560    0.677985   -0.342927    11.00000   -1.20000
AFIX   0
C14   1   -0.294902    1.049713   -0.712733    11.00000    0.02608    0.03067 =
         0.05359    0.01132   -0.00406   -0.01022
AFIX  43
H14A  2   -0.245428    1.065797   -0.651047    11.00000   -1.20000
AFIX   0
C18   1   -0.287775    1.069488   -0.823025    11.00000    0.03956    0.06436 =
         0.05247    0.02924    0.00788   -0.00969
AFIX  43
H18   2   -0.234300    1.099862   -0.836737    11.00000   -1.20000
AFIX   0
C7    1   -0.356199    1.046677   -0.916210    11.00000    0.06443    0.08528 =
         0.03160    0.03291    0.01564    0.02618
AFIX  43
H7    2   -0.345644    1.059484   -0.993620    11.00000   -1.20000
AFIX   0
C11   1   -0.440390    1.004677   -0.893202    11.00000    0.07519    0.03085 =
         0.03429    0.00827   -0.01108    0.01144
AFIX  43
H11   2   -0.492767    0.990043   -0.954733    11.00000   -1.20000
AFIX   0
C15   1   -0.920547    0.774084   -0.251812    11.00000    0.09202    0.07825 =
         0.04706    0.03942   -0.01274   -0.04144
AFIX  43
H15   2   -0.961584    0.786057   -0.182806    11.00000   -1.20000
AFIX   0
C16   1   -0.246082    0.774818   -0.500372    11.00000    0.01128    0.01797 =
         0.03689   -0.00628   -0.00056    0.00026
AFIX  43
H16A  2   -0.190499    0.805026   -0.490570    11.00000   -1.20000
AFIX   0
C1A   1   -0.443664    0.740360   -0.552334    11.00000    0.01369    0.02074 =
         0.08589   -0.00994   -0.00869    0.00297
AFIX  43
H1A   2   -0.529930    0.745524   -0.582218    11.00000   -1.20000
AFIX   0
C1B   1   -0.854530    0.729248   -0.245793    11.00000    0.05802    0.11178 =
         0.09052    0.07745   -0.01818   -0.04360
AFIX  43
H1B   2   -0.846011    0.709974   -0.174475    11.00000   -1.20000
AFIX   0

N2    4   -0.054486    0.621405   -0.058595    11.00000    0.12763    0.06892 =
         0.13518    0.01951    0.01299   -0.00468
O11   5    0.027589    0.652026   -0.022483    11.00000    0.14692    0.10269 =
         0.13873    0.01620    0.01577   -0.03047
AFIX  66
C1F   1   -0.171875    0.644511   -0.102352    11.00000    0.12581    0.05128 =
         0.08973   -0.00685    0.02895   -0.00372
C1E   1   -0.267102    0.609666   -0.145449    11.00000    0.13572    0.03877 =
         0.08191   -0.00667    0.02429   -0.00718
AFIX  43
H1E   2   -0.254627    0.572040   -0.139391    11.00000   -1.20000
AFIX  65
C1H   1   -0.380583    0.629874   -0.197410    11.00000    0.13918    0.07824 =
         0.09386   -0.00212    0.02859   -0.00233
AFIX  43
H1H   2   -0.445667    0.606059   -0.226865    11.00000   -1.20000
AFIX  65
C1D   1   -0.398837    0.684927   -0.206274    11.00000    0.10346    0.07524 =
         0.08766    0.00134    0.05137   -0.00292
AFIX  43
H1D   2   -0.476396    0.698738   -0.241787    11.00000   -1.20000
AFIX  65
C1G   1   -0.303610    0.719772   -0.163177    11.00000    0.12163    0.06872 =
         0.14225    0.00643    0.03034    0.00095
AFIX  43
H1G   2   -0.316086    0.757398   -0.169236    11.00000   -1.20000
AFIX  65
C1C   1   -0.190129    0.699565   -0.111216    11.00000    0.10100    0.04263 =
         0.08322   -0.00159    0.05608   -0.01002
AFIX  43
H1C   2   -0.125046    0.723380   -0.081761    11.00000   -1.20000
AFIX   0
O15   5   -0.038219    0.573087   -0.062346    11.00000    0.17048    0.06935 =
         0.46613   -0.01126   -0.10266   -0.00354

PART 2
AFIX  66
C1N   1   -0.674350    0.647305   -0.759011    31.00000    0.03188
C1P   1   -0.755118    0.684190   -0.815718    31.00000    0.05122
AFIX  43
H1P   2   -0.842785    0.688621   -0.791842    31.00000   -1.20000
AFIX  65
C1M   1   -0.707618    0.714592   -0.907358    31.00000    0.06031
AFIX  43
H1M   2   -0.762819    0.739801   -0.946114    31.00000   -1.20000
AFIX  65
C1J   1   -0.579348    0.708109   -0.942293    31.00000    0.09465
AFIX  43
H1J   2   -0.546884    0.728887   -1.004925    31.00000   -1.20000
AFIX  65
C1I   1   -0.498579    0.671224   -0.885587    31.00000    0.02737
AFIX  43
H1I   2   -0.410912    0.666793   -0.909464    31.00000   -1.20000
AFIX  65
C1O   1   -0.546078    0.640822   -0.793947    31.00000    0.04183
AFIX  43
H1O   2   -0.490876    0.615613   -0.755191    31.00000   -1.20000
AFIX   0
O12   5   -0.633282    0.599471   -0.584967    31.00000    0.02381
N5B   4   -0.712232    0.618112   -0.654133    31.00000    0.07311
O13   5   -0.833622    0.609570   -0.642618    31.00000    0.07098
PART 0
PART 1
AFIX  66
C1U   1   -0.892913    0.643633   -0.704609    21.00000    0.06245
C1W   1   -0.937272    0.590994   -0.705951    21.00000    0.07402
AFIX  43
H1W   2   -0.879290    0.562584   -0.685939    21.00000   -1.20000
AFIX  65
C1L   1   -1.066468    0.579921   -0.736574    21.00000    0.04596
AFIX  43
H1L   2   -1.096785    0.543944   -0.737491    21.00000   -1.20000
AFIX  65
C1K   1   -1.151306    0.621488   -0.765855    21.00000    0.04648
AFIX  43
H1K   2   -1.239605    0.613920   -0.786785    21.00000   -1.20000
AFIX  65
C1T   1   -1.106948    0.674127   -0.764514    21.00000    0.06881
AFIX  43
H1T   2   -1.164931    0.702536   -0.784526    21.00000   -1.20000
AFIX  65
C1R   1   -0.977753    0.685201   -0.733891    21.00000    0.06701
AFIX  43
H1R   2   -0.947436    0.721177   -0.732974    21.00000   -1.20000
AFIX   0
N10   4   -0.753276    0.649641   -0.661686    21.00000    0.10888
O17   5   -0.714638    0.698216   -0.699605    21.00000    0.11840
O18   5   -0.696281    0.612629   -0.608701    21.00000    0.07311
PART 0
PART 3
AFIX  66
C1X   1   -0.468292    0.661456   -0.875860    41.00000    0.10634
C1S   1   -0.378573    0.702956   -0.863435    41.00000    0.07367
AFIX  43
H1S   2   -0.402971    0.738495   -0.884055    41.00000   -1.20000
AFIX  65
C1Q   1   -0.253155    0.692455   -0.820837    41.00000    0.06270
AFIX  43
H1Q   2   -0.191836    0.720818   -0.812345    41.00000   -1.20000
AFIX  65
C62   1   -0.217455    0.640456   -0.790666    41.00000    0.12520
AFIX  43
H62   2   -0.131737    0.633279   -0.761553    41.00000   -1.20000
AFIX  65
C1Y   1   -0.307173    0.598956   -0.803091    41.00000    0.08241
AFIX  43
H1Y   2   -0.282774    0.563416   -0.782470    41.00000   -1.20000
AFIX  65
C1V   1   -0.432592    0.609456   -0.845688    41.00000    0.12463
AFIX  43
H1V   2   -0.493911    0.581092   -0.854180    41.00000   -1.20000
AFIX   0
N21   4   -0.593060    0.674802   -0.927768    41.00000    0.10830
O19   5   -0.610445    0.718812   -0.972318    41.00000    0.16615
O21   5   -0.692426    0.647875   -0.922982    41.00000    0.15519
HKLF 4

REM  SZCobpR_0m in P2(1)
REM R1 =  0.0840 for    8763 Fo > 4sig(Fo)  and  0.0862 for all    9068 data
REM    763 parameters refined using    178 restraints

END

WGHT      0.0424     23.5897

REM Highest difference peak  1.906,  deepest hole -0.891,  1-sigma level  0.124
Q1    1  -0.4519  0.8619 -0.6276  11.00000  0.05    1.91
Q2    1  -0.9450  0.9433 -0.6403  11.00000  0.05    1.80
Q3    1  -0.6503  0.8600 -1.2627  11.00000  0.05    0.91
Q4    1  -0.4693  0.6456 -0.2737  11.00000  0.05    0.82
Q5    1  -1.1402  0.9399 -0.2680  11.00000  0.05    0.77
Q6    1  -0.3666  0.6575 -0.8393  11.00000  0.05    0.76
Q7    1  -1.1514  0.9410 -0.3970  11.00000  0.05    0.71
Q8    1  -0.9996  0.6547 -0.7331  11.00000  0.05    0.68
Q9    1  -1.1403  0.7816 -0.2818  11.00000  0.05    0.64
Q10   1  -0.4458  1.0231 -0.6000  11.00000  0.05    0.63
Q11   1  -0.5510  0.8578 -1.0211  11.00000  0.05    0.62
Q12   1  -0.9442  0.9421 -0.4461  11.00000  0.05    0.59
Q13   1  -0.4456  0.8569 -1.4414  11.00000  0.05    0.57
Q14   1  -0.0927  0.6942 -0.0472  11.00000  0.05    0.56
Q15   1  -0.3046  0.6960 -0.8288  11.00000  0.05    0.55
Q16   1  -0.9574  0.7828 -0.5299  11.00000  0.05    0.54
Q17   1  -1.1529  0.5982 -0.7863  11.00000  0.05    0.54
Q18   1  -0.4383  0.7212 -0.2175  11.00000  0.05    0.53
Q19   1  -1.0466  0.9457 -0.0213  11.00000  0.05    0.53
Q20   1  -0.5618  0.8617 -0.5876  11.00000  0.05    0.52
Q21   1  -0.3630  0.6036 -0.8022  11.00000  0.05    0.51
Q22   1  -0.4949  0.9387 -0.6256  11.00000  0.05    0.51
Q23   1  -0.2551  0.8881 -0.6233  11.00000  0.05    0.51
Q24   1  -0.7567  0.9386  0.2244  11.00000  0.05    0.51
Q25   1  -0.6489  0.8578 -1.4073  11.00000  0.05    0.48
Q26   1  -0.4402  0.9055 -0.5581  11.00000  0.05    0.47
Q27   1  -0.8494  0.9435 -0.3810  11.00000  0.05    0.47
Q28   1  -0.6891  0.6024 -0.5537  11.00000  0.05    0.45
Q29   1  -0.3695  0.8603 -0.4784  11.00000  0.05    0.44
Q30   1  -1.0289  0.7899 -1.0350  11.00000  0.05    0.44
Q31   1  -0.2656  0.5806 -0.8032  11.00000  0.05    0.44
Q32   1  -0.4393  0.8611 -1.2088  11.00000  0.05    0.44
Q33   1  -0.6627  1.0214 -0.3662  11.00000  0.05    0.43
Q34   1  -0.9376  0.6980 -0.7183  11.00000  0.05    0.43
Q35   1  -0.6375  0.8360 -0.6378  11.00000  0.05    0.43
Q36   1  -0.2682  0.8606 -0.7624  11.00000  0.05    0.43
Q37   1  -0.2534  0.9385 -0.6507  11.00000  0.05    0.43
Q38   1  -1.0418  0.7949 -0.2238  11.00000  0.05    0.42
Q39   1  -0.3738  0.5204 -0.7446  11.00000  0.05    0.42
Q40   1  -0.9516  0.9547 -0.2174  11.00000  0.05    0.42
Q41   1  -0.1235  0.5963 -0.1006  11.00000  0.05    0.41
Q42   1  -0.9397  0.9484  0.1904  11.00000  0.05    0.41
Q43   1  -0.2051  0.6113 -0.1608  11.00000  0.05    0.41
Q44   1  -0.3479  0.8632 -1.3741  11.00000  0.05    0.41
Q45   1  -0.9600  0.8983 -0.5753  11.00000  0.05    0.40
Q46   1  -1.2871  0.9398  0.2205  11.00000  0.05    0.39
Q47   1  -0.7607  0.7473 -0.9731  11.00000  0.05    0.39
Q48   1  -0.1391  0.9625 -0.6421  11.00000  0.05    0.39
Q49   1  -0.9176  0.6182 -0.7019  11.00000  0.05    0.39
Q50   1  -1.0425  0.7989 -0.5877  11.00000  0.05    0.39
Q51   1  -0.0456  0.6426 -0.3775  11.00000  0.05    0.39
Q52   1  -0.9689  0.9750 -0.4004  11.00000  0.05    0.39
Q53   1  -0.7584  0.9198 -0.6221  11.00000  0.05    0.38
Q54   1  -0.8328  0.9508 -0.0162  11.00000  0.05    0.38
Q55   1  -0.2695  0.6652 -0.1599  11.00000  0.05    0.38
Q56   1  -1.1795  0.6834 -0.7922  11.00000  0.05    0.38
Q57   1  -0.9775  0.9814 -0.5820  11.00000  0.05    0.37
Q58   1  -0.5442  1.0240 -0.1931  11.00000  0.05    0.37
Q59   1  -0.5778  0.8442 -0.8616  11.00000  0.05    0.37
Q60   1  -0.8906  0.9236 -0.3022  11.00000  0.05    0.37
;
_shelx_res_checksum              25309
_shelx_hkl_file
;
  -1   0   0    0.21    0.06
  -1   0   0    0.19    0.06
  -2   0   0  197.72   13.19
  -2   0   0  198.33   13.32
  -2   0   0  200.27   13.92
  -3   0   0    1.00    0.17
  -3   0   0    1.47    0.17
  -3   0   0    1.80    0.25
   4   0   0   15.71    1.09
  -4   0   0   14.76    1.07
  -4   0   0   15.30    1.16
  -4   0   0   14.77    1.06
   5   0   0    0.52    0.26
  -5   0   0    0.57    0.31
  -5   0   0    0.52    0.20
   5   0   0    0.76    0.29
  -5   0   0    0.24    0.23
  -6   0   0    7.43    0.71
  -6   0   0    8.98    0.89
   6   0   0    7.03    0.81
   6   0   0    7.71    0.82
   7   0   0    0.75    0.52
   7   0   0    0.86    0.64
  -7   0   0    0.33    0.59
  -1  -1   0   13.31    0.92
   1  -1   0   12.66    0.92
   1  -1   0   13.61    0.93
  -1   1   0   13.39    0.92
  -1   1   0   13.30    0.93
   1   1   0   12.91    0.93
  -2  -1   0  376.51   31.19
  -2   1   0  512.90   29.67
  -2   1   0  499.27   29.92
  -2   1   0  395.74   31.19
  -3  -1   0    3.97    0.36
  -3  -1   0    3.26    0.29
  -3  -1   0    3.29    0.29
  -3   1   0    3.12    0.28
  -3   1   0    4.05    0.36
   3   1   0    3.31    0.31
  -3   1   0    3.34    0.28
  -4  -1   0   17.37    1.18
  -4  -1   0   17.43    1.19
   4  -1   0   17.47    1.20
  -4  -1   0   17.15    1.29
  -4   1   0   14.87    1.18
   5  -1   0   25.03    1.80
   5  -1   0   24.54    1.80
  -5  -1   0   24.77    1.76
  -5  -1   0   25.07    1.91
  -5  -1   0   26.75    1.79
  -5   1   0   25.55    1.91
  -5   1   0   26.49    1.78
  -5   1   0   24.00    1.75
   5   1   0   25.17    1.80
   6  -1   0   28.67    2.11
   6  -1   0   27.60    2.11
  -6  -1   0   28.57    2.23
  -6  -1   0   28.12    2.04
   6   1   0   29.83    2.11
  -6   1   0   29.72    2.04
  -6   1   0   31.19    2.23
   6   1   0   28.81    2.12
   7  -1   0    1.03    0.67
  -7  -1   0    0.66    0.46
  -7  -1   0    1.34    0.60
   7   1   0    1.98    0.55
   7   1   0    1.97    0.65
   0  -2   0  241.42   16.34
   0  -2   0  246.19   16.18
  -1  -2   0   24.31    1.74
   1  -2   0   22.38    1.65
  -1  -2   0   22.78    1.64
  -1  -2   0   23.75    1.66
   1  -2   0   24.23    1.64
   1   2   0   26.54    1.67
  -1   2   0   27.89    1.65
   2  -2   0  309.93   22.24
  -2  -2   0  307.99   23.46
  -2  -2   0  320.19   22.24
  -2  -2   0  309.95   22.45
   2   2   0  318.18   22.46
  -2   2   0  391.46   22.31
  -2   2   0  388.59   23.45
   3  -2   0    7.02    0.57
  -3  -2   0    6.61    0.56
  -3  -2   0    7.42    0.56
  -3  -2   0    6.47    0.63
   3   2   0    8.63    0.59
  -3   2   0    8.10    0.62
  -3   2   0    8.78    0.56
  -3   2   0    8.56    0.56
  -4  -2   0    5.32    0.52
  -4  -2   0    6.25    0.51
   4  -2   0    6.68    0.54
  -4  -2   0    5.88    0.61
  -4   2   0    6.74    0.60
  -4   2   0    7.05    0.51
  -4   2   0    7.54    0.52
   4   2   0    6.41    0.55
  -5  -2   0   18.00    1.27
   5  -2   0   16.18    1.30
  -5  -2   0   18.65    1.41
   5  -2   0   18.04    1.31
  -5   2   0   17.39    1.28
  -5   2   0   19.45    1.39
   5   2   0   16.25    1.30
  -6  -2   0    1.05    0.32
  -6  -2   0    0.90    0.44
   6  -2   0    0.40    0.42
   6  -2   0    0.58    0.42
   6   2   0    0.33    0.36
  -6   2   0    0.36    0.10
  -6   2   0    0.14    0.42
  -7  -2   0    9.59    1.12
  -7  -2   0    9.67    0.93
   7   2   0    7.82    1.06
   7   2   0    8.75    1.15
   7   2   0    9.09    1.04
   8   2   0    7.14    1.24
   0  -3   0   -0.33    0.05
   0   3   0   -0.34    0.04
  -1  -3   0   14.62    1.16
   1  -3   0   15.28    1.09
  -1  -3   0   15.67    1.09
  -1   3   0   17.39    1.09
   1   3   0   16.03    1.11
  -2  -3   0    0.97    0.14
  -2  -3   0    1.02    0.19
   2  -3   0    0.99    0.15
  -2  -3   0    1.00    0.14
  -3  -3   0    5.09    0.45
  -3  -3   0    4.35    0.37
   3  -3   0    4.72    0.39
  -3  -3   0    4.41    0.37
  -4  -3   0    4.31    0.39
  -4  -3   0    4.15    0.49
  -4  -3   0    3.97    0.40
   4  -3   0    4.42    0.41
  -5  -3   0   36.63    2.78
  -5  -3   0   36.36    2.59
   5  -3   0   37.12    2.62
   5  -3   0   35.84    2.62
  -5   3   0   36.34    2.60
  -5   3   0   41.39    2.76
   5   3   0   40.84    2.65
   6  -3   0   36.65    2.62
  -6  -3   0   35.21    2.76
  -6  -3   0   35.30    2.56
  -6   3   0   38.19    2.35
   6   3   0   38.44    2.63
  -7  -3   0   41.48    2.91
  -7  -3   0   37.13    2.69
   7   3   0   37.60    2.86
   7   3   0   34.99    2.78
   7   3   0   36.44    2.78
  -8  -3   0   16.48    1.34
  -8  -3   0   18.64    1.84
   8   3   0   17.26    1.69
   0  -4   0  143.43   10.05
   0   4   0  157.29   10.14
  -1  -4   0   96.26    6.80
  -1  -4   0   94.21    7.18
   1  -4   0  102.32    6.80
   1   4   0  107.90    6.87
  -1   4   0  109.72    6.86
   2  -4   0    1.56    0.20
  -2  -4   0    1.73    0.20
  -2  -4   0    2.10    0.23
  -3  -4   0   49.86    3.48
  -3  -4   0   49.11    3.69
   3  -4   0   53.37    3.48
  -3   4   0   55.72    3.66
   3   4   0   51.97    3.52
  -3   4   0   50.49    3.49
   4  -4   0   32.84    2.30
  -4  -4   0   32.55    2.45
  -4  -4   0   31.14    2.28
   4   4   0   33.98    2.33
  -4   4   0   34.66    2.29
  -4   4   0   35.56    2.41
  -5  -4   0    2.11    0.42
   5  -4   0    2.04    0.37
  -5  -4   0    1.66    0.35
   5   4   0    2.38    0.38
  -5   4   0    2.01    0.18
  -5   4   0    2.11    0.38
  -6  -4   0    5.05    0.75
   6  -4   0    3.74    0.73
  -6  -4   0    4.35    0.56
  -6   4   0    4.27    0.32
   6   4   0    4.28    0.64
  -7  -4   0   22.51    1.76
  -7  -4   0   24.60    1.96
   7   4   0   22.10    1.89
   7   4   0   21.32    1.84
  -8  -4   0    7.34    0.68
  -8  -4   0    7.36    0.63
  -8  -4   0    8.98    1.41
   8   4   0   10.45    1.28
  -9  -4   0   58.08    4.35
   0  -5   0   -0.22    0.08
   0  -5   0   -0.28    0.09
   0   5   0   -0.32    0.06
   0   5   0   -0.31    0.07
  -1  -5   0   35.30    2.40
  -1  -5   0   33.92    2.53
   1  -5   0   35.83    2.39
   1   5   0   35.48    2.42
  -1   5   0   36.73    2.41
   2  -5   0    1.30    0.19
  -2  -5   0    1.30    0.19
  -2   5   0    1.37    0.15
   2   5   0    1.24    0.20
  -3  -5   0   16.49    1.32
  -3  -5   0   17.38    1.22
   3  -5   0   18.06    1.23
  -3   5   0   17.88    1.21
  -3   5   0   18.35    1.28
   3   5   0   16.96    1.24
  -4  -5   0   11.24    0.82
   4  -5   0   12.14    0.85
  -4  -5   0   12.26    0.92
  -4   5   0    9.68    0.80
   4   5   0    9.91    0.85
   5  -5   0   20.20    1.42
  -5  -5   0   20.92    1.53
  -5  -5   0   20.25    1.39
   5   5   0   15.32    1.41
  -6  -5   0   40.01    2.78
  -6  -5   0   42.48    3.01
  -6   5   0   42.33    2.55
   6   5   0   34.76    2.82
  -7  -5   0   40.56    2.86
  -7  -5   0   42.73    3.09
   7   5   0   37.67    3.03
  -7   5   0   39.80    2.56
   7   5   0   39.34    2.94
  -8  -5   0    0.80    0.21
  -8  -5   0    0.97    0.19
  -8  -5   0    1.27    0.84
   8   5   0    0.11    0.68
  -8   5   0    0.34    0.24
  -8   5   0    0.58    0.20
  -9  -5   0    1.00    0.20
  -9  -5   0    1.61    0.34
  -9   5   0    0.48    0.25
 -10  -5   0    3.48    0.42
   0  -6   0  272.37   17.92
   0  -6   0  261.13   18.88
   0   6   0  268.68   18.88
   0   6   0  276.40   18.09
   1  -6   0  939.32   62.40
  -1  -6   0  893.01   62.38
   1   6   0  925.08   63.03
  -1   6   0 1000.00   62.98
   2  -6   0  218.15   13.62
  -2  -6   0  175.18   14.36
  -2  -6   0  211.65   13.62
   2   6   0  201.25   13.75
  -2   6   0  217.91   13.73
  -3  -6   0    5.34    0.52
  -3  -6   0    5.88    0.47
  -4  -6   0   15.11    1.27
   4  -6   0   16.76    1.18
  -4  -6   0   15.56    1.16
   4   6   0   16.44    1.19
  -4   6   0   16.54    1.14
  -5  -6   0    6.52    0.62
  -5  -6   0    6.40    0.71
   5  -6   0    7.01    0.69
   5   6   0    6.08    0.65
  -5   6   0    6.73    0.44
  -6  -6   0    3.70    0.61
  -6  -6   0    3.62    0.77
   6   6   0    4.83    0.69
   6   6   0    4.53    0.68
  -6   6   0    4.08    0.30
  -7  -6   0   36.31    2.63
  -7  -6   0   31.38    2.41
   7   6   0   33.38    2.56
   7   6   0   31.20    2.49
  -7   6   0   32.46    2.11
  -8  -6   0    3.60    0.38
  -8  -6   0    3.22    0.92
  -8  -6   0    3.02    0.41
  -8   6   0    3.55    0.40
   8   6   0    3.09    0.80
  -8   6   0    4.13    0.42
  -9  -6   0   63.39    4.54
  -9  -6   0   60.23    4.30
  -9   6   0   57.09    4.32
  -9   6   0   62.05    4.24
 -10  -6   0    5.18    0.53
 -10   6   0    5.88    0.54
   0  -7   0    0.01    0.13
   0  -7   0   -0.13    0.11
   0   7   0    0.01    0.09
   0   7   0   -0.02    0.09
  -1  -7   0   32.04    2.47
  -1  -7   0   32.94    2.34
   1  -7   0   34.43    2.34
   1   7   0   33.98    2.46
   1   7   0   36.61    2.36
  -1   7   0   37.04    2.35
   2  -7   0    1.48    0.25
  -2  -7   0    1.10    0.25
  -2  -7   0    1.13    0.24
  -2   7   0    1.97    0.20
   2   7   0    1.95    0.24
  -3  -7   0   96.58    6.34
  -3  -7   0   93.83    6.70
   3  -7   0   99.36    6.34
  -3   7   0   91.75    6.36
   3   7   0   91.65    6.40
  -4  -7   0    0.97    0.31
   4  -7   0    1.33    0.30
  -4  -7   0    1.31    0.26
   4   7   0    1.51    0.28
   5  -7   0   17.78    1.35
  -5  -7   0   17.15    1.43
  -5  -7   0   17.46    1.31
  -5   7   0   17.81    1.13
   5   7   0   17.26    1.32
  -6  -7   0    0.58    0.37
  -6  -7   0    0.62    0.48
   6   7   0    1.13    0.45
   6   7   0    0.82    0.42
  -6   7   0    0.69    0.11
  -7  -7   0   50.52    3.53
  -7  -7   0   43.13    3.29
   7   7   0   43.52    3.35
   7   7   0   48.31    3.47
  -7   7   0   45.45    2.95
  -8  -7   0    4.45    0.97
  -8  -7   0    3.48    0.44
  -8  -7   0    4.05    0.41
  -8   7   0    4.08    0.41
  -8   7   0    4.78    0.44
   8   7   0    4.56    0.86
  -9  -7   0    4.14    0.45
  -9  -7   0    3.81    0.42
  -9   7   0    4.15    0.44
  -9   7   0    4.21    0.46
 -10  -7   0    1.58    0.34
 -10  -7   0    1.88    0.31
 -10   7   0    1.69    0.36
 -10   7   0    1.82    0.36
 -11  -7   0    1.88    0.31
   0  -8   0  601.60   39.82
   0   8   0  598.61   41.97
   1  -8   0  474.46   31.20
  -1  -8   0  457.36   31.20
  -1  -8   0  516.52   32.90
   1   8   0  462.43   32.89
  -1   8   0  469.54   31.49
   1   8   0  439.82   31.50
   2  -8   0  106.24    7.09
  -2  -8   0  105.56    7.10
  -2  -8   0  100.57    7.48
  -2   8   0  111.90    7.14
   2   8   0  106.49    7.16
  -3  -8   0   49.68    3.34
   3  -8   0   52.12    3.34
  -3  -8   0   50.19    3.54
   3   8   0   47.87    3.37
  -3   8   0   46.25    3.33
  -4  -8   0    2.00    0.37
  -4  -8   0    1.94    0.41
  -4   8   0    1.24    0.13
   4   8   0    0.97    0.28
  -5  -8   0    0.60    0.40
   5  -8   0    1.14    0.47
  -5  -8   0    0.80    0.32
   5   8   0    0.96    0.36
  -5   8   0    0.93    0.13
   5   8   0    1.06    0.36
  -6  -8   0    4.78    0.70
  -6  -8   0    4.81    0.84
  -6   8   0    4.50    0.34
   6   8   0    4.81    0.74
   6   8   0    5.23    0.75
  -7  -8   0    7.13    0.95
  -7  -8   0    5.19    0.52
   7   8   0    5.83    0.90
   7   8   0    5.90    1.04
  -7   8   0    4.96    0.41
  -8  -8   0   31.86    2.42
  -8  -8   0   34.70    2.76
  -8  -8   0   31.60    2.29
  -8  -8   0   31.57    2.23
  -8   8   0   32.83    2.26
   8   8   0   31.01    2.63
  -8   8   0   30.91    2.30
  -9  -8   0   56.26    4.22
  -9  -8   0   53.14    3.99
  -9   8   0   55.71    4.01
  -9   8   0   60.38    3.94
 -10  -8   0   13.74    1.01
 -10  -8   0   13.05    1.07
 -10   8   0   14.30    1.02
 -10   8   0   13.20    1.02
 -11  -8   0   25.36    1.92
   0  -9   0   -0.08    0.14
   0   9   0    0.03    0.12
   0   9   0   -0.03    0.12
   1  -9   0   43.72    2.82
  -1  -9   0   39.40    2.97
  -1  -9   0   36.37    2.82
   1   9   0   46.84    2.85
  -1   9   0   44.73    2.83
  -1   9   0   41.24    2.94
   1   9   0   38.82    2.96
   2   9   0    0.90    0.20
  -2   9   0    1.16    0.22
   2   9   0    1.28    0.22
   3  -9   0   37.96    2.58
  -3  -9   0   37.11    2.59
  -3  -9   0   34.85    2.73
  -3   9   0   36.66    2.40
   3   9   0   38.16    2.61
  -3   9   0   41.20    2.57
   4  -9   0   19.73    1.66
  -4  -9   0   19.33    1.75
   4   9   0   26.69    1.69
  -4   9   0   26.44    1.48
   5   9   0    1.67    0.40
  -5   9   0    1.06    0.15
   5   9   0    1.25    0.36
  -6  -9   0   36.25    2.68
  -6  -9   0   37.36    2.85
   6   9   0   35.35    2.71
   6   9   0   39.63    2.82
  -6   9   0   38.27    2.39
  -7  -9   0    7.41    0.66
  -7  -9   0    8.00    0.68
  -7  -9   0    8.58    0.67
  -7   9   0    8.02    0.66
  -7   9   0    8.25    0.65
   7   9   0    9.16    1.06
  -7   9   0    9.11    0.58
  -8  -9   0   34.33    2.55
  -8  -9   0   35.40    2.89
  -8  -9   0   32.16    2.35
  -8  -9   0   31.70    2.41
   8   9   0   35.47    2.77
  -8   9   0   33.80    2.42
  -8   9   0   34.00    2.38
  -9  -9   0   18.39    1.35
  -9  -9   0   18.58    1.43
  -9   9   0   19.12    1.34
  -9   9   0   17.53    1.35
 -10  -9   0    1.06    0.20
 -10   9   0    1.58    0.32
 -10   9   0    1.12    0.23
 -11  -9   0    2.06    0.31
 -11   9   0    2.73    0.31
   0 -10   0  192.15   12.55
   0  10   0  181.35   13.21
   0  10   0  191.87   12.67
  -1 -10   0   82.85    5.61
   1 -10   0   84.10    5.61
  -1 -10   0   78.73    5.91
  -1  10   0   84.86    5.65
   1  10   0   88.26    5.66
   1  10   0   82.95    5.90
  -2 -10   0  109.31    7.50
   2 -10   0  110.35    7.49
  -2 -10   0  105.79    7.90
   2  10   0  111.65    7.56
  -2  10   0  119.76    7.54
   2  10   0  114.76    7.89
  -3  10   0    1.62    0.15
   3  10   0    1.43    0.32
   3  10   0    2.03    0.35
  -4 -10   0   11.22    1.05
  -4 -10   0   11.73    0.98
   4 -10   0   11.52    1.00
   4  10   0   13.30    0.98
   4  10   0   12.17    1.00
  -4  10   0   11.82    0.78
  -5 -10   0    1.90    0.48
  -5 -10   0    2.87    0.48
  -5  10   0    2.14    0.20
   5  10   0    1.66    0.41
   5  10   0    2.60    0.53
  -6 -10   0   -0.05    0.48
  -6 -10   0    0.13    0.49
   6  10   0    1.13    0.54
   6  10   0    0.60    0.41
  -7 -10   0    2.82    0.33
  -7 -10   0    3.26    0.80
  -7 -10   0    2.77    0.34
  -7  10   0    1.78    0.32
  -7  10   0    1.93    0.31
   7  10   0    2.48    0.67
  -7  10   0    2.49    0.36
  -7  10   0    2.46    0.27
  -8 -10   0   32.61    2.33
  -8 -10   0   30.91    2.15
  -8 -10   0   30.74    2.20
  -8  10   0   29.70    1.98
  -8  10   0   30.33    2.21
   8  10   0   28.77    2.55
  -8  10   0   31.15    2.17
  -9 -10   0    0.96    0.22
  -9 -10   0    0.99    0.30
  -9 -10   0    0.79    0.20
  -9  10   0    0.80    0.22
  -9  10   0    0.61    0.20
 -10 -10   0   35.28    2.61
 -10 -10   0   33.90    2.47
 -10  10   0   34.01    2.49
 -10  10   0   35.60    2.44
 -11 -10   0    3.16    0.37
 -11  10   0    3.74    0.36
 -11  10   0    3.79    0.35
   0 -11   0   -0.07    0.21
   0  11   0   -0.04    0.17
   0  11   0   -0.03    0.17
  -1 -11   0   57.45    3.83
   1 -11   0   55.62    3.82
  -1  11   0   55.23    3.85
   1  11   0   56.38    4.02
   1  11   0   58.03    3.86
  -2 -11   0   43.95    2.90
   2 -11   0   42.64    2.89
   2  11   0   42.47    3.03
   2  11   0   42.07    2.92
  -2  11   0   43.13    2.89
  -2  11   0   39.10    2.69
   3 -11   0    3.04    0.52
  -3 -11   0    3.03    0.52
  -3 -11   0    3.08    0.53
   3  11   0    4.97    0.48
   3  11   0    3.82    0.29
  -3  11   0    4.34    0.28
  -4 -11   0   25.59    1.75
  -4 -11   0   24.90    1.84
   4  11   0   23.21    1.79
   4  11   0   23.03    1.74
  -4  11   0   21.94    1.52
  -5 -11   0    0.11    0.42
  -5 -11   0    0.09    0.37
   5  11   0    0.93    0.43
   5  11   0    0.80    0.37
  -5  11   0    0.46    0.10
  -6 -11   0   59.19    4.51
  -6  11   0   62.22    3.91
   6  11   0   62.31    4.48
  -7 -11   0    0.57    0.19
  -7 -11   0    1.48    0.72
  -7 -11   0    0.82    0.23
  -7 -11   0    0.64    0.18
  -7  11   0    0.32    0.15
  -7  11   0    0.58    0.21
  -7  11   0    0.49    0.19
   7  11   0    0.78    0.58
  -8 -11   0   18.25    1.35
  -8 -11   0   18.30    1.34
  -8 -11   0   19.42    1.43
  -8  11   0   18.24    1.36
  -8  11   0   18.28    1.22
  -8  11   0   18.30    1.34
  -9 -11   0    3.89    0.40
  -9 -11   0    3.71    0.52
  -9 -11   0    3.70    0.44
  -9  11   0    4.23    0.42
  -9  11   0    3.46    0.42
 -10 -11   0    0.29    0.18
 -10 -11   0    0.43    0.17
 -10  11   0    0.54    0.18
 -10  11   0    0.29    0.19
 -11  11   0    0.66    0.16
 -11  11   0    0.67    0.15
   0 -12   0  133.30    9.06
   0  12   0  123.50    9.53
   0  12   0  149.01    9.15
   0  12   0  136.30    8.60
  -1 -12   0   49.42    3.22
   1 -12   0   46.36    3.20
  -1  12   0   41.16    3.21
  -1  12   0   48.26    2.99
   1  12   0   49.50    3.36
   1  12   0   46.89    2.99
   1  12   0   47.28    3.23
  -2 -12   0   25.60    1.77
   2 -12   0   27.10    1.69
  -2  12   0   21.25    1.50
   2  12   0   20.72    1.73
   2  12   0   22.77    1.68
  -3 -12   0    0.46    0.34
   3 -12   0    0.58    0.35
  -3 -12   0    0.46    0.34
  -3  12   0    0.46    0.09
   3  12   0    0.38    0.30
   3  12   0    0.31    0.09
   3  12   0    0.37    0.25
  -4 -12   0    0.81    0.42
  -4 -12   0    0.64    0.40
   4  12   0    1.84    0.41
  -4  12   0    1.17    0.16
   4  12   0    1.74    0.37
  -5 -12   0    0.66    0.49
  -5 -12   0    0.35    0.47
   5  12   0    0.91    0.48
  -5  12   0    0.34    0.11
   5  12   0    0.24    0.38
  -6 -12   0    6.19    0.51
  -6 -12   0    6.43    0.54
  -6 -12   0    6.14    1.02
  -6  12   0    5.35    0.49
  -6  12   0    5.78    0.51
  -6  12   0    6.50    0.45
   6  12   0    6.19    0.92
  -7 -12   0    0.98    0.22
  -7 -12   0    1.53    0.76
  -7 -12   0    1.42    0.31
  -7 -12   0    2.16    0.36
  -7  12   0    1.41    0.28
  -7  12   0    1.80    0.34
   7  12   0    1.79    0.66
  -7  12   0    1.85    0.26
  -7  12   0    1.42    0.22
  -8 -12   0    9.71    0.84
  -8 -12   0    9.99    0.87
  -8 -12   0    9.44    0.89
  -8  12   0   11.42    0.84
  -8  12   0   12.29    0.85
  -8  12   0   12.21    0.84
  -8  12   0   11.67    0.77
  -9 -12   0    4.57    0.55
  -9 -12   0    4.68    0.45
  -9  12   0    4.68    0.46
  -9  12   0    4.97    0.47
 -10 -12   0   19.35    1.47
 -10 -12   0   19.28    1.39
 -10  12   0   19.44    1.37
 -10  12   0   18.69    1.40
 -11 -12   0    1.32    0.23
 -11  12   0    1.19    0.23
 -11  12   0    1.58    0.23
   0 -13   0    0.23    0.26
   0  13   0    0.04    0.24
   0  13   0   -0.05    0.07
   1 -13   0    3.57    0.50
  -1 -13   0    3.91    0.50
   1  13   0    3.46    0.44
   1  13   0    3.48    0.46
  -1  13   0    3.34    0.25
  -1  13   0    2.89    0.46
   1  13   0    3.41    0.25
  -2 -13   0   34.55    2.46
  -2 -13   0   36.58    2.35
   2 -13   0   33.93    2.32
   2  13   0   30.86    2.41
   2  13   0   30.48    2.11
   2  13   0   33.89    2.34
  -2  13   0   32.26    2.12
   3 -13   0    2.08    0.45
  -3 -13   0    1.62    0.45
  -3 -13   0    2.69    0.48
   3  13   0    1.88    0.19
   3  13   0    2.59    0.43
   3  13   0    1.81    0.35
  -3  13   0    1.98    0.19
  -4 -13   0   64.57    4.11
  -4 -13   0   62.29    4.31
  -4  13   0   58.11    3.76
   4  13   0   56.92    4.26
   4  13   0   53.96    4.11
  -5 -13   0    0.47    0.54
  -5 -13   0    0.26    0.52
  -5  13   0    0.04    0.11
   5  13   0   -0.04    0.38
   5  13   0   -0.58    0.48
  -6 -13   0    8.15    0.68
  -6 -13   0    8.80    0.67
  -6 -13   0    6.69    1.14
  -6 -13   0    7.76    0.65
  -6 -13   0    9.09    0.66
  -6  13   0    7.81    0.65
  -6  13   0    8.14    0.64
  -6  13   0    6.89    0.62
  -6  13   0    9.11    0.69
  -6  13   0    8.28    0.58
   6  13   0    7.84    0.99
  -7 -13   0   -0.01    0.19
  -7 -13   0    0.20    0.24
  -7 -13   0    0.07    0.17
  -7  13   0   -0.06    0.18
   7  13   0    1.14    0.67
  -7  13   0    0.18    0.20
  -7  13   0    0.20    0.16
  -7  13   0    0.12    0.16
  -8 -13   0   29.93    2.08
  -8 -13   0   30.42    2.13
  -8 -13   0   32.09    2.25
  -8  13   0   28.87    1.92
  -8  13   0   28.73    2.09
  -8  13   0   27.95    2.07
  -8  13   0   29.31    2.14
  -9 -13   0    1.41    0.29
  -9 -13   0    1.62    0.34
  -9 -13   0    1.96    0.31
  -9  13   0    1.43    0.32
  -9  13   0    1.90    0.32
 -10 -13   0    0.67    0.17
 -10 -13   0    0.54    0.17
 -10  13   0    0.62    0.17
 -10  13   0    0.51    0.17
   0 -14   0   49.53    3.15
   0  14   0   44.32    3.15
   0  14   0   43.10    2.90
   1 -14   0  105.80    7.04
  -1 -14   0  111.64    7.05
   1  14   0  107.93    7.10
  -1  14   0  100.81    6.64
   1  14   0  104.47    7.39
  -1  14   0   97.20    7.09
   1  14   0  104.59    6.64
  -2 -14   0   48.26    3.23
   2 -14   0   43.40    3.19
   2  14   0   47.87    3.35
  -2  14   0   45.73    2.95
   2  14   0   46.11    2.95
   2  14   0   46.87    3.23
  -3 -14   0    0.76    0.44
  -3 -14   0    0.81    0.44
   3  14   0    0.40    0.10
  -3  14   0    0.38    0.10
   3  14   0    0.79    0.39
   3  14   0    0.49    0.31
  -4 -14   0    4.44    0.79
  -4 -14   0    4.66    0.80
   4  14   0    4.24    0.63
   4  14   0    4.33    0.74
  -4  14   0    4.30    0.33
  -5 -14   0    3.03    0.69
  -5 -14   0    2.27    0.66
   5  14   0    3.04    0.68
  -5  14   0    2.49    0.26
   5  14   0    1.66    0.59
  -6 -14   0    0.13    0.18
  -6 -14   0    0.11    0.17
  -6 -14   0    0.27    0.22
  -6 -14   0    0.33    0.23
  -6  14   0    0.47    0.24
  -6  14   0    0.32    0.15
  -6  14   0    0.47    0.17
   6  14   0    0.49    0.58
  -6  14   0    0.32    0.19
  -6  14   0    0.29    0.17
  -7 -14   0    2.36    0.36
  -7 -14   0    2.40    0.34
  -7  14   0    1.60    0.32
   7  14   0    1.24    0.71
  -7  14   0    1.62    0.28
  -7  14   0    1.60    0.34
  -7  14   0    1.78    0.34
  -8 -14   0   16.85    1.23
  -8 -14   0   16.71    1.32
  -8 -14   0   17.08    1.25
  -8  14   0   16.52    1.22
  -8  14   0   16.00    1.13
  -8  14   0   17.44    1.23
  -8  14   0   17.68    1.26
  -9 -14   0   19.01    1.42
  -9 -14   0   19.46    1.35
  -9 -14   0   18.61    1.34
  -9  14   0   17.41    1.36
  -9  14   0   17.93    1.33
 -10 -14   0    7.97    0.62
 -10 -14   0    8.09    0.66
 -10  14   0    7.95    0.62
 -10  14   0    7.77    0.61
   0 -15   0    0.03    0.37
   0  15   0    0.07    0.33
   0  15   0   -0.08    0.08
  -1 -15   0    3.12    0.50
   1 -15   0    2.91    0.61
   1  15   0    2.79    0.23
  -1  15   0    3.05    0.24
   1  15   0    2.70    0.54
   2 -15   0   33.25    2.42
  -2 -15   0   36.38    2.45
  -2  15   0   34.86    2.17
   2  15   0   33.03    2.17
   2  15   0   33.56    2.50
   2  15   0   32.55    2.43
  -3 -15   0   10.07    1.08
  -3  15   0   11.82    0.75
   3  15   0   11.93    1.05
   3  15   0   10.89    0.74
   3  15   0   11.05    1.01
  -4 -15   0   22.31    1.70
  -4  15   0   20.44    1.33
   4  15   0   19.99    1.66
   4  15   0   19.71    1.66
  -5  15   0    1.51    0.29
  -5  15   0    1.74    0.26
   5  15   0    3.35    0.73
  -5  15   0    1.67    0.29
  -5  15   0    2.18    0.39
  -5  15   0    1.98    0.30
  -6 -15   0   22.51    1.54
  -6 -15   0   22.32    1.51
  -6 -15   0   22.30    1.62
  -6 -15   0   22.70    1.50
  -6  15   0   19.70    1.50
  -6  15   0   20.21    1.54
  -6  15   0   19.47    1.51
   6  15   0   20.17    1.83
  -6  15   0   21.09    1.38
  -6  15   0   20.69    1.50
  -7 -15   0   19.64    1.44
  -7 -15   0   19.72    1.41
  -7 -15   0   20.60    1.51
  -7  15   0   19.94    1.44
  -7  15   0   19.07    1.30
  -7  15   0   19.32    1.40
  -7  15   0   19.10    1.41
  -8 -15   0   12.65    0.94
  -8 -15   0   12.11    0.89
  -8 -15   0   11.76    0.90
  -8  15   0   10.58    0.81
  -8  15   0   11.82    0.88
  -8  15   0   11.34    0.90
  -8  15   0   10.79    0.88
  -9 -15   0    3.56    0.38
  -9 -15   0    3.48    0.43
  -9 -15   0    3.66    0.41
  -9  15   0    3.48    0.38
  -9  15   0    3.90    0.38
 -10 -15   0    0.64    0.15
 -10 -15   0    0.47    0.15
  10  15   0    0.32    0.17
 -10  15   0    0.59    0.15
 -10  15   0    0.32    0.15
   0 -16   0    9.19    0.96
   0  16   0    9.51    1.00
   0  16   0   10.57    0.66
  -1 -16   0   99.26    6.42
   1 -16   0   95.01    6.40
   1  16   0   94.74    6.01
  -1  16   0   98.62    6.01
   1  16   0   85.32    6.45
  -2 -16   0   22.27    1.70
   2  16   0   19.85    1.67
  -2  16   0   22.01    1.38
   2  16   0   21.17    1.37
   2  16   0   21.39    1.66
  -3 -16   0   12.92    1.18
  -3  16   0   11.69    0.76
   3  16   0   10.44    1.10
   3  16   0   11.65    1.05
   3  16   0   10.64    0.75
  -4  16   0    2.81    0.27
   4  16   0    3.12    0.69
   4  16   0    2.54    0.55
  -5 -16   0    0.65    0.19
  -5 -16   0    0.73    0.19
  -5 -16   0    0.73    0.23
  -5 -16   0    0.60    0.22
  -5  16   0    0.64    0.18
   5  16   0    0.71    0.54
  -5  16   0    0.73    0.23
  -5  16   0    0.76    0.19
  -5  16   0    0.67    0.18
  -5  16   0    0.51    0.16
  -6 -16   0    0.71    0.24
  -6 -16   0    0.50    0.20
  -6 -16   0    0.31    0.22
  -6 -16   0    0.48    0.20
   6  16   0    1.33    0.67
  -6  16   0    0.66    0.21
  -6  16   0    0.88    0.25
  -6  16   0    0.96    0.19
  -6  16   0    0.99    0.19
  -6  16   0    0.81    0.20
  -7 -16   0    7.33    0.59
  -7 -16   0    7.34    0.61
  -7 -16   0    6.50    0.61
  -7  16   0    6.50    0.56
  -7  16   0    6.60    0.59
  -7  16   0    6.29    0.53
  -7  16   0    6.70    0.58
  -8 -16   0    4.50    0.46
  -8 -16   0    4.46    0.48
  -8 -16   0    4.54    0.51
  -8  16   0    5.70    0.48
  -8  16   0    5.17    0.47
  -8  16   0    5.22    0.48
  -8  16   0    4.96    0.44
  -9 -16   0   30.05    2.07
  -9 -16   0   29.03    2.19
  -9 -16   0   30.52    2.01
  -9  16   0   26.97    2.08
  -9  16   0   28.28    2.04
 -10 -16   0    0.52    0.14
 -10 -16   0    0.79    0.23
 -10  16   0    0.80    0.15
 -10  16   0    0.87    0.15
  10  16   0    0.77    0.16
   0 -17   0    0.71    0.53
   1 -17   0    3.79    0.71
   1  17   0    5.51    0.38
  -1  17   0    5.44    0.38
   1  17   0    4.87    0.80
  -2 -17   0    3.24    0.74
  -2  17   0    4.61    0.35
   2  17   0    4.19    0.85
   2  17   0    4.48    0.33
  -3 -17   0   56.65    4.26
   3  17   0   60.35    4.29
   3  17   0   60.46    4.42
  -3  17   0   65.79    3.87
   3  17   0   60.01    3.87
  -4 -17   0    1.72    0.27
  -4 -17   0    1.79    0.32
  -4 -17   0    1.70    0.34
  -4 -17   0    2.02    0.40
  -4  17   0    2.09    0.27
  -4  17   0    1.88    0.32
   4  17   0    2.47    0.34
  -4  17   0    2.45    0.34
  -4  17   0    2.34    0.32
  -4  17   0    2.29    0.32
   4  17   0    1.94    0.59
  -5 -17   0    7.95    0.64
  -5 -17   0    7.65    0.68
  -5 -17   0    7.26    0.62
  -5 -17   0    8.37    0.62
  -5 -17   0    7.99    0.62
  -5  17   0    7.20    0.63
  -5  17   0    7.07    0.55
  -5  17   0    6.66    0.60
  -5  17   0    7.26    0.61
  -5  17   0    6.85    0.61
   5  17   0    6.47    1.09
   5  17   0    7.05    0.62
  -6 -17   0    0.25    0.23
  -6 -17   0   -0.15    0.22
  -6 -17   0    0.22    0.19
  -6 -17   0    0.10    0.18
  -6  17   0    0.30    0.18
  -6  17   0    0.19    0.19
  -6  17   0    0.38    0.20
  -6  17   0    0.31    0.18
  -6  17   0    0.64    0.24
  -7 -17   0   24.22    1.86
  -7 -17   0   23.60    1.72
  -7 -17   0   23.56    1.76
  -7  17   0   23.35    1.73
  -7  17   0   24.69    1.59
  -7  17   0   25.07    1.77
  -7  17   0   25.26    1.71
  -7  17   0   25.15    1.72
  -8 -17   0    0.18    0.18
  -8 -17   0    0.11    0.17
  -8 -17   0    0.35    0.23
  -8  17   0    0.47    0.21
  -8  17   0    0.35    0.20
  -8  17   0    0.22    0.18
  -8  17   0    0.20    0.18
  -9 -17   0    1.82    0.28
  -9 -17   0    2.05    0.29
  -9 -17   0    2.18    0.34
  -9  17   0    1.86    0.27
  -9  17   0    1.78    0.28
  10  17   0    0.16    0.14
   0 -18   0   15.10    1.44
   0  18   0   16.56    1.05
  -1 -18   0   18.61    1.66
   1  18   0   18.43    1.23
  -1  18   0   19.55    1.23
  -2 -18   0    0.89    0.65
   2  18   0    0.25    0.12
   2  18   0    0.42    0.60
  -2  18   0    0.21    0.13
   3 -18   0   10.48    0.70
  -3 -18   0    9.62    0.72
  -3 -18   0    8.98    0.72
  -3 -18   0    9.71    0.71
  -3  18   0    9.12    0.71
  -3  18   0    8.99    0.64
  -3  18   0    9.20    0.71
   3  18   0    8.27    0.63
   3  18   0    8.40    0.69
  -4 -18   0    1.40    0.22
  -4 -18   0    1.29    0.21
  -4 -18   0    1.73    0.33
   4  18   0    0.95    0.21
   4  18   0    0.38    0.63
  -4  18   0    0.99    0.22
  -4  18   0    0.72    0.18
  -4  18   0    0.79    0.20
  -4  18   0    1.16    0.22
  -4  18   0    1.13    0.22
  -5 -18   0    1.05    0.23
  -5 -18   0    0.98    0.25
  -5 -18   0    1.05    0.23
  -5 -18   0    1.03    0.21
  -5 -18   0    1.15    0.29
  -5  18   0    1.18    0.22
  -5  18   0    0.94    0.19
   5  18   0    0.35    0.72
  -5  18   0    1.08    0.21
   5  18   0    0.95    0.23
  -5  18   0    0.92    0.20
  -5  18   0    1.00    0.24
  -6 -18   0    1.52    0.33
  -6 -18   0    1.30    0.26
  -6 -18   0    1.24    0.26
  -6 -18   0    1.63    0.23
  -6  18   0    1.51    0.33
  -6  18   0    1.43    0.25
  -6  18   0    1.59    0.32
  -6  18   0    1.72    0.23
  -6  18   0    1.09    0.22
  -7 -18   0   15.75    1.10
  -7 -18   0   15.20    1.11
  -7 -18   0   15.19    1.17
  -7  18   0   14.39    1.09
  -7  18   0   14.63    1.09
  -7  18   0   14.87    1.11
  -7  18   0   13.99    1.00
  -7  18   0   14.65    1.09
   8 -18   0    0.21    0.17
  -8 -18   0    0.26    0.21
  -8 -18   0    0.05    0.17
  -8 -18   0    0.38    0.18
  -8  18   0    0.08    0.17
  -8  18   0    0.12    0.20
  -8  18   0    0.05    0.17
  -8  18   0    0.29    0.19
  -9 -18   0   18.57    1.38
  -9 -18   0   18.69    1.35
  -9 -18   0   18.96    1.46
   9  18   0   20.07    1.33
  -9  18   0   19.61    1.39
  -9  18   0   19.15    1.36
   0 -19   0    0.05    0.17
   0 -19   0   -0.59    0.78
   0  19   0    0.09    0.12
  -1 -19   0    2.91    0.82
  -1  19   0    1.82    0.24
  -1  19   0    1.64    0.30
   1  19   0    1.79    0.22
   1  19   0    1.44    0.28
  -1  19   0    1.27    0.27
   1  19   0    1.28    0.28
  -2 -19   0    7.42    0.61
  -2 -19   0    7.57    0.64
   2 -19   0    7.34    0.59
  -2 -19   0    7.86    0.60
  -2  19   0    7.98    0.63
   2  19   0    7.36    0.58
  -2  19   0    7.70    0.54
  -2  19   0    7.42    0.60
   2  19   0    7.40    0.53
   2  19   0    7.05    0.59
  -3 -19   0   24.86    1.70
  -3 -19   0   23.74    1.70
   3 -19   0   25.00    1.69
  -3 -19   0   22.99    1.74
  -3  19   0   25.41    1.69
   3  19   0   23.61    1.67
  -3  19   0   24.80    1.57
  -3  19   0   25.06    1.71
   3  19   0   22.21    1.56
   4 -19   0    4.17    0.39
  -4 -19   0    3.97    0.41
  -4 -19   0    3.92    0.41
  -4 -19   0    3.53    0.45
  -4  19   0    3.69    0.37
  -4  19   0    4.15    0.41
  -4  19   0    3.49    0.41
   4  19   0    3.85    0.41
  -4  19   0    3.91    0.46
  -4  19   0    4.17    0.44
   5 -19   0    3.25    0.37
  -5 -19   0    3.28    0.42
  -5 -19   0    3.16    0.40
  -5 -19   0    2.91    0.44
  -5 -19   0    3.46    0.44
  -5  19   0    3.65    0.37
   5  19   0    3.67    0.41
  -5  19   0    3.97    0.42
  -5  19   0    3.38    0.41
  -5  19   0    3.79    0.40
  -5  19   0    3.83    0.40
  -6 -19   0    7.00    0.64
  -6 -19   0    7.49    0.65
  -6 -19   0    6.85    0.61
  -6 -19   0    7.04    0.62
  -6  19   0    7.37    0.61
  -6  19   0    7.83    0.62
  -6  19   0    6.83    0.56
  -6  19   0    7.01    0.60
  -6  19   0    7.26    0.61
  -7 -19   0   18.58    1.37
   7 -19   0   19.80    1.33
  -7 -19   0   18.99    1.45
  -7 -19   0   18.16    1.35
  -7  19   0   19.19    1.35
  -7  19   0   18.39    1.35
  -7  19   0   17.70    1.24
  -7  19   0   19.47    1.34
  -7  19   0   18.85    1.38
  -8 -19   0    0.36    0.21
  -8 -19   0    0.46    0.15
  -8 -19   0    0.51    0.17
   8 -19   0    0.70    0.17
  -8  19   0    0.49    0.16
  -8  19   0    0.15    0.16
  -8  19   0    0.34    0.19
  -9 -19   0    0.79    0.15
  -9 -19   0    1.42    0.27
  -9 -19   0    0.83    0.16
   0 -20   0   14.56    1.10
   0 -20   0   15.81    1.06
   0  20   0   14.51    0.97
   0  20   0   13.93    1.06
   0  20   0   14.48    1.05
  -1  20   0    0.67    0.19
   1  20   0    1.06    0.20
   1  20   0    0.99    0.20
  -1  20   0    0.68    0.16
   1  20   0    0.78    0.15
  -2 -20   0   12.01    0.94
   2 -20   0   13.22    0.91
  -2 -20   0   11.55    0.95
  -2 -20   0   12.80    0.92
  -2  20   0   12.67    0.92
   2  20   0   12.08    0.84
  -2  20   0   12.46    0.84
   2  20   0   12.67    0.92
  -2  20   0   12.68    0.94
   2  20   0   12.66    0.91
  -3  20   0    5.97    0.46
  -3  20   0    5.86    0.52
  -3  20   0    6.15    0.53
   3  20   0    6.18    0.50
   3  20   0    5.23    0.45
   3  20   0    5.90    0.50
  -4 -20   0    5.06    0.52
  -4 -20   0    4.96    0.48
  -4 -20   0    4.92    0.47
   4 -20   0    4.49    0.46
  -4  20   0    5.25    0.50
  -4  20   0    5.12    0.49
  -4  20   0    4.94    0.43
   4  20   0    5.17    0.47
  -4  20   0    5.23    0.49
  -4  20   0    4.93    0.49
  -5 -20   0    0.01    0.24
  -5 -20   0    0.06    0.21
  -5 -20   0    0.09    0.19
   5 -20   0   -0.05    0.17
  -5  20   0    0.02    0.20
  -5  20   0    0.00    0.19
   5  20   0    0.06    0.19
  -5  20   0    0.14    0.19
  -5  20   0    0.05    0.22
  -5  20   0    0.05    0.20
  -6 -20   0    0.33    0.21
  -6 -20   0    0.30    0.19
  -6 -20   0    0.24    0.24
   6 -20   0    0.26    0.18
  -6 -20   0    0.52    0.21
  -6  20   0    0.13    0.20
  -6  20   0    0.58    0.20
  -6  20   0    0.34    0.19
  -6  20   0    0.33    0.20
  -6  20   0    0.39    0.21
  -7 -20   0    3.83    0.44
  -7 -20   0    4.29    0.47
  -7 -20   0    3.68    0.48
   7 -20   0    3.99    0.42
  -7  20   0    5.12    0.45
  -7  20   0    5.44    0.45
  -7  20   0    5.22    0.41
  -7  20   0    5.37    0.47
  -7  20   0    5.02    0.45
  -8 -20   0    5.98    0.50
  -8 -20   0    6.56    0.53
   8 -20   0    5.87    0.49
  -8 -20   0    6.47    0.53
  -8  20   0    5.89    0.50
  -8  20   0    6.15    0.52
   8  20   0    6.42    0.48
  -8  20   0    5.75    0.50
  -9 -20   0    6.21    0.55
   9  20   0    7.43    0.52
  -9  20   0    7.94    0.55
   0 -21   0    0.09    0.17
   0 -21   0   -0.09    0.20
   0  21   0    0.15    0.20
   0  21   0   -0.05    0.14
   0  21   0   -0.05    0.17
  -1 -21   0    3.68    0.49
   1 -21   0    4.13    0.40
  -1 -21   0    4.15    0.39
  -1 -21   0    3.56    0.41
   1  21   0    3.70    0.34
  -1  21   0    3.93    0.42
  -1  21   0    3.37    0.35
   1  21   0    3.53    0.39
   1  21   0    3.44    0.39
  -2 -21   0    1.37    0.22
   2 -21   0    1.71    0.29
  -2 -21   0    1.71    0.30
  -2 -21   0    1.43    0.29
  -2  21   0    1.34    0.25
   2  21   0    1.35    0.29
   2  21   0    1.28    0.25
   2  21   0    1.39    0.22
  -2  21   0    1.36    0.23
  -3 -21   0   10.86    0.73
  -3 -21   0   10.53    0.75
   3 -21   0   10.90    0.71
   3  21   0    8.06    0.70
  -3  21   0    8.95    0.66
  -3  21   0    7.96    0.73
   3  21   0    8.12    0.70
  -3  21   0    7.87    0.72
   4 -21   0    7.56    0.56
  -4 -21   0    7.07    0.61
  -4 -21   0    7.17    0.57
  -4 -21   0    7.44    0.57
  -4  21   0    6.11    0.59
   4  21   0    6.33    0.54
  -4  21   0    5.70    0.51
   4  21   0    5.60    0.56
  -4  21   0    6.17    0.60
  -4  21   0    6.16    0.57
  -5 -21   0    6.04    0.53
  -5 -21   0    6.12    0.51
  -5 -21   0    5.95    0.57
   5 -21   0    6.59    0.50
  -5  21   0    5.21    0.53
  -5  21   0    5.21    0.52
  -5  21   0    5.60    0.53
  -5  21   0    5.27    0.47
  -5  21   0    5.30    0.53
   5  21   0    5.48    0.49
   5  21   0    5.29    0.51
  -6 -21   0   14.46    1.06
  -6 -21   0   14.56    1.06
   6 -21   0   15.07    1.03
  -6 -21   0   14.53    1.05
  -6 -21   0   14.74    1.13
  -6  21   0   13.46    1.05
  -6  21   0   13.81    1.07
  -6  21   0   14.08    1.04
  -6  21   0   14.41    1.05
  -6  21   0   14.07    0.97
   6  21   0   14.41    1.03
   7  21   0    3.70    0.36
  -7  21   0    3.77    0.39
  -7  21   0    3.60    0.37
  -7  21   0    4.25    0.42
  -7  21   0    3.56    0.35
  -7  21   0    3.41    0.38
  -8 -21   0    8.88    0.71
  -8 -21   0    9.22    0.67
   8 -21   0    8.89    0.65
  -8 -21   0    9.20    0.67
  -8  21   0    8.16    0.66
  -8  21   0    8.54    0.67
   8  21   0    8.90    0.64
   0 -22   0   29.90    2.11
   0 -22   0   29.04    2.17
   0  22   0   31.16    2.09
   0  22   0   30.08    2.09
   0  22   0   31.03    1.95
   1 -22   0    2.07    0.35
   1  22   0    3.17    0.37
  -1  22   0    3.00    0.31
   1  22   0    2.71    0.30
   1  22   0    2.81    0.35
  -1  22   0    3.00    0.38
  -2 -22   0   13.60    0.94
   2 -22   0   13.08    0.93
  -2 -22   0   12.62    0.97
  -2 -22   0   12.79    0.96
  -2  22   0   12.69    0.86
   2  22   0   11.75    0.86
   2  22   0   12.88    0.92
  -2  22   0   12.35    0.94
   2  22   0   12.17    0.92
  -3 -22   0    0.68    0.27
  -3 -22   0    0.89    0.23
   3 -22   0    1.51    0.31
  -3 -22   0    1.10    0.21
  -3  22   0    1.49    0.32
   3  22   0    1.25    0.20
   3  22   0    1.64    0.31
  -3  22   0    1.07    0.20
  -4 -22   0   21.72    1.55
  -4 -22   0   22.07    1.53
  -4 -22   0   21.56    1.57
   4 -22   0   22.65    1.53
  -4  22   0   21.26    1.42
   4  22   0   20.81    1.51
  -4  22   0   21.70    1.55
   4  22   0   21.60    1.51
  -4  22   0   21.34    1.52
   5 -22   0    0.77    0.18
  -5 -22   0    0.52    0.18
  -5 -22   0    0.52    0.21
  -5 -22   0    0.29    0.25
   5  22   0    0.41    0.19
  -5  22   0    0.38    0.21
  -5  22   0    0.35    0.20
  -5  22   0    0.57    0.21
  -5  22   0    0.73    0.22
   5  22   0    0.59    0.18
  -6 -22   0    3.05    0.34
   6 -22   0    3.09    0.33
  -6 -22   0    2.91    0.37
  -6 -22   0    2.63    0.40
  -6  22   0    2.87    0.37
  -6  22   0    2.72    0.37
  -6  22   0    2.98    0.35
  -6  22   0    2.87    0.38
  -6  22   0    3.09    0.33
   6  22   0    3.16    0.33
   7 -22   0    0.63    0.16
  -7 -22   0    0.79    0.17
  -7 -22   0    0.43    0.16
  -7 -22   0    0.48    0.19
   8 -22   0    6.49    0.49
  -8 -22   0    6.91    0.50
  -8 -22   0    7.16    0.51
  -8 -22   0    6.67    0.53
   8  22   0    5.71    0.48
  -8  22   0    5.99    0.49
  -8  22   0    5.72    0.50
   0 -23   0   -0.03    0.20
   0 -23   0    0.01    0.19
   0  23   0    0.10    0.17
   0  23   0    0.08    0.20
   0  23   0    0.00    0.19
  -1 -23   0    0.51    0.19
   1 -23   0    0.62    0.20
  -1 -23   0    0.51    0.20
  -1  23   0    0.51    0.21
   1  23   0    0.55    0.17
   1  23   0    0.62    0.20
   1  23   0    0.64    0.20
  -1  23   0    0.42    0.18
  -2 -23   0    8.32    0.71
   2 -23   0    8.70    0.71
  -2 -23   0    7.95    0.72
   2  23   0    9.02    0.65
  -2  23   0    9.98    0.66
  -2  23   0   10.03    0.73
   2  23   0    9.85    0.70
   2  23   0    9.53    0.70
  -3 -23   0    4.62    0.58
   3 -23   0    5.48    0.51
  -3 -23   0    5.56    0.52
  -3 -23   0    5.49    0.51
   3  23   0    6.22    0.50
   3  23   0    5.90    0.50
  -3  23   0    6.18    0.52
  -3  23   0    5.86    0.47
   4 -23   0   16.77    1.21
  -4 -23   0   16.14    1.24
  -4 -23   0   16.18    1.22
  -4 -23   0   15.97    1.24
  -4  23   0   17.34    1.21
   4  23   0   18.08    1.20
  -4  23   0   17.57    1.13
   4  23   0   17.23    1.20
  -5 -23   0    1.73    0.32
  -5 -23   0    1.27    0.27
   5 -23   0    1.66    0.29
  -5 -23   0    1.23    0.21
  -5  23   0    1.41    0.32
  -6 -23   0   12.82    0.93
  -6 -23   0   12.44    0.91
  -6 -23   0   13.38    0.93
   6 -23   0   13.93    0.90
  -6  23   0   12.04    0.90
  -6  23   0   11.81    0.92
   6  23   0   12.43    0.89
  -6  23   0   11.42    0.84
  -6  23   0   11.86    0.93
  -7 -23   0    0.11    0.14
   7 -23   0    0.41    0.14
  -7 -23   0    0.32    0.17
   7  23   0    0.21    0.13
  -7  23   0    0.42    0.14
  -7  23   0    0.40    0.15
   0 -24   0   52.69    3.50
   0 -24   0   49.16    3.60
   0  24   0   50.09    3.25
   0  24   0   49.67    3.47
   0  24   0   52.38    3.47
  -1  24   0    1.41    0.21
  -1  24   0    1.28    0.24
   1  24   0    1.55    0.31
   1  24   0    1.45    0.28
   1  24   0    1.48    0.32
   2 -24   0   18.23    1.18
  -2 -24   0   17.54    1.21
  -2 -24   0   17.63    1.19
   2  24   0   15.59    1.17
   2  24   0   15.89    1.16
   2  24   0   14.56    1.09
  -2  24   0   16.05    1.10
  -2  24   0   15.87    1.18
  -3 -24   0    0.53    0.20
   3 -24   0    0.68    0.19
  -3 -24   0    0.65    0.19
  -3  24   0    0.43    0.21
   3  24   0    0.47    0.18
  -3  24   0    0.38    0.19
   3  24   0    0.22    0.19
  -4 -24   0    9.40    0.75
   4 -24   0   10.22    0.73
  -4 -24   0    8.98    0.76
  -4 -24   0    9.33    0.74
  -4  24   0    9.77    0.69
   4  24   0   10.11    0.72
  -4  24   0    9.52    0.73
   4  24   0    9.86    0.73
  -5 -24   0    0.13    0.16
  -5 -24   0    0.29    0.22
   5 -24   0    0.26    0.16
  -5 -24   0    0.36    0.18
  -5  24   0    0.05    0.17
   5  24   0    0.46    0.18
  -5  24   0    0.37    0.18
   5  24   0    0.19    0.16
   6 -24   0    4.03    0.35
  -6 -24   0    3.79    0.37
  -6 -24   0    4.40    0.40
  -6 -24   0    3.25    0.36
  -6  24   0    3.99    0.38
  -6  24   0    4.16    0.38
  -6  24   0    4.02    0.38
   6  24   0    3.71    0.35
   7 -24   0    1.24    0.21
  -7 -24   0    1.08    0.22
  -7  24   0    1.62    0.22
   7  24   0    1.28    0.19
  -7  24   0    1.60    0.23
   0 -25   0    0.01    0.19
   0 -25   0    0.10    0.19
   0  25   0    0.16    0.17
   0  25   0    0.10    0.19
   0  25   0   -0.18    0.20
  -1 -25   0    4.71    0.45
  -1 -25   0    4.20    0.43
   1 -25   0    4.91    0.45
   1  25   0    4.39    0.40
  -1  25   0    4.49    0.40
   1  25   0    4.47    0.44
  -1  25   0    4.31    0.46
   1  25   0    4.17    0.43
  -2 -25   0    8.59    0.71
   2 -25   0    8.63    0.71
  -2 -25   0    8.29    0.72
  -2  25   0    9.41    0.65
   2  25   0    9.31    0.69
  -2  25   0    9.56    0.70
   2  25   0   10.05    0.70
   3 -25   0    0.67    0.18
  -3 -25   0    0.68    0.18
  -3 -25   0    0.66    0.20
   3  25   0    0.65    0.18
   3  25   0    0.62    0.17
  -3  25   0    0.66    0.19
  -3  25   0    0.55    0.19
   4 -25   0    7.50    0.56
  -4 -25   0    6.93    0.57
  -4 -25   0    7.25    0.58
   4  25   0    7.08    0.56
   4  25   0    7.20    0.56
  -4  25   0    7.12    0.57
  -4  25   0    6.80    0.53
  -5 -25   0    1.73    0.27
   5 -25   0    1.90    0.25
  -5 -25   0    1.87    0.27
   5  25   0    2.01    0.25
  -5  25   0    2.04    0.29
   5  25   0    1.66    0.29
  -6 -25   0    5.05    0.44
   6 -25   0    5.40    0.43
   6  25   0    5.63    0.42
  -6  25   0    5.59    0.44
   0 -26   0   10.87    0.74
   0 -26   0    9.30    0.77
   0  26   0    9.57    0.69
   0  26   0    9.07    0.74
   0  26   0   10.07    0.75
   1 -26   0    0.72    0.19
  -1 -26   0    0.83    0.20
  -1 -26   0    0.83    0.20
   1  26   0    1.04    0.21
  -1  26   0    0.90    0.21
   1  26   0    0.88    0.20
  -1  26   0    0.68    0.19
   1  26   0    0.69    0.18
   2 -26   0    4.98    0.44
  -2 -26   0    4.88    0.46
  -2 -26   0    4.79    0.45
  -2  26   0    4.63    0.46
  -2  26   0    5.08    0.42
   2  26   0    5.52    0.45
   2  26   0    5.04    0.44
  -3 -26   0    0.42    0.18
   3 -26   0    0.51    0.17
  -3 -26   0    0.38    0.17
  -3  26   0    0.63    0.18
  -3  26   0    0.56    0.18
   3  26   0    0.82    0.16
   3  26   0    0.74    0.17
   4 -26   0    1.12    0.24
  -4 -26   0    1.14    0.24
   4  26   0    0.60    0.15
  -4  26   0    0.72    0.18
   4  26   0    0.62    0.17
   5 -26   0    0.44    0.14
  -5 -26   0    0.42    0.16
  -5 -26   0    0.36    0.15
   5  26   0    0.59    0.13
  -5  26   0    0.46    0.16
   0 -27   0   -0.05    0.17
   0  27   0    0.40    0.19
  -1 -27   0    0.81    0.19
  -1 -27   0    1.05    0.19
   1 -27   0    0.73    0.18
   1  27   0    0.72    0.19
  -1  27   0    0.67    0.19
  -1  27   0    0.37    0.18
   1  27   0    0.61    0.17
  -2 -27   0    1.56    0.28
  -2 -27   0    1.33    0.27
   2 -27   0    1.75    0.28
   2  27   0    1.93    0.27
   2  27   0    1.75    0.28
  -2  27   0    1.48    0.29
  -2  27   0    1.72    0.27
  -3 -27   0    3.94    0.35
   3 -27   0    3.63    0.35
  -3 -27   0    3.76    0.34
  -3  27   0    3.06    0.35
   3  27   0    3.37    0.35
   3  27   0    3.25    0.33
  -4 -27   0    1.56    0.26
  -4 -27   0    1.82    0.26
   4 -27   0    1.69    0.24
  -4  27   0    2.18    0.26
   4  27   0    2.06    0.24
   4  27   0    2.04    0.27
   5 -27   0    2.86    0.28
  -5 -27   0    2.96    0.29
  -5 -27   0    2.60    0.30
  -5  27   0    3.46    0.29
   5  27   0    3.09    0.26
   0 -28   0    2.57    0.31
   0  28   0    2.75    0.31
  -1 -28   0    2.38    0.31
   1 -28   0    2.23    0.27
  -1 -28   0    2.39    0.28
   1  28   0    1.95    0.28
  -1  28   0    1.95    0.29
   1  28   0    2.27    0.28
   2  28   0    1.08    0.22
   2  28   0    0.82    0.16
  -2  28   0    0.56    0.16
  -3 -28   0    1.74    0.24
   3 -28   0    1.38    0.22
  -3 -28   0    1.60    0.23
   3  28   0    1.06    0.23
   3  28   0    1.34    0.21
   4 -28   0    0.39    0.12
  -4 -28   0    0.53    0.13
  -4 -28   0    0.57    0.14
   4  28   0    0.47    0.14
  -4  28   0    0.52    0.13
   4  28   0    0.42    0.12
   0 -29   0    0.00    0.13
   0  29   0   -0.09    0.13
  -1 -29   0    0.21    0.13
   1 -29   0    0.19    0.13
  -1  29   0    0.19    0.13
   1  29   0    0.11    0.13
   2 -29   0    0.42    0.13
  -2 -29   0    0.60    0.15
  -2 -29   0    0.45    0.14
   2  29   0    0.54    0.13
  -2  29   0    0.50    0.14
   2  29   0    0.61    0.13
  -7   0   1   -0.03    0.54
  -7   0   1    0.01    0.52
   7   0  -1   -0.32    0.57
  -7   0   1    0.13    0.10
   6   0  -1   47.04    3.49
  -6   0   1   51.86    3.19
  -6   0   1   49.51    3.46
  -6   0   1   46.72    3.64
   6   0  -1   51.18    3.47
  -6   0   1   53.81    3.42
  -5   0   1    0.59    0.29
  -5   0   1    0.66    0.21
  -5   0   1    0.79    0.22
  -4   0   1    2.76    0.30
  -4   0   1    3.29    0.36
  -3   0   1    1.96    0.22
  -3   0   1    2.57    0.21
  -3   0   1    1.91    0.25
  -2   0   1   30.23    1.97
  -2   0   1   27.87    2.05
  -2   0   1   28.80    1.94
  -1   0   1    2.97    0.21
  -1   0   1    2.82    0.23
   1   0  -1    2.93    0.21
  -1   0   1    2.96    0.22
   0   0   1  331.89   19.16
   0   0  -1  245.47   19.10
   0   0   1  286.95   19.31
   1   0   1    0.74    0.08
  -1   0  -1    0.81    0.09
   1   0   1    0.70    0.10
  -2   0  -1   31.24    2.19
   2   0   1   31.60    2.18
  -2   0  -1   28.73    2.06
   2   0   1   30.02    2.08
  -3   0  -1   19.40    1.39
  -3   0  -1   19.31    1.29
   3   0   1   17.23    1.38
   3   0   1   19.19    1.31
  -4   0  -1   47.14    3.35
   4   0   1   41.54    3.33
  -4   0  -1   47.84    3.14
   4   0   1   47.97    3.17
   4   0   1   47.98    3.18
   5   0   1    3.19    0.51
  -5   0  -1    3.14    0.39
  -5   0  -1    2.87    0.57
   5   0   1    2.87    0.48
   5   0   1    3.72    0.50
   6   0   1    1.75    0.45
  -6   0  -1    1.15    0.33
   6   0   1    1.75    0.43
  -6   0  -1    1.89    0.50
   6   0   1    1.28    0.47
   7   0   1    2.21    0.69
  -8   0  -1    6.19    0.52
  -8   0  -1    6.10    0.54
  -7  -1   1    3.16    0.65
   7   1  -1    2.03    0.63
  -7   1   1    2.45    0.23
  -6  -1   1   30.93    1.85
   6  -1  -1   31.29    2.11
  -6  -1   1   30.34    2.04
  -6  -1   1   31.23    2.21
  -6  -1   1   30.92    2.07
   6  -1  -1   29.64    2.10
  -6   1   1   24.15    2.05
   6   1  -1   22.43    2.07
  -5  -1   1   30.35    2.10
  -5  -1   1   31.12    2.22
  -5  -1   1   30.47    2.07
   5  -1  -1   31.58    2.11
  -5   1   1   29.47    2.20
  -5   1   1   28.82    2.06
   5   1  -1   29.35    2.11
  -5   1   1   29.25    2.09
  -4  -1   1  116.08    7.98
  -4  -1   1  117.29    7.62
  -4  -1   1  114.67    7.55
  -4   1   1  107.27    7.54
  -4   1   1  113.71    7.62
  -4   1   1  110.01    7.97
  -3  -1   1   17.15    1.02
  -3  -1   1   17.02    1.01
  -3   1   1   12.67    1.01
  -3   1   1   12.78    0.99
  -3   1   1   12.75    1.06
  -2  -1   1   93.50    6.56
   1  -1  -1   14.79    0.90
  -1  -1   1   13.50    0.91
  -1  -1   1   13.97    0.97
  -1  -1   1   14.60    0.92
  -1   1   1   12.73    0.96
  -1   1   1   13.18    0.92
  -1   1   1   11.86    0.90
   0  -1   1   42.32    2.69
   0  -1  -1   42.38    2.66
   0  -1   1   42.85    2.67
   0   1  -1   38.36    2.69
   0   1   1   35.10    2.66
   0   1   1   38.85    2.69
   1  -1   1    5.04    0.36
   1  -1   1    4.69    0.34
  -1  -1  -1    4.97    0.35
   1   1   1    4.81    0.37
  -1   1  -1    5.04    0.34
   2  -1   1   32.94    2.44
   2  -1   1   37.22    2.43
   2  -1   1   36.98    2.55
  -2  -1  -1   36.09    2.42
  -2  -1  -1   35.47    2.57
  -2   1  -1   36.37    2.42
  -2   1  -1   35.15    2.55
   2   1   1   38.70    2.45
   2   1   1   35.09    2.56
   3  -1   1    6.45    0.56
  -3  -1  -1    7.43    0.63
   3  -1   1    7.24    0.55
  -3  -1  -1    6.89    0.54
   3  -1   1    7.10    0.59
   3   1   1    7.24    0.60
   3   1   1    8.45    0.57
  -3   1  -1    7.26    0.53
   4  -1   1   56.49    3.68
   4  -1   1   54.53    3.66
  -4  -1  -1   57.79    3.89
   4  -1   1   51.55    3.85
  -4  -1  -1   53.15    3.64
  -4   1  -1   58.19    3.86
  -4   1  -1   51.54    3.64
   4   1   1   54.48    3.69
   4   1   1   48.71    3.86
  -5  -1  -1   11.44    0.80
   5  -1   1    9.96    0.89
   5  -1   1    9.74    0.86
  -5  -1  -1   10.91    0.96
   5  -1   1   11.79    0.87
  -5   1  -1    8.84    0.90
  -5   1  -1    9.60    0.78
   5   1   1    9.95    0.85
   5   1   1   10.97    0.87
   5   1   1    9.07    0.89
  -6  -1  -1   53.48    3.73
   6  -1   1   52.40    3.54
   6  -1   1   49.64    3.67
  -6  -1  -1   49.22    3.47
  -6   1  -1   53.14    3.70
   6   1   1   49.28    3.69
   6   1   1   48.44    3.53
   6   1   1   49.88    3.55
  -7  -1  -1    1.22    0.63
  -7  -1  -1    1.59    0.48
   7  -1   1    1.09    0.66
   7   1   1    2.50    0.60
  -9  -1  -1    0.48    0.18
  -8  -2   1    6.12    1.23
   7   2  -1    2.09    0.61
  -7   2   1    2.30    0.23
  -6  -2   1   14.15    1.34
  -6  -2   1   13.58    1.19
  -6  -2   1   13.02    1.23
   6   2  -1   17.06    1.29
  -6   2   1   17.86    1.23
  -6   2   1   17.88    1.03
  -6   2   1   17.66    1.34
  -5  -2   1   13.45    1.13
  -5  -2   1   14.06    1.22
   5  -2  -1   15.53    1.16
  -5  -2   1   14.62    1.12
  -5   2   1   16.54    1.13
  -5   2   1   16.00    1.00
  -5   2   1   15.77    1.22
  -5   2   1   16.75    1.11
   5   2  -1   16.46    1.16
  -4  -2   1   10.41    0.81
   4  -2  -1   10.71    0.83
  -4  -2   1   11.37    0.83
  -4  -2   1   11.28    0.89
  -4   2   1   11.74    0.82
  -4   2   1   10.92    0.80
  -4   2   1   11.97    0.87
  -3  -2   1    7.16    0.51
  -3  -2   1    7.50    0.56
   3  -2  -1    7.79    0.52
  -3  -2   1    7.50    0.51
  -3   2   1    5.59    0.49
  -3   2   1    5.67    0.54
   2  -2  -1   27.33    1.79
  -2  -2   1   27.45    1.82
  -2  -2   1   25.36    1.79
  -2  -2   1   26.62    1.90
   1  -2  -1   14.37    0.88
  -1  -2   1   12.82    0.89
   1  -2  -1   12.88    0.88
  -1  -2   1   13.66    0.94
  -1   2   1   11.91    0.94
   0  -2  -1  116.00    7.77
   0  -2   1  124.10    7.84
   0  -2   1  113.73    7.78
   0   2  -1  120.56    7.84
   0   2   1  106.73    7.77
   0   2   1  121.26    7.85
  -1  -2  -1   13.96    0.98
   1  -2   1   14.92    0.99
  -2  -2  -1   63.32    5.05
   2  -2   1   75.36    5.03
   2  -2   1   72.55    4.79
  -2  -2  -1   70.78    4.78
   2  -2   1   75.54    4.81
  -3  -2  -1   38.93    2.55
   3  -2   1   38.06    2.56
   3  -2   1   37.30    2.68
   3  -2   1   38.51    2.57
  -3  -2  -1   35.41    2.72
   3   2   1   40.17    2.59
   3   2   1   35.09    2.71
  -3   2  -1   38.67    2.69
  -4  -2  -1   35.25    2.53
  -4  -2  -1   34.50    2.72
   4  -2   1   38.13    2.57
   4  -2   1   36.57    2.56
   4  -2   1   34.86    2.68
   4   2   1   44.05    2.59
   4   2   1   38.27    2.71
  -5  -2  -1    5.49    0.70
  -5  -2  -1    5.68    0.55
   5  -2   1    6.41    0.62
   5  -2   1    5.37    0.60
   5  -2   1    4.92    0.60
   5   2   1    7.35    0.66
  -6  -2  -1    8.75    0.99
   6  -2   1    8.32    0.88
  -6  -2  -1    8.07    0.76
   6   2   1    7.90    0.90
   6   2   1    8.79    0.89
   6   2   1    8.54    0.88
   7  -2   1    0.54    0.67
  -7  -2  -1    1.28    0.48
  -7  -2  -1    1.45    0.65
   7   2   1    1.16    0.65
   7   2   1    1.24    0.54
  -8  -2  -1    2.88    0.39
  -8  -2  -1    2.51    0.33
  -8   2  -1    3.71    0.40
  -9  -2  -1    0.88    0.19
  -8  -3   1    1.73    0.80
  -8  -3   1    0.67    0.23
   8   3  -1    1.16    0.73
  -7  -3   1    3.67    0.78
  -7  -3   1    4.16    0.90
  -7   3   1    5.17    0.36
   7   3  -1    5.35    0.87
  -6  -3   1   35.27    2.33
  -6  -3   1   33.51    2.28
  -6  -3   1   35.94    2.47
  -6  -3   1   34.12    2.08
   6   3  -1   29.17    2.33
  -6   3   1   29.55    2.07
  -6   3   1   30.12    2.30
  -5  -3   1   18.25    1.19
  -5  -3   1   18.26    1.21
   5  -3  -1   18.54    1.24
  -5  -3   1   17.80    1.29
  -5   3   1   13.52    1.26
   5   3  -1   14.50    1.22
  -5   3   1   13.83    1.18
  -4  -3   1   34.36    2.37
  -4  -3   1   35.55    2.34
  -4  -3   1   33.41    2.49
  -3  -3   1    6.07    0.49
  -3  -3   1    6.51    0.54
   3  -3  -1    6.91    0.49
  -3  -3   1    6.57    0.49
  -2  -3   1   19.07    1.36
  -2  -3   1   18.53    1.28
  -2  -3   1   18.29    1.29
   2  -3  -1   19.27    1.27
   1  -3  -1    5.84    0.40
  -1  -3   1    6.13    0.42
  -1  -3   1    5.81    0.44
  -1  -3   1    5.46    0.42
   0  -3   1   12.07    0.74
   0  -3   1   10.84    0.75
   0  -3  -1   11.60    0.74
   0   3   1   10.55    0.75
   0   3   1    9.27    0.78
   1  -3   1   12.39    0.84
  -1  -3  -1   12.38    0.90
  -1  -3  -1   12.73    0.83
   1   3   1   11.94    0.85
   1   3   1   11.27    0.88
  -2  -3  -1    8.69    0.67
  -2  -3  -1    7.99    0.59
   2  -3   1    8.25    0.57
   2  -3   1    7.87    0.57
   2  -3   1    8.64    0.61
   3  -3   1   20.65    1.43
  -3  -3  -1   20.71    1.55
   3  -3   1   20.62    1.42
  -3  -3  -1   20.21    1.42
   3  -3   1   20.81    1.48
  -4  -3  -1   22.15    1.46
   4  -3   1   21.76    1.49
   4  -3   1   21.75    1.48
   4  -3   1   22.34    1.53
  -4  -3  -1   22.22    1.61
   4   3   1   18.58    1.49
   4   3   1   18.54    1.57
  -4   3  -1   19.90    1.54
  -5  -3  -1   38.15    2.80
   5  -3   1   36.93    2.62
  -5  -3  -1   36.83    2.59
   5   3   1   39.53    2.65
   5   3   1   36.72    2.77
   6  -3   1   39.41    2.72
  -6  -3  -1   37.54    2.89
  -6  -3  -1   38.50    2.66
   6   3   1   38.45    2.74
   6   3   1   36.59    2.84
  -7  -3  -1    3.99    0.71
   7  -3   1    3.32    0.77
   7   3   1    2.12    0.72
   7   3   1    2.49    0.62
  -8  -3  -1    2.43    0.36
  -8  -3  -1    2.16    0.37
  -8  -3  -1    2.21    0.30
   8   3   1    4.33    0.92
  -8   3  -1    2.98    0.35
  -9  -3  -1    1.63    0.29
 -10  -3  -1    0.53    0.18
  -9  -4   1    0.62    0.22
  -8  -4   1    1.57    0.80
   8   4  -1    1.30    0.73
  -8   4   1    0.63    0.20
  -8   4   1    0.65    0.16
  -7  -4   1    7.55    0.93
  -7  -4   1    8.31    1.07
  -7   4   1    8.41    0.56
   7   4  -1    8.15    1.04
  -6  -4   1    8.33    0.93
  -6  -4   1    8.14    0.59
  -6  -4   1    8.66    0.81
   6   4  -1    8.70    0.85
  -6   4   1    9.86    0.59
  -5  -4   1   11.11    0.83
   5  -4  -1   11.19    0.87
  -5   4   1    8.49    0.87
   4  -4  -1   33.02    2.14
  -4  -4   1   27.83    2.15
  -4  -4   1   29.95    2.13
  -4  -4   1   30.02    2.26
  -4   4   1   32.80    2.14
   4   4  -1   32.71    2.17
  -4   4   1   32.04    2.25
  -3  -4   1    4.40    0.41
   3  -4  -1    4.45    0.36
  -3  -4   1    4.08    0.35
  -3  -4   1    4.16    0.36
  -2  -4   1   29.15    2.25
   2  -4  -1   33.22    2.23
  -2  -4   1   30.06    2.23
  -2  -4   1   29.90    2.36
  -2   4   1   34.24    2.35
   2   4  -1   37.74    2.27
  -2   4   1   37.57    2.26
  -1  -4   1   38.37    2.73
  -1  -4   1   38.82    2.60
  -1  -4   1   38.29    2.62
   1  -4  -1   39.36    2.59
   0   4   1    3.62    0.30
   0   4  -1    3.55    0.28
   0   4   1    4.46    0.30
   1   4   1   13.68    0.94
  -1   4  -1   12.86    0.91
   1   4   1   13.59    0.98
  -1   4  -1   13.90    0.91
  -2  -4  -1    6.14    0.45
   2  -4   1    5.63    0.41
  -2  -4  -1    5.87    0.51
   2  -4   1    6.37    0.47
  -3  -4  -1   22.68    1.75
   3  -4   1   24.66    1.61
  -3  -4  -1   24.31    1.61
   3  -4   1   21.83    1.66
   3  -4   1   23.64    1.62
   4  -4   1   88.03    6.04
   4  -4   1   85.57    6.06
  -4  -4  -1   89.46    6.39
  -4  -4  -1   88.57    6.02
   4   4   1   97.65    6.10
   4   4   1   89.87    6.38
  -5  -4  -1   24.58    1.85
  -5  -4  -1   25.42    1.67
   5  -4   1   25.47    1.71
   5   4   1   22.05    1.71
   5   4   1   19.96    1.78
  -6  -4  -1    2.26    0.55
   6  -4   1    1.84    0.51
  -6  -4  -1    1.77    0.39
   6   4   1    2.31    0.48
   6   4   1    2.60    0.51
  -7  -4  -1    1.19    0.69
   7  -4   1    0.63    0.72
   7   4   1    1.83    0.70
   7   4   1    1.54    0.58
   7   4   1    1.79    0.72
  -8  -4  -1    0.71    0.18
  -8  -4  -1    0.79    0.21
  -8  -4  -1    1.06    0.23
   8   4   1    0.98    0.82
  -8   4  -1    1.43    0.26
  -8   4  -1    1.17    0.22
  -9  -4  -1    3.35    0.43
  -9  -4  -1    3.66    0.37
 -10  -4  -1    0.94    0.19
 -10  -5   1    0.38    0.20
  -9  -5   1    7.79    0.71
  -9   5   1    8.54    0.69
  -8  -5   1    1.60    0.79
  -8  -5   1    1.58    0.24
  -8   5   1    1.44    0.24
  -8   5   1    1.53    0.30
   8   5  -1    1.35    0.73
  -8   5   1    1.47    0.31
  -7   5   1    4.02    0.32
   7   5  -1    4.46    0.87
  -6  -5   1    3.96    0.69
  -6  -5   1    3.67    0.55
  -6  -5   1    3.69    0.26
   6   5  -1    2.91    0.52
  -6   5   1    2.71    0.25
  -5  -5   1   69.45    5.04
  -5  -5   1   66.20    5.09
  -5  -5   1   64.95    4.75
  -5  -5   1   70.67    5.34
   5   5  -1   83.42    5.13
  -5   5   1   82.99    5.08
  -5   5   1   86.21    4.76
   4  -5  -1   39.05    2.57
  -4  -5   1   37.17    2.60
  -4  -5   1   38.52    2.57
  -4  -5   1   36.76    2.73
  -4   5   1   37.80    2.58
   4   5  -1   36.58    2.61
  -4   5   1   38.48    2.70
  -3  -5   1   20.82    1.49
   3  -5  -1   22.18    1.47
  -3  -5   1   20.52    1.56
  -3  -5   1   21.75    1.48
  -2  -5   1   37.46    2.78
  -2  -5   1   37.60    2.64
  -2  -5   1   36.93    2.66
   2  -5  -1   40.08    2.62
  -2   5   1   39.62    2.76
  -2   5   1   42.04    2.66
   2   5  -1   40.22    2.67
   1  -5  -1   52.67    3.87
  -1  -5   1   52.75    3.88
  -1  -5   1   51.01    4.08
  -1  -5   1   55.95    3.91
  -1   5   1   65.84    3.92
  -1   5   1   62.26    4.08
   1   5  -1   65.45    3.92
   0  -5  -1  102.02    6.39
   0  -5   1  100.22    6.40
   0  -5   1   95.26    6.73
   0   5   1   87.64    6.73
   0   5   1   88.92    6.45
   0   5  -1  101.77    6.45
  -1  -5  -1   19.57    1.58
   1  -5   1   21.08    1.49
   1  -5   1   24.00    1.49
  -1  -5  -1   21.62    1.48
   1   5   1   21.18    1.57
  -1   5  -1   20.83    1.47
   1   5   1   21.13    1.50
  -1   5  -1   24.61    1.48
  -2  -5  -1    2.93    0.27
   2  -5   1    3.00    0.29
  -2  -5  -1    2.40    0.34
   2   5   1    2.67    0.30
   2   5   1    2.02    0.26
  -3  -5  -1   31.65    2.44
   3  -5   1   32.65    2.45
   3   5   1   41.34    2.49
   3   5   1   38.39    2.60
  -4  -5  -1   13.18    0.90
   4  -5   1   13.04    0.92
  -4  -5  -1   12.31    1.04
   4   5   1   10.97    0.92
   4   5   1   10.45    0.97
   5  -5   1   32.15    2.28
  -5  -5  -1   32.37    2.25
  -5  -5  -1   34.44    2.45
   5   5   1   31.47    2.30
   5   5   1   31.73    2.41
  -5   5  -1   32.06    2.07
  -6  -5  -1   37.28    2.67
   6  -5   1   33.54    2.49
  -6  -5  -1   32.86    2.44
   6   5   1   33.53    2.51
   6   5   1   35.66    2.62
  -7  -5  -1   16.92    1.48
  -7  -5  -1   19.90    1.70
   7   5   1   17.26    1.63
   7   5   1   16.47    1.57
  -8  -5  -1    0.45    0.20
  -8  -5  -1    0.38    0.15
  -8  -5  -1    0.24    0.19
   8   5   1    1.00    0.84
  -9  -5  -1    2.34    0.38
  -9  -5  -1    2.24    0.32
  -9   5  -1    2.97    0.41
  -9   5  -1    3.18    0.37
 -10  -5  -1    0.71    0.21
 -10  -5  -1    0.67    0.18
 -10  -6   1    0.65    0.20
  -9  -6   1    2.20    0.38
  -9   6   1    2.64    0.38
  -9   6   1    2.82    0.42
  -8  -6   1    1.36    0.32
  -8  -6   1    2.16    0.82
   8   6  -1    2.07    0.72
  -8   6   1    1.50    0.28
  -8   6   1    1.60    0.25
  -8   6   1    1.56    0.31
  -7  -6   1   22.85    1.84
  -7  -6   1   24.81    1.98
   7   6  -1   21.67    1.89
  -7   6   1   23.88    1.51
  -6  -6   1    2.15    0.50
  -6  -6   1    1.91    0.42
  -6   6   1    1.79    0.18
   6   6  -1    1.31    0.41
  -5  -6   1   11.68    0.99
  -5  -6   1   12.54    0.92
  -5  -6   1   12.28    0.76
  -5   6   1   10.68    0.90
  -5   6   1   11.12    0.75
   5   6  -1   11.00    0.96
  -4  -6   1   38.69    2.76
  -4  -6   1   38.77    2.73
   4  -6  -1   41.70    2.73
  -4  -6   1   40.63    2.90
  -4   6   1   38.29    2.55
  -4   6   1   41.57    2.74
   4   6  -1   40.36    2.77
  -3  -6   1   13.75    1.09
  -3  -6   1   14.41    1.03
   3  -6  -1   14.74    1.01
  -2  -6   1   21.24    1.49
   2  -6  -1   20.96    1.47
  -2  -6   1   19.77    1.57
  -2  -6   1   21.57    1.50
  -2   6   1   21.90    1.55
  -2   6   1   23.93    1.50
   2   6  -1   22.14    1.50
  -1   6   1   14.30    1.00
  -1   6   1   15.00    1.04
   1   6  -1   13.84    1.00
   0  -6   1   38.99    2.61
   0  -6   1   36.22    2.72
   0  -6  -1   37.83    2.59
   0   6   1   39.35    2.73
   0   6   1   38.52    2.62
   0   6  -1   40.35    2.61
  -1   6  -1   10.69    0.74
   1   6   1   10.50    0.77
   2  -6   1    5.51    0.43
  -2  -6  -1    4.78    0.40
   2  -6   1    5.24    0.36
  -2  -6  -1    5.93    0.50
   2   6   1    4.51    0.42
  -2   6  -1    4.42    0.34
   2   6   1    4.19    0.43
  -4  -6  -1   31.14    2.13
  -4  -6  -1   32.04    2.30
   4  -6   1   30.84    2.14
   4   6   1   28.98    2.15
   4   6   1   30.76    2.26
  -5   6  -1   12.67    0.83
   5   6   1   13.34    1.11
   5   6   1   12.49    1.05
   6  -6   1    0.06    0.49
  -6  -6  -1    0.51    0.35
  -6  -6  -1   -0.21    0.50
   6   6   1    0.29    0.42
   6   6   1    0.30    0.46
  -7  -6  -1    3.48    0.78
  -7  -6  -1    2.79    0.61
   7   6   1    4.08    0.86
   7   6   1    3.87    0.79
  -8  -6  -1   10.61    0.82
  -8  -6  -1   10.23    0.88
  -8  -6  -1   10.66    0.81
   8   6   1   11.58    1.52
  -8   6  -1   10.25    0.83
  -8   6  -1   10.97    0.81
  -8   6  -1   11.45    0.83
  -9  -6  -1    3.10    0.33
  -9  -6  -1    3.07    0.38
  -9   6  -1    2.66    0.41
  -9   6  -1    2.54    0.38
 -10  -6  -1    0.27    0.20
 -10  -6  -1    0.31    0.17
 -10   6  -1    0.48    0.22
 -11  -6  -1    8.02    0.69
 -11  -7   1    3.54    0.39
 -10  -7   1    0.16    0.19
 -10   7   1    0.23    0.18
 -10   7   1    0.00    0.22
  -9  -7   1    2.94    0.41
  -9  -7   1    3.12    0.46
  -9   7   1    3.54    0.43
  -9   7   1    2.94    0.40
  -8  -7   1    0.78    0.24
  -8  -7   1    0.93    0.78
  -8  -7   1    0.55    0.20
  -8  -7   1    0.51    0.19
  -8   7   1    0.26    0.15
   8   7  -1    0.30    0.68
  -8   7   1    0.45    0.23
  -8   7   1    0.37    0.18
   7   7  -1    4.65    0.93
  -7   7   1    4.05    0.33
  -6  -7   1    4.94    0.79
  -6  -7   1    5.63    0.67
  -6   7   1    4.13    0.33
   6   7  -1    4.17    0.70
  -5  -7   1   12.18    1.06
  -5  -7   1   12.93    0.81
  -5  -7   1   11.85    0.98
  -4   7   1    3.86    0.39
   4   7  -1    3.81    0.43
  -4   7   1    3.71    0.27
   3  -7  -1   60.64    4.01
  -3  -7   1   53.29    4.24
  -3  -7   1   62.01    4.03
  -3   7   1   61.13    4.05
   3   7  -1   61.65    4.07
  -2  -7   1    0.90    0.21
  -2  -7   1    1.50    0.24
   2  -7  -1    1.29    0.22
   2   7  -1    1.29    0.21
  -2   7   1    1.49    0.22
  -2   7   1    1.33    0.21
  -1   7   1   10.50    0.75
  -1   7   1    9.93    0.73
   1   7  -1    9.82    0.73
   0  -7   1   14.45    0.97
   0  -7  -1   14.22    0.96
   0  -7   1   13.63    1.00
   0   7   1   12.72    0.96
   0   7  -1   13.01    0.95
   0   7   1   14.01    1.00
  -1  -7  -1   47.97    3.30
   1  -7   1   49.13    3.31
   1   7   1   45.92    3.33
   1   7   1   50.53    3.48
  -1   7  -1   51.28    3.31
  -2  -7  -1    1.34    0.27
  -2  -7  -1    1.34    0.21
   2  -7   1    1.21    0.25
   2   7   1    1.29    0.22
   2   7   1    1.16    0.26
  -2   7  -1    1.09    0.14
  -3  -7  -1   37.85    2.68
  -3  -7  -1   40.12    2.86
   3  -7   1   39.32    2.69
   3   7   1   39.97    2.84
  -4  -7  -1   16.05    1.15
  -4  -7  -1   15.15    1.27
   4  -7   1   16.08    1.17
   4   7   1   15.14    1.17
   4   7   1   15.30    1.23
   5  -7   1   38.42    2.90
  -5  -7  -1   41.33    3.10
  -5  -7  -1   37.32    2.88
   5   7   1   45.18    3.07
  -5   7  -1   44.17    2.66
   5   7   1   43.79    2.94
  -6  -7  -1    2.03    0.61
  -6   7  -1    3.39    0.27
   6   7   1    3.61    0.62
   6   7   1    3.25    0.58
  -7  -7  -1   21.73    1.99
  -7  -7  -1   26.99    2.25
   7   7   1   27.10    2.13
   7   7   1   26.11    2.13
  -8  -7  -1    7.14    0.57
  -8  -7  -1    7.00    0.63
  -8  -7  -1    6.91    0.58
   8   7   1    7.37    1.29
  -8   7  -1    7.21    0.59
  -8   7  -1    6.51    0.58
  -8   7  -1    6.79    0.58
 -10  -7  -1    0.08    0.18
 -10  -7  -1    0.13    0.16
 -10   7  -1    0.16    0.21
 -11  -7  -1    0.32    0.16
 -11  -7  -1    0.36    0.17
 -11  -8   1   13.08    1.02
 -10   8   1    0.70    0.19
 -10   8   1    0.70    0.22
  -9  -8   1   14.31    1.09
  -9  -8   1   14.05    1.14
  -9   8   1   14.41    1.10
  -9   8   1   15.48    1.09
  -8  -8   1   11.28    1.47
  -8  -8   1   10.28    0.81
  -8  -8   1   10.12    0.80
  -8  -8   1    9.78    0.84
  -8   8   1    9.93    0.80
  -8   8   1   10.38    0.71
  -8   8   1   10.75    0.80
   8   8  -1   11.23    1.33
  -7  -8   1    4.26    0.43
  -7  -8   1    4.68    0.97
  -7  -8   1    4.74    0.83
  -7   8   1    4.97    0.37
  -7   8   1    4.80    0.45
   7   8  -1    5.05    0.90
  -6  -8   1    1.38    0.45
  -6  -8   1    1.33    0.51
   6   8  -1    0.62    0.46
  -6   8   1    0.92    0.15
  -5  -8   1   12.32    0.92
  -5  -8   1   11.99    0.72
  -5  -8   1   11.85    1.01
   5   8  -1    9.81    0.71
   5   8  -1    9.90    0.94
  -5   8   1    9.79    0.71
  -4  -8   1   18.15    1.22
  -4  -8   1   18.28    1.46
  -4  -8   1   18.94    1.37
  -4   8   1   18.77    1.34
  -4   8   1   19.69    1.21
   4   8  -1   18.82    1.22
   4   8  -1   19.51    1.40
  -3  -8   1    1.63    0.33
  -3  -8   1    1.86    0.32
   3  -8  -1    2.11    0.31
   3   8  -1    1.91    0.32
  -3   8   1    1.70    0.28
  -2  -8   1    6.66    0.64
  -2  -8   1    7.86    0.63
   2  -8  -1    8.03    0.60
  -2   8   1    8.49    0.61
  -2   8   1    8.42    0.62
   2   8  -1    8.10    0.61
  -1  -8   1   31.61    2.06
   1  -8  -1   31.39    2.04
  -1  -8   1   31.30    2.15
  -1   8   1   28.74    2.14
  -1   8   1   29.25    2.06
   1   8  -1   27.80    2.06
   0  -8  -1    9.40    0.69
   0  -8   1    9.62    0.69
   0  -8   1    8.85    0.71
  -1   8  -1    6.56    0.50
   1   8   1    6.90    0.55
   1   8   1    7.14    0.56
  -2  -8  -1   60.77    4.11
  -2  -8  -1   57.00    4.35
   2  -8   1   62.98    4.12
   2   8   1   66.13    4.34
   2   8   1   59.71    4.16
  -2   8  -1   59.61    4.10
  -3  -8  -1    7.69    0.73
   3  -8   1    8.43    0.68
  -3  -8  -1    7.93    0.66
   4  -8   1   15.56    1.28
  -4  -8  -1   17.42    1.39
  -4  -8  -1   14.45    1.26
   4   8   1   18.13    1.30
   4   8   1   19.25    1.34
  -4   8  -1   18.17    1.11
   5  -8   1    1.09    0.45
   5   8   1    2.10    0.42
   5   8   1    2.20    0.48
  -5   8  -1    2.10    0.19
  -6  -8  -1   12.90    1.19
  -6  -8  -1   14.75    1.38
  -6   8  -1   12.97    0.92
   6   8   1   15.46    1.28
   6   8   1   14.66    1.29
  -7  -8  -1    2.78    0.33
  -7  -8  -1    3.21    0.81
  -7  -8  -1    2.66    0.39
   7   8   1    4.00    0.94
  -7   8  -1    3.63    0.35
   7   8   1    3.84    0.73
  -7   8  -1    3.07    0.35
  -8  -8  -1    0.25    0.20
  -8  -8  -1    0.23    0.21
  -8  -8  -1    0.40    0.16
  -8   8  -1    0.59    0.20
   8   8   1    0.57    0.80
  -9  -8  -1    6.60    0.58
  -9  -8  -1    6.53    0.62
  -9   8  -1    7.29    0.60
  -9   8  -1    7.44    0.60
  -9   8  -1    7.39    0.59
 -10   8  -1    1.90    0.34
 -11  -8  -1    8.24    0.61
 -11  -8  -1    8.29    0.65
 -11   8  -1    6.73    0.61
 -11  -9   1    5.82    0.49
 -11   9   1    5.08    0.47
 -10  -9   1    6.14    0.54
 -10   9   1    6.12    0.53
 -10   9   1    5.45    0.52
  -9  -9   1    1.15    0.22
  -9  -9   1    0.95    0.23
  -9  -9   1    1.37    0.26
  -9   9   1    1.21    0.22
  -9   9   1    1.43    0.24
  -8  -9   1    3.47    0.41
  -8  -9   1    3.07    0.37
  -8  -9   1    2.20    0.85
  -8  -9   1    3.47    0.39
   8   9  -1    2.50    0.74
  -8   9   1    2.80    0.38
  -8   9   1    2.34    0.35
  -8   9   1    2.53    0.30
  -7  -9   1    1.29    0.66
  -7   9   1    1.32    0.30
  -7   9   1    1.58    0.31
   7   9  -1    1.52    0.59
  -7   9   1    1.66    0.22
  -6  -9   1   41.25    2.82
  -6  -9   1   38.29    2.64
  -6   9   1   35.11    2.34
   6   9  -1   32.46    2.64
   5   9  -1    2.16    0.21
   5   9  -1    2.87    0.55
  -5   9   1    2.30    0.20
  -4  -9   1   46.89    3.39
  -4  -9   1   52.78    3.21
  -4  -9   1   49.16    2.97
   4   9  -1   42.86    2.97
  -4   9   1   44.53    2.97
   4   9  -1   44.19    3.23
  -3  -9   1   74.00    5.23
   3  -9  -1   75.38    4.94
  -3  -9   1   73.90    4.96
  -3   9   1   67.88    4.67
   3   9  -1   75.51    5.00
  -3   9   1   74.48    4.98
  -2  -9   1   25.12    1.75
   2  -9  -1   26.15    1.74
  -2  -9   1   24.30    1.84
   1  -9  -1   68.83    4.46
  -1  -9   1   69.78    4.47
  -1  -9   1   57.60    4.69
  -1   9   1   70.15    4.50
  -1   9   1   66.06    4.68
   1   9  -1   66.35    4.50
   0  -9  -1   39.60    2.46
   0  -9   1   39.74    2.58
   0  -9   1   33.07    2.46
   0   9  -1   33.62    2.46
   0   9   1   35.56    2.48
   0   9  -1   36.05    2.57
   0   9   1   35.36    2.58
   1  -9   1   11.15    0.86
  -1  -9  -1   11.48    0.87
   1   9   1   12.54    0.90
   1   9   1   11.82    0.88
  -1   9  -1   11.84    0.83
   2  -9   1   29.14    2.16
  -2  -9  -1   29.46    2.16
   2   9   1   31.81    2.27
  -2   9  -1   34.14    2.13
   2   9   1   31.88    2.18
   3   9   1    7.35    0.62
   3   9   1    6.67    0.58
  -3   9  -1    5.98    0.43
   4  -9   1   59.88    3.67
  -4  -9  -1   49.78    3.87
  -4  -9  -1   57.96    3.66
   4   9   1   46.05    3.84
   4   9   1   52.75    3.69
  -4   9  -1   54.10    3.40
  -5  -9  -1   26.98    2.18
  -5  -9  -1   27.09    2.02
   5  -9   1   26.46    2.06
   5   9   1   28.62    2.05
   5   9   1   29.95    2.15
  -5   9  -1   28.83    1.79
  -6  -9  -1   12.95    1.08
   6   9   1   10.29    1.10
   6   9   1   10.80    1.14
  -6   9  -1   10.34    0.73
  -7  -9  -1   17.80    1.33
  -7  -9  -1   17.39    1.25
  -7  -9  -1   17.18    1.22
   7   9   1   18.88    1.61
  -7   9  -1   17.00    1.22
  -7   9  -1   15.77    1.25
  -7   9  -1   16.52    1.23
  -8  -9  -1    3.80    0.48
  -8  -9  -1    4.22    0.45
  -8  -9  -1    3.87    0.43
  -8   9  -1    5.36    0.45
  -8   9  -1    5.47    0.44
  -8   9  -1    5.09    0.44
   8   9   1    6.26    1.25
  -9  -9  -1   11.75    0.98
  -9  -9  -1   11.84    0.92
  -9   9  -1   12.49    0.91
  -9   9  -1   12.67    0.91
  -9   9  -1   12.02    0.93
 -10  -9  -1    1.39    0.23
 -10  -9  -1    1.62    0.28
 -10   9  -1    1.15    0.22
 -10   9  -1    1.32    0.23
 -11  -9  -1    0.17    0.14
 -11  -9  -1    0.12    0.15
 -11   9  -1    0.36    0.16
 -11 -10   1    7.95    0.62
 -11  10   1    7.60    0.59
 -11  10   1    7.13    0.60
 -10 -10   1    3.90    0.45
 -10 -10   1    3.57    0.41
 -10  10   1    3.68    0.39
 -10  10   1    3.80    0.40
  -9 -10   1    2.87    0.39
  -9 -10   1    2.97    0.39
  -9 -10   1    3.25    0.44
  -8 -10   1    7.71    0.59
  -8 -10   1    9.51    1.37
  -8 -10   1    7.45    0.60
  -8 -10   1    7.30    0.60
  -8  10   1    5.49    0.58
  -8  10   1    6.42    0.57
   8  10  -1    6.20    1.20
  -8  10   1    5.60    0.51
  -7 -10   1    3.63    0.38
  -7 -10   1    3.61    0.40
  -7 -10   1    4.76    1.01
  -7 -10   1    3.50    0.37
  -7  10   1    2.90    0.37
  -7  10   1    3.16    0.41
  -7  10   1    3.06    0.38
   7  10  -1    3.10    0.68
  -7  10   1    3.01    0.30
   6  10  -1   12.20    1.12
  -6  10   1   11.18    0.75
   6  10  -1   10.25    1.11
  -5 -10   1    2.11    0.50
  -5  10   1    2.78    0.23
   5  10  -1    2.69    0.24
   5  10  -1    3.32    0.60
  -4 -10   1   19.29    1.53
  -4 -10   1   20.75    1.47
   4  10  -1   18.40    1.27
  -4  10   1   19.34    1.27
   4  10  -1   21.31    1.48
   3  10  -1   10.38    0.80
   3  10  -1    9.36    0.63
  -3  10   1    9.36    0.76
  -3  10   1    9.51    0.63
  -2 -10   1   30.24    2.47
   2 -10  -1   32.73    2.34
  -2 -10   1   32.69    2.36
   2  10  -1   37.30    2.38
  -2  10   1   38.06    2.36
  -1 -10   1   16.36    1.24
  -1 -10   1   16.09    1.30
   1 -10  -1   16.23    1.23
   1  10  -1   18.50    1.24
  -1  10   1   19.58    1.28
   0  10   1   11.35    0.88
   0  10   1   11.71    0.86
   0  10  -1   11.31    0.86
   0  10  -1   11.84    0.84
   1 -10   1   18.86    1.32
  -1 -10  -1   18.63    1.32
   1  10   1   19.74    1.34
  -1  10  -1   19.12    1.30
   1  10   1   16.57    1.37
   2 -10   1   62.31    4.34
  -2 -10  -1   61.63    4.34
   2  10   1   67.94    4.38
   2  10   1   64.84    4.57
   3  10   1    6.35    0.63
   3  10   1    7.58    0.64
  -3  10  -1    6.25    0.44
  -4 -10  -1   33.00    2.25
   4 -10   1   33.52    2.27
  -4 -10  -1   30.53    2.40
   4  10   1   32.18    2.37
  -4  10  -1   30.71    2.04
   4  10   1   31.60    2.28
   5 -10   1    4.76    0.87
  -5 -10  -1    4.91    0.75
  -5 -10  -1    5.09    0.77
   5  10   1    6.20    0.78
  -5  10  -1    6.53    0.42
   5  10   1    6.99    0.73
  -6 -10  -1    8.47    1.03
  -6 -10  -1   10.40    1.15
   6  10   1    7.65    1.09
   6  10   1    9.58    1.04
  -6  10  -1    9.82    0.64
  -7 -10  -1   14.31    1.09
  -7 -10  -1   16.17    1.15
  -7 -10  -1   14.41    1.11
  -7 -10  -1   15.93    1.19
  -7  10  -1   16.39    1.01
  -7  10  -1   14.35    1.08
  -7  10  -1   13.99    1.11
  -7  10  -1   14.57    1.09
   7  10   1   15.66    1.50
  -8 -10  -1    0.51    0.22
  -8 -10  -1    0.72    0.21
  -8 -10  -1    0.51    0.17
  -8  10  -1    0.08    0.18
   8  10   1    1.39    0.85
  -8  10  -1    0.37    0.18
  -8  10  -1    0.38    0.19
  -9 -10  -1    0.79    0.18
  -9 -10  -1    0.32    0.20
  -9  10  -1    0.69    0.20
  -9  10  -1    0.63    0.20
  -9  10  -1    0.74    0.19
 -11 -11   1    1.92    0.27
 -11  11   1    2.02    0.27
 -11  11   1    2.29    0.28
 -10  11   1    0.98    0.19
 -10  11   1    1.35    0.21
  -9 -11   1    4.32    0.49
  -9 -11   1    4.67    0.50
  -9 -11   1    4.58    0.46
  -9  11   1    4.97    0.47
  -9  11   1    4.60    0.47
  -8 -11   1    0.62    0.19
  -8 -11   1    0.41    0.20
  -8 -11   1    0.63    0.22
  -8  11   1    0.14    0.20
  -7 -11   1    9.69    0.69
  -7 -11   1    9.78    0.68
  -7 -11   1    9.30    0.72
  -7  11   1    8.02    0.61
   7  11  -1    9.21    1.11
  -7  11   1    7.62    0.68
  -7  11   1    7.68    0.70
  -7  11   1    8.54    0.70
  -6 -11   1   28.78    2.31
   6  11  -1   28.32    2.21
  -6  11   1   28.30    1.86
   6  11  -1   30.59    2.27
   5  11  -1    0.86    0.13
   5  11  -1    1.21    0.45
  -5  11   1    0.79    0.16
  -4 -11   1   42.70    3.39
  -4 -11   1   42.86    3.22
  -4  11   1   50.41    2.96
   4  11  -1   47.75    3.24
   4  11  -1   48.23    2.96
  -3 -11   1   12.67    0.89
  -3 -11   1   12.09    0.94
   3  11  -1   10.47    0.86
  -3  11   1   10.04    0.71
   3  11  -1    9.79    0.70
  -3  11   1   10.61    0.86
  -2 -11   1   36.12    2.20
  -2 -11   1   35.33    2.31
  -2  11   1   27.88    2.01
   2  11  -1   29.12    2.19
  -2  11   1   29.45    2.19
   1 -11  -1   37.79    2.39
  -1 -11   1   33.10    2.51
  -1 -11   1   38.02    2.40
   1  11  -1   32.53    2.40
  -1  11   1   32.85    2.40
   1  11  -1   34.25    2.49
   0 -11  -1   29.48    1.93
   0 -11   1   29.98    1.94
   0 -11   1   26.77    2.01
   0  11  -1   25.42    1.99
   0  11   1   26.18    2.00
   0  11  -1   28.61    1.92
   0  11   1   27.74    1.94
   1 -11   1    7.65    0.69
  -1 -11  -1    7.60    0.68
   1  11   1    8.70    0.68
   1  11   1    8.39    0.67
  -1  11  -1    8.18    0.63
  -1  11  -1    8.04    0.53
  -2  11  -1    4.69    0.34
   2  11   1    5.06    0.51
   2  11   1    5.51    0.53
   3 -11   1    0.55    0.33
  -3 -11  -1    0.35    0.36
  -3 -11  -1    0.49    0.33
  -3  11  -1    0.99    0.13
   3  11   1    1.10    0.30
   3  11   1    1.19    0.30
  -4 -11  -1   16.84    1.39
  -4 -11  -1   17.34    1.49
   4 -11   1   18.86    1.42
  -4  11  -1   17.78    1.16
   4  11   1   19.97    1.43
   4  11   1   17.28    1.37
   5  11   1    1.70    0.50
   5  11   1    1.56    0.40
  -5  11  -1    1.86    0.20
  -6 -11  -1   25.02    1.87
  -6  11  -1   22.41    1.49
   6  11   1   24.04    1.90
   6  11   1   20.90    1.89
  -7 -11  -1    4.23    0.47
  -7 -11  -1    4.80    0.54
  -7 -11  -1    3.94    0.42
  -7 -11  -1    3.79    0.45
  -7  11  -1    5.23    0.39
   7  11   1    5.11    1.00
  -7  11  -1    4.87    0.41
  -7  11  -1    4.20    0.41
  -9 -11  -1    1.16    0.21
  -9 -11  -1    1.17    0.24
  -9  11  -1    1.86    0.32
  -9  11  -1    1.59    0.32
  -9  11  -1    1.88    0.32
 -10 -11  -1    0.54    0.18
 -10 -11  -1    0.19    0.18
 -10  11  -1    0.61    0.18
 -10  11  -1    0.88    0.18
 -11 -11  -1    0.18    0.13
 -11 -11  -1    0.10    0.14
 -11  11  -1    0.43    0.16
 -11  11  -1    0.32    0.14
 -11  12   1    1.56    0.24
 -11  12   1    1.50    0.23
 -10 -12   1    5.53    0.50
 -10 -12   1    5.38    0.47
 -10 -12   1    4.92    0.49
  -9 -12   1    3.26    0.42
  -9 -12   1    3.12    0.39
  -9 -12   1    3.40    0.38
  -9  12   1    2.50    0.36
  -9  12   1    2.34    0.38
  -9  12   1    2.66    0.38
  -8 -12   1    2.87    0.41
  -8 -12   1    3.36    0.41
  -8 -12   1    3.19    0.39
  -7 -12   1    0.49    0.72
  -7 -12   1    0.68    0.18
  -7 -12   1    0.64    0.20
  -7 -12   1    0.66    0.19
  -7  12   1    0.42    0.22
  -7  12   1    0.37    0.18
  -7  12   1    0.34    0.20
  -7  12   1    0.48    0.16
   7  12  -1   -0.15    0.60
  -6 -12   1    1.75    0.67
   6  12  -1    2.82    0.58
  -6  12   1    3.45    0.29
  -6  12   1    2.73    0.32
  -6  12   1    2.84    0.35
  -5 -12   1    7.92    0.95
  -5 -12   1    6.98    0.89
   5  12  -1    7.57    0.90
   5  12  -1    7.21    0.53
  -5  12   1    7.85    0.53
   5  12  -1    8.39    0.84
  -4 -12   1    5.34    0.72
  -4 -12   1    5.48    0.74
   4  12  -1    6.04    0.68
  -4  12   1    5.40    0.39
   4  12  -1    6.43    0.66
   4  12  -1    5.11    0.39
  -3 -12   1   17.47    1.34
  -3 -12   1   16.30    1.39
  -3  12   1   17.95    1.13
   3  12  -1   17.20    1.13
   3  12  -1   18.40    1.33
   2 -12  -1   37.90    2.77
  -2 -12   1   39.18    2.79
  -2 -12   1   39.04    2.93
  -2  12   1   40.84    2.80
   2  12  -1   42.46    2.81
  -2  12   1   40.99    2.58
   2  12  -1   39.68    2.58
   2  12  -1   43.72    2.92
  -1 -12   1    7.66    0.67
  -1 -12   1    6.93    0.70
   1 -12  -1    7.89    0.66
  -1  12   1    7.02    0.65
   1  12  -1    7.33    0.63
   1  12  -1    7.13    0.49
  -1  12   1    7.29    0.49
   1  12  -1    7.90    0.63
   0 -12   1   48.75    3.31
   0 -12  -1   49.23    3.32
   0  12  -1   47.47    3.09
   0  12   1   45.19    3.09
   0  12   1   47.87    3.47
   0  12   1   51.72    3.35
   0  12  -1   50.06    3.32
   1 -12   1    3.86    0.53
   1  12   1    5.17    0.52
   1  12   1    5.32    0.52
  -1  12  -1    4.94    0.34
  -1  12  -1    5.08    0.47
  -2 -12  -1   24.59    1.67
   2 -12   1   24.04    1.66
   2  12   1   21.87    1.71
   2  12   1   23.27    1.66
  -2  12  -1   21.15    1.47
  -3 -12  -1   13.03    1.08
   3 -12   1   12.30    1.07
  -3  12  -1   12.60    0.84
   3  12   1   13.39    1.07
   3  12   1   13.67    1.06
  -4 -12  -1   20.77    1.58
   4 -12   1   19.97    1.61
   4  12   1   20.90    1.61
  -4  12  -1   19.96    1.32
   4  12   1   20.81    1.58
  -5 -12  -1    3.64    0.76
   5  12   1    2.43    0.52
  -5  12  -1    3.07    0.27
   5  12   1    4.00    0.65
  -6 -12  -1    0.72    0.17
  -6 -12  -1    0.62    0.20
  -6  12  -1    0.42    0.14
  -6  12  -1    0.46    0.16
   6  12   1    0.72    0.56
  -6  12  -1    0.29    0.15
  -6  12  -1    0.52    0.17
  -7 -12  -1    2.77    0.39
  -7 -12  -1    2.68    0.35
  -7 -12  -1    3.36    0.49
  -7 -12  -1    3.02    0.40
  -7  12  -1    3.17    0.36
  -7  12  -1    2.69    0.34
  -7  12  -1    3.22    0.33
   7  12   1    3.97    0.77
  -7  12  -1    2.90    0.34
  -8 -12  -1    2.94    0.43
  -8 -12  -1    3.17    0.52
  -8 -12  -1    2.86    0.37
  -8 -12  -1    2.68    0.40
  -8  12  -1    3.66    0.37
  -8  12  -1    3.95    0.38
  -9 -12  -1    1.78    0.31
  -9 -12  -1    1.64    0.26
  -9  12  -1    2.17    0.34
  -9  12  -1    1.96    0.34
  -9  12  -1    2.19    0.34
 -10 -12  -1    0.90    0.20
 -10 -12  -1    1.28    0.26
 -11 -12  -1    1.20    0.22
 -11 -12  -1    1.24    0.23
 -11  12  -1    1.89    0.24
 -11  12  -1    1.70    0.22
 -10 -13   1    1.27    0.27
 -10 -13   1    0.84    0.18
  -9 -13   1    0.88    0.20
  -9 -13   1    0.69    0.20
  -9 -13   1    0.34    0.23
  -9  13   1    0.95    0.21
  -9  13   1    0.73    0.20
  -9  13   1    0.82    0.20
  -8 -13   1    4.86    0.52
  -8 -13   1    5.07    0.49
  -8 -13   1    4.76    0.50
  -8  13   1    5.53    0.49
  -8  13   1    5.60    0.43
  -8  13   1    5.02    0.50
  -7 -13   1    3.08    0.39
  -7 -13   1    4.08    0.92
  -7 -13   1    2.99    0.39
  -7 -13   1    3.37    0.41
  -7  13   1    3.90    0.41
  -7  13   1    3.62    0.34
   7  13  -1    4.05    0.78
  -7  13   1    3.96    0.44
  -7  13   1    3.74    0.38
  -6 -13   1    0.57    0.19
  -6 -13   1    0.34    0.17
  -6 -13   1    0.32    0.15
  -6 -13   1    0.77    0.25
  -6 -13   1    0.50    0.60
  -5 -13   1    0.37    0.52
  -5 -13   1   -0.33    0.49
   5  13  -1    0.27    0.12
  -5  13   1    0.27    0.12
   5  13  -1    0.38    0.49
   5  13  -1    0.42    0.41
  -4 -13   1   54.68    3.81
  -4 -13   1   51.48    3.99
  -4  13   1   56.26    3.49
   4  13  -1   56.36    3.83
   4  13  -1   52.17    3.49
   4  13  -1   57.65    3.97
  -3 -13   1    3.30    0.59
  -3 -13   1    3.17    0.62
   3  13  -1    3.26    0.26
   3  13  -1    3.31    0.49
  -3  13   1    3.54    0.27
   3  13  -1    3.86    0.54
  -2 -13   1   80.17    5.78
  -2 -13   1   79.79    5.49
  -2  13   1   81.24    5.53
   2  13  -1   82.37    5.16
   2  13  -1   80.47    5.76
   2  13  -1   82.89    5.53
  -1 -13   1    8.57    0.80
  -1 -13   1    8.58    0.77
   1 -13  -1    8.48    0.76
  -1  13   1    8.85    0.75
   1  13  -1    8.79    0.73
   1  13  -1    8.42    0.57
  -1  13   1    8.41    0.57
   1  13  -1    8.73    0.74
   0  13   1    0.24    0.08
   0  13  -1    0.36    0.08
   0  13   1    0.52    0.26
   0  13   1    0.37    0.27
   0  13  -1    0.33    0.24
  -1 -13  -1   14.08    1.12
   1 -13   1   13.78    1.09
   1  13   1   13.22    0.90
   1  13   1   14.99    1.11
   1  13   1   13.70    1.08
  -1  13  -1   13.86    0.90
  -2 -13  -1    4.60    0.65
   2 -13   1    5.24    0.63
   2  13   1    5.52    0.60
   2  13   1    4.54    0.35
   2  13   1    6.06    0.57
  -2  13  -1    4.75    0.35
  -3 -13  -1    8.31    0.89
   3 -13   1   10.10    0.94
   3  13   1    8.88    0.83
  -3  13  -1    9.04    0.61
   3  13   1    9.41    0.86
  -4 -13  -1   17.59    1.39
   4 -13   1   17.52    1.45
   4  13   1   16.14    1.32
   4  13   1   16.53    1.36
  -4  13  -1   15.74    1.08
  -5 -13  -1    1.61    0.61
  -5  13  -1    1.21    0.21
   5  13   1    1.54    0.54
   5  13   1    1.09    0.45
  -6 -13  -1   10.64    0.97
  -6 -13  -1   10.92    1.02
  -6  13  -1   13.82    0.95
  -6  13  -1   14.14    0.97
  -6  13  -1   15.02    0.95
  -7 -13  -1    7.90    0.70
  -7 -13  -1    7.83    0.69
  -7 -13  -1    8.00    0.65
  -7 -13  -1    7.69    0.65
  -7  13  -1    8.29    0.59
  -7  13  -1    7.38    0.63
  -7  13  -1    8.01    0.64
   7  13   1    8.47    1.25
  -7  13  -1    8.39    0.63
  -8 -13  -1   20.05    1.42
  -8 -13  -1   21.36    1.46
  -8 -13  -1   20.63    1.46
  -8  13  -1   19.28    1.44
  -8  13  -1   19.31    1.42
  -8  13  -1   19.42    1.47
  -9 -13  -1    0.15    0.19
  -9 -13  -1    0.32    0.18
  -9  13  -1    0.22    0.18
  -9  13  -1    0.39    0.19
  -9  13  -1    0.23    0.19
 -10 -13  -1    0.64    0.18
 -10 -13  -1    0.87    0.17
 -10  13  -1    0.79    0.18
 -10  13  -1    1.09    0.18
 -10 -14   1    8.03    0.63
 -10 -14   1    7.68    0.61
 -10 -14   1    7.73    0.60
 -10  14   1    7.27    0.59
 -10  14   1    7.14    0.59
  -9  14   1    1.18    0.22
  -9  14   1    1.16    0.21
  -9  14   1    1.29    0.22
  -8  14   1    6.16    0.54
  -8  14   1    6.27    0.49
  -8  14   1    6.17    0.56
  -8  14   1    5.95    0.56
  -7  14   1    0.21    0.20
   7  14  -1   -0.32    0.67
  -7  14   1    0.23    0.18
  -7  14   1    0.47    0.17
  -7  14   1    0.57    0.22
  -6 -14   1    1.09    0.72
  -6 -14   1    0.53    0.17
  -6 -14   1    0.79    0.21
  -6 -14   1    1.00    0.25
  -6  14   1    0.43    0.16
  -6  14   1    0.79    0.21
   6  14  -1    0.45    0.55
  -6  14   1    0.75    0.18
  -6  14   1    0.37    0.19
  -6  14   1    0.45    0.23
  -5 -14   1    1.52    0.66
  -5 -14   1    1.53    0.59
   5  14  -1    2.54    0.53
  -5  14   1    1.76    0.24
   5  14  -1    2.26    0.64
  -4 -14   1    1.18    0.50
  -4 -14   1    0.65    0.50
   4  14  -1    1.57    0.43
   4  14  -1    1.02    0.17
  -4  14   1    1.36    0.19
   4  14  -1    1.55    0.47
  -3 -14   1    4.69    0.74
  -3 -14   1    4.95    0.76
  -3  14   1    5.35    0.39
   3  14  -1    5.16    0.69
   3  14  -1    5.31    0.38
   3  14  -1    6.06    0.63
  -2 -14   1   45.68    3.27
  -2 -14   1   49.37    3.43
   2  14  -1   47.78    3.39
  -2  14   1   47.83    3.00
   2  14  -1   44.29    3.00
   2  14  -1   47.60    3.28
  -1 -14   1    7.38    0.72
   1 -14  -1    7.07    0.72
  -1  14   1    6.56    0.71
   1  14  -1    6.49    0.66
   1  14  -1    6.70    0.46
  -1  14   1    6.96    0.47
   0 -14  -1    9.13    0.88
   0 -14   1    9.43    0.85
   0  14  -1    9.99    0.82
   0  14   1    9.81    0.65
   0  14   1   10.09    0.87
   0  14  -1   10.03    0.64
  -1 -14  -1    0.84    0.39
   1 -14   1    0.52    0.35
   1  14   1    1.36    0.34
   1  14   1    0.72    0.11
   1  14   1    1.26    0.35
  -1  14  -1    0.85    0.14
  -2  14  -1    3.34    0.25
   2  14   1    2.75    0.53
   2  14   1    3.90    0.57
   2  14   1    2.89    0.26
  -3 -14  -1    2.52    0.55
   3 -14   1    2.54    0.58
   3  14   1    3.34    0.62
  -3  14  -1    2.98    0.25
   3  14   1    3.69    0.58
   4  14   1    5.59    0.74
   4  14   1    5.59    0.81
  -4  14  -1    5.93    0.42
   5  14   1    8.13    0.94
  -5  14  -1    7.91    0.56
  -6 -14  -1    0.93    0.22
  -6 -14  -1    0.65    0.19
  -6 -14  -1    0.89    0.21
  -6 -14  -1    0.86    0.24
  -6  14  -1    0.74    0.17
  -6  14  -1    0.65    0.18
   6  14   1    1.21    0.60
  -7 -14  -1    0.49    0.27
  -7 -14  -1    1.05    0.21
  -7 -14  -1    0.66    0.22
  -7 -14  -1    1.02    0.23
  -7  14  -1    0.70    0.19
  -7  14  -1    1.06    0.20
  -7  14  -1    1.04    0.20
  -7  14  -1    0.88    0.19
   7  14   1    0.66    0.77
  -8 -14  -1    6.27    0.60
  -8 -14  -1    5.53    0.53
  -8 -14  -1    5.59    0.57
  -8  14  -1    6.50    0.55
  -8  14  -1    6.63    0.54
  -8  14  -1    6.22    0.54
  -9 -14  -1    0.23    0.17
  -9 -14  -1    0.32    0.26
  -9 -14  -1    0.10    0.19
  -9  14  -1    0.34    0.18
  -9  14  -1    0.53    0.19
  -9  14  -1    0.26    0.18
 -10 -14  -1    1.61    0.26
 -10  14  -1    1.26    0.25
 -10  14  -1    1.16    0.25
 -10 -15   1    0.04    0.14
 -10 -15   1    0.27    0.18
 -10 -15   1    0.30    0.15
 -10  15   1    0.03    0.14
 -10  15   1    0.21    0.14
  -9 -15   1    3.16    0.37
  -9 -15   1    3.79    0.41
  -9 -15   1    2.91    0.37
  -9  15   1    3.08    0.35
  -9  15   1    3.25    0.37
  -9  15   1    3.33    0.35
  -8 -15   1    0.96    0.21
  -8 -15   1    0.94    0.22
  -8 -15   1    0.53    0.24
  -8  15   1    1.11    0.20
  -8  15   1    1.16    0.22
  -8  15   1    1.40    0.24
  -8  15   1    1.14    0.21
  -7 -15   1    3.50    0.40
  -7 -15   1    2.92    0.39
  -7 -15   1    3.25    0.42
  -7  15   1    3.31    0.38
  -7  15   1    3.39    0.35
  -7  15   1    3.48    0.41
  -7  15   1    3.68    0.43
  -6 -15   1    1.05    0.77
  -6 -15   1    2.21    0.42
  -5 -15   1    2.04    0.31
  -5 -15   1    1.57    0.30
  -5 -15   1    2.13    0.70
  -5 -15   1    1.98    0.33
  -4 -15   1   44.39    3.28
  -4 -15   1   42.39    3.44
   4  15  -1   45.18    3.30
   4  15  -1   45.86    2.94
  -4  15   1   48.84    2.94
   4  15  -1   48.95    3.39
  -3  15   1    0.90    0.18
   3  15  -1    1.41    0.47
   3  15  -1    1.19    0.38
   3  15  -1    0.95    0.16
  -2 -15   1   73.03    4.64
  -2 -15   1   65.66    4.86
  -2  15   1   70.69    4.30
   2  15  -1   69.20    4.83
   2  15  -1   63.02    4.65
   2  15  -1   64.00    4.30
   1 -15  -1    4.51    0.67
  -1 -15   1    4.51    0.65
   1  15  -1    3.74    0.60
  -1  15   1    3.22    0.63
   1  15  -1    3.75    0.29
  -1  15   1    3.94    0.30
   0  15   1    5.23    0.38
   0  15  -1    5.51    0.38
   0  15   1    5.30    0.70
  -1 -15  -1    6.96    0.79
   1 -15   1    5.87    0.77
  -1  15  -1    6.64    0.45
   1  15   1    7.30    0.73
   1  15   1    6.47    0.74
   1  15   1    6.43    0.45
  -2 -15  -1    4.19    0.71
   2  15   1    2.80    0.60
   2  15   1    2.62    0.25
   2  15   1    2.72    0.57
  -2  15  -1    2.77    0.24
   3 -15   1   21.95    1.76
  -3 -15  -1   23.23    1.75
   3  15   1   20.57    1.71
  -3  15  -1   22.97    1.42
   3  15   1   21.24    1.73
  -4 -15  -1    5.30    1.05
   4  15   1    8.40    0.89
   4  15   1    7.91    0.96
  -4  15  -1    7.54    0.53
  -5 -15  -1    1.94    0.33
  -5 -15  -1    1.83    0.36
  -5 -15  -1    2.22    0.35
  -5 -15  -1    1.85    0.37
  -5  15  -1    2.29    0.30
   5  15   1    2.65    0.61
  -5  15  -1    3.08    0.32
  -5  15  -1    2.71    0.31
  -5  15  -1    3.04    0.28
  -5  15  -1    3.42    0.47
  -6 -15  -1   21.92    1.56
  -6 -15  -1   21.26    1.52
  -6 -15  -1   22.12    1.52
  -6 -15  -1   23.26    1.65
  -6  15  -1   20.53    1.55
  -6  15  -1   20.14    1.53
   6  15   1   20.61    1.88
  -6  15  -1   21.50    1.40
  -6  15  -1   21.16    1.51
  -7 -15  -1    2.78    0.38
  -7 -15  -1    2.80    0.41
  -7 -15  -1    2.64    0.37
  -7 -15  -1    2.86    0.35
  -7  15  -1    1.81    0.36
  -7  15  -1    2.03    0.33
  -7  15  -1    2.05    0.32
  -7  15  -1    2.13    0.34
  -8 -15  -1   25.55    1.89
  -8 -15  -1   27.14    2.05
  -8 -15  -1   27.38    1.90
  -8 -15  -1   26.95    1.94
  -8  15  -1   27.26    1.89
  -8  15  -1   26.40    1.91
  -8  15  -1   28.00    1.95
  -9 -15  -1    0.56    0.25
  -9 -15  -1    0.19    0.17
  -9 -15  -1    0.37    0.18
  -9  15  -1    0.19    0.17
  -9  15  -1    0.25    0.17
  -9  15  -1    0.22    0.19
 -10 -15  -1    0.26    0.15
 -10 -15  -1    0.35    0.14
 -10  15  -1    0.46    0.15
 -10  15  -1    0.46    0.14
 -10 -16   1    2.95    0.30
 -10 -16   1    2.73    0.32
 -10 -16   1    3.04    0.34
 -10  16   1    3.02    0.31
 -10  16   1    3.23    0.30
  -9 -16   1    7.53    0.61
  -9 -16   1    7.49    0.63
  -9 -16   1    7.54    0.61
  -8 -16   1    7.83    0.61
  -8 -16   1    8.34    0.64
  -8 -16   1    7.62    0.63
  -8  16   1    6.55    0.61
  -8  16   1    7.06    0.61
  -8  16   1    6.64    0.60
  -8  16   1    6.62    0.54
  -7 -16   1    5.66    0.56
  -7 -16   1    5.12    0.56
  -7 -16   1    5.50    0.54
  -7  16   1    6.94    0.56
  -7  16   1    6.95    0.49
  -7  16   1    6.52    0.54
  -7  16   1    6.44    0.56
  -6 -16   1    3.41    0.41
  -6 -16   1    3.80    0.38
  -6 -16   1    3.55    0.39
  -6 -16   1    3.66    0.48
  -6  16   1    3.37    0.41
  -6  16   1    2.88    0.35
   6  16  -1    2.89    0.73
  -6  16   1    3.14    0.39
  -6  16   1    2.60    0.36
  -6  16   1    2.95    0.41
   6  16  -1    3.41    0.41
  -5 -16   1    0.23    0.23
  -5 -16   1    0.02    0.76
  -5 -16   1    0.21    0.21
  -5  16   1    0.59    0.17
   5  16  -1    0.93    0.54
  -5  16   1    0.60    0.17
  -5  16   1    0.61    0.19
  -5  16   1    0.81    0.22
  -5  16   1    0.78    0.22
  -4 -16   1    0.37    0.17
  -4 -16   1    0.58    0.23
  -4 -16   1    0.59    0.63
   4  16  -1    0.12    0.43
  -4  16   1    0.27    0.14
   4  16  -1    0.13    0.13
   4  16  -1    0.76    0.61
  -3 -16   1    0.05    0.53
  -3 -16   1    0.17    0.56
   3  16  -1    0.98    0.42
   3  16  -1    0.64    0.12
   3  16  -1    0.90    0.53
  -3  16   1    0.74    0.14
  -2 -16   1   27.44    1.98
  -2  16   1   26.64    1.69
   2  16  -1   25.42    1.69
   2  16  -1   25.89    1.98
  -1 -16   1    0.73    0.45
  -1  16   1    1.20    0.18
   1  16  -1    1.29    0.42
   1  16  -1    1.43    0.17
   0  16   1    7.43    0.51
   0  16   1    6.92    0.85
   0  16  -1    7.89    0.51
   1  16   1    3.90    0.69
   2 -16   1    2.16    0.60
  -2 -16  -1    1.73    0.61
   2  16   1    3.64    0.70
   2  16   1    2.89    0.66
  -2  16  -1    3.50    0.26
   2  16   1    2.67    0.26
  -3 -16  -1    8.33    1.11
   3  16   1    9.70    0.99
  -3  16  -1   10.60    0.65
   3  16   1    8.48    1.03
  -4 -16  -1    2.39    0.35
  -4 -16  -1    2.61    0.35
  -4  16  -1    3.08    0.28
   4  16   1    3.21    0.60
  -4  16  -1    2.99    0.34
  -5 -16  -1    5.94    0.55
  -5 -16  -1    5.89    0.53
  -5 -16  -1    5.98    0.55
  -5  16  -1    6.87    0.61
  -5  16  -1    5.92    0.53
  -5  16  -1    7.11    0.48
  -5  16  -1    6.38    0.53
   5  16   1    6.09    1.02
  -5  16  -1    6.35    0.53
  -6 -16  -1    0.15    0.20
  -6 -16  -1    0.22    0.20
  -6 -16  -1    0.55    0.21
  -6 -16  -1    0.65    0.23
  -6  16  -1    0.35    0.19
  -6  16  -1    0.30    0.18
   6  16   1   -0.16    0.68
  -6  16  -1    0.27    0.18
  -6  16  -1    0.22    0.17
  -7 -16  -1    0.52    0.25
  -7 -16  -1    0.01    0.21
  -7 -16  -1    0.30    0.19
  -7 -16  -1    0.22    0.20
  -7  16  -1    0.17    0.19
  -7  16  -1   -0.02    0.19
  -7  16  -1    0.12    0.18
  -7  16  -1    0.10    0.20
  -8 -16  -1   16.63    1.22
  -8 -16  -1   15.12    1.19
  -8 -16  -1   16.70    1.29
  -8 -16  -1   17.09    1.21
  -8  16  -1   15.92    1.19
  -8  16  -1   17.19    1.22
  -8  16  -1   16.71    1.20
  -9  16  -1    2.13    0.31
   9  16   1    1.65    0.30
  -9  16  -1    1.80    0.29
  -9  16  -1    1.76    0.29
  -9 -17   1    4.82    0.43
  -9 -17   1    4.86    0.42
  -9 -17   1    4.34    0.43
  -9  17   1    4.36    0.40
  -9  17   1    4.17    0.41
  -8 -17   1    0.19    0.17
  -8 -17   1    0.32    0.18
  -8 -17   1    0.11    0.22
  -8  17   1    0.15    0.18
  -8  17   1    0.29    0.18
  -8  17   1    0.08    0.20
  -8  17   1    0.14    0.18
  -7  17   1    1.04    0.23
  -7  17   1    0.92    0.21
  -7  17   1    0.95    0.22
  -7  17   1    0.97    0.20
  -7  17   1    1.20    0.25
  -6 -17   1    1.02    0.24
  -6  17   1    0.52    0.21
  -6  17   1    0.51    0.20
  -6  17   1    0.49    0.19
  -6  17   1    0.38    0.19
  -6  17   1    0.47    0.23
   6  17  -1    0.40    0.21
  -5 -17   1    1.19    0.26
  -5 -17   1    2.00    0.42
  -5 -17   1    1.65    0.30
  -5 -17   1    1.38    0.31
  -5  17   1    1.36    0.29
   5  17  -1    2.23    0.33
  -5  17   1    1.68    0.36
  -5  17   1    1.85    0.35
  -5  17   1    1.47    0.31
  -5  17   1    1.39    0.27
   5  17  -1    1.71    0.64
  -4 -17   1    9.83    0.71
  -4 -17   1    8.84    0.72
  -4 -17   1    9.35    0.70
  -4 -17   1   10.02    0.70
  -4  17   1    7.72    0.69
  -4  17   1    8.40    0.71
  -4  17   1    8.20    0.68
  -4  17   1    8.38    0.69
   4  17  -1   10.17    1.07
   4  17  -1    8.09    0.61
   4  17  -1    8.28    0.67
  -4  17   1    9.09    0.62
  -3 -17   1   46.21    3.05
   3  17  -1   40.59    2.65
  -3  17   1   43.51    2.66
   3  17  -1   35.94    3.01
  -2 -17   1   24.63    1.91
  -2  17   1   25.96    1.59
   2  17  -1   22.89    1.91
   2  17  -1   24.74    1.59
  -1  17   1    7.87    0.54
   1  17  -1    7.68    0.53
   0 -17  -1    1.27    0.63
   0  17  -1    2.83    0.23
   0  17   1    2.16    0.24
  -1 -17  -1    7.01    1.01
   1 -17   1    8.13    0.97
  -1  17  -1    7.59    0.52
   1  17   1    7.77    0.94
   1  17   1    7.17    0.52
  -2 -17  -1    3.50    0.69
   2 -17   1    2.77    0.71
  -2  17  -1    3.40    0.27
   2  17   1    2.78    0.28
   2  17   1    2.65    0.58
  -3 -17  -1    8.89    1.23
   3  17   1    9.92    1.18
  -3  17  -1   11.81    0.72
   3  17   1    9.91    1.09
  -4 -17  -1    0.48    0.18
  -4 -17  -1    0.57    0.22
  -4 -17  -1    0.48    0.18
  -4  17  -1    0.26    0.21
  -4  17  -1    0.24    0.16
  -4  17  -1    0.29    0.15
   4  17   1   -0.33    0.53
  -4  17  -1    0.45    0.17
  -4  17  -1    0.50    0.22
  -5  17  -1    5.90    0.56
   5  17   1    5.30    0.86
  -5  17  -1    5.68    0.44
  -5  17  -1    4.92    0.47
  -5  17  -1    5.42    0.48
  -5  17  -1    5.09    0.49
  -6 -17  -1   19.01    1.41
  -6 -17  -1   17.90    1.37
  -6 -17  -1   18.39    1.38
  -6 -17  -1   18.80    1.48
  -6  17  -1   19.48    1.38
  -6  17  -1   20.17    1.27
  -6  17  -1   20.02    1.40
  -6  17  -1   19.28    1.37
  -7 -17  -1   11.05    0.92
  -7 -17  -1   11.50    0.91
  -7 -17  -1   11.34    0.89
  -7 -17  -1   11.53    0.95
  -7  17  -1   12.27    0.92
  -7  17  -1   11.88    0.90
  -7  17  -1   12.51    0.83
  -7  17  -1   12.96    0.89
  -8 -17  -1    8.60    0.72
  -8 -17  -1    8.12    0.67
  -8 -17  -1    8.80    0.70
  -8  17  -1    8.49    0.68
  -8  17  -1    8.50    0.66
  -8  17  -1    8.04    0.66
  -9 -17  -1    1.14    0.19
  -9 -17  -1    1.26    0.25
   9  17   1    1.25    0.19
  -9  17  -1    1.19    0.24
  -9  17  -1    1.09    0.25
  -9  17  -1    1.75    0.28
  -9 -18   1   11.46    0.85
  -9 -18   1   11.48    0.89
  -9 -18   1   11.14    0.83
  -8 -18   1    0.54    0.22
  -8 -18   1    0.81    0.18
  -8  18   1    0.69    0.18
  -8  18   1    0.50    0.19
  -8  18   1    0.70    0.20
  -8  18   1    0.48    0.18
  -7 -18   1    7.58    0.64
  -7 -18   1    7.01    0.66
  -7 -18   1    8.02    0.68
   7 -18  -1    7.72    0.64
  -7  18   1    7.64    0.64
  -7  18   1    7.98    0.66
  -7  18   1    8.01    0.66
  -7  18   1    8.29    0.58
  -7  18   1    8.53    0.65
  -6 -18   1   -0.35    0.22
  -6 -18   1    0.23    0.19
   6 -18  -1    0.19    0.19
  -6 -18   1    0.14    0.25
  -6 -18   1    0.17    0.18
  -6  18   1   -0.01    0.20
  -6  18   1   -0.12    0.19
  -6  18   1   -0.01    0.22
  -6  18   1   -0.10    0.19
  -6  18   1    0.01    0.18
   6  18  -1    0.17    0.19
  -5  18   1    2.49    0.34
  -5  18   1    1.99    0.31
  -5  18   1    1.95    0.38
   5  18  -1    1.89    0.35
  -5  18   1    2.17    0.32
  -5  18   1    2.25    0.38
   5  18  -1    2.07    0.75
   4 -18  -1    3.00    0.35
  -4 -18   1    2.69    0.38
  -4 -18   1    3.03    0.41
  -4 -18   1    2.40    0.38
  -4 -18   1    2.86    0.35
   4  18  -1    2.50    0.36
  -4  18   1    2.38    0.31
  -4  18   1    2.66    0.37
  -4  18   1    2.92    0.38
  -4  18   1    2.70    0.37
   4  18  -1    2.68    0.29
  -4  18   1    2.59    0.38
  -3 -18   1    4.88    0.46
  -3 -18   1    4.49    0.42
   3 -18  -1    4.78    0.42
  -3 -18   1    4.67    0.47
  -3 -18   1    5.27    0.48
  -3  18   1    4.74    0.38
   3  18  -1    4.58    0.42
   3  18  -1    4.58    0.37
  -3  18   1    4.25    0.47
  -3  18   1    4.25    0.44
  -3  18   1    4.50    0.45
  -2 -18   1    6.31    1.06
  -2  18   1    6.57    0.58
  -2  18   1    7.47    0.51
   2  18  -1    7.07    0.50
   1  18  -1   19.01    1.21
  -1  18   1   18.05    1.21
   0 -18   1    2.37    0.67
   0  18  -1    2.14    0.23
   0  18   1    1.84    0.23
  -1  18  -1   10.71    0.71
   1  18   1   10.06    0.71
   1  18   1   11.12    1.25
   2 -18   1    0.67    0.18
  -2 -18  -1    0.09    0.71
   2  18   1    0.81    0.63
  -2  18  -1    0.36    0.19
  -2  18  -1    0.70    0.14
   2  18   1    0.59    0.14
  -3 -18  -1    7.59    0.68
  -3 -18  -1    7.11    0.69
   3  18   1    9.14    0.68
   3  18   1    8.81    1.19
  -3  18  -1   10.04    0.67
  -3  18  -1    7.66    0.69
  -3  18  -1    9.74    0.68
  -4 -18  -1    0.74    0.24
  -4 -18  -1    0.91    0.21
  -4 -18  -1    0.81    0.21
  -4  18  -1    1.17    0.22
  -4  18  -1    1.47    0.19
  -4  18  -1    1.56    0.32
   4  18   1    0.90    0.66
  -4  18  -1    1.26    0.19
  -5  18  -1    2.54    0.34
   5  18   1    2.88    0.78
  -5  18  -1    3.38    0.45
  -5  18  -1    3.03    0.32
  -5  18  -1    2.57    0.37
  -5  18  -1    2.91    0.36
  -6 -18  -1    0.60    0.20
  -6 -18  -1    0.72    0.21
  -6 -18  -1    0.51    0.21
  -6 -18  -1    0.64    0.26
  -6  18  -1    0.79    0.19
  -6  18  -1    0.68    0.20
  -6  18  -1    0.99    0.20
  -6  18  -1    0.89    0.21
  -7 -18  -1    6.20    0.57
  -7 -18  -1    5.81    0.54
  -7 -18  -1    5.87    0.52
  -7 -18  -1    6.57    0.57
  -7  18  -1    5.81    0.53
  -7  18  -1    6.00    0.53
  -7  18  -1    5.64    0.50
  -7  18  -1    6.11    0.55
  -8 -18  -1    6.47    0.58
  -8 -18  -1    6.19    0.53
  -8 -18  -1    6.21    0.58
  -8 -18  -1    5.63    0.53
  -8  18  -1    6.53    0.55
  -8  18  -1    6.58    0.54
  -8  18  -1    6.87    0.53
   8  18   1    6.98    0.52
  -9 -18  -1    5.19    0.53
  -9  18  -1    6.87    0.50
  -9 -19   1    1.42    0.25
  -9 -19   1    1.01    0.16
   9  19  -1    0.94    0.14
  -9  19   1    1.29    0.21
  -9  19   1    0.87    0.15
  -8 -19   1    1.60    0.33
  -8 -19   1    1.55    0.30
  -8 -19   1    1.12    0.26
  -8  19   1    1.84    0.31
  -8  19   1    1.85    0.29
  -8  19   1    2.03    0.29
  -8  19   1    1.72    0.28
  -7 -19   1    3.86    0.42
  -7 -19   1    3.54    0.44
  -7 -19   1    3.31    0.39
   7 -19  -1    3.79    0.39
  -7  19   1    3.43    0.36
  -7  19   1    3.93    0.44
  -7  19   1    3.48    0.41
  -7  19   1    2.92    0.40
  -7  19   1    3.68    0.37
  -6 -19   1    3.33    0.40
   6 -19  -1    3.47    0.38
  -6 -19   1    2.89    0.38
  -6 -19   1    2.97    0.42
  -6 -19   1    3.23    0.45
  -6  19   1    2.86    0.38
  -6  19   1    3.47    0.42
  -6  19   1    3.22    0.40
  -6  19   1    2.95    0.39
  -6  19   1    3.08    0.35
   6  19  -1    2.92    0.38
  -5 -19   1    2.11    0.40
  -5  19   1    1.26    0.25
  -5  19   1    1.44    0.23
   5  19  -1    1.46    0.31
  -5  19   1    0.99    0.21
  -5  19   1    1.34    0.23
  -5  19   1    1.30    0.25
  -4 -19   1    1.18    0.23
  -4 -19   1    1.07    0.24
  -4 -19   1    1.05    0.25
  -4 -19   1    1.14    0.20
   4 -19  -1    0.86    0.20
  -4  19   1    0.62    0.21
  -4  19   1    0.82    0.22
  -4  19   1    0.74    0.19
   4  19  -1    0.85    0.18
  -4  19   1    1.09    0.22
   4  19  -1    0.85    0.20
  -4  19   1    1.09    0.24
   3 -19  -1   43.28    3.08
  -3 -19   1   43.86    3.09
  -3 -19   1   42.49    3.18
  -3 -19   1   43.16    3.08
  -3  19   1   46.25    3.10
   3  19  -1   44.61    2.86
  -3  19   1   46.78    3.06
  -3  19   1   47.60    2.87
   3  19  -1   44.48    3.05
  -2 -19   1    0.69    0.26
  -2 -19   1    0.36    0.19
  -2 -19   1    0.30    0.18
   2 -19  -1    0.61    0.17
   2  19  -1    0.84    0.17
  -2  19   1    0.92    0.22
  -2  19   1    0.66    0.20
   2  19  -1    0.62    0.14
  -2  19   1    0.45    0.15
  -2  19   1    0.89    0.24
  -1  19   1    0.98    0.16
  -1  19   1    1.06    0.23
  -1  19   1    1.13    0.21
   1  19  -1    0.90    0.21
   1  19  -1    0.77    0.17
   0 -19   1    8.69    0.76
   0 -19  -1    9.71    0.74
   0 -19   1    9.05    0.74
   0  19   1    9.66    0.73
   0  19   1   10.59    0.67
   0  19  -1   10.82    0.67
   0  19   1   10.02    0.73
   0  19  -1    9.80    0.73
   1 -19   1    5.52    1.05
   1 -19   1    6.01    0.56
  -1 -19  -1    5.81    0.58
  -1 -19  -1    7.03    0.53
   1 -19   1    6.41    0.51
   1  19   1    5.50    0.52
  -1  19  -1    6.38    0.52
  -1  19  -1    6.46    0.55
  -1  19  -1    6.89    0.47
   1  19   1    6.61    0.47
   1  19   1    6.72    0.52
   2 -19   1    1.59    0.26
  -2 -19  -1    1.84    0.37
  -2 -19  -1    1.97    0.30
   2 -19   1    1.42    0.28
  -2 -19  -1    1.51    0.32
  -2  19  -1    1.92    0.25
   2  19   1    2.01    0.28
  -2  19  -1    1.64    0.31
  -2  19  -1    1.47    0.31
   2  19   1    1.62    0.25
   2  19   1    1.47    0.32
  -3 -19  -1   15.49    1.22
  -3 -19  -1   16.37    1.20
  -3 -19  -1   15.43    1.20
   3 -19   1   16.57    1.19
   3  19   1   16.25    1.19
  -3  19  -1   17.31    1.18
  -3  19  -1   16.92    1.20
   3  19   1   17.01    1.17
  -3  19  -1   18.01    1.10
  -4 -19  -1    0.00    0.18
  -4 -19  -1   -0.09    0.22
  -4 -19  -1    0.04    0.17
  -4  19  -1   -0.12    0.18
  -4  19  -1    0.03    0.17
  -4  19  -1    0.13    0.22
   4  19   1   -0.12    0.22
  -4  19  -1    0.31    0.21
   4  19   1   -0.64    0.82
  -4  19  -1    0.10    0.16
  -5 -19  -1    5.87    0.55
  -5 -19  -1    5.83    0.51
  -5 -19  -1    6.16    0.50
  -5  19  -1    4.89    0.49
  -5  19  -1    4.75    0.49
  -5  19  -1    5.07    0.50
  -5  19  -1    5.17    0.45
  -5  19  -1    4.97    0.54
  -6 -19  -1    0.45    0.20
  -6 -19  -1    0.73    0.26
  -6 -19  -1    0.52    0.21
  -6 -19  -1    0.80    0.21
  -6  19  -1    0.69    0.20
  -6  19  -1    0.47    0.19
  -6  19  -1    0.55    0.19
  -6  19  -1    0.65    0.20
  -6  19  -1    0.67    0.25
  -7 -19  -1   27.95    1.98
  -7 -19  -1   27.35    1.93
  -7 -19  -1   26.96    2.09
  -7 -19  -1   26.90    1.93
   7  19   1   28.74    1.91
  -7  19  -1   27.91    1.99
  -7  19  -1   26.96    1.79
  -7  19  -1   28.17    1.93
  -7  19  -1   27.26    1.95
  -8 -19  -1    1.25    0.23
   8 -19   1    1.21    0.18
  -8 -19  -1    1.01    0.19
  -8 -19  -1    1.06    0.20
  -8 -19  -1    1.22    0.19
  -8  19  -1    0.69    0.18
  -8  19  -1    1.13    0.25
   8  19   1    0.97    0.18
  -8  19  -1    1.11    0.20
  -9 -19  -1    1.40    0.24
   9 -19   1    1.79    0.22
  -9 -19  -1    1.53    0.24
  -9  19  -1    1.82    0.26
   9  19   1    1.12    0.23
  -9  19  -1    1.70    0.22
  -9  19  -1    1.63    0.23
  -8 -20   1    0.44    0.16
  -8 -20   1    0.30    0.18
  -8 -20   1    0.27    0.16
  -7  20   1    3.60    0.37
  -7  20   1    3.61    0.35
  -7  20   1    3.31    0.39
  -7  20   1    3.93    0.40
  -7  20   1    3.65    0.41
  -6 -20   1    0.36    0.19
   6 -20  -1    0.53    0.19
  -6 -20   1    0.42    0.20
  -6 -20   1    0.16    0.24
  -6  20   1    0.06    0.19
   6  20  -1    0.05    0.18
  -6  20   1   -0.01    0.20
  -6  20   1    0.03    0.18
  -6  20   1   -0.01    0.19
  -6  20   1    0.23    0.22
  -5  20   1    2.74    0.37
  -5  20   1    1.79    0.37
   5  20  -1    2.27    0.34
  -5  20   1    2.40    0.39
  -5  20   1    1.67    0.32
  -5  20   1    2.47    0.35
  -4 -20   1    7.82    0.65
   4 -20  -1    8.24    0.62
  -4 -20   1    8.16    0.67
  -4 -20   1    8.26    0.64
   4  20  -1    7.53    0.57
  -4  20   1    7.43    0.64
  -4  20   1    7.65    0.66
  -4  20   1    7.89    0.59
  -4  20   1    8.00    0.67
   4  20  -1    7.26    0.61
  -4  20   1    7.36    0.64
  -3 -20   1    5.85    0.52
  -3 -20   1    5.28    0.52
  -3 -20   1    6.03    0.56
   3 -20  -1    5.91    0.50
   3  20  -1    6.41    0.51
   3  20  -1    5.79    0.45
  -3  20   1    5.80    0.52
  -3  20   1    5.82    0.47
  -3  20   1    6.24    0.54
   2 -20  -1    2.44    0.31
  -2 -20   1    2.34    0.34
  -2 -20   1    2.04    0.32
  -2 -20   1    2.40    0.43
  -2  20   1    1.37    0.26
   2  20  -1    1.66    0.30
  -2  20   1    1.77    0.36
  -2  20   1    1.88    0.28
   2  20  -1    1.83    0.26
   2  20  -1    1.70    0.30
  -1 -20   1    9.12    0.76
  -1 -20   1    8.87    0.80
  -1 -20   1    9.24    0.74
   1 -20  -1    9.40    0.74
  -1  20   1    9.92    0.74
  -1  20   1   10.20    0.67
   1  20  -1   10.04    0.73
   1  20  -1    9.84    0.75
  -1  20   1   10.16    0.74
   1  20  -1   10.38    0.67
   0 -20   1    2.38    0.33
   0  20   1    1.86    0.31
   0  20  -1    2.33    0.25
   0  20   1    1.48    0.32
   0  20   1    2.09    0.27
   0  20  -1    1.83    0.30
   1 -20   1    1.42    0.28
  -1 -20  -1    0.96    0.24
  -1 -20  -1    1.29    0.22
   1 -20   1    1.20    0.23
  -1  20  -1    1.38    0.28
  -1  20  -1    1.79    0.25
   1  20   1    1.55    0.24
  -1  20  -1    1.63    0.25
   1  20   1    1.49    0.28
   1  20   1    1.59    0.22
  -2 -20  -1    6.70    0.62
   2 -20   1    7.30    0.59
  -2 -20  -1    7.86    0.61
   2 -20   1    6.41    0.64
  -2 -20  -1    6.84    0.65
   2  20   1    7.48    0.56
   2  20   1    7.60    0.62
  -2  20  -1    7.65    0.61
   2  20   1    8.08    0.60
  -2  20  -1    8.43    0.55
  -2  20  -1    8.41    0.62
  -3 -20  -1   15.73    1.21
  -3 -20  -1   14.72    1.23
  -3 -20  -1   14.54    1.22
   3 -20   1   15.49    1.20
   3  20   1   18.13    1.20
   3  20   1   18.00    1.19
  -3  20  -1   18.20    1.22
  -3  20  -1   17.66    1.11
  -3  20  -1   18.32    1.20
  -4 -20  -1    0.97    0.21
  -4 -20  -1    0.71    0.26
  -4 -20  -1    0.80    0.19
   4  20   1    0.36    0.23
  -4  20  -1    0.44    0.18
  -4  20  -1    0.62    0.21
  -4  20  -1    0.40    0.19
  -4  20  -1    0.69    0.22
   4  20   1    0.71    0.18
  -5 -20  -1    0.52    0.22
  -5 -20  -1    0.55    0.20
  -5 -20  -1    0.41    0.26
  -5  20  -1    0.91    0.25
  -5  20  -1    0.96    0.22
   5  20   1    0.86    0.19
  -5  20  -1    0.82    0.20
  -5  20  -1    0.99    0.23
  -5  20  -1    0.88    0.20
  -6 -20  -1    0.42    0.21
  -6 -20  -1    0.28    0.24
  -6 -20  -1    0.24    0.19
  -6 -20  -1    0.38    0.20
  -6  20  -1    0.18    0.19
   6  20   1    0.43    0.18
  -6  20  -1    0.31    0.20
  -6  20  -1    0.39    0.19
  -6  20  -1    0.10    0.19
  -6  20  -1    0.41    0.23
  -7 -20  -1    0.99    0.21
  -7 -20  -1    1.05    0.24
  -7 -20  -1    1.37    0.30
  -7 -20  -1    0.98    0.19
   7 -20   1    0.87    0.18
  -7  20  -1    0.67    0.20
  -7  20  -1    0.63    0.19
  -7  20  -1    0.95    0.19
   7  20   1    0.75    0.18
  -7  20  -1    0.90    0.19
   8 -20   1    1.00    0.21
  -8 -20  -1    0.80    0.21
  -8 -20  -1    0.84    0.17
  -8 -20  -1    0.87    0.16
  -8  20  -1    0.84    0.18
  -8  20  -1    0.87    0.17
   8  20   1    0.76    0.16
  -8  20  -1    0.99    0.17
  -8 -21   1    0.26    0.17
  -8 -21   1    0.46    0.15
  -8  21   1    0.57    0.15
   8  21  -1    0.65    0.14
  -8  21   1    0.71    0.14
  -7 -21   1    1.67    0.33
  -7  21   1    2.79    0.33
  -7  21   1    2.59    0.31
  -7  21   1    2.14    0.28
  -7  21   1    2.36    0.32
  -6 -21   1    2.42    0.43
  -6 -21   1    2.93    0.42
   6 -21  -1    2.99    0.36
  -6 -21   1    2.64    0.36
  -6  21   1    3.65    0.38
  -6  21   1    3.42    0.35
   6  21  -1    3.54    0.37
  -6  21   1    3.68    0.41
  -6  21   1    3.84    0.39
  -6  21   1    3.67    0.40
   5  21  -1    5.76    0.50
  -5  21   1    5.53    0.53
  -5  21   1    5.95    0.53
  -5  21   1    5.72    0.48
  -5  21   1    5.84    0.54
  -5  21   1    5.68    0.53
  -4 -21   1    7.09    0.64
   4 -21  -1    7.42    0.62
  -4 -21   1    6.90    0.67
  -4 -21   1    7.21    0.65
  -4  21   1    8.30    0.59
  -4  21   1    8.23    0.65
  -4  21   1    8.14    0.68
  -4  21   1    8.32    0.67
   4  21  -1    8.67    0.63
  -3 -21   1   23.90    1.73
  -3 -21   1   24.61    1.76
   3 -21  -1   24.97    1.71
  -3 -21   1   23.72    1.71
   3  21  -1   23.21    1.69
   3  21  -1   23.90    1.58
  -3  21   1   24.30    1.70
  -3  21   1   25.88    1.59
   3  21  -1   24.13    1.69
   2 -21  -1    2.27    0.32
  -2 -21   1    2.28    0.33
  -2 -21   1    2.15    0.43
  -2 -21   1    2.23    0.34
   2  21  -1    1.79    0.27
   2  21  -1    1.97    0.31
  -2  21   1    2.01    0.30
   2  21  -1    1.93    0.32
  -2  21   1    1.97    0.42
  -2  21   1    1.68    0.34
  -1 -21   1   10.68    0.74
  -1 -21   1   10.02    0.83
   1 -21  -1   11.04    0.74
  -1 -21   1   10.87    0.76
   1  21  -1    8.68    0.67
  -1  21   1    8.71    0.74
  -1  21   1    9.13    0.67
   1  21  -1    9.45    0.73
   1  21  -1    9.13    0.74
  -1  21   1    9.09    0.75
   0 -21  -1    3.50    0.39
   0 -21   1    3.65    0.39
   0 -21   1    3.27    0.41
   0  21   1    4.11    0.41
   0  21   1    4.18    0.40
   0  21  -1    3.65    0.40
   0  21   1    3.91    0.35
   0  21  -1    4.23    0.35
  -1 -21  -1    5.58    0.56
  -1 -21  -1    6.31    0.53
   1 -21   1    5.73    0.54
   1 -21   1    6.06    0.53
   1  21   1    6.15    0.53
   1  21   1    5.93    0.48
  -1  21  -1    6.50    0.52
  -1  21  -1    6.81    0.48
   1  21   1    6.53    0.52
   2 -21   1    2.28    0.30
  -2 -21  -1    1.60    0.29
  -2 -21  -1    2.21    0.33
   2 -21   1    1.77    0.37
  -2 -21  -1    1.76    0.34
  -2  21  -1    1.92    0.26
   2  21   1    2.28    0.32
   2  21   1    1.62    0.34
  -2  21  -1    1.71    0.35
  -2  21  -1    1.64    0.34
  -3 -21  -1    1.00    0.21
   3 -21   1    0.87    0.20
  -3 -21  -1    1.06    0.27
  -3 -21  -1    0.95    0.21
   3  21   1    0.99    0.19
  -3  21  -1    0.56    0.21
   3  21   1    0.50    0.21
  -3  21  -1    0.68    0.18
  -3  21  -1    0.98    0.23
  -4 -21  -1    1.28    0.29
  -4 -21  -1    1.43    0.23
   4 -21   1    1.27    0.22
  -4 -21  -1    1.32    0.23
  -4  21  -1    1.79    0.28
  -4  21  -1    1.85    0.34
   4  21   1    1.71    0.36
  -4  21  -1    1.78    0.35
  -4  21  -1    1.99    0.34
   5 -21   1    4.39    0.42
  -5 -21  -1    4.46    0.44
  -5 -21  -1    3.54    0.50
  -5 -21  -1    4.21    0.42
  -5  21  -1    3.95    0.40
  -5  21  -1    3.94    0.46
   5  21   1    4.39    0.42
  -5  21  -1    4.06    0.43
  -5  21  -1    4.13    0.47
  -5  21  -1    3.86    0.44
  -6 -21  -1    5.30    0.52
  -6 -21  -1    5.64    0.48
   6 -21   1    6.05    0.46
  -6 -21  -1    5.51    0.51
  -6 -21  -1    5.99    0.48
  -6  21  -1    4.73    0.47
  -6  21  -1    4.77    0.48
  -6  21  -1    4.36    0.48
  -6  21  -1    4.42    0.44
  -6  21  -1    4.61    0.51
   6  21   1    4.85    0.45
  -7 -21  -1   17.81    1.22
  -7 -21  -1   17.77    1.25
  -7 -21  -1   17.07    1.31
   7 -21   1   18.59    1.21
  -7 -21  -1   17.62    1.21
  -7  21  -1   15.96    1.22
   7  21   1   16.82    1.19
  -7  21  -1   15.90    1.23
  -7  21  -1   16.00    1.25
  -8 -21  -1    3.64    0.36
  -8 -21  -1    4.07    0.36
  -8 -21  -1    3.49    0.33
   8 -21   1    3.31    0.31
  -8  21  -1    3.23    0.33
  -8  21  -1    3.14    0.33
   8  21   1    3.16    0.30
  -8  21  -1    3.61    0.34
  -8 -22   1    2.11    0.25
  -8 -22   1    2.12    0.26
  -8 -22   1    2.20    0.25
  -8  22   1    1.74    0.24
   8  22  -1    1.73    0.22
  -8  22   1    1.94    0.23
   7 -22  -1    0.77    0.17
  -7 -22   1    0.79    0.19
  -7 -22   1    0.60    0.16
  -7  22   1    0.89    0.17
   7  22  -1    0.70    0.15
  -7  22   1    1.01    0.18
  -7  22   1    1.16    0.24
  -6 -22   1    0.72    0.23
   6 -22  -1    1.16    0.19
  -6 -22   1    0.87    0.19
   6  22  -1    1.03    0.19
  -6  22   1    1.21    0.20
   6  22  -1    1.35    0.26
  -6  22   1    1.12    0.20
  -6  22   1    1.20    0.21
  -5 -22   1    1.99    0.32
  -5 -22   1    1.31    0.28
  -5 -22   1    2.07    0.37
   5 -22  -1    1.89    0.31
  -5  22   1    2.63    0.36
   5  22  -1    2.09    0.32
  -5  22   1    1.73    0.30
  -5  22   1    1.57    0.35
   5  22  -1    2.47    0.32
  -5  22   1    1.98    0.36
  -4 -22   1   18.19    1.34
  -4 -22   1   18.90    1.37
  -4 -22   1   18.69    1.36
   4 -22  -1   19.72    1.33
  -4  22   1   18.38    1.33
   4  22  -1   18.87    1.32
  -4  22   1   18.24    1.24
   4  22  -1   18.73    1.32
   3 -22  -1    2.78    0.36
  -3 -22   1    2.78    0.35
  -3 -22   1    2.51    0.38
  -3 -22   1    2.20    0.47
   3  22  -1    3.16    0.34
   3  22  -1    2.47    0.30
  -3  22   1    2.46    0.37
   3  22  -1    2.86    0.36
  -3  22   1    2.54    0.33
   2 -22  -1    1.10    0.21
  -2 -22   1    1.06    0.29
  -2 -22   1    1.15    0.21
  -2 -22   1    1.36    0.21
   2  22  -1    1.03    0.20
  -2  22   1    1.20    0.24
   2  22  -1    0.99    0.18
  -2  22   1    0.70    0.20
   2  22  -1    0.85    0.21
  -1 -22   1   17.76    1.32
   1 -22  -1   17.80    1.29
  -1 -22   1   17.52    1.28
   1  22  -1   17.83    1.28
   1  22  -1   18.96    1.19
  -1  22   1   17.62    1.28
  -1  22   1   18.94    1.19
   1  22  -1   17.59    1.28
  -1  22   1   18.18    1.29
   0 -22   1    3.40    0.43
   0 -22  -1    4.08    0.43
   0 -22   1    4.09    0.41
   0  22   1    4.01    0.42
   0  22   1    3.91    0.42
   0  22  -1    4.32    0.37
   0  22   1    4.22    0.37
   0  22  -1    4.37    0.42
  -1 -22  -1    6.01    0.52
   1 -22   1    5.97    0.54
   1 -22   1    6.35    0.52
  -1 -22  -1    5.67    0.54
  -1  22  -1    6.44    0.46
   1  22   1    5.58    0.47
   1  22   1    5.80    0.51
   1  22   1    5.41    0.50
  -1  22  -1    6.48    0.53
  -2 -22  -1    2.27    0.36
   2 -22   1    2.17    0.32
   2 -22   1    1.75    0.36
  -2 -22  -1    1.94    0.34
   2  22   1    2.43    0.32
  -2  22  -1    2.11    0.36
  -2  22  -1    2.36    0.30
   2  22   1    1.86    0.32
  -3 -22  -1    2.01    0.30
  -3 -22  -1    2.10    0.32
  -3  22  -1    1.45    0.25
  -3  22  -1    1.51    0.24
   3  22   1    1.48    0.30
   3  22   1    1.28    0.23
  -3  22  -1    1.20    0.21
  -4 -22  -1    9.03    0.71
  -4 -22  -1    8.89    0.74
   4 -22   1    9.56    0.69
  -4 -22  -1    9.29    0.70
   4  22   1    8.98    0.68
   4  22   1    8.20    0.69
  -4  22  -1    8.54    0.72
  -4  22  -1    8.25    0.64
  -4  22  -1    8.65    0.70
  -5 -22  -1    0.36    0.25
  -5 -22  -1    0.67    0.20
  -5 -22  -1    0.69    0.21
   5 -22   1    0.87    0.19
  -5  22  -1    1.00    0.24
  -5  22  -1    0.55    0.22
  -5  22  -1    0.57    0.20
  -5  22  -1    0.62    0.21
  -5  22  -1    0.94    0.20
   5  22   1    0.68    0.18
   6 -22   1    1.19    0.25
  -6 -22  -1    1.13    0.24
  -6 -22  -1    1.11    0.21
  -6 -22  -1    0.74    0.18
  -6  22  -1    1.02    0.20
  -6  22  -1    0.92    0.22
  -6  22  -1    0.59    0.20
  -6  22  -1    0.75    0.19
  -6  22  -1    0.66    0.18
   6  22   1    0.99    0.18
  -7 -22  -1    1.63    0.31
  -7 -22  -1    1.27    0.26
  -7 -22  -1    1.60    0.28
   7 -22   1    1.63    0.24
  -7 -22  -1    2.01    0.30
  -7  22  -1    1.67    0.28
  -7  22  -1    1.86    0.27
   7  22   1    1.47    0.24
  -7  22  -1    1.70    0.28
  -8 -22  -1    0.01    0.12
   8 -22   1    0.17    0.12
   8  22   1    0.22    0.11
  -8  22  -1    0.38    0.13
  -8  22  -1    0.26    0.12
  -7 -23   1    0.92    0.21
  -7 -23   1    0.92    0.19
   7  23  -1    0.71    0.14
  -7  23   1    1.34    0.24
  -7  23   1    1.02    0.17
  -7  23   1    1.13    0.23
  -6  23   1    2.27    0.30
  -6  23   1    1.42    0.30
   6  23  -1    1.67    0.27
   6  23  -1    1.71    0.28
  -6  23   1    1.88    0.30
  -6  23   1    1.48    0.25
  -5 -23   1    2.54    0.37
   5 -23  -1    2.16    0.31
  -5 -23   1    1.78    0.38
  -5 -23   1    1.83    0.31
   5  23  -1    2.68    0.30
   5  23  -1    2.57    0.32
  -5  23   1    1.98    0.31
  -5  23   1    2.32    0.34
  -5  23   1    2.77    0.37
  -4 -23   1   20.08    1.38
  -4 -23   1   19.97    1.36
   4 -23  -1   19.96    1.33
  -4 -23   1   19.10    1.34
   4  23  -1   17.53    1.32
  -4  23   1   17.67    1.33
  -4  23   1   17.54    1.25
   4  23  -1   18.57    1.32
  -3 -23   1   25.19    1.83
   3 -23  -1   26.06    1.81
  -3 -23   1   25.08    1.82
  -3 -23   1   25.29    1.87
   3  23  -1   26.67    1.80
   3  23  -1   27.01    1.80
  -3  23   1   27.44    1.69
  -3  23   1   25.85    1.80
   3  23  -1   24.41    1.68
   2 -23  -1   21.50    1.40
  -2 -23   1   19.76    1.43
  -2 -23   1   20.51    1.43
  -2 -23   1   20.96    1.40
   2  23  -1   18.78    1.38
  -2  23   1   19.25    1.39
   2  23  -1   19.09    1.38
   2  23  -1   17.55    1.28
  -2  23   1   19.15    1.29
  -1  23   1    1.70    0.32
   1  23  -1    1.50    0.27
  -1  23   1    1.48    0.24
  -1  23   1    1.63    0.29
   1  23  -1    1.42    0.23
   1  23  -1    1.29    0.22
   0 -23  -1    5.41    0.49
   0 -23   1    4.97    0.49
   0 -23   1    5.00    0.48
   0  23  -1    4.96    0.48
   0  23   1    5.08    0.43
   0  23   1    5.30    0.48
   0  23   1    5.02    0.47
   0  23  -1    5.46    0.43
   1 -23   1    2.29    0.34
   1 -23   1    1.58    0.37
  -1 -23  -1    2.04    0.36
  -1 -23  -1    2.34    0.36
   1  23   1    2.37    0.35
  -1  23  -1    2.07    0.35
   1  23   1    2.16    0.31
  -1  23  -1    2.22    0.30
   1  23   1    2.18    0.34
   2 -23   1    1.65    0.37
  -2 -23  -1    1.68    0.35
  -2 -23  -1    1.63    0.35
   2 -23   1    1.92    0.32
  -2  23  -1    1.89    0.29
   2  23   1    1.98    0.31
   2  23   1    1.75    0.33
  -2  23  -1    2.06    0.35
  -3 -23  -1    5.51    0.50
  -3 -23  -1    5.58    0.51
   3 -23   1    5.91    0.49
   3  23   1    5.46    0.48
  -3  23  -1    5.42    0.46
  -3  23  -1    5.54    0.51
   3  23   1    5.21    0.50
  -4 -23  -1    2.58    0.36
  -4 -23  -1    3.05    0.35
  -4 -23  -1    2.51    0.42
   4 -23   1    3.01    0.33
   4  23   1    2.92    0.35
   4  23   1    2.32    0.38
  -4  23  -1    2.64    0.38
  -4  23  -1    2.42    0.37
  -4  23  -1    2.46    0.33
  -5 -23  -1    4.39    0.41
   5 -23   1    4.39    0.39
  -5 -23  -1    4.06    0.41
  -5 -23  -1    3.94    0.47
  -5  23  -1    3.51    0.42
   5  23   1    4.37    0.40
  -5  23  -1    3.53    0.37
  -5  23  -1    3.98    0.43
  -5  23  -1    3.81    0.42
   6 -23   1   10.18    0.69
  -6 -23  -1   10.21    0.72
  -6 -23  -1    9.97    0.71
  -6 -23  -1   10.10    0.73
  -6  23  -1    9.13    0.72
  -6  23  -1    8.61    0.71
  -6  23  -1    9.28    0.67
  -6  23  -1    8.68    0.71
   6  23   1    9.01    0.69
  -6  23  -1    8.52    0.72
   7 -23   1    9.77    0.69
  -7 -23  -1    8.73    0.70
  -7 -23  -1   10.04    0.72
  -7  23  -1    9.22    0.71
   7  23   1    9.81    0.68
  -7  23  -1    9.55    0.72
  -7 -24   1    0.30    0.14
  -7 -24   1    0.02    0.12
  -7  24   1    0.26    0.13
  -7  24   1    0.31    0.13
  -7  24   1    0.00    0.13
   7  24  -1   -0.01    0.11
  -6 -24   1    2.15    0.29
   6 -24  -1    2.24    0.28
  -6 -24   1    2.23    0.34
  -6  24   1    2.64    0.31
   6  24  -1    2.39    0.28
  -6  24   1    3.06    0.32
   6  24  -1    2.39    0.30
  -6  24   1    2.87    0.32
  -5 -24   1    1.18    0.24
  -5 -24   1    1.68    0.31
   5 -24  -1    1.33    0.25
  -5 -24   1    1.36    0.26
  -5  24   1    0.81    0.19
   5  24  -1    1.19    0.26
  -5  24   1    1.00    0.20
   5  24  -1    0.98    0.17
  -4 -24   1    1.09    0.22
   4 -24  -1    1.39    0.28
  -4 -24   1    1.07    0.20
  -4 -24   1    0.78    0.26
  -4  24   1    0.83    0.21
  -4  24   1    1.19    0.21
   4  24  -1    1.35    0.29
   4  24  -1    1.28    0.28
  -3 -24   1    0.32    0.20
  -3 -24   1    0.37    0.18
  -3 -24   1    0.33    0.26
   3 -24  -1    0.51    0.19
   3  24  -1    0.29    0.18
  -3  24   1    0.28    0.20
   3  24  -1    0.43    0.17
  -3  24   1    0.37    0.20
  -2 -24   1    3.08    0.35
   2  24  -1    2.53    0.36
   2  24  -1    2.22    0.30
   2  24  -1    2.26    0.33
  -2  24   1    1.93    0.32
  -2  24   1    2.02    0.35
  -1 -24   1   14.53    1.04
   1 -24  -1   14.84    1.04
  -1 -24   1   14.84    1.07
  -1  24   1   14.17    1.04
   1  24  -1   14.13    1.03
  -1  24   1   14.24    0.96
  -1  24   1   14.02    1.04
   1  24  -1   13.59    1.03
   1  24  -1   13.98    0.96
   0 -24   1   17.84    1.33
   0 -24   1   17.76    1.37
   0 -24  -1   18.74    1.34
   0  24  -1   19.46    1.32
   0  24   1   18.48    1.23
   0  24   1   18.60    1.32
   0  24   1   19.39    1.33
   0  24  -1   19.26    1.23
  -1 -24  -1    1.51    0.24
  -1 -24  -1    1.71    0.34
   1 -24   1    1.60    0.32
   1 -24   1    1.55    0.33
  -1  24  -1    1.04    0.23
   1  24   1    0.95    0.21
   1  24   1    1.16    0.22
   1  24   1    1.26    0.22
  -1  24  -1    1.33    0.20
  -2 -24  -1    4.29    0.49
   2 -24   1    4.53    0.48
  -2 -24  -1    4.71    0.50
  -2  24  -1    6.24    0.45
   2  24   1    5.55    0.48
  -2  24  -1    6.00    0.50
   2  24   1    6.08    0.48
   3 -24   1    2.60    0.33
  -3 -24  -1    2.36    0.35
  -3 -24  -1    2.55    0.33
   3  24   1    1.97    0.33
  -3  24  -1    1.49    0.30
   3  24   1    1.80    0.31
  -3  24  -1    2.15    0.34
   4 -24   1    4.37    0.45
  -4  24  -1    4.98    0.43
   4  24   1    5.66    0.46
   4  24   1    4.94    0.46
  -4  24  -1    5.55    0.47
   5 -24   1    2.89    0.32
  -5 -24  -1    3.19    0.34
  -5 -24  -1    3.12    0.35
  -5  24  -1    3.00    0.37
  -5  24  -1    2.96    0.36
   5  24   1    2.67    0.32
  -5  24  -1    2.98    0.31
  -6 -24  -1    1.28    0.25
   6 -24   1    1.53    0.23
  -6 -24  -1    1.29    0.26
  -6  24  -1    2.15    0.30
  -6  24  -1    1.68    0.26
   6  24   1    1.46    0.23
  -7 -24  -1    0.08    0.14
  -7 -24  -1    0.12    0.13
   7 -24   1    0.15    0.11
  -7  24  -1    0.28    0.14
   7  24   1    0.22    0.11
  -6  25   1    1.02    0.22
   6  25  -1    0.84    0.14
   5 -25  -1    0.05    0.14
  -5 -25   1    0.22    0.20
  -5 -25   1    0.04    0.15
   5  25  -1    0.23    0.15
   5  25  -1   -0.06    0.13
  -5  25   1   -0.01    0.15
  -4 -25   1   11.11    0.83
   4 -25  -1   12.06    0.81
  -4 -25   1   11.05    0.81
  -4  25   1   10.61    0.81
   4  25  -1   10.45    0.79
   4  25  -1   11.09    0.80
  -4  25   1   10.15    0.75
   3 -25  -1    2.85    0.34
  -3 -25   1    2.96    0.34
  -3 -25   1    2.63    0.36
   3  25  -1    2.69    0.34
  -3  25   1    2.42    0.34
   3  25  -1    2.73    0.32
  -3  25   1    2.53    0.32
  -2 -25   1   29.57    2.04
   2 -25  -1   31.10    1.98
  -2 -25   1   29.93    1.98
   2  25  -1   25.78    1.83
   2  25  -1   28.47    1.96
   2  25  -1   26.95    1.96
  -2  25   1   27.71    1.96
  -2  25   1   27.81    1.84
  -1 -25   1    4.31    0.43
  -1 -25   1    3.82    0.42
   1 -25  -1    4.18    0.44
  -1  25   1    4.42    0.43
   1  25  -1    4.05    0.43
  -1  25   1    4.23    0.40
   1  25  -1    4.89    0.43
   1  25  -1    4.53    0.38
  -1  25   1    4.01    0.45
   0 -25   1    4.30    0.39
   0  25   1    3.38    0.37
   0  25   1    3.40    0.38
   0  25  -1    3.10    0.34
   0  25  -1    3.47    0.41
   0  25   1    3.37    0.40
   1 -25   1    0.41    0.19
  -1 -25  -1    0.50    0.22
   1 -25   1    0.35    0.20
  -1 -25  -1    0.47    0.20
   1  25   1    0.39    0.20
  -1  25  -1    0.43    0.20
  -1  25  -1    0.40    0.18
   1  25   1    0.34    0.18
  -2 -25  -1    5.54    0.51
   2 -25   1    5.58    0.49
  -2 -25  -1    5.37    0.50
  -2  25  -1    5.90    0.51
  -2  25  -1    5.68    0.46
   2  25   1    5.97    0.49
   2  25   1    5.47    0.50
  -3 -25  -1    1.12    0.20
  -3 -25  -1    1.05    0.20
   3 -25   1    1.13    0.20
  -3  25  -1    0.66    0.20
   3  25   1    0.83    0.20
  -3  25  -1    0.82    0.19
   3  25   1    0.88    0.19
  -4 -25  -1    3.31    0.36
  -4 -25  -1    3.23    0.36
   4 -25   1    3.58    0.34
  -4  25  -1    3.46    0.37
   4  25   1    3.15    0.37
   4  25   1    3.27    0.35
  -4  25  -1    3.12    0.33
  -5 -25  -1   -0.11    0.15
   5 -25   1    0.14    0.14
  -5 -25  -1    0.11    0.16
  -5  25  -1    0.18    0.18
   5  25   1    0.30    0.14
  -6 -25  -1   12.61    0.93
  -6 -25  -1   12.15    0.90
   6 -25   1   12.84    0.90
  -6  25  -1   12.76    0.95
   6  25   1   13.22    0.89
  -5 -26   1    1.06    0.22
   5 -26  -1    1.15    0.21
  -5  26   1    0.90    0.17
   5  26  -1    0.88    0.16
   5  26  -1    1.05    0.19
  -4 -26   1    0.40    0.15
   4 -26  -1    0.30    0.15
  -4 -26   1    0.62    0.18
   4  26  -1    0.51    0.14
  -4  26   1    0.23    0.16
   4  26  -1    0.40    0.15
   3 -26  -1    0.04    0.16
  -3 -26   1    0.15    0.17
  -3 -26   1    0.28    0.16
  -3  26   1    0.16    0.18
  -3  26   1    0.04    0.17
   3  26  -1    0.26    0.15
   3  26  -1    0.17    0.16
  -2 -26   1    2.81    0.37
  -2 -26   1    2.86    0.36
   2 -26  -1    2.77    0.37
  -2  26   1    3.55    0.37
   2  26  -1    3.69    0.35
   2  26  -1    3.57    0.35
  -2  26   1    4.03    0.34
  -1 -26   1    2.03    0.30
  -1 -26   1    1.96    0.32
   1 -26  -1    2.26    0.32
  -1  26   1    1.61    0.32
  -1  26   1    2.11    0.31
   1  26  -1    2.08    0.28
  -1  26   1    2.14    0.33
   1  26  -1    2.10    0.33
   1  26  -1    2.02    0.33
   0 -26   1   15.83    1.19
   0 -26   1   16.02    1.16
   0 -26  -1   16.93    1.17
   0  26  -1   16.15    1.08
   0  26   1   15.67    1.15
   0  26   1   15.08    1.09
   0  26   1   17.07    1.15
   0  26  -1   16.95    1.16
  -1  26  -1    1.41    0.27
   1  26   1    1.42    0.29
  -1  26  -1    1.37    0.22
   1  26   1    1.28    0.22
   2  26   1    8.31    0.63
  -2  26  -1    8.23    0.59
  -2  26  -1    7.91    0.63
   2  26   1    8.00    0.63
  -3 -26  -1    0.16    0.17
  -3 -26  -1    0.05    0.17
   3 -26   1   -0.04    0.15
  -3  26  -1   -0.02    0.16
   3  26   1    0.26    0.17
   3  26   1    0.02    0.15
  -3  26  -1    0.14    0.17
  -4 -26  -1    3.63    0.38
   4 -26   1    3.62    0.36
  -4 -26  -1    3.59    0.37
   4  26   1    4.80    0.37
  -4  26  -1    4.64    0.38
  -5 -26  -1    0.91    0.16
   5 -26   1    0.68    0.14
  -5 -26  -1    0.81    0.16
   5  26   1    0.58    0.14
  -5  26  -1    0.63    0.17
  -5  27   1    1.73    0.22
   5  27  -1    1.73    0.23
   5  27  -1    1.56    0.19
  -4 -27   1    2.82    0.33
   4 -27  -1    2.82    0.31
  -4 -27   1    2.85    0.31
  -4  27   1    3.78    0.32
   4  27  -1    3.53    0.29
   4  27  -1    3.95    0.31
  -3 -27   1    2.75    0.30
  -3 -27   1    2.71    0.30
   3 -27  -1    2.73    0.30
  -2 -27   1    9.00    0.61
  -2 -27   1    8.52    0.60
   2 -27  -1    8.94    0.60
   2  27  -1    6.75    0.59
  -2  27   1    6.39    0.60
   2  27  -1    6.90    0.59
  -1 -27   1    3.81    0.35
   1 -27  -1    3.59    0.36
  -1 -27   1    3.61    0.36
  -1  27   1    2.97    0.36
   1  27  -1    3.41    0.36
   0  27  -1    0.09    0.18
   0  27  -1    0.45    0.17
   0  27   1    0.26    0.18
   0  27   1    0.29    0.17
   1 -27   1    0.01    0.16
  -1 -27  -1    0.25    0.17
   1  27   1    0.15    0.16
  -1  27  -1    0.27    0.17
  -1  27  -1    0.04    0.17
   1  27   1   -0.08    0.17
   2 -27   1    1.62    0.29
  -2 -27  -1    1.70    0.28
  -2 -27  -1    2.21    0.30
   2  27   1    2.58    0.28
   2  27   1    2.03    0.30
  -2  27  -1    1.94    0.29
  -2  27  -1    1.97    0.28
   3 -27   1    1.10    0.23
  -3 -27  -1    0.83    0.17
  -3 -27  -1    0.78    0.17
   3  27   1    1.03    0.18
   3  27   1    1.25    0.24
  -3  27  -1    0.88    0.17
   4 -27   1    3.43    0.32
  -4 -27  -1    3.37    0.33
  -4 -27  -1    3.29    0.33
   4  27   1    3.40    0.31
  -4  27  -1    3.57    0.33
  -4  28   1    1.96    0.23
   4  28  -1    1.92    0.22
   3 -28  -1    0.64    0.15
  -3 -28   1    0.74    0.16
  -3 -28   1    0.74    0.15
   3  28  -1    0.44    0.14
   3  28  -1    0.91    0.18
  -2 -28   1    1.57    0.24
   2 -28  -1    1.60    0.24
  -2 -28   1    1.63    0.23
  -2  28   1    1.12    0.25
   2  28  -1    1.17    0.23
   2  28  -1    1.10    0.24
  -1 -28   1    1.30    0.23
  -1 -28   1    1.03    0.23
   1 -28  -1    1.39    0.24
  -1  28   1    0.86    0.17
   1  28  -1    0.76    0.17
   0 -28  -1    7.30    0.56
   0 -28   1    6.96    0.56
   0 -28   1    7.10    0.58
   0  28   1    7.78    0.56
   0  28  -1    7.22    0.56
   0  28   1    7.55    0.56
   1  28   1    1.10    0.18
  -1  28  -1    0.94    0.18
   1  28   1    1.53    0.24
   2  28   1    1.95    0.25
  -2  28  -1    1.93    0.25
   2  28   1    2.02    0.27
   3  28   1    1.08    0.22
   3  28   1    0.66    0.14
  -3  28  -1    0.66    0.15
   2 -29  -1    0.27    0.12
  -2 -29   1    0.41    0.13
  -2 -29   1    0.34    0.13
  -2  29   1    0.12    0.13
   1 -29  -1    3.11    0.29
  -1 -29   1    2.92    0.28
  -1 -29   1    2.84    0.30
  -1  29   1    3.00    0.28
   1  29  -1    2.65    0.28
   0 -29   1    0.32    0.13
   0 -29  -1    0.13    0.13
   0  29   1    0.18    0.13
   0  29  -1    0.03    0.13
  -1 -29  -1    1.24    0.21
   1 -29   1    1.27    0.21
   1  29   1    1.39    0.21
   1  29   1    1.34    0.21
  -1  29  -1    0.95    0.21
  -2 -29  -1    0.10    0.12
   2 -29   1    0.03    0.12
   2  29   1    0.09    0.12
   2  29   1    0.03    0.12
  -2  29  -1   -0.02    0.13
  -8   0   2    4.09    0.35
   7   0  -2    0.21    0.59
  -7   0   2    0.10    0.47
  -7   0   2    0.21    0.10
  -7   0   2    0.78    0.54
  -6   0   2   48.19    3.35
  -6   0   2   50.18    3.07
  -6   0   2   46.34    3.51
  -5   0   2    2.81    0.45
  -5   0   2    3.10    0.39
  -5   0   2    3.26    0.39
  -5   0   2    2.78    0.21
  -4   0   2   25.78    1.89
  -4   0   2   27.45    1.77
  -4   0   2   24.59    1.80
  -3   0   2    2.96    0.29
  -3   0   2    2.90    0.27
  -3   0   2    2.74    0.25
  -2   0   2    9.37    0.65
  -2   0   2    8.46    0.67
  -2   0   2    9.19    0.62
  -1   0   2   18.62    1.28
  -1   0   2   19.86    1.30
  -1   0   2   18.47    1.36
   0   0   2   50.65    3.83
   0   0   2   60.75    3.67
   0   0   2   51.72    3.63
   1   0   2    4.69    0.35
   1   0   2    4.38    0.36
   1   0   2    4.35    0.33
  -2   0  -2    2.09    0.21
   2   0   2    1.99    0.22
   2   0   2    2.02    0.25
   2   0   2    2.08    0.20
  -3   0  -2    0.45    0.14
   3   0   2    0.45    0.15
   3   0   2    0.53    0.18
   3   0   2    0.47    0.16
   4   0   2  209.69   14.69
   4   0   2  216.76   15.35
   4   0   2  221.18   14.58
  -4   0  -2  227.03   14.56
   5   0   2   13.91    1.11
  -5   0  -2   13.31    1.01
   5   0   2   13.40    1.10
   5   0   2   13.11    1.08
   6   0   2    5.22    0.75
   6   0   2    6.32    0.80
   7   0   2    0.93    0.67
  -8   0  -2    1.52    0.30
  -8   0  -2    1.52    0.26
  -9   0  -2    1.91    0.29
  -9   0  -2    2.13    0.33
 -10   0  -2    2.60    0.33
 -10   0  -2    2.50    0.32
  -8  -1   2    4.37    0.37
  -8  -1   2    5.33    0.95
  -8  -1   2    4.26    0.45
  -8   1   2    4.53    0.36
  -7  -1   2    1.98    0.23
   7  -1  -2    1.34    0.66
  -7  -1   2    1.55    0.55
  -7  -1   2    2.65    0.61
  -7   1   2    2.96    0.23
  -7   1   2    3.46    0.73
   7   1  -2    2.73    0.64
  -7   1   2    3.88    0.84
  -6  -1   2   20.56    1.57
  -6  -1   2   18.32    1.27
  -6  -1   2   20.82    1.48
  -6   1   2   20.31    1.56
  -6   1   2   19.15    1.27
  -6   1   2   20.06    1.49
  -5  -1   2   13.16    0.90
   5  -1  -2   13.82    1.07
  -5  -1   2   13.32    1.04
  -5  -1   2   14.25    1.11
  -5  -1   2   13.72    1.02
  -5   1   2   14.93    1.11
  -5   1   2   13.84    0.90
  -5   1   2   14.15    1.01
  -5   1   2   14.37    1.04
  -4  -1   2  149.51   11.25
  -4  -1   2  150.55   10.77
  -4  -1   2  149.65   10.66
  -4   1   2  174.93   11.26
  -4   1   2  167.08   10.78
  -4   1   2  169.54   10.66
  -3  -1   2    1.60    0.20
  -3  -1   2    1.69    0.19
  -3  -1   2    1.74    0.23
  -3   1   2    1.64    0.22
  -3   1   2    1.50    0.22
  -3   1   2    1.74    0.18
   1  -1  -2   49.91    3.31
  -1  -1   2   45.76    3.50
  -1  -1   2   51.23    3.35
  -1  -1   2   48.53    3.32
  -1   1   2   51.48    3.30
  -1   1   2   50.93    3.36
   0  -1   2    7.59    0.57
   0  -1   2    8.54    0.54
   0  -1   2    7.88    0.54
   0   1   2    7.73    0.54
   0   1   2    6.48    0.53
   1  -1   2   17.82    1.18
  -1  -1  -2   16.77    1.18
   1  -1   2   18.26    1.20
   1  -1   2   16.92    1.24
   1   1   2   17.52    1.19
   1   1   2   16.72    1.25
   1   1   2   17.75    1.19
   2  -1   2    4.28    0.30
   2  -1   2    4.73    0.36
   2  -1   2    3.68    0.34
  -2  -1  -2    4.01    0.32
   2   1   2    4.16    0.33
   2   1   2    3.74    0.35
   2   1   2    3.54    0.35
   3  -1   2    4.84    0.37
  -3  -1  -2    5.04    0.38
   3  -1   2    4.64    0.40
   3  -1   2    4.47    0.41
   3   1   2    3.91    0.40
  -3   1  -2    3.80    0.37
   3   1   2    4.09    0.42
   4  -1   2   26.13    1.84
   4  -1   2   25.37    1.82
   4  -1   2   25.60    1.90
  -4  -1  -2   23.80    1.80
   4   1   2   27.90    1.93
  -4   1  -2   25.72    1.80
   4   1   2   25.93    1.84
   4   1   2   28.10    1.84
   5  -1   2   30.66    2.04
   5  -1   2   29.28    2.09
  -5  -1  -2   29.43    1.97
   5   1   2   26.13    2.03
   5   1   2   26.72    2.02
   5   1   2   27.40    2.11
  -6  -1  -2   38.62    2.73
   6  -1   2   40.02    2.82
   6   1   2   40.29    2.92
   6   1   2   38.22    2.81
   7  -1   2    3.67    0.81
   7   1   2    3.26    0.78
  -8  -1  -2    4.83    0.44
  -8  -1  -2    4.38    0.41
  -9  -1  -2    0.74    0.19
  -9  -1  -2    0.49    0.16
  -9   1  -2    0.19    0.16
  -9   1  -2    0.25    0.18
 -10  -1  -2    4.53    0.40
 -10  -1  -2    4.68    0.40
 -10   1  -2    3.07    0.40
  -8  -2   2    1.25    0.82
  -8  -2   2    0.81    0.19
  -8  -2   2    0.72    0.15
  -7  -2   2    3.89    0.31
  -7  -2   2    3.94    0.78
   7  -2  -2    3.44    0.75
  -7  -2   2    4.02    0.90
  -7   2   2    4.27    0.84
   7   2  -2    4.78    0.90
  -6  -2   2   47.76    3.09
  -6  -2   2   43.52    3.12
  -6  -2   2   44.10    3.28
  -6  -2   2   46.57    2.85
  -6   2   2   44.02    3.11
   6   2  -2   40.64    3.15
  -6   2   2   47.24    2.85
  -6   2   2   43.75    3.27
  -5  -2   2   36.03    2.43
  -5  -2   2   35.26    2.39
  -5  -2   2   35.37    2.22
  -5  -2   2   35.46    2.55
  -5   2   2   34.08    2.22
  -5   2   2   32.81    2.54
  -5   2   2   35.19    2.42
  -4  -2   2    3.99    0.45
  -4  -2   2    4.10    0.40
  -4  -2   2    4.56    0.40
   4  -2  -2    4.85    0.43
  -4   2   2    5.55    0.45
   3  -2  -2    6.02    0.45
  -3  -2   2    5.28    0.47
  -3  -2   2    5.88    0.50
  -3  -2   2    5.95    0.46
  -3   2   2    6.55    0.43
  -3   2   2    6.41    0.49
  -3   2   2    5.96    0.46
  -2  -2   2    4.91    0.37
  -2  -2   2    4.47    0.35
   2  -2  -2    4.53    0.33
  -2  -2   2    4.43    0.34
  -2   2   2    4.24    0.36
  -2   2   2    4.40    0.35
  -1  -2   2    7.40    0.49
  -1  -2   2    6.56    0.47
  -1   2   2    5.37    0.46
   0  -2   2   49.00    3.20
   0  -2   2   47.58    3.18
   0  -2  -2   46.96    3.16
   0  -2   2   46.58    3.35
  -1  -2  -2  109.19    7.10
   1  -2   2  106.41    7.49
   1  -2   2  116.46    7.16
   1  -2   2  107.67    7.12
   1   2   2   97.31    7.49
   1   2   2  103.56    7.17
   2  -2   2    2.48    0.26
   2  -2   2    2.63    0.19
  -2  -2  -2    2.55    0.22
   2  -2   2    1.99    0.23
   3  -2   2   19.02    1.44
   3  -2   2   18.96    1.37
   3  -2   2   19.83    1.41
  -3  -2  -2   20.00    1.38
   3   2   2   21.55    1.42
   3   2   2   20.81    1.48
   4  -2   2   57.12    3.46
   4  -2   2   51.31    3.61
  -4  -2  -2   53.04    3.44
   4  -2   2   51.66    3.47
   4   2   2   46.64    3.48
   4   2   2   44.89    3.64
   5  -2   2    1.06    0.29
   5  -2   2    1.08    0.33
  -5  -2  -2    1.01    0.28
   5   2   2    1.33    0.38
   5   2   2    1.19    0.38
   5   2   2    1.01    0.35
   6  -2   2   22.10    1.57
  -6  -2  -2   20.93    1.46
   6   2   2   17.14    1.54
   6   2   2   16.89    1.57
  -7  -2  -2    3.78    0.75
   7  -2   2    3.30    0.79
   7   2   2    3.40    0.71
   7   2   2    2.84    0.74
  -8  -2  -2    2.30    0.31
  -8  -2  -2    2.10    0.28
  -8   2  -2    2.38    0.30
  -8   2  -2    2.51    0.33
  -9  -2  -2    1.99    0.28
  -9  -2  -2    1.77    0.31
  -9   2  -2    1.44    0.30
  -9   2  -2    1.43    0.30
 -10  -2  -2    3.26    0.36
 -10  -2  -2    3.13    0.33
 -10   2  -2    2.86    0.35
 -11  -2  -2    2.94    0.33
  -9  -3   2    1.85    0.38
  -8  -3   2    1.44    0.30
  -8  -3   2    0.99    0.23
  -8  -3   2    1.37    0.80
  -8   3   2    1.16    0.22
  -8   3   2    1.14    0.21
  -7  -3   2    2.56    0.60
  -7  -3   2    2.57    0.25
  -7  -3   2    2.28    0.57
  -7   3   2    3.04    0.24
   7   3  -2    2.70    0.63
  -6  -3   2   22.87    1.81
  -6  -3   2   23.36    1.71
  -6  -3   2   21.69    1.49
  -6  -3   2   21.11    1.68
  -6   3   2   23.26    1.49
   6   3  -2   24.77    1.76
  -6   3   2   24.35    1.81
  -6   3   2   24.82    1.70
  -5  -3   2   11.82    0.99
  -5  -3   2   12.64    0.92
  -5  -3   2   11.14    0.77
  -5  -3   2   11.02    0.90
  -5   3   2   11.62    0.77
  -5   3   2   12.84    0.98
  -5   3   2   12.78    0.92
  -4  -3   2   56.33    3.86
  -4  -3   2   52.91    3.68
   4  -3  -2   58.08    3.64
  -4   3   2   52.01    3.68
  -4   3   2   51.25    3.84
  -3  -3   2   47.25    3.51
  -3  -3   2   54.36    3.47
  -3  -3   2   55.01    3.67
   3  -3  -2   53.87    3.46
  -3   3   2   51.44    3.66
  -3   3   2   48.62    3.51
  -2  -3   2   23.66    1.58
  -2  -3   2   20.91    1.51
  -2  -3   2   21.29    1.49
  -1  -3   2   41.24    2.92
  -1  -3   2   43.72    2.94
  -1  -3   2   40.96    3.07
  -1   3   2   47.37    3.08
  -1   3   2   44.24    2.95
   0  -3   2   64.87    4.74
   0  -3   2   66.13    4.51
   0  -3   2   65.90    4.53
   0  -3  -2   57.15    4.49
   0   3   2   73.08    4.75
   0   3   2   78.04    4.55
   1  -3   2   53.61    3.57
   1  -3   2   55.65    3.57
  -1  -3  -2   52.83    3.55
   1  -3   2   52.05    3.74
  -1   3  -2   52.28    3.57
   1   3   2   51.35    3.75
   1   3   2   54.44    3.59
  -2  -3  -2   11.23    0.80
   2  -3   2   10.75    0.82
   2  -3   2   10.18    0.83
   2   3   2   12.14    0.83
   2   3   2   12.73    0.87
   3  -3   2    6.04    0.49
   3  -3   2    6.40    0.52
  -3  -3  -2    6.04    0.48
   3  -3   2    5.90    0.44
   3   3   2    6.05    0.52
   3   3   2    6.50    0.56
   4  -3   2    3.17    0.37
  -4  -3  -2    3.62    0.36
   4  -3   2    4.04    0.45
   4   3   2    3.03    0.45
   5  -3   2   32.33    2.34
  -5  -3  -2   32.15    2.29
   5   3   2   34.27    2.37
   5   3   2   33.31    2.46
   6  -3   2   29.17    2.21
  -6  -3  -2   29.89    2.14
   6   3   2   29.10    2.22
   6   3   2   29.94    2.24
   6   3   2   31.29    2.33
   7  -3   2    7.82    1.25
  -7  -3  -2    7.85    0.94
   7   3   2    9.23    1.13
   7   3   2    8.56    1.16
  -9  -3  -2    6.20    0.48
  -9  -3  -2    6.45    0.55
  -9  -3  -2    6.38    0.50
  -9   3  -2    5.30    0.56
  -9   3  -2    4.55    0.49
  -9   3  -2    4.96    0.49
 -10  -3  -2    2.25    0.29
 -10  -3  -2    2.05    0.32
 -10   3  -2    1.87    0.32
 -11  -3  -2    3.06    0.32
  -9   4   2    1.80    0.29
  -9   4   2    2.34    0.38
  -8   4   2    5.36    0.50
  -8   4   2    5.21    0.47
  -8   4   2    5.57    0.42
  -7  -4   2    8.08    1.03
  -7  -4   2    8.29    0.53
  -7   4   2    7.01    0.52
  -6  -4   2   27.97    1.95
  -6  -4   2   25.40    2.06
  -6  -4   2   26.16    1.74
  -6  -4   2   25.88    1.98
   6   4  -2   27.96    2.02
  -6   4   2   29.06    1.74
  -6   4   2   27.42    1.96
  -5  -4   2   36.87    2.60
  -5  -4   2   38.83    2.38
  -5  -4   2   37.22    2.73
  -5  -4   2   40.91    2.57
  -5   4   2   36.33    2.59
   5   4  -2   37.39    2.63
  -5   4   2   34.41    2.71
  -5   4   2   37.32    2.39
  -4  -4   2    5.01    0.49
  -4  -4   2    5.45    0.54
  -4   4   2    6.75    0.50
  -3  -4   2   14.31    1.22
   3  -4  -2   16.82    1.13
  -3  -4   2   17.39    1.16
  -3  -4   2   16.36    1.17
  -3   4   2   16.26    1.21
  -3   4   2   18.01    1.17
  -2  -4   2   21.24    1.45
  -2  -4   2   20.45    1.53
  -2  -4   2   23.89    1.47
  -2   4   2   20.05    1.46
  -2   4   2   20.48    1.53
  -1  -4   2   43.27    3.17
  -1  -4   2   48.75    3.03
  -1  -4   2   45.91    3.02
  -1   4   2   40.49    3.17
  -1   4   2   46.03    3.04
   0  -4   2   10.37    0.72
   0  -4   2    9.39    0.73
   0  -4   2   10.00    0.69
   0  -4  -2   10.31    0.69
  -1  -4  -2   38.14    2.61
   1  -4   2   35.52    2.74
   1  -4   2   37.35    2.62
   1  -4   2   37.28    2.63
  -1   4  -2   43.49    2.62
   1   4   2   40.93    2.65
   1   4   2   38.08    2.77
  -1   4  -2   41.02    2.62
  -2  -4  -2   42.90    2.87
   2  -4   2   44.55    2.89
   2   4   2   40.65    3.04
   2   4   2   42.43    2.91
  -3  -4  -2   16.47    1.08
   3  -4   2   15.75    1.10
   3  -4   2   14.68    1.10
   3   4   2   13.70    1.10
  -4  -4  -2   60.02    3.94
   4  -4   2   58.35    3.97
   4   4   2   54.04    4.18
   4   4   2   60.79    4.01
  -5  -4  -2   23.99    1.70
   5  -4   2   23.08    1.74
   5   4   2   22.03    1.84
   5   4   2   26.13    1.78
   6   4   2    1.62    0.52
   6   4   2    1.35    0.57
   6   4   2    1.61    0.52
   7  -4   2   -0.48    0.72
  -7  -4  -2    0.43    0.53
   7   4   2    1.60    0.74
   7   4   2    1.34    0.65
  -8  -4  -2    1.49    0.33
  -8  -4  -2    1.68    0.25
  -8  -4  -2    1.83    0.29
  -8   4  -2    2.08    0.31
  -8   4  -2    1.80    0.29
   8   4   2    2.39    0.99
  -9  -4  -2    5.27    0.45
  -9  -4  -2    5.45    0.49
  -9  -4  -2    5.42    0.43
  -9   4  -2    4.33    0.51
  -9   4  -2    4.11    0.45
  -9   4  -2    3.80    0.44
 -10  -4  -2    1.88    0.28
 -10  -4  -2    1.46    0.30
 -10  -4  -2    1.77    0.36
 -11  -4  -2    1.89    0.26
 -10  -5   2    0.30    0.19
  -9  -5   2    4.84    0.49
  -9  -5   2    4.34    0.51
  -9   5   2    5.49    0.49
  -9   5   2    5.56    0.43
  -8  -5   2    1.80    0.34
  -8  -5   2    2.79    0.83
  -8  -5   2    2.50    0.34
  -8   5   2    1.88    0.33
  -8   5   2    2.05    0.32
  -8   5   2    1.92    0.25
  -7  -5   2    2.06    0.61
  -7   5   2    1.69    0.21
   7   5  -2    1.48    0.62
  -6  -5   2    0.74    0.13
  -6  -5   2    0.53    0.41
  -6  -5   2    0.31    0.37
  -6  -5   2    0.82    0.38
  -6   5   2    0.64    0.13
  -6   5   2    0.71    0.36
   6   5  -2    0.83    0.42
  -5  -5   2   26.84    1.75
  -5  -5   2   28.56    1.88
  -5  -5   2   27.65    1.59
  -5   5   2   21.16    1.75
  -5   5   2   21.73    1.84
   5   5  -2   22.45    1.80
  -4  -5   2   19.23    1.30
  -4  -5   2   19.85    1.29
  -4  -5   2   17.87    1.36
  -4   5   2   18.17    1.29
  -4   5   2   16.09    1.34
   4   5  -2   18.85    1.33
  -4   5   2   17.15    1.16
  -3  -5   2   27.34    1.90
  -3  -5   2   28.44    1.82
   3  -5  -2   25.99    1.76
  -3  -5   2   26.17    1.80
  -3   5   2   25.60    1.81
  -3   5   2   23.90    1.88
  -2  -5   2    7.28    0.58
  -2  -5   2    6.86    0.55
  -2  -5   2    7.36    0.55
  -2   5   2    7.75    0.55
  -1  -5   2   33.06    2.39
  -1  -5   2   36.18    2.29
   1  -5  -2   34.92    2.25
  -1  -5   2   31.74    2.28
  -1   5   2   32.38    2.39
  -1   5   2   33.71    2.30
   0  -5   2    3.00    0.26
   0  -5   2    3.49    0.29
   0  -5   2    3.21    0.24
   0   5  -2    2.93    0.25
   0   5   2    2.69    0.28
   0   5   2    2.70    0.28
  -1   5  -2   14.89    0.98
   1   5   2   14.49    1.03
  -1   5  -2   13.41    0.98
   1   5   2   15.11    1.07
   2  -5   2   18.08    1.16
  -2  -5  -2   17.98    1.14
   2   5   2   13.89    1.20
   2   5   2   14.90    1.15
   3  -5   2    3.01    0.39
  -3  -5  -2    2.74    0.31
   3   5   2    3.30    0.40
   3   5   2    3.52    0.42
   4   5   2    0.18    0.27
   4   5   2    0.35    0.28
  -5  -5  -2   47.97    3.20
   5  -5   2   48.35    3.23
   5   5   2   43.97    3.39
   5   5   2   45.53    3.27
  -6  -5  -2   14.64    1.17
   6  -5   2   14.63    1.25
   6   5   2   13.46    1.34
   6   5   2   13.54    1.35
   7  -5   2   16.46    1.71
  -7  -5  -2   17.49    1.53
   7   5   2   17.35    1.71
   7   5   2   20.92    1.71
  -8  -5  -2    3.75    0.36
  -8  -5  -2    3.94    0.38
  -8  -5  -2    3.83    0.44
   8   5   2    2.46    1.01
 -10  -5  -2    5.15    0.44
 -10  -5  -2    4.88    0.50
 -10  -5  -2    4.64    0.45
 -10   5  -2    4.81    0.45
 -10   5  -2    5.44    0.50
 -11  -5  -2    1.92    0.26
 -10  -6   2    0.80    0.23
 -10  -6   2    0.85    0.21
  -9  -6   2    2.24    0.37
  -9  -6   2    2.52    0.40
  -9   6   2    2.41    0.35
  -9   6   2    2.28    0.30
  -9   6   2    2.42    0.49
  -8  -6   2    6.39    0.62
  -8  -6   2    7.37    1.36
  -8  -6   2    7.22    0.58
  -8   6   2    7.22    0.58
  -8   6   2    7.68    0.52
  -8   6   2    7.06    0.60
  -8   6   2    7.65    0.64
  -7  -6   2   31.22    2.38
  -7  -6   2   29.97    1.89
  -7   6   2   27.69    1.89
  -6  -6   2    5.68    0.75
  -6  -6   2    5.02    0.35
  -6  -6   2    4.85    0.71
  -6  -6   2    5.31    0.63
   6   6  -2    4.17    0.66
  -6   6   2    4.22    0.34
  -5  -6   2   24.56    1.83
  -5  -6   2   24.47    1.66
  -5  -6   2   23.24    1.95
  -5  -6   2   24.77    1.86
  -5   6   2   28.59    1.66
  -5   6   2   27.83    1.84
   5   6  -2   27.64    1.89
  -4  -6   2    7.39    0.66
  -4  -6   2    7.55    0.55
  -4  -6   2    8.03    0.68
  -4  -6   2    7.22    0.71
  -4   6   2    9.59    0.67
   4   6  -2    9.95    0.73
  -4   6   2    8.30    0.70
  -4   6   2    9.34    0.55
  -3  -6   2   10.74    0.78
  -3  -6   2   10.95    0.79
  -3  -6   2   11.42    0.83
   3   6  -2   10.42    0.81
  -3   6   2    9.65    0.80
  -3   6   2    9.79    0.78
  -2  -6   2    0.86    0.18
   2  -6  -2    0.82    0.15
  -2  -6   2    0.82    0.17
  -2  -6   2    1.11    0.21
  -2   6   2    1.28    0.21
  -1  -6   2   18.35    1.24
  -1  -6   2   16.93    1.27
   1  -6  -2   18.28    1.20
  -1  -6   2   17.02    1.22
   0  -6   2   32.55    2.39
   0  -6   2   32.82    2.30
   0  -6   2   35.09    2.29
   0  -6  -2   35.18    2.27
   0   6   2   32.79    2.41
   0   6  -2   35.97    2.29
   0   6   2   32.08    2.31
   1   6   2   19.47    1.32
   1   6   2   17.68    1.37
  -1   6  -2   19.15    1.27
  -2  -6  -2   11.03    0.83
   2  -6   2   11.94    0.86
   2   6   2   11.56    0.85
   2   6   2   11.33    0.90
   3  -6   2   40.21    2.68
  -3  -6  -2   39.34    2.66
   3   6   2   37.43    2.70
   3   6   2   38.91    2.83
  -4  -6  -2    2.83    0.42
   4  -6   2    3.26    0.47
   4   6   2    3.35    0.47
   4   6   2    2.96    0.49
  -5  -6  -2   16.45    1.24
   5  -6   2   15.68    1.29
   5   6   2   16.28    1.37
   5   6   2   17.10    1.33
  -6  -6  -2    5.97    0.76
   6  -6   2    6.05    0.89
   6   6   2    7.36    0.92
   6   6   2    6.04    0.94
   7  -6   2    4.48    0.93
  -7  -6  -2    3.22    0.68
   7   6   2    3.99    0.91
  -8  -6  -2    1.84    0.30
  -8  -6  -2    1.63    0.34
  -8  -6  -2    1.61    0.27
  -8   6  -2    2.19    0.37
  -8   6  -2    1.72    0.30
  -8   6  -2    1.99    0.33
  -8   6  -2    1.93    0.32
   8   6   2    2.47    1.01
  -9  -6  -2    7.28    0.67
  -9  -6  -2    7.34    0.61
  -9  -6  -2    6.83    0.61
  -9   6  -2    8.32    0.65
  -9   6  -2    8.39    0.61
 -10  -6  -2    0.38    0.18
 -10  -6  -2    0.45    0.20
 -10  -6  -2    0.48    0.16
 -10   6  -2    0.50    0.18
 -10   6  -2    0.75    0.22
 -11  -6  -2    4.22    0.38
 -11  -7   2    3.95    0.40
 -10  -7   2    0.40    0.19
 -10  -7   2    0.45    0.22
  -9  -7   2    7.51    0.67
  -9  -7   2    7.79    0.65
  -9   7   2    7.53    0.64
  -9   7   2    8.14    0.67
  -9   7   2    7.63    0.57
  -8  -7   2    0.53    0.78
  -8  -7   2    0.49    0.20
  -8  -7   2    0.34    0.19
  -8   7   2    0.63    0.15
  -8   7   2    0.88    0.20
  -8   7   2    0.76    0.19
   8   7  -2    1.39    0.72
  -8   7   2    0.81    0.25
  -7  -7   2    3.70    0.40
  -7  -7   2    4.76    0.92
  -7   7   2    3.08    0.29
   7   7  -2    3.05    0.30
  -6  -7   2   16.28    1.05
  -6  -7   2   16.70    1.40
  -6  -7   2   15.89    1.32
  -6   7   2   16.34    1.05
   6   7  -2   15.42    1.32
  -5  -7   2   32.77    2.46
  -5  -7   2   33.38    2.12
  -5  -7   2   32.15    2.32
  -5  -7   2   33.80    2.35
  -5   7   2   33.18    2.33
  -5   7   2   32.94    2.12
   5   7  -2   33.97    2.36
  -4  -7   2    2.70    0.36
  -4  -7   2    2.73    0.43
  -4  -7   2    2.64    0.40
  -4  -7   2    2.70    0.20
  -4   7   2    2.41    0.37
  -4   7   2    2.42    0.20
   4   7  -2    2.75    0.39
  -3  -7   2   15.75    1.13
  -3  -7   2   16.41    1.13
  -3  -7   2   14.90    1.18
  -2  -7   2    8.84    0.62
   2  -7  -2    7.10    0.56
  -2  -7   2    7.18    0.58
  -2  -7   2    7.43    0.62
   2   7  -2    7.41    0.60
  -2   7   2    7.88    0.62
  -2   7   2    7.98    0.60
  -1  -7   2   18.43    1.42
  -1  -7   2   19.97    1.36
  -1  -7   2   20.49    1.37
   0  -7   2   38.73    2.74
   0  -7  -2   42.39    2.62
   0  -7   2   40.65    2.64
   0   7   2   35.31    2.65
   0   7   2   37.77    2.76
   0   7  -2   37.91    2.63
   1   7   2    1.60    0.25
  -1   7  -2    1.41    0.16
   1   7   2    1.78    0.24
  -2  -7  -2   11.84    0.99
   2  -7   2   14.35    1.01
   2   7   2   14.15    1.02
   2   7   2   15.21    1.07
   3  -7   2   17.84    1.46
  -3  -7  -2   19.02    1.45
   3   7   2   22.44    1.51
   3   7   2   23.37    1.57
  -4  -7  -2   20.43    1.42
   4  -7   2   20.74    1.45
   4   7   2   18.32    1.51
   4   7   2   18.72    1.46
  -5  -7  -2   16.20    1.32
   5  -7   2   17.06    1.37
   5   7   2   17.84    1.45
   5   7   2   18.62    1.40
  -6  -7  -2    1.88    0.49
   6  -7   2    1.75    0.62
   6   7   2    2.80    0.59
   6   7   2    3.13    0.68
  -7  -7  -2   18.63    1.63
  -7   7  -2   20.63    1.52
   7   7   2   23.32    1.96
  -7   7  -2   21.98    1.50
   7   7   2   23.86    2.07
  -8  -7  -2    7.50    0.55
  -8  -7  -2    7.62    0.55
  -8  -7  -2    7.27    0.61
  -8   7  -2    5.99    0.57
   8   7   2    6.14    1.17
  -8   7  -2    5.75    0.55
  -8   7  -2    5.93    0.53
  -9  -7  -2    1.72    0.32
  -9  -7  -2    1.41    0.35
  -9  -7  -2    1.81    0.29
  -9   7  -2    2.29    0.32
  -9   7  -2    2.20    0.36
  -9   7  -2    2.66    0.37
 -10  -7  -2    2.86    0.38
 -10  -7  -2    3.07    0.32
 -10  -7  -2    2.64    0.34
 -10   7  -2    2.25    0.33
 -10   7  -2    2.51    0.37
 -11  -7  -2    3.33    0.34
 -11  -7  -2    2.69    0.30
 -11   7  -2    2.57    0.33
 -11  -8   2    1.40    0.27
 -10  -8   2    3.22    0.42
 -10  -8   2    3.07    0.41
 -10   8   2    3.77    0.43
 -10   8   2    3.91    0.39
  -9  -8   2    3.55    0.40
  -9   8   2    2.75    0.41
  -9   8   2    2.53    0.32
  -9   8   2    2.52    0.37
  -8   8   2    5.12    0.41
  -8   8   2    5.37    0.51
  -8   8   2    4.89    0.48
   8   8  -2    5.12    1.11
  -8   8   2    5.03    0.47
  -7  -8   2   13.95    1.64
  -7  -8   2   16.13    1.62
  -7  -8   2   15.52    1.12
  -7  -8   2   14.42    1.20
  -7   8   2   18.85    1.21
   7   8  -2   17.90    1.12
  -7   8   2   18.70    1.12
  -7   8   2   17.53    1.26
  -7   8   2   18.99    1.26
   6   8  -2    3.40    0.73
   6   8  -2    3.80    0.29
  -6   8   2    3.59    0.29
  -5  -8   2   19.46    1.32
  -5  -8   2   17.09    1.39
  -5  -8   2   18.51    1.11
  -5   8   2   15.77    1.11
   5   8  -2   16.27    1.34
   5   8  -2   16.76    1.11
  -5   8   2   16.14    1.34
  -4  -8   2   51.17    3.77
  -4  -8   2   57.42    3.74
  -4  -8   2   54.53    3.94
  -4  -8   2   55.89    3.49
   4   8  -2   57.02    3.49
  -4   8   2   52.81    3.75
  -4   8   2   53.58    3.49
   4   8  -2   56.90    3.79
  -3  -8   2    1.20    0.26
  -3  -8   2    1.48    0.27
  -3  -8   2    1.11    0.24
  -3   8   2    1.18    0.12
   3   8  -2    0.72    0.22
  -3   8   2    0.90    0.21
  -3   8   2    1.03    0.23
  -2  -8   2   27.67    1.90
  -2  -8   2   27.05    1.81
   2  -8  -2   26.04    1.78
  -2  -8   2   27.60    1.82
   2   8  -2   24.13    1.82
  -2   8   2   24.21    1.88
  -1  -8   2    4.03    0.42
  -1  -8   2    4.37    0.40
   1  -8  -2    4.21    0.40
  -1   8   2    4.82    0.42
   1   8  -2    4.89    0.39
  -1   8   2    4.44    0.40
   0   8   2    2.36    0.29
   0   8   2    1.98    0.26
   0   8  -2    2.24    0.24
   3  -8   2   43.81    3.10
  -3  -8  -2   43.64    3.08
   3   8   2   45.90    3.27
   3   8   2   47.39    3.13
  -4  -8  -2   14.51    1.14
   4  -8   2   14.78    1.17
  -4   8  -2   14.98    0.96
   4   8   2   13.63    1.20
   4   8   2   16.37    1.19
  -5  -8  -2    9.97    0.88
   5  -8   2   10.27    0.94
   5   8   2    8.60    0.94
   5   8   2    8.41    0.93
  -5   8  -2    9.56    0.63
   6  -8   2   22.22    1.84
  -6  -8  -2   21.87    1.75
   6   8   2   23.11    1.88
   6   8   2   22.53    1.84
  -7  -8  -2    0.38    0.21
  -7  -8  -2    0.09    0.13
  -7  -8  -2    0.25    0.15
   7   8   2    0.37    0.70
  -7   8  -2    0.23    0.18
  -7   8  -2    0.42    0.16
  -7   8  -2    0.22    0.16
  -8  -8  -2    4.62    0.44
  -8  -8  -2    4.41    0.49
  -8  -8  -2    4.71    0.44
  -8   8  -2    5.21    0.44
  -8   8  -2    4.69    0.45
   8   8   2    5.67    1.09
  -8   8  -2    4.99    0.47
  -9  -8  -2    4.07    0.43
  -9  -8  -2    3.82    0.46
  -9  -8  -2    3.90    0.41
  -9   8  -2    4.75    0.45
  -9   8  -2    4.86    0.41
  -9   8  -2    4.64    0.45
 -10  -8  -2    0.86    0.21
 -10  -8  -2    0.82    0.20
 -10  -8  -2    0.86    0.18
 -11  -8  -2    9.05    0.68
 -11  -8  -2    9.28    0.73
 -11   8  -2    8.66    0.68
 -11  -9   2    3.63    0.36
 -11   9   2    3.08    0.35
 -10  -9   2    3.66    0.42
 -10  -9   2    3.25    0.42
 -10   9   2    4.36    0.40
 -10   9   2    4.06    0.42
  -9   9   2    1.03    0.24
  -9   9   2    0.80    0.19
  -9   9   2    0.75    0.20
  -8  -9   2    4.80    0.45
  -8  -9   2    5.32    0.47
  -8  -9   2    6.35    1.34
   8   9  -2    3.91    0.83
  -8   9   2    4.85    0.48
  -8   9   2    4.03    0.43
  -8   9   2    4.10    0.45
  -8   9   2    4.23    0.38
  -7  -9   2    1.05    0.23
  -7  -9   2    1.41    0.70
  -7  -9   2    1.37    0.28
  -7   9   2    1.63    0.25
  -7   9   2    1.81    0.30
  -7   9   2    1.17    0.22
  -7   9   2    1.47    0.32
  -6  -9   2   18.04    1.20
  -6  -9   2   17.81    1.59
  -6  -9   2   17.61    1.51
   6   9  -2   17.90    1.20
  -6   9   2   19.63    1.20
   6   9  -2   20.26    1.55
  -5  -9   2    7.49    0.83
  -5  -9   2    7.71    0.50
  -5  -9   2    6.74    0.77
   5   9  -2    8.15    0.80
   5   9  -2    7.08    0.50
  -5   9   2    7.44    0.50
  -4  -9   2   85.52    5.36
  -4  -9   2   86.23    5.03
  -4  -9   2   81.33    5.64
   4   9  -2   79.65    5.41
  -4   9   2   75.00    5.37
   4   9  -2   74.33    5.03
  -4   9   2   72.22    5.03
   3   9  -2    1.78    0.30
   3   9  -2    1.27    0.14
  -3   9   2    1.26    0.27
  -3   9   2    1.45    0.14
  -2   9   2   10.50    0.80
   2   9  -2   10.17    0.79
   1   9  -2    4.45    0.41
  -1   9   2    5.03    0.44
  -1   9   2    4.42    0.42
   0  -9  -2    4.80    0.51
   0   9   2    6.14    0.51
   0   9  -2    6.15    0.47
   0   9   2    6.48    0.52
  -1  -9  -2    4.54    0.48
   1  -9   2    4.40    0.47
   1   9   2    5.41    0.48
   1   9   2    5.56    0.50
  -1   9  -2    5.35    0.40
   2  -9   2   29.49    2.13
  -2  -9  -2   30.01    2.13
   2   9   2   33.23    2.17
   2   9   2   30.33    2.24
  -3  -9  -2   11.96    0.86
   3  -9   2   11.84    0.88
  -3   9  -2    8.83    0.67
   3   9   2   10.35    0.89
   3   9   2    9.64    0.86
   4  -9   2   20.44    1.44
  -4  -9  -2   19.58    1.43
  -4   9  -2   17.35    1.22
   4   9   2   18.96    1.45
   5   9   2   15.91    1.36
   5   9   2   16.51    1.33
  -5   9  -2   15.03    1.02
  -6  -9  -2   13.46    1.26
   6  -9   2   13.86    1.42
   6   9   2   15.35    1.37
   6   9   2   12.69    1.36
  -7  -9  -2    0.90    0.17
  -7  -9  -2    1.01    0.18
  -7  -9  -2    0.91    0.21
   7   9   2    0.87    0.74
  -7   9  -2    0.93    0.18
  -7   9  -2    0.80    0.18
  -7   9  -2    0.67    0.19
  -8  -9  -2   11.78    0.90
  -8  -9  -2   11.32    0.83
  -8  -9  -2   11.76    0.81
  -8   9  -2   10.56    0.81
   8   9   2    9.31    1.68
  -8   9  -2   10.41    0.83
  -8   9  -2    9.95    0.84
  -9  -9  -2    1.49    0.30
  -9  -9  -2    1.44    0.24
  -9  -9  -2    1.19    0.19
  -9   9  -2    0.88    0.22
  -9   9  -2    1.23    0.21
  -9   9  -2    1.08    0.22
 -10   9  -2    0.01    0.17
 -10   9  -2    0.26    0.19
 -10   9  -2   -0.07    0.16
 -11  -9  -2    0.43    0.15
 -11  -9  -2    0.18    0.13
 -11   9  -2    0.68    0.16
 -11  10   2    0.19    0.14
 -10 -10   2    1.92    0.35
 -10 -10   2    2.03    0.34
 -10  10   2    2.74    0.34
 -10  10   2    2.64    0.32
  -9  10   2    1.54    0.34
  -9  10   2    2.05    0.36
  -9  10   2    2.13    0.36
  -9  10   2    1.85    0.29
  -8 -10   2    5.25    0.53
  -8 -10   2    6.29    1.31
  -8 -10   2    5.09    0.52
  -8  10   2    6.13    0.55
  -8  10   2    5.40    0.54
  -8  10   2    6.78    0.46
  -8  10   2    6.31    0.51
   8  10  -2    6.17    1.21
  -7 -10   2    9.02    0.74
  -7 -10   2    8.35    1.27
  -7 -10   2    8.57    0.77
  -7 -10   2    8.38    0.79
  -7 -10   2    9.03    0.75
  -7  10   2   11.00    0.76
  -7  10   2   11.04    0.75
  -7  10   2   11.26    0.68
  -7  10   2   10.16    0.78
  -6 -10   2   18.80    1.24
  -6 -10   2   19.74    1.59
  -6 -10   2   18.87    1.67
  -6  10   2   18.94    1.24
   6  10  -2   18.29    1.60
   6  10  -2   19.93    1.24
  -5 -10   2    0.34    0.41
  -5 -10   2    0.28    0.38
  -5  10   2    0.68    0.11
   5  10  -2    0.52    0.36
   5  10  -2    0.55    0.11
  -4 -10   2   14.06    1.25
   4  10  -2   16.68    1.29
   4  10  -2   17.45    1.07
  -4  10   2   17.66    1.07
  -4  10   2   16.30    1.25
  -3 -10   2    4.84    0.53
  -3 -10   2    4.96    0.54
   3  10  -2    4.54    0.32
   3  10  -2    4.67    0.52
  -3  10   2    4.46    0.32
  -3  10   2    4.58    0.52
  -2 -10   2   12.34    0.88
  -2 -10   2   12.08    0.86
  -2  10   2   10.91    0.85
   2  10  -2    9.64    0.71
  -2  10   2    9.68    0.71
   2  10  -2   11.44    0.85
   1 -10  -2    2.78    0.38
  -1 -10   2    2.48    0.35
  -1 -10   2    2.85    0.35
  -1  10   2    1.86    0.35
   0 -10   2   21.12    1.41
   0 -10  -2   22.05    1.41
   0 -10   2   19.65    1.44
   0  10  -2   17.80    1.37
   0  10   2   18.17    1.45
   0  10   2   19.33    1.41
  -1 -10  -2   33.15    2.29
   1 -10   2   33.69    2.29
   1  10   2   34.78    2.31
   1  10   2   30.53    2.39
   2 -10   2   51.69    3.52
  -2 -10  -2   53.73    3.52
  -2  10  -2   46.43    3.27
   2  10   2   53.08    3.56
   2  10   2   52.93    3.70
  -3 -10  -2   17.45    1.33
   3 -10   2   18.25    1.35
  -3  10  -2   16.88    1.15
   3  10   2   19.77    1.41
   3  10   2   17.48    1.36
  -4 -10  -2   70.18    4.63
   4 -10   2   68.20    4.63
   4  10   2   68.11    4.87
  -4  10  -2   67.39    4.30
   4  10   2   64.50    4.66
   5  10   2    2.71    0.57
  -5  10  -2    2.46    0.23
   5  10   2    2.60    0.53
  -6 -10  -2   19.62    1.65
   6  10   2   20.88    1.73
   6  10   2   19.07    1.73
  -7 -10  -2   13.02    1.01
  -7 -10  -2   12.08    0.93
  -7 -10  -2   12.32    0.91
  -7  10  -2   12.39    0.93
  -7  10  -2   12.33    0.94
  -7  10  -2   12.69    0.91
   7  10   2   13.17    1.47
  -8 -10  -2    0.66    0.23
  -8 -10  -2    0.75    0.19
  -8  10  -2    0.35    0.20
  -8  10  -2    0.48    0.17
  -8  10  -2    0.40    0.17
  -9 -10  -2    1.34    0.24
  -9 -10  -2    1.76    0.31
  -9 -10  -2    1.42    0.28
  -9  10  -2    1.38    0.32
  -9  10  -2    1.11    0.20
  -9  10  -2    1.17    0.23
 -10 -10  -2    4.54    0.46
 -10 -10  -2    4.87    0.49
 -10 -10  -2    4.91    0.45
 -10  10  -2    5.66    0.47
 -10  10  -2    6.13    0.49
 -10  10  -2    5.77    0.46
 -11 -10  -2    4.04    0.36
 -11 -10  -2    4.74    0.39
 -11  10  -2    3.47    0.36
 -11 -11   2    0.68    0.15
 -11  11   2    0.56    0.14
 -11  11   2    0.65    0.17
  -9 -11   2    1.69    0.35
  -9 -11   2    1.75    0.35
  -9  11   2    2.08    0.35
  -9  11   2    2.40    0.36
  -9  11   2    1.96    0.29
  -9  11   2    1.60    0.34
  -8 -11   2    0.58    0.21
  -8 -11   2    0.51    0.18
  -8  11   2    0.19    0.21
  -8  11   2    0.06    0.20
  -8  11   2    0.16    0.16
  -8  11   2    0.27    0.18
  -7 -11   2    2.25    0.77
  -7 -11   2    2.38    0.32
  -7 -11   2    2.74    0.36
  -7 -11   2    2.43    0.35
  -7 -11   2    2.24    0.32
  -7  11   2    1.73    0.33
  -7  11   2    1.54    0.32
  -7  11   2    1.83    0.26
   7  11  -2    2.22    0.66
  -7  11   2    1.65    0.35
  -6 -11   2   10.44    1.16
   6  11  -2    8.22    0.60
  -6  11   2    8.56    0.60
  -5 -11   2    0.09    0.44
  -5 -11   2    0.40    0.45
  -5  11   2    0.87    0.17
   5  11  -2    0.93    0.17
   5  11  -2    1.28    0.47
  -4 -11   2   40.52    2.68
  -4 -11   2   40.19    2.81
   4  11  -2   38.39    2.69
   4  11  -2   34.53    2.41
  -4  11   2   36.25    2.42
  -3 -11   2    0.87    0.32
  -3  11   2    0.31    0.28
   3  11  -2    0.34    0.28
  -3  11   2    0.24    0.08
   3  11  -2    0.12    0.07
  -2 -11   2   76.65    4.92
  -2 -11   2   67.03    5.16
  -2  11   2   68.83    4.61
   2  11  -2   71.21    4.61
  -2  11   2   76.10    4.95
   2  11  -2   76.19    4.95
  -1 -11   2    7.59    0.73
   1 -11  -2    9.06    0.73
  -1 -11   2    8.04    0.70
  -1  11   2    9.21    0.73
   1  11  -2    8.60    0.56
  -1  11   2    8.30    0.56
   0 -11   2   16.61    1.37
   0  11   2   20.77    1.40
   0  11   2   20.03    1.44
   0  11  -2   19.07    1.23
   0  11  -2   19.11    1.35
  -1 -11  -2    9.67    0.90
   1 -11   2    9.47    0.90
   1  11   2   12.97    0.93
  -1  11  -2   11.86    0.74
   1  11   2   12.34    0.90
  -2 -11  -2    2.29    0.47
  -2  11  -2    2.55    0.20
  -3 -11  -2    5.22    0.62
   3 -11   2    4.80    0.66
   3  11   2    4.32    0.55
  -3  11  -2    4.69    0.34
   3  11   2    5.12    0.61
   4 -11   2    2.40    0.51
  -4 -11  -2    3.75    0.65
   4  11   2    2.45    0.53
   4  11   2    3.06    0.52
  -4  11  -2    2.43    0.23
   5 -11   2    1.25    0.60
   5  11   2    0.43    0.51
   5  11   2    0.62    0.42
  -5  11  -2    0.52    0.12
  -6  11  -2   16.24    1.25
   6  11   2   19.55    1.61
  -6  11  -2   17.02    1.29
  -6  11  -2   19.26    1.17
  -6  11  -2   17.19    1.27
  -7 -11  -2    2.23    0.32
  -7  11  -2    1.70    0.28
   7  11   2    1.99    0.81
  -7  11  -2    1.64    0.30
  -7  11  -2    1.67    0.28
  -8 -11  -2    4.83    0.47
  -8 -11  -2    5.04    0.47
  -8 -11  -2    4.66    0.53
  -8  11  -2    5.35    0.47
  -8  11  -2    5.64    0.48
  -8  11  -2    5.76    0.49
  -9  11  -2    0.86    0.19
  -9  11  -2    0.85    0.20
  -9  11  -2    1.09    0.21
 -10  11  -2    4.41    0.41
 -10  11  -2    4.49    0.42
 -10  11  -2    4.14    0.41
 -11 -11  -2    0.43    0.14
 -11 -11  -2    0.22    0.12
 -11  11  -2    0.25    0.13
 -10 -12   2    3.13    0.38
 -10 -12   2    3.71    0.39
 -10  12   2    3.45    0.36
 -10  12   2    3.96    0.38
  -9 -12   2    1.12    0.24
  -9 -12   2    1.29    0.25
  -9  12   2    1.34    0.20
  -9  12   2    1.49    0.33
  -9  12   2    1.17    0.22
  -9  12   2    1.33    0.22
  -8  12   2    3.76    0.41
  -8  12   2    3.75    0.42
  -8  12   2    4.00    0.42
  -8  12   2    3.55    0.36
  -7 -12   2    0.64    0.76
  -7 -12   2    0.63    0.22
  -7 -12   2    0.87    0.21
  -7  12   2    1.10    0.22
  -7  12   2    1.18    0.18
  -7  12   2    0.96    0.23
   7  12  -2    1.64    0.65
  -7  12   2    1.20    0.21
  -6 -12   2   18.39    1.47
  -6 -12   2   19.16    1.72
  -6 -12   2   18.56    1.41
  -6 -12   2   17.95    1.35
  -6 -12   2   17.89    1.35
  -6  12   2   19.13    1.38
   6  12  -2   19.68    1.25
  -6  12   2   21.27    1.36
  -6  12   2   20.04    1.26
  -6  12   2   20.41    1.42
  -5 -12   2    3.55    0.65
  -5 -12   2    3.63    0.78
  -5  12   2    3.94    0.31
   5  12  -2    3.65    0.30
   5  12  -2    3.94    0.75
  -4 -12   2    9.18    0.89
  -4 -12   2    8.05    0.94
   4  12  -2    8.94    0.89
  -4  12   2    9.73    0.62
   4  12  -2    9.57    0.62
  -3 -12   2    6.57    0.73
  -3 -12   2    6.21    0.75
   3  12  -2    7.42    0.71
  -3  12   2    7.35    0.48
  -3  12   2    6.77    0.69
   3  12  -2    7.23    0.47
  -2 -12   2    4.37    0.56
  -2 -12   2    4.22    0.57
   2  12  -2    4.63    0.32
  -2  12   2    4.51    0.54
  -2  12   2    4.57    0.32
  -1 -12   2   23.44    1.72
  -1 -12   2   25.41    1.65
   1 -12  -2   26.75    1.66
  -1  12   2   21.90    1.73
   1  12  -2   21.51    1.47
  -1  12   2   21.01    1.47
  -1  12   2   22.66    1.66
   1  12  -2   21.46    1.62
   0 -12  -2   27.83    2.17
   0 -12   2   29.46    2.17
   0  12   2   30.00    1.98
   0  12   2   33.64    2.20
   0  12  -2   32.91    2.15
   0  12  -2   29.97    1.97
   0  12   2   32.74    2.26
  -1 -12  -2   15.26    1.13
   1 -12   2   14.32    1.12
   1  12   2   14.55    1.14
  -1  12  -2   13.31    0.93
   1  12   2   14.75    1.12
  -2 -12  -2   46.49    3.41
   2 -12   2   47.25    3.41
   2  12   2   53.71    3.58
  -2  12  -2   49.25    3.15
   2  12   2   51.02    3.44
   3 -12   2    6.39    0.73
  -3 -12  -2    6.21    0.73
   3  12   2    5.62    0.67
   3  12   2    5.63    0.70
  -3  12  -2    5.63    0.40
   4 -12   2   34.91    2.41
  -4 -12  -2   35.11    2.42
   4  12   2   34.57    2.39
   4  12   2   32.87    2.48
  -4  12  -2   28.16    2.11
  -5 -12  -2    3.03    0.66
   5 -12   2    3.82    0.77
   5  12   2    4.23    0.83
  -5  12  -2    4.03    0.31
   5  12   2    3.48    0.77
   6  12   2    1.18    0.63
  -6  12  -2    1.53    0.25
  -6  12  -2    0.90    0.18
  -6  12  -2    0.90    0.17
  -6  12  -2    0.86    0.18
  -7 -12  -2    0.74    0.21
  -7 -12  -2    0.98    0.20
  -7 -12  -2    1.15    0.19
  -7 -12  -2    1.16    0.33
   7  12   2    0.42    0.76
  -7  12  -2    0.61    0.17
  -7  12  -2    0.98    0.19
  -7  12  -2    0.77    0.19
  -8 -12  -2    2.69    0.40
  -8 -12  -2    3.09    0.35
  -8  12  -2    2.41    0.34
  -8  12  -2    1.95    0.34
  -8  12  -2    2.50    0.34
  -9 -12  -2    0.44    0.17
  -9 -12  -2    0.58    0.20
  -9 -12  -2    0.53    0.21
  -9  12  -2    0.45    0.18
  -9  12  -2    0.38    0.20
  -9  12  -2    0.43    0.18
 -10 -12  -2    3.27    0.35
 -10 -12  -2    2.77    0.38
 -10  12  -2    3.64    0.35
 -10  12  -2    3.59    0.34
 -10  12  -2    3.76    0.36
  -9 -13   2    0.26    0.21
  -9 -13   2    0.05    0.18
  -9 -13   2    0.22    0.20
  -9  13   2    0.43    0.19
  -9  13   2    0.02    0.18
  -9  13   2    0.20    0.19
  -9  13   2    0.14    0.17
  -8 -13   2    1.98    0.35
  -8 -13   2    2.64    0.35
  -8 -13   2    2.30    0.39
  -8  13   2    2.00    0.36
  -8  13   2    1.76    0.37
  -8  13   2    2.03    0.29
  -8  13   2    2.46    0.35
  -7 -13   2    0.37    0.18
  -7 -13   2    0.51    0.20
  -7 -13   2    0.61    0.23
  -7 -13   2    1.16    0.75
  -7 -13   2    0.28    0.19
  -7  13   2    0.28    0.21
  -7  13   2    0.36    0.18
  -7  13   2    0.37    0.17
  -7  13   2    0.62    0.20
   7  13  -2    0.99    0.64
  -6  13   2    2.21    0.35
   6  13  -2    2.16    0.26
  -6  13   2    2.08    0.27
  -6  13   2    2.47    0.35
   6  13  -2    2.57    0.60
  -6  13   2    2.30    0.31
  -5 -13   2    2.25    0.64
  -5 -13   2    2.22    0.61
  -5  13   2    1.53    0.23
   5  13  -2    1.48    0.55
   5  13  -2    1.85    0.21
  -4 -13   2   26.06    2.09
  -4 -13   2   27.41    2.01
  -4  13   2   25.73    1.72
   4  13  -2   28.91    2.01
   4  13  -2   25.90    1.71
  -3 -13   2    0.35    0.38
  -3 -13   2    0.43    0.37
   3  13  -2    0.12    0.35
   3  13  -2    0.33    0.09
  -3  13   2    0.21    0.10
  -2 -13   2   14.42    1.30
  -2  13   2   17.48    1.10
   2  13  -2   17.00    1.09
  -2  13   2   16.92    1.32
   2  13  -2   18.68    1.29
  -1 -13   2    4.23    0.55
  -1  13   2    3.86    0.57
   1  13  -2    3.98    0.51
  -1  13   2    3.60    0.29
   1  13  -2    3.92    0.28
   0  13   2   11.41    0.92
   0  13  -2   11.56    0.74
   0  13   2   11.19    0.96
   0  13   2   11.07    0.74
  -1 -13  -2    4.99    0.63
   1 -13   2    5.03    0.60
   1  13   2    4.11    0.56
   1  13   2    3.39    0.30
  -1  13  -2    3.78    0.28
   1  13   2    3.31    0.54
  -2 -13  -2   11.00    0.95
   2 -13   2   11.42    0.93
   2  13   2    8.98    0.90
   2  13   2    8.86    0.90
  -2  13  -2    9.45    0.65
  -3 -13  -2    4.40    0.72
   3 -13   2    3.44    0.70
   3  13   2    3.03    0.59
  -3  13  -2    3.55    0.27
   3  13   2    3.14    0.64
   4  13   2    5.57    0.73
  -4  13  -2    5.11    0.39
   4  13   2    5.43    0.76
  -5 -13  -2   10.28    1.24
   5  13   2   10.73    1.12
  -5  13  -2   10.66    0.71
   5  13   2   10.36    1.17
  -6  13  -2    3.81    0.35
   6  13   2    3.71    0.76
  -6  13  -2    3.63    0.37
  -6  13  -2    3.22    0.35
  -6  13  -2    3.43    0.36
  -7 -13  -2    2.68    0.38
  -7 -13  -2    3.07    0.42
  -7 -13  -2    3.07    0.38
  -7 -13  -2    3.75    0.53
   7  13   2    3.36    0.85
  -7  13  -2    3.49    0.37
  -7  13  -2    3.33    0.36
  -7  13  -2    3.94    0.37
  -8 -13  -2    7.16    0.58
  -8 -13  -2    6.92    0.65
  -8 -13  -2    6.95    0.59
  -8  13  -2    6.60    0.58
  -8  13  -2    7.25    0.58
  -8  13  -2    7.17    0.60
  -9 -13  -2    3.60    0.43
  -9 -13  -2    3.48    0.39
  -9 -13  -2    3.72    0.38
  -9  13  -2    3.48    0.39
  -9  13  -2    3.59    0.37
  -9  13  -2    3.43    0.38
 -10  13  -2    4.83    0.40
 -10  13  -2    4.48    0.40
 -10  13  -2    4.38    0.41
 -10 -14   2    1.92    0.28
 -10  14   2    1.41    0.26
  -9  14   2    1.06    0.21
  -9  14   2    0.94    0.19
  -9  14   2    1.14    0.21
  -9  14   2    0.86    0.20
  -8 -14   2   25.58    1.80
  -8 -14   2   24.13    1.74
  -8 -14   2   24.65    1.89
  -8  14   2   24.13    1.62
  -8  14   2   25.18    1.77
  -8  14   2   24.20    1.73
  -8  14   2   25.89    1.81
  -7 -14   2    0.51    0.20
  -7 -14   2    0.52    0.23
  -7 -14   2    0.39    0.18
  -7 -14   2    0.13    0.20
  -6 -14   2    7.64    1.12
  -6  14   2    4.85    0.43
  -6  14   2    4.89    0.47
   6  14  -2    5.75    0.96
  -6  14   2    5.93    0.48
  -6  14   2    5.12    0.50
   6  14  -2    5.07    0.41
  -5 -14   2    6.73    0.57
  -5 -14   2    6.55    0.56
  -5 -14   2    7.24    0.53
  -5 -14   2    7.15    0.56
  -5 -14   2    7.89    1.05
  -5  14   2    5.97    0.54
  -5  14   2    6.65    0.58
  -5  14   2    6.34    0.48
  -5  14   2    5.66    0.53
   5  14  -2    6.91    0.92
   5  14  -2    5.95    0.47
   4  14  -2    1.31    0.18
   4  14  -2    1.34    0.43
   4  14  -2    1.19    0.49
  -4  14   2    1.14    0.20
  -3 -14   2   17.78    1.42
  -3 -14   2   17.49    1.51
  -3  14   2   17.21    1.16
   3  14  -2   18.09    1.41
   3  14  -2   18.27    1.15
  -2 -14   2    4.66    0.69
  -2 -14   2    4.46    0.67
   2  14  -2    4.83    0.34
  -2  14   2    5.41    0.67
  -2  14   2    4.47    0.35
   2  14  -2    5.31    0.62
   2  14  -2    4.63    0.60
  -1 -14   2    1.69    0.40
  -1  14   2    1.51    0.41
   1  14  -2    2.25    0.48
  -1  14   2    1.46    0.18
   1  14  -2    1.67    0.16
   0  14   2   12.06    1.09
   0  14   2   11.62    0.80
   0  14   2   12.72    1.04
   0  14  -2   12.53    0.80
  -1 -14  -2    4.61    0.76
   1 -14   2    4.31    0.64
   1  14   2    5.05    0.65
  -1  14  -2    5.03    0.34
   1  14   2    4.93    0.61
   1  14   2    4.72    0.36
   2 -14   2   55.11    4.19
  -2 -14  -2   61.00    4.21
  -2  14  -2   59.06    3.88
   2  14   2   65.57    4.24
   2  14   2   64.18    4.40
   3 -14   2    1.18    0.56
  -3 -14  -2    1.15    0.55
   3  14   2    0.79    0.47
  -3  14  -2    1.08    0.17
   3  14   2    0.63    0.39
   4 -14   2   21.99    1.89
  -4 -14  -2   23.50    1.90
   4  14   2   23.37    1.86
   4  14   2   22.40    1.84
  -4  14  -2   24.47    1.50
  -5 -14  -2    1.22    0.20
  -5 -14  -2    1.16    0.21
  -5 -14  -2    1.28    0.24
  -5 -14  -2    2.03    0.37
   5  14   2    0.43    0.52
  -6 -14  -2    0.95    0.21
  -6 -14  -2    1.32    0.24
  -6 -14  -2    1.30    0.21
  -6 -14  -2    1.51    0.30
  -6  14  -2    1.69    0.28
   6  14   2    1.37    0.66
  -7 -14  -2    2.20    0.39
  -7 -14  -2    2.33    0.34
  -7 -14  -2    2.71    0.47
  -7 -14  -2    2.16    0.35
  -7  14  -2    2.37    0.32
  -7  14  -2    2.46    0.33
  -7  14  -2    2.45    0.33
  -8 -14  -2    0.37    0.19
  -8 -14  -2    0.78    0.33
  -8 -14  -2    0.42    0.19
  -8 -14  -2    0.18    0.21
  -8  14  -2    0.27    0.19
  -8  14  -2    0.52    0.19
  -8  14  -2    0.40    0.18
  -9 -14  -2    2.08    0.31
  -9 -14  -2    1.80    0.33
  -9 -14  -2    1.90    0.32
  -9  14  -2    2.25    0.30
  -9  14  -2    2.23    0.33
  -9  14  -2    2.33    0.31
 -10  14  -2    0.51    0.16
 -10  14  -2    0.56    0.15
 -10  14  -2    0.55    0.17
 -10 -15   2    0.65    0.18
 -10 -15   2    0.85    0.16
 -10  15   2    1.13    0.21
  -9 -15   2    0.34    0.17
  -9 -15   2    0.23    0.19
  -9 -15   2    0.28    0.20
  -9  15   2    0.61    0.17
  -9  15   2    0.63    0.18
  -9  15   2    0.43    0.17
  -9  15   2    0.66    0.18
  -8 -15   2    1.81    0.33
  -8 -15   2    1.56    0.32
  -8 -15   2    1.20    0.25
  -8  15   2    1.13    0.23
  -8  15   2    1.18    0.20
  -8  15   2    1.11    0.22
  -8  15   2    1.29    0.22
  -7 -15   2    2.32    0.39
  -7 -15   2    2.00    0.32
  -7 -15   2    1.40    0.25
  -7 -15   2    1.80    0.34
  -7  15   2    1.37    0.29
  -7  15   2    1.58    0.32
  -7  15   2    1.66    0.35
  -7  15   2    1.75    0.25
  -6 -15   2    2.11    0.36
  -6 -15   2    3.13    0.38
  -6 -15   2    2.08    0.34
  -6 -15   2    1.53    0.78
  -6 -15   2    2.35    0.35
   6  15  -2    4.40    0.97
  -6  15   2    3.18    0.31
  -6  15   2    3.32    0.38
  -6  15   2    3.26    0.38
  -6  15   2    2.52    0.33
  -5 -15   2    1.51    0.30
  -5 -15   2    2.07    0.35
  -5 -15   2    2.57    0.73
  -5 -15   2    1.80    0.31
  -5 -15   2    1.62    0.32
  -5  15   2    2.55    0.35
  -5  15   2    1.93    0.28
  -5  15   2    2.16    0.27
   5  15  -2    2.23    0.59
  -5  15   2    2.09    0.32
   5  15  -2    2.11    0.24
   4  15  -2   11.99    0.80
   4  15  -2   11.75    1.14
  -4  15   2   12.08    0.81
   4  15  -2   12.87    1.20
   3  15  -2    5.38    0.73
   3  15  -2    5.08    0.38
   3  15  -2    6.16    0.80
  -3  15   2    5.24    0.40
  -2 -15   2    3.26    0.66
  -2  15   2    1.86    0.23
   2  15  -2    2.33    0.50
   2  15  -2    2.31    0.21
   1  15  -2    4.04    0.31
  -1  15   2    4.37    0.69
  -1  15   2    4.21    0.32
   0 -15   2    0.44    0.42
   0  15   2    0.99    0.42
   0  15  -2    1.38    0.17
   0  15   2    1.04    0.19
   1 -15   2    7.24    0.84
  -1 -15  -2    7.69    0.96
   1  15   2    7.69    0.54
   1  15   2    7.59    0.80
  -1  15  -2    8.10    0.53
   1  15   2    8.68    0.85
  -2 -15  -2    3.41    0.64
   2 -15   2    3.77    0.63
  -2  15  -2    2.58    0.24
   2  15   2    2.38    0.48
   2  15   2    2.98    0.61
  -3 -15  -2    5.43    0.93
   3 -15   2    5.63    0.99
   3  15   2    4.53    0.75
   3  15   2    4.01    0.67
  -3  15  -2    4.41    0.35
  -4 -15  -2    5.14    0.97
   4  15   2    7.17    1.01
  -4  15  -2    7.65    0.52
   4  15   2    7.92    0.92
  -5 -15  -2    0.44    0.21
  -5 -15  -2    0.55    0.26
  -5 -15  -2    0.10    0.17
   5  15   2    0.59    0.57
  -6  15  -2    8.55    0.59
   6  15   2    6.57    1.19
  -6  15  -2    7.67    0.63
  -6  15  -2    7.37    0.63
  -6  15  -2    7.92    0.62
  -7 -15  -2    0.75    0.29
  -7 -15  -2    0.64    0.20
  -7 -15  -2    0.69    0.20
  -7 -15  -2    0.29    0.21
  -8 -15  -2    2.92    0.43
  -8 -15  -2    3.53    0.39
  -8 -15  -2    3.11    0.53
  -8 -15  -2    3.01    0.39
  -8  15  -2    3.81    0.38
  -8  15  -2    4.04    0.38
  -8  15  -2    3.74    0.40
  -9 -15  -2    0.34    0.18
  -9 -15  -2    0.46    0.17
  -9 -15  -2    0.25    0.18
  -9  15  -2    0.80    0.18
  -9  15  -2    0.73    0.18
  -9  15  -2    0.55    0.17
 -10 -15  -2    1.97    0.25
 -10 -15  -2    1.92    0.27
 -10  15  -2    1.95    0.24
 -10  15  -2    2.40    0.27
 -10  15  -2    1.83    0.25
 -10 -16   2    0.58    0.15
 -10 -16   2    0.46    0.14
 -10  16   2    0.36    0.14
  -9  16   2    1.31    0.28
  -9  16   2    1.22    0.27
  -8 -16   2   13.84    1.13
  -8 -16   2   13.95    1.08
  -8 -16   2   13.41    1.05
  -8  16   2   15.71    1.08
  -8  16   2   15.30    1.06
  -8  16   2   14.57    1.04
  -8  16   2   14.29    0.97
  -7 -16   2    3.11    0.39
  -7  16   2    2.31    0.34
  -7  16   2    2.06    0.38
  -7  16   2    2.49    0.37
  -7  16   2    2.26    0.32
   6  16  -2    3.36    0.79
  -6  16   2    3.27    0.37
  -6  16   2    3.69    0.41
  -6  16   2    3.15    0.43
  -6  16   2    3.66    0.35
  -5 -16   2   10.24    0.88
  -5 -16   2   10.62    0.86
  -5 -16   2   10.86    0.86
  -5 -16   2   13.67    1.48
  -5  16   2   12.08    0.86
  -5  16   2   12.15    0.79
   5  16  -2   12.31    1.26
  -5  16   2   12.51    0.90
  -5  16   2   10.99    0.86
   5  16  -2   11.15    0.77
  -4 -16   2    1.71    0.29
  -4 -16   2    2.12    0.68
  -4  16   2    1.92    0.29
   4  16  -2    2.09    0.55
   4  16  -2    1.59    0.22
  -4  16   2    1.38    0.26
  -4  16   2    1.56    0.30
  -3 -16   2    6.02    1.05
  -3 -16   2    6.67    0.98
  -3  16   2    8.27    0.54
   3  16  -2    7.82    0.52
   3  16  -2    7.77    0.89
   3  16  -2    6.55    0.98
   2  16  -2    4.08    0.31
  -2  16   2    4.08    0.33
   2  16  -2    4.43    0.77
  -1 -16   2    2.44    0.55
  -1  16   2    1.34    0.55
  -1  16   2    1.57    0.21
   1  16  -2    1.67    0.20
   0  16   2   -0.33    0.46
   0  16   2    0.15    0.12
   0  16  -2    0.33    0.10
  -1  16  -2    1.75    0.20
   1  16   2    1.68    0.22
   1  16   2    1.58    0.50
  -2 -16  -2   31.44    2.45
   2 -16   2   31.60    2.39
   2  16   2   32.12    2.46
   2  16   2   33.20    2.40
  -2  16  -2   32.80    2.07
  -3 -16  -2   17.36    1.60
   3 -16   2   15.63    1.62
   3  16   2   16.91    1.47
  -3  16  -2   17.73    1.11
   3  16   2   16.05    1.47
  -4 -16  -2    9.09    0.80
  -4 -16  -2    8.89    0.80
  -4 -16  -2    9.10    0.77
  -4  16  -2   11.23    0.79
  -4  16  -2   12.48    0.77
   4  16   2   11.89    1.18
  -5 -16  -2    1.61    0.34
  -5 -16  -2    1.39    0.23
  -5 -16  -2    1.17    0.21
  -5 -16  -2    1.43    0.27
  -5  16  -2    1.51    0.31
  -5  16  -2    1.61    0.27
  -5  16  -2    1.44    0.28
   5  16   2    1.97    0.66
  -5  16  -2    1.21    0.28
  -6 -16  -2    3.87    0.41
  -6 -16  -2    3.52    0.44
  -6 -16  -2    3.45    0.40
  -6 -16  -2    3.77    0.47
  -6  16  -2    3.68    0.39
   6  16   2    2.32    0.79
  -6  16  -2    3.36    0.38
  -6  16  -2    2.69    0.38
  -6  16  -2    3.43    0.37
  -7 -16  -2    1.24    0.23
  -7 -16  -2    1.10    0.21
  -7 -16  -2    1.15    0.23
  -7 -16  -2    1.41    0.30
  -7  16  -2    1.06    0.21
  -7  16  -2    1.11    0.21
  -7  16  -2    0.94    0.21
  -8 -16  -2    1.50    0.34
  -8 -16  -2    2.15    0.45
  -8 -16  -2    1.57    0.33
  -8 -16  -2    1.81    0.32
   8  16   2    2.35    0.34
  -8  16  -2    2.26    0.33
  -8  16  -2    2.01    0.31
  -8  16  -2    2.21    0.35
  -9 -16  -2    4.67    0.42
  -9 -16  -2    4.52    0.41
  -9 -16  -2    4.48    0.44
  -9  16  -2    4.49    0.42
  -9  16  -2    4.62    0.41
  -9  16  -2    4.95    0.41
 -10 -16  -2    1.03    0.22
 -10 -16  -2    0.92    0.20
 -10  16  -2    1.13    0.23
 -10  16  -2    0.68    0.14
 -10  16  -2    0.59    0.14
  -9 -17   2    1.48    0.27
  -9 -17   2    1.37    0.21
  -9 -17   2    1.51    0.27
  -9  17   2    1.43    0.24
  -9  17   2    0.95    0.19
  -8 -17   2    1.76    0.34
  -8 -17   2    1.91    0.32
  -8  17   2    1.61    0.31
  -8  17   2    1.50    0.30
  -8  17   2    1.60    0.22
  -7 -17   2    0.21    0.19
  -7 -17   2   -0.03    0.22
  -7 -17   2    0.31    0.23
  -7 -17   2    0.24    0.18
   7  17  -2    0.50    0.18
  -7  17   2    0.39    0.18
  -7  17   2    0.23    0.20
  -7  17   2    0.19    0.18
  -7  17   2    0.17    0.20
  -6 -17   2    0.71    0.23
  -6 -17   2    0.68    0.20
  -6 -17   2    0.67    0.19
  -6  17   2    1.00    0.22
  -6  17   2    0.54    0.19
   6  17  -2    1.40    0.30
  -6  17   2    0.84    0.20
  -6  17   2    0.90    0.21
  -5 -17   2    1.54    0.93
  -5  17   2    0.77    0.21
  -5  17   2    1.02    0.21
  -5  17   2    0.68    0.19
  -5  17   2    0.97    0.19
   5  17  -2    0.75    0.16
  -5  17   2    0.93    0.27
   5  17  -2    1.15    0.64
  -4 -17   2    0.21    0.79
   4  17  -2    1.52    0.59
   4  17  -2    1.43    0.23
   4  17  -2    1.87    0.28
  -4  17   2    1.50    0.32
  -4  17   2    1.57    0.30
  -4  17   2    2.43    0.40
  -4  17   2    1.45    0.26
  -3 -17   2   15.74    1.35
   3  17  -2   19.42    1.34
  -3  17   2   19.32    1.35
   3  17  -2   20.02    1.25
  -3  17   2   20.65    1.26
   3  17  -2   20.12    1.69
  -2 -17   2    1.38    0.61
   2  17  -2    1.03    0.18
  -2  17   2    0.82    0.16
  -1  17   2    2.12    0.25
   1  17  -2    2.48    0.23
   0 -17   2    0.58    0.53
   0  17   2    0.50    0.14
   0  17   2    0.08    0.57
   0  17  -2    0.67    0.12
   1 -17   2    0.49    0.58
   1  17   2    0.81    0.57
   1  17   2    1.11    0.17
  -1  17  -2    1.57    0.20
  -2 -17  -2    2.26    0.80
   2 -17   2    1.98    0.69
   2  17   2    2.20    0.60
  -2  17  -2    2.66    0.25
   2  17   2    2.19    0.68
  -3 -17  -2   11.15    0.82
  -3 -17  -2   12.63    1.50
  -3 -17  -2   11.11    0.84
   3 -17   2   11.68    1.49
  -3  17  -2   10.99    0.74
  -3  17  -2   10.39    0.82
   3  17   2   10.23    0.80
   3  17   2   11.53    1.20
   4 -17   2    1.75    0.42
  -4  17  -2    2.87    0.40
  -4  17  -2    2.23    0.32
  -4  17  -2    2.53    0.29
   4  17   2    2.69    0.69
  -4  17  -2    2.22    0.31
  -4  17  -2    3.03    0.41
   4  17   2    2.86    0.31
  -4  17  -2    2.93    0.41
   5  17   2    0.72    0.68
  -5  17  -2    0.85    0.20
  -5  17  -2    0.87    0.18
  -5  17  -2    1.37    0.30
  -6 -17  -2    0.53    0.21
  -6 -17  -2    0.90    0.28
  -6 -17  -2    0.31    0.20
  -6 -17  -2    0.52    0.20
  -7 -17  -2    9.50    0.72
  -7 -17  -2    9.23    0.78
  -7 -17  -2    9.75    0.74
  -7 -17  -2    9.42    0.77
  -7  17  -2    9.03    0.72
  -7  17  -2    8.47    0.72
   7  17   2    9.03    0.71
  -7  17  -2    9.30    0.74
  -8 -17  -2    0.67    0.26
  -8 -17  -2    0.58    0.18
  -8 -17  -2    0.29    0.19
  -8 -17  -2    0.37    0.19
  -9 -17  -2    2.15    0.27
  -9 -17  -2    1.98    0.28
  -9 -17  -2    2.00    0.27
  -9  17  -2    1.51    0.26
  -9 -18   2    2.18    0.29
  -9 -18   2    2.51    0.29
  -9 -18   2    2.28    0.29
  -8 -18   2    0.70    0.20
  -8 -18   2    0.66    0.17
  -8  18   2    0.32    0.17
  -8  18   2    0.13    0.16
  -8  18   2    0.36    0.17
  -8  18   2    0.43    0.18
  -7 -18   2   22.21    1.76
  -7 -18   2   23.31    1.91
  -7 -18   2   24.51    1.81
  -7 -18   2   22.59    1.76
  -7  18   2   27.02    1.75
   7  18  -2   25.96    1.74
  -7  18   2   27.46    1.82
  -7  18   2   25.89    1.78
  -7  18   2   26.94    1.64
  -6 -18   2    1.16    0.21
  -6 -18   2    0.74    0.24
  -6 -18   2    1.00    0.25
  -6 -18   2    0.86    0.21
  -5  18   2    4.90    0.48
  -5  18   2    4.93    0.43
   5  18  -2    6.61    1.20
  -5  18   2    5.06    0.50
   5  18  -2    5.44    0.46
  -5  18   2    5.33    0.49
  -5  18   2    5.64    0.55
   5  18  -2    4.85    0.42
  -4 -18   2    0.40    0.23
  -4 -18   2    0.47    0.18
  -4 -18   2    0.53    0.22
   4 -18  -2    0.43    0.20
  -4  18   2    0.31    0.19
   4  18  -2    0.31    0.17
  -4  18   2    0.34    0.25
  -4  18   2    0.58    0.23
  -4  18   2    0.12    0.19
   4  18  -2    0.06    0.14
  -3 -18   2    7.78    0.62
  -3 -18   2    7.81    0.66
  -3 -18   2    7.12    0.66
  -3 -18   2    7.48    0.63
   3 -18  -2    7.22    0.60
  -3  18   2    7.65    0.61
  -3  18   2    7.73    0.65
   3  18  -2    7.39    0.60
  -3  18   2    8.42    0.66
   3  18  -2    7.93    0.54
  -3  18   2    7.93    0.57
  -3  18   2    8.11    0.66
   2  18  -2    1.04    0.19
  -2  18   2    0.75    0.20
   2  18  -2    0.90    0.18
  -2  18   2    0.69    0.16
  -1 -18   2    2.75    0.68
   1  18  -2    2.48    0.25
  -1  18   2    2.18    0.27
   0 -18   2   12.72    1.24
   0  18   2    9.88    1.34
   0  18  -2   12.44    0.79
   0  18   2   11.46    0.79
   1 -18   2    7.76    1.12
  -1  18  -2    9.04    0.59
   1  18   2    8.47    0.60
   1  18   2    7.42    1.19
   2 -18   2    0.37    0.20
   2 -18   2    0.13    0.78
  -2 -18  -2    0.45    0.22
  -2 -18  -2    0.76    0.19
  -2  18  -2    0.58    0.18
  -2  18  -2    0.88    0.15
   2  18   2    0.58    0.16
  -2  18  -2    0.68    0.19
   3 -18   2   46.65    3.09
  -3 -18  -2   46.90    3.10
  -3 -18  -2   49.28    3.00
  -3 -18  -2   45.02    2.99
   3  18   2   40.52    3.31
  -3  18  -2   37.22    3.09
  -3  18  -2   42.37    2.78
  -3  18  -2   41.66    2.97
   3  18   2   40.76    2.97
  -3  18  -2   43.11    3.00
  -4 -18  -2    1.01    0.21
   4 -18   2    1.48    0.26
  -4 -18  -2    1.24    0.22
  -4 -18  -2    1.04    0.27
   4  18   2    1.39    0.27
  -4  18  -2    1.37    0.25
  -4  18  -2    1.09    0.21
   4  18   2    1.99    0.71
  -4  18  -2    0.76    0.18
  -4  18  -2    1.07    0.18
  -5  18  -2    0.43    0.18
  -5  18  -2    0.42    0.21
  -5  18  -2    0.51    0.17
   5  18   2    0.58    0.17
  -5  18  -2    0.27    0.19
   5  18   2    0.78    0.76
  -6 -18  -2    0.30    0.20
  -6 -18  -2    0.24    0.26
  -6 -18  -2    0.40    0.20
  -6 -18  -2    0.41    0.20
  -6  18  -2    0.74    0.19
  -6  18  -2    0.75    0.20
   6  18   2    0.70    0.18
  -6  18  -2    0.81    0.21
  -6  18  -2    0.80    0.20
  -7 -18  -2    0.52    0.19
  -7 -18  -2    0.36    0.26
  -7 -18  -2    0.47    0.19
  -7 -18  -2    0.47    0.20
  -7  18  -2    0.71    0.19
  -7  18  -2    0.47    0.19
  -7  18  -2    0.50    0.19
   7  18   2    0.61    0.18
  -8 -18  -2    0.11    0.17
  -8 -18  -2    0.33    0.24
  -8 -18  -2    0.06    0.17
  -8 -18  -2    0.14    0.16
  -8  18  -2    0.26    0.17
   8  18   2    0.11    0.17
  -8  18  -2    0.02    0.16
  -8  18  -2    0.12    0.16
  -9 -18  -2    5.49    0.46
  -9 -18  -2    5.57    0.49
  -9 -18  -2    5.16    0.45
  -9  18  -2    5.41    0.45
  -9  18  -2    5.94    0.45
  -9  18  -2    5.68    0.46
  -9 -19   2    3.56    0.34
  -9 -19   2    3.24    0.33
  -9 -19   2    3.41    0.32
  -9  19   2    3.64    0.32
  -9  19   2    3.33    0.32
  -8 -19   2    0.99    0.18
  -8 -19   2    0.62    0.20
  -8 -19   2    0.71    0.17
  -8  19   2    0.66    0.18
  -8  19   2    0.89    0.17
  -8  19   2    0.64    0.16
  -7 -19   2    1.42    0.25
  -7 -19   2    1.64    0.30
  -7 -19   2    2.05    0.33
  -7 -19   2    1.88    0.37
  -7  19   2    1.27    0.21
  -7  19   2    1.31    0.22
   7  19  -2    1.84    0.29
  -7  19   2    1.40    0.23
  -7  19   2    1.51    0.31
  -6 -19   2    2.63    0.35
  -6 -19   2    1.85    0.38
  -6 -19   2    2.49    0.39
  -6 -19   2    2.35    0.34
  -6  19   2    1.86    0.36
   6  19  -2    2.08    0.33
  -6  19   2    2.21    0.34
  -6  19   2    2.25    0.36
  -6  19   2    1.66    0.31
  -5  19   2    1.63    0.32
   5  19  -2    1.26    0.19
   5  19  -2    1.59    0.31
  -5  19   2    1.17    0.28
  -5  19   2    0.93    0.22
  -5  19   2    1.60    0.35
  -5  19   2    1.19    0.24
  -4 -19   2    0.98    0.20
  -4 -19   2    1.11    0.23
  -4 -19   2    0.58    0.25
   4 -19  -2    1.14    0.20
   4  19  -2    1.06    0.20
  -4  19   2    0.57    0.26
  -4  19   2    1.21    0.25
  -4  19   2    0.65    0.19
  -4  19   2    0.87    0.23
   4  19  -2    0.69    0.16
  -4  19   2    0.67    0.21
  -3 -19   2   27.18    1.92
   3 -19  -2   28.19    1.91
  -3 -19   2   27.81    1.90
  -3 -19   2   28.40    1.91
  -3 -19   2   28.00    1.96
   3  19  -2   26.00    1.76
  -3  19   2   27.58    1.77
  -3  19   2   25.32    1.90
  -3  19   2   28.21    1.89
   3  19  -2   28.19    1.88
  -3  19   2   24.84    1.95
   2 -19  -2    8.21    0.67
  -2 -19   2    8.10    0.69
  -2 -19   2    8.38    0.73
  -2 -19   2    8.61    0.70
  -2 -19   2    7.79    0.68
   2  19  -2    8.78    0.66
  -2  19   2    8.90    0.68
   2  19  -2    9.43    0.60
  -2  19   2    8.96    0.69
  -2  19   2    8.94    0.62
  -1  19   2    4.38    0.41
  -1  19   2    3.95    0.37
   1  19  -2    4.51    0.35
   1  19  -2    4.15    0.39
  -1  19   2    4.04    0.43
   0 -19   2    0.39    0.18
   0 -19  -2    0.30    0.19
   0 -19   2    0.36    0.18
   0  19   2    0.78    0.20
   0  19  -2    0.62    0.17
   0  19  -2    0.81    0.15
   0  19   2    0.66    0.18
   0  19   2    0.76    0.16
   1 -19   2    5.29    0.50
  -1 -19  -2    6.25    0.52
  -1  19  -2    7.16    0.54
   1  19   2    6.29    0.48
  -1  19  -2    5.77    0.50
   1  19   2    5.98    0.50
  -1  19  -2    6.45    0.46
   1  19   2    5.52    0.52
   2 -19   2    2.33    0.31
  -2 -19  -2    1.90    0.39
   2 -19   2    1.77    0.33
  -2 -19  -2    2.00    0.37
  -2 -19  -2    2.37    0.35
   2  19   2    2.70    0.30
  -2  19  -2    2.58    0.26
  -2  19  -2    1.81    0.34
   2  19   2    2.01    0.28
  -2  19  -2    1.92    0.33
   3 -19   2    1.11    0.23
  -3 -19  -2    0.96    0.20
  -3 -19  -2    0.96    0.21
  -3 -19  -2    0.87    0.24
  -3  19  -2    1.27    0.24
  -3  19  -2    1.53    0.29
  -3  19  -2    0.99    0.20
  -3  19  -2    1.19    0.22
  -4 -19  -2    2.13    0.35
   4 -19   2    1.94    0.29
  -4 -19  -2    1.40    0.29
  -4 -19  -2    1.51    0.33
   4  19   2    2.46    0.30
  -4  19  -2    1.84    0.31
  -4  19  -2    2.53    0.30
   4  19   2    1.40    0.87
  -4  19  -2    2.78    0.39
  -4  19  -2    2.15    0.34
  -5 -19  -2    2.19    0.41
  -6 -19  -2    3.24    0.39
  -6 -19  -2    2.97    0.40
  -6 -19  -2    2.86    0.47
  -6 -19  -2    3.54    0.41
  -6  19  -2    3.37    0.38
  -6  19  -2    3.21    0.39
  -6  19  -2    2.84    0.38
   6  19   2    3.43    0.37
  -6  19  -2    3.18    0.38
  -7 -19  -2    6.70    0.57
  -7 -19  -2    6.86    0.52
  -7 -19  -2    6.67    0.54
  -7 -19  -2    6.17    0.50
  -7  19  -2    5.17    0.52
  -7  19  -2    4.88    0.50
   7  19   2    5.12    0.49
  -7  19  -2    5.27    0.50
  -8 -19  -2    0.10    0.16
  -8 -19  -2    0.20    0.16
  -8 -19  -2    0.26    0.17
  -8  19  -2    0.32    0.16
  -8  19  -2    0.21    0.16
  -8  19  -2    0.23    0.15
   8  19   2    0.11    0.15
  -9 -19  -2    4.55    0.36
   9 -19   2    4.36    0.33
  -9 -19  -2    4.51    0.37
  -9  19  -2    3.25    0.34
  -9  19  -2    3.36    0.35
  -9  19  -2    3.76    0.35
  -8 -20   2    1.45    0.28
  -8 -20   2    1.61    0.25
  -8 -20   2    1.46    0.24
  -8  20   2    1.36    0.25
  -8  20   2    1.40    0.24
  -8  20   2    1.25    0.25
  -7 -20   2   13.77    0.96
  -7 -20   2   13.84    0.98
  -7 -20   2   13.74    1.04
  -7  20   2   12.65    0.99
  -7  20   2   12.53    0.89
  -7  20   2   12.82    0.96
  -7  20   2   13.39    0.95
   7  20  -2   12.50    0.94
  -6 -20   2    4.42    0.45
  -6 -20   2    4.49    0.46
  -6 -20   2    4.43    0.41
  -6 -20   2    4.71    0.47
  -6  20   2    3.62    0.43
   6  20  -2    3.83    0.41
  -6  20   2    4.02    0.43
  -6  20   2    3.98    0.43
  -6  20   2    3.32    0.39
  -5 -20   2    0.72    0.23
  -5 -20   2    0.94    0.26
   5 -20  -2    0.86    0.21
  -5 -20   2    0.93    0.25
  -5  20   2    0.12    0.20
  -5  20   2    0.41    0.22
  -5  20   2    0.44    0.21
  -5  20   2    0.61    0.21
   5  20  -2    0.51    0.18
  -4 -20   2    2.92    0.41
  -4 -20   2    3.26    0.37
  -4 -20   2    3.61    0.43
   4 -20  -2    3.24    0.37
   4  20  -2    2.43    0.36
  -4  20   2    2.65    0.41
   4  20  -2    2.69    0.31
  -4  20   2    2.59    0.35
  -4  20   2    2.27    0.38
  -3 -20   2    3.88    0.50
   3 -20  -2    3.30    0.40
  -3 -20   2    3.33    0.43
  -3 -20   2    3.72    0.41
  -3 -20   2    3.21    0.45
   3  20  -2    4.40    0.40
   3  20  -2    4.64    0.35
  -3  20   2    4.05    0.43
  -3  20   2    4.21    0.47
  -3  20   2    4.29    0.39
  -3  20   2    4.03    0.43
  -2 -20   2    8.14    0.72
   2 -20  -2    8.10    0.62
  -2 -20   2    7.61    0.63
  -2 -20   2    8.15    0.64
   2  20  -2    7.58    0.55
  -2  20   2    7.16    0.62
   2  20  -2    7.59    0.60
  -2  20   2    7.54    0.57
  -2  20   2    7.30    0.63
  -1 -20   2    1.11    0.21
   1 -20  -2    1.01    0.21
  -1 -20   2    0.99    0.21
  -1  20   2    1.63    0.32
  -1  20   2    1.46    0.22
   1  20  -2    1.76    0.28
  -1  20   2    1.54    0.27
   0 -20   2    0.02    0.18
   0 -20  -2    0.07    0.18
   0  20   2    0.33    0.20
   0  20   2    0.57    0.18
   0  20  -2    0.39    0.15
   0  20   2    0.43    0.17
   0  20  -2    0.40    0.17
   1  20   2    2.41    0.34
  -1  20  -2    2.23    0.34
  -1  20  -2    2.80    0.28
   1  20   2    2.56    0.33
  -1  20  -2    2.56    0.36
   2 -20   2    4.60    0.49
  -2 -20  -2    4.85    0.51
  -2  20  -2    6.67    0.45
  -2  20  -2    6.40    0.53
  -2  20  -2    6.30    0.52
   2  20   2    6.21    0.52
   3 -20   2   17.05    1.34
  -3 -20  -2   16.48    1.32
  -3 -20  -2   18.03    1.30
   3 -20   2   18.13    1.30
  -3 -20  -2   17.18    1.34
   3  20   2   18.96    1.28
  -3  20  -2   18.85    1.31
  -3  20  -2   19.54    1.20
  -3  20  -2   19.52    1.30
  -4 -20  -2    7.31    0.63
  -4 -20  -2    7.38    0.62
   4 -20   2    7.06    0.65
  -4 -20  -2    7.28    0.65
  -4  20  -2    7.97    0.56
   4  20   2    7.81    0.59
  -4  20  -2    7.36    0.62
  -4  20  -2    8.06    0.63
  -4  20  -2    7.01    0.61
  -5 -20  -2    0.63    0.21
  -5 -20  -2    0.43    0.25
  -5  20  -2    0.76    0.22
  -5  20  -2    0.37    0.20
  -5  20  -2    0.46    0.18
  -5  20  -2    0.57    0.27
   5  20   2    0.43    0.18
  -5  20  -2    0.43    0.19
  -6 -20  -2    2.68    0.35
  -6 -20  -2    2.02    0.41
  -6 -20  -2    2.45    0.38
  -6 -20  -2    2.35    0.35
  -6  20  -2    2.46    0.35
   6  20   2    2.82    0.33
  -6  20  -2    2.55    0.36
  -6  20  -2    2.64    0.34
  -6  20  -2    2.52    0.35
  -7 -20  -2    0.47    0.18
  -7 -20  -2    0.68    0.23
  -7 -20  -2    0.68    0.19
  -7 -20  -2    0.31    0.17
  -7  20  -2    0.48    0.17
  -7  20  -2    0.69    0.18
   7  20   2    0.61    0.17
  -7  20  -2    0.55    0.18
  -8 -20  -2    0.66    0.16
  -8 -20  -2    0.46    0.14
  -8 -20  -2    0.54    0.16
   8 -20   2    0.56    0.14
  -8  20  -2    0.28    0.15
   8  20   2    0.39    0.15
  -8  20  -2    0.41    0.15
  -8  20  -2    0.49    0.15
  -8 -21   2    0.99    0.17
  -8 -21   2    0.84    0.15
   8  21  -2    0.69    0.14
  -8  21   2    0.60    0.15
  -8  21   2    0.53    0.15
  -8  21   2    0.57    0.15
  -7  21   2    1.00    0.18
  -7  21   2    1.08    0.18
  -7  21   2    1.22    0.27
  -7  21   2    1.13    0.24
   7  21  -2    1.19    0.26
  -6 -21   2    0.59    0.23
  -6 -21   2    0.84    0.19
  -6 -21   2    1.01    0.21
   6  21  -2    0.78    0.18
  -6  21   2    0.70    0.20
  -6  21   2    0.50    0.19
  -6  21   2    0.68    0.20
  -6  21   2    0.56    0.19
  -5 -21   2    4.69    0.42
   5 -21  -2    4.51    0.42
  -5 -21   2    4.37    0.47
  -5  21   2    3.86    0.45
   5  21  -2    3.48    0.39
  -5  21   2    3.49    0.39
  -5  21   2    3.13    0.43
  -5  21   2    3.25    0.42
  -4 -21   2   13.09    0.93
  -4 -21   2   12.96    0.94
   4 -21  -2   12.82    0.91
  -4  21   2   12.08    0.91
   4  21  -2   11.11    0.82
   4  21  -2   11.96    0.88
  -4  21   2   12.24    0.85
  -4  21   2   10.98    0.92
  -3 -21   2    1.77    0.37
  -3 -21   2    1.56    0.30
   3 -21  -2    1.51    0.24
  -3 -21   2    1.46    0.32
  -3  21   2    2.33    0.31
  -3  21   2    1.88    0.37
  -3  21   2    2.05    0.37
  -2 -21   2    1.46    0.32
  -2 -21   2    1.64    0.34
   2 -21  -2    1.55    0.32
  -2 -21   2    1.60    0.33
   2  21  -2    1.74    0.30
  -2  21   2    1.70    0.24
   2  21  -2    1.78    0.26
  -2  21   2    1.28    0.22
  -2  21   2    1.14    0.23
   2  21  -2    1.57    0.32
  -1 -21   2    5.03    0.52
   1 -21  -2    5.58    0.52
  -1 -21   2    5.23    0.52
   1  21  -2    6.33    0.45
  -1  21   2    5.81    0.47
   1  21  -2    6.31    0.50
  -1  21   2    6.18    0.53
  -1  21   2    6.11    0.51
   0  21   2   -0.07    0.20
   0  21  -2   -0.05    0.17
   0  21   2    0.19    0.17
   0  21   2   -0.07    0.18
   0  21  -2    0.32    0.15
   1 -21   2    1.23    0.21
  -1 -21  -2    1.27    0.23
   1 -21   2    1.13    0.20
   1  21   2    0.69    0.21
   1  21   2    0.97    0.21
  -1  21  -2    1.30    0.26
   2 -21   2    0.36    0.18
   2 -21   2    0.17    0.19
  -2 -21  -2    0.27    0.20
  -2 -21  -2    0.30    0.22
  -2  21  -2    0.40    0.20
   2  21   2    0.23    0.20
  -2  21  -2    0.41    0.21
   2  21   2    0.26    0.18
  -2  21  -2    0.49    0.17
   3 -21   2    0.15    0.20
  -3 -21  -2    0.28    0.19
   3 -21   2    0.19    0.18
  -3 -21  -2   -0.13    0.24
  -3 -21  -2    0.39    0.20
  -3  21  -2    0.26    0.20
   3  21   2    0.03    0.22
  -3  21  -2    0.20    0.20
   3  21   2    0.35    0.17
  -3  21  -2    0.16    0.17
  -4 -21  -2    4.90    0.53
  -4 -21  -2    5.38    0.53
   4 -21   2    5.08    0.51
  -4 -21  -2    4.57    0.57
  -4  21  -2    6.80    0.54
  -4  21  -2    7.02    0.55
  -4  21  -2    6.26    0.52
  -4  21  -2    6.93    0.48
   5  21   2    2.87    0.34
  -5  21  -2    2.81    0.34
  -5  21  -2    2.60    0.43
  -5  21  -2    2.11    0.37
  -5  21  -2    2.93    0.35
  -5  21  -2    2.72    0.41
  -6 -21  -2    1.55    0.37
  -6  21  -2    1.95    0.33
  -6  21  -2    2.37    0.32
  -6  21  -2    1.99    0.33
   6  21   2    2.54    0.31
  -6  21  -2    2.76    0.35
  -7 -21  -2    5.15    0.48
  -7 -21  -2    5.06    0.45
  -7 -21  -2    5.11    0.45
   7 -21   2    5.05    0.42
  -8  21  -2    1.99    0.25
  -8  21  -2    2.23    0.25
  -8  21  -2    1.61    0.25
   8  21   2    2.21    0.23
  -8  22   2    1.41    0.21
  -8  22   2    1.82    0.23
   8  22  -2    1.60    0.19
  -7 -22   2    6.19    0.51
  -7 -22   2    6.36    0.52
  -7 -22   2    6.91    0.54
   7  22  -2    5.78    0.49
  -7  22   2    6.32    0.51
  -7  22   2    6.20    0.51
  -7  22   2    6.10    0.50
   7  22  -2    6.26    0.49
  -6 -22   2    5.23    0.45
  -6 -22   2    4.73    0.48
   6  22  -2    4.96    0.42
  -6  22   2    4.79    0.45
  -6  22   2    4.79    0.41
  -6  22   2    4.97    0.45
  -6  22   2    5.22    0.47
  -5 -22   2    0.33    0.18
  -5 -22   2    0.21    0.23
   5 -22  -2    0.38    0.19
  -5  22   2    0.20    0.20
   5  22  -2    0.30    0.17
  -5  22   2    0.23    0.19
  -5  22   2    0.56    0.23
  -5  22   2    0.14    0.20
  -4 -22   2    5.10    0.51
  -4  22   2    3.98    0.45
  -4  22   2    3.89    0.40
  -4  22   2    3.81    0.47
   4  22  -2    4.31    0.41
   4  22  -2    3.68    0.38
  -3 -22   2    1.25    0.22
  -3 -22   2    0.97    0.24
   3 -22  -2    0.93    0.21
  -3 -22   2    1.04    0.29
  -3  22   2    0.98    0.22
  -3  22   2    1.10    0.23
   3  22  -2    1.12    0.20
  -3  22   2    1.18    0.24
   3  22  -2    1.06    0.18
   3  22  -2    1.15    0.20
   2 -22  -2    2.76    0.38
  -2 -22   2    2.64    0.39
  -2 -22   2    2.88    0.38
  -2  22   2    3.38    0.40
   2  22  -2    3.22    0.37
   2  22  -2    3.47    0.38
  -2  22   2    3.11    0.35
   2  22  -2    3.24    0.32
  -2  22   2    3.21    0.40
   1 -22  -2    4.02    0.39
  -1 -22   2    3.64    0.37
  -1 -22   2    3.76    0.39
   1  22  -2    3.01    0.37
  -1  22   2    2.86    0.35
  -1  22   2    2.76    0.38
   1  22  -2    3.28    0.33
  -1  22   2    3.13    0.40
   0 -22  -2    3.31    0.39
   0 -22   2    2.87    0.36
   0 -22   2    2.65    0.37
   0  22   2    2.73    0.37
   0  22   2    2.85    0.34
   0  22  -2    3.12    0.30
   0  22   2    2.54    0.36
   0  22  -2    2.57    0.37
  -1 -22  -2    7.30    0.63
   1 -22   2    6.94    0.62
   1 -22   2    6.62    0.63
  -1  22  -2    8.21    0.62
   1  22   2    7.74    0.63
  -1  22  -2    8.36    0.56
   1  22   2    8.33    0.62
  -2  22  -2    3.08    0.44
  -2  22  -2    3.85    0.36
  -2  22  -2    3.86    0.42
   2  22   2    3.47    0.41
   2  22   2    3.68    0.39
   3 -22   2   12.33    0.98
  -3 -22  -2   12.96    0.98
   3 -22   2   12.35    0.94
  -3 -22  -2   12.63    0.96
   3  22   2   13.11    0.94
  -3  22  -2   13.42    0.97
  -3  22  -2   13.49    0.88
   3  22   2   12.24    0.95
  -3  22  -2   13.36    0.95
  -4 -22  -2   15.43    1.13
  -4 -22  -2   14.92    1.16
   4 -22   2   15.21    1.12
   4  22   2   15.56    1.11
  -4  22  -2   16.31    1.14
  -4  22  -2   15.28    1.16
  -4  22  -2   16.21    1.04
  -4  22  -2   15.36    1.12
   5 -22   2    0.75    0.19
  -5 -22  -2    0.92    0.21
  -5 -22  -2    0.95    0.20
  -5 -22  -2    0.67    0.25
  -5  22  -2    0.70    0.21
  -5  22  -2    0.80    0.20
   5  22   2    1.20    0.20
  -5  22  -2    0.96    0.20
  -5  22  -2    0.98    0.23
   6 -22   2    0.21    0.16
  -6  22  -2    0.62    0.19
  -6  22  -2    0.53    0.19
  -6  22  -2    0.49    0.18
   6  22   2    0.54    0.16
  -6  22  -2    0.62    0.17
   7 -22   2    0.14    0.13
  -7 -22  -2    0.40    0.18
  -7 -22  -2    0.00    0.16
  -7 -22  -2    0.07    0.15
  -7  22  -2    0.04    0.14
   7  22   2    0.28    0.14
  -7  22  -2    0.14    0.15
  -7  22  -2    0.42    0.16
  -7 -23   2    0.28    0.14
  -7 -23   2    0.39    0.16
   7  23  -2    0.62    0.15
  -7  23   2    0.63    0.15
  -7  23   2    0.64    0.15
   7  23  -2    0.47    0.13
  -7  23   2    0.31    0.14
  -6 -23   2    0.32    0.16
  -6 -23   2    0.27    0.19
  -6  23   2    0.10    0.17
   6  23  -2    0.20    0.14
  -6  23   2    0.24    0.17
  -6  23   2    0.65    0.19
   6  23  -2    0.28    0.15
  -6  23   2    0.49    0.17
   5  23  -2    1.82    0.27
  -5  23   2    1.72    0.29
  -5  23   2    1.51    0.30
   5  23  -2    2.08    0.28
  -5  23   2    2.14    0.33
   4 -23  -2    5.30    0.46
  -4 -23   2    5.26    0.48
  -4 -23   2    4.63    0.52
   4  23  -2    5.57    0.45
   4  23  -2    4.36    0.43
  -4  23   2    5.02    0.45
   4  23  -2    5.15    0.44
  -4  23   2    5.06    0.48
  -3 -23   2    6.29    0.62
   3 -23  -2    6.83    0.54
  -3 -23   2    6.50    0.55
  -3 -23   2    6.04    0.56
  -3  23   2    6.16    0.56
  -3  23   2    5.96    0.51
   3  23  -2    5.92    0.52
   3  23  -2    6.66    0.53
   3  23  -2    5.88    0.48
  -2 -23   2    2.81    0.39
  -2 -23   2    2.97    0.37
  -2 -23   2    2.35    0.51
   2 -23  -2    3.11    0.38
   2  23  -2    2.67    0.37
  -2  23   2    2.78    0.38
  -2  23   2    2.69    0.35
   2  23  -2    3.15    0.38
   2  23  -2    3.13    0.31
  -2  23   2    2.73    0.38
   1  23  -2    0.69    0.17
  -1  23   2    0.40    0.20
  -1  23   2    0.43    0.20
  -1  23   2    0.54    0.22
   1  23  -2    0.49    0.19
   0 -23   2    2.24    0.37
   0 -23  -2    2.62    0.39
   0  23  -2    3.21    0.38
   0  23   2    3.65    0.39
   0  23  -2    3.43    0.33
   0  23   2    3.13    0.36
   0  23   2    3.00    0.36
   1 -23   2    6.63    0.53
   1 -23   2    6.09    0.53
  -1 -23  -2    6.10    0.53
   1  23   2    5.99    0.54
  -1  23  -2    6.02    0.53
   1  23   2    5.50    0.52
  -1  23  -2    6.36    0.48
  -2 -23  -2    1.01    0.23
   2 -23   2    1.03    0.21
  -2 -23  -2    1.19    0.23
   2 -23   2    1.00    0.20
   2  23   2    0.64    0.22
   2  23   2    0.67    0.20
  -2  23  -2    0.52    0.18
  -2  23  -2    0.68    0.21
   3 -23   2    3.44    0.39
  -3 -23  -2    3.16    0.42
   3 -23   2    3.15    0.42
  -3 -23  -2    3.42    0.42
  -3  23  -2    3.82    0.44
  -3  23  -2    4.23    0.42
  -3  23  -2    4.34    0.37
   3  23   2    3.98    0.43
   3  23   2    4.27    0.39
  -4 -23  -2    0.63    0.20
  -4 -23  -2    0.76    0.20
  -4  23  -2    0.43    0.20
  -4  23  -2    0.27    0.20
   4  23   2    0.37    0.18
  -4  23  -2    0.27    0.19
  -5  23  -2    2.02    0.34
  -5  23  -2    2.52    0.33
   5  23   2    2.19    0.30
  -5  23  -2    2.21    0.30
  -5  23  -2    2.71    0.36
  -6  23  -2    3.59    0.36
  -6  23  -2    3.75    0.37
   6  23   2    4.22    0.35
  -7  23  -2    1.55    0.23
   7  23   2    1.19    0.21
  -7  23  -2    1.14    0.22
  -7  23  -2    1.39    0.25
  -7  24   2    0.36    0.10
  -6 -24   2    5.84    0.43
  -6 -24   2    5.95    0.46
   6  24  -2    5.00    0.41
   6  24  -2    4.81    0.41
  -6  24   2    4.67    0.43
  -6  24   2    4.48    0.42
  -5 -24   2    0.80    0.21
  -5 -24   2    0.83    0.17
   5 -24  -2    0.81    0.19
  -5  24   2    0.72    0.18
  -5  24   2    0.63    0.18
  -5  24   2    0.83    0.20
   5  24  -2    0.87    0.15
   5  24  -2    0.93    0.17
   4 -24  -2    1.34    0.29
  -4 -24   2    1.52    0.27
  -4 -24   2    1.46    0.29
  -4  24   2    1.35    0.22
   4  24  -2    1.45    0.29
  -4  24   2    1.23    0.22
   4  24  -2    1.53    0.26
  -3 -24   2    0.33    0.21
  -3 -24   2    0.16    0.18
   3 -24  -2    0.22    0.18
  -3 -24   2    0.10    0.26
   3  24  -2    0.34    0.18
  -3  24   2    0.31    0.20
   3  24  -2    0.24    0.17
  -3  24   2    0.16    0.20
   3  24  -2    0.56    0.17
  -2 -24   2    2.77    0.38
   2 -24  -2    2.74    0.39
   2  24  -2    3.75    0.38
   2  24  -2    3.64    0.33
  -2  24   2    3.64    0.37
   2  24  -2    3.63    0.39
  -2  24   2    3.36    0.40
  -2  24   2    3.87    0.40
  -1 -24   2    0.84    0.20
  -1 -24   2    0.65    0.20
   1 -24  -2    0.77    0.21
  -1  24   2    1.05    0.20
   1  24  -2    1.11    0.21
  -1  24   2    0.87    0.22
  -1  24   2    0.62    0.21
   1  24  -2    0.87    0.18
   0 -24   2    9.50    0.83
   0 -24  -2   10.18    0.82
   0 -24   2    9.67    0.81
   0  24  -2   11.72    0.75
   0  24  -2   11.86    0.81
   0  24   2   10.67    0.77
   0  24   2   11.11    0.81
   0  24   2   11.91    0.83
   1 -24   2    0.07    0.19
   1 -24   2    0.41    0.19
  -1  24  -2    0.93    0.18
   1  24   2    0.57    0.19
  -1  24  -2    0.48    0.20
   1  24   2    0.72    0.21
   2 -24   2   16.19    1.06
   2 -24   2   16.35    1.09
  -2 -24  -2   15.91    1.06
   2  24   2   13.46    1.05
   2  24   2   13.13    1.05
  -2  24  -2   13.28    0.98
  -2  24  -2   13.56    1.05
  -3 -24  -2    1.66    0.33
   3 -24   2    1.71    0.34
  -3 -24  -2    1.81    0.34
   3 -24   2    1.78    0.31
  -3  24  -2    2.14    0.33
   3  24   2    2.01    0.36
  -3  24  -2    2.18    0.29
   3  24   2    2.05    0.30
  -4 -24  -2   10.04    0.74
  -4 -24  -2    9.26    0.73
   4 -24   2    9.94    0.72
   4  24   2    9.29    0.71
  -4  24  -2    9.11    0.67
  -4  24  -2    9.19    0.72
  -5 -24  -2    0.28    0.18
   5  24   2    0.66    0.16
  -5  24  -2    0.52    0.18
  -5  24  -2    0.87    0.21
  -5  24  -2    0.58    0.18
  -5  24  -2    0.59    0.18
  -6 -24  -2    1.32    0.24
   6 -24   2    1.52    0.22
  -6 -24  -2    1.21    0.24
  -6 -25   2    1.79    0.26
  -6 -25   2    1.41    0.23
  -6  25   2    1.08    0.25
  -5 -25   2    0.13    0.14
  -5 -25   2    0.13    0.18
   5 -25  -2    0.08    0.16
   5  25  -2    0.07    0.12
  -5  25   2    0.08    0.16
   5  25  -2    0.36    0.14
  -4 -25   2    3.12    0.37
  -4 -25   2    3.78    0.42
   4 -25  -2    3.37    0.37
   4  25  -2    3.84    0.35
  -4  25   2    4.14    0.35
  -4  25   2    4.31    0.38
   3 -25  -2   -0.12    0.17
  -3 -25   2    0.13    0.19
  -3 -25   2    0.10    0.17
   3  25  -2    0.05    0.17
   3  25  -2   -0.02    0.16
  -3  25   2   -0.12    0.18
   3  25  -2    0.00    0.15
  -3  25   2    0.15    0.19
   2 -25  -2    9.72    0.82
  -2 -25   2    9.09    0.82
   2  25  -2   11.46    0.75
  -2  25   2   11.60    0.82
  -2  25   2   11.86    0.77
  -2  25   2   10.88    0.82
   2  25  -2   10.65    0.81
   2  25  -2   12.52    0.81
   1 -25  -2    0.52    0.19
  -1 -25   2    0.58    0.19
  -1 -25   2    0.47    0.19
   1  25  -2    0.49    0.17
   1  25  -2    0.62    0.20
  -1  25   2    0.56    0.19
  -1  25   2    0.76    0.22
  -1  25   2    0.62    0.20
   0 -25  -2    6.22    0.52
   0 -25   2    6.27    0.50
   0 -25   2    6.12    0.51
   0  25   2    5.24    0.51
   0  25  -2    5.55    0.50
   0  25   2    5.19    0.50
   0  25  -2    5.48    0.45
  -1 -25  -2    4.49    0.43
   1 -25   2    4.13    0.39
   1 -25   2    4.46    0.41
  -1  25  -2    3.65    0.36
  -1  25  -2    3.77    0.42
   1  25   2    3.75    0.42
   1  25   2    3.42    0.40
  -2 -25  -2    3.29    0.38
   2 -25   2    3.25    0.40
   2 -25   2    3.60    0.36
  -2  25  -2    3.53    0.39
  -2  25  -2    3.80    0.34
   2  25   2    3.46    0.40
   2  25   2    3.65    0.38
   3 -25   2    0.29    0.16
  -3 -25  -2    0.22    0.18
  -3 -25  -2    0.05    0.18
  -3  25  -2    0.01    0.17
   3  25   2    0.32    0.16
   3  25   2    0.16    0.20
  -3  25  -2    0.20    0.17
  -4 -25  -2    0.62    0.17
  -4 -25  -2    0.44    0.17
   4 -25   2    0.56    0.16
  -4  25  -2    0.21    0.17
  -4  25  -2    0.47    0.18
   4  25   2    0.18    0.16
  -5 -25  -2    0.33    0.15
  -5 -25  -2    0.23    0.16
   5 -25   2    0.52    0.14
   5  25   2    0.42    0.14
  -5  25  -2    0.68    0.20
   6 -25   2    1.27    0.19
  -6 -25  -2    0.96    0.21
  -6 -25  -2    0.86    0.16
   5 -26  -2    0.76    0.16
  -5 -26   2    0.99    0.21
  -5  26   2    0.80    0.16
   5  26  -2    0.71    0.14
   5  26  -2    0.77    0.17
  -4 -26   2    0.36    0.15
   4 -26  -2    0.52    0.16
  -4  26   2    0.67    0.17
   4  26  -2    0.64    0.14
   4  26  -2    0.71    0.15
  -3 -26   2    0.20    0.18
   3 -26  -2    0.23    0.16
  -3 -26   2    0.06    0.16
   3  26  -2    0.34    0.15
  -3  26   2    0.13    0.17
   3  26  -2    0.19    0.15
  -3  26   2    0.03    0.20
  -2 -26   2    1.03    0.20
   2 -26  -2    0.85    0.19
  -2 -26   2    0.95    0.18
  -2  26   2    0.94    0.21
  -2  26   2    0.61    0.19
  -2  26   2    0.81    0.19
   2  26  -2    0.79    0.19
   2  26  -2    0.83    0.18
   2  26  -2    0.50    0.17
  -1 -26   2    0.18    0.17
   1 -26  -2    0.01    0.18
  -1 -26   2    0.08    0.17
  -1  26   2    0.18    0.17
   1  26  -2    0.08    0.15
  -1  26   2   -0.03    0.18
   1  26  -2    0.03    0.17
  -1  26   2    0.22    0.22
   0 -26   2    4.82    0.41
   0 -26  -2    4.56    0.43
   0 -26   2    4.63    0.41
   0  26  -2    4.47    0.43
   0  26   2    3.67    0.42
   0  26  -2    4.16    0.37
   0  26   2    3.79    0.41
   1 -26   2    2.51    0.33
  -1 -26  -2    2.46    0.32
   1 -26   2    2.38    0.33
  -1  26  -2    2.84    0.29
   1  26   2    2.83    0.34
  -1  26  -2    2.49    0.35
   1  26   2    2.77    0.33
   2 -26   2    8.65    0.64
   2 -26   2    8.80    0.67
  -2 -26  -2    9.08    0.66
   2  26   2    7.98    0.65
  -2  26  -2    7.99    0.64
  -2  26  -2    7.64    0.59
   2  26   2    8.58    0.63
   3 -26   2    2.10    0.26
  -3 -26  -2    2.12    0.30
  -3 -26  -2    2.42    0.30
  -3  26  -2    1.60    0.29
  -3  26  -2    1.36    0.26
   3  26   2    1.59    0.29
  -4 -26  -2    3.19    0.33
   4 -26   2    2.84    0.29
  -4 -26  -2    3.20    0.31
  -4  26  -2    2.15    0.32
   5 -26   2    0.19    0.12
  -5 -26  -2    0.10    0.14
  -5 -26  -2    0.30    0.14
   5  26   2    0.12    0.13
  -4 -27   2    2.68    0.29
   4 -27  -2    2.52    0.29
  -4  27   2    3.06    0.29
   4  27  -2    2.98    0.27
   4  27  -2    3.43    0.28
  -3 -27   2    0.77    0.18
  -3 -27   2    0.69    0.16
   3 -27  -2    0.61    0.15
   3  27  -2    0.49    0.14
  -3  27   2    0.21    0.16
   3  27  -2    0.46    0.14
  -2 -27   2    2.56    0.28
  -2 -27   2    2.11    0.29
   2 -27  -2    2.56    0.28
  -2  27   2    1.57    0.30
   2  27  -2    1.58    0.27
   1 -27  -2    0.07    0.17
  -1 -27   2    0.12    0.15
  -1 -27   2    0.00    0.16
  -1  27   2    0.55    0.17
   1  27  -2    0.55    0.16
  -1  27   2    0.59    0.17
   0 -27   2    4.74    0.42
   0 -27   2    4.49    0.42
   0 -27  -2    4.89    0.43
   0  27   2    5.08    0.42
   0  27   2    5.12    0.44
   0  27  -2    5.25    0.44
   0  27  -2    4.49    0.39
   1 -27   2    0.14    0.16
  -1 -27  -2   -0.02    0.17
   1 -27   2    0.11    0.16
  -1  27  -2   -0.08    0.16
   1  27   2    0.14    0.15
  -1  27  -2   -0.01    0.15
   1  27   2    0.04    0.17
  -2 -27  -2    0.42    0.17
   2 -27   2    0.31    0.15
   2 -27   2    0.38    0.18
  -2  27  -2    0.54    0.16
   2  27   2    0.61    0.18
   2  27   2    0.49    0.15
   3 -27   2    0.25    0.14
  -3 -27  -2    0.15    0.15
  -3  27  -2    0.49    0.15
   3  27   2    0.51    0.14
  -4 -27  -2    2.44    0.29
  -4 -27  -2    2.49    0.27
   4 -27   2    2.49    0.25
   4  27   2    1.90    0.25
  -4  27  -2    2.10    0.27
  -3 -28   2    0.02    0.13
   3 -28  -2   -0.09    0.12
   3  28  -2    0.37    0.12
  -3  28   2    0.14    0.13
   2 -28  -2    0.13    0.14
  -2 -28   2    0.21    0.13
  -2 -28   2    0.41    0.15
  -2  28   2    0.03    0.14
   2  28  -2    0.12    0.13
   1 -28  -2    0.03    0.15
  -1 -28   2    0.21    0.15
  -1 -28   2    0.27    0.15
  -1  28   2    0.51    0.15
   1  28  -2    0.33    0.14
  -1  28   2    0.45    0.15
   0 -28  -2    1.77    0.25
   0 -28   2    1.75    0.25
   0 -28   2    1.57    0.24
   0  28   2    1.39    0.23
   0  28  -2    1.04    0.18
   0  28   2    1.20    0.25
  -1 -28  -2    3.21    0.31
   1 -28   2    2.97    0.32
   1 -28   2    3.01    0.30
   1  28   2    3.25    0.30
  -1  28  -2    2.83    0.30
   1  28   2    3.15    0.31
   2 -28   2    2.40    0.27
  -2 -28  -2    2.26    0.29
  -2  28  -2    2.71    0.28
   2  28   2    3.11    0.31
   2  28   2    3.08    0.28
   3 -28   2    1.17    0.20
  -3 -28  -2    1.42    0.21
   3  28   2    0.99    0.20
  -3  28  -2    1.04    0.21
  -2  29   2    0.13    0.13
   2  29  -2    0.06    0.11
   1 -29  -2    1.00    0.20
  -1 -29   2    1.09    0.20
  -1 -29   2    0.96    0.20
   0 -29  -2    0.96    0.20
   0 -29   2    0.90    0.19
   0 -29   2    0.80    0.15
   0  29  -2    0.69    0.14
   0  29   2    0.73    0.15
   0  29   2    1.11    0.21
   1 -29   2    0.44    0.13
  -1 -29  -2    0.35    0.14
   1  29   2    0.27    0.12
   1  29   2    0.50    0.14
  -9   0   3    0.65    0.20
  -9   0   3    0.64    0.16
  -9   0   3    0.60    0.19
  -8   0   3    3.66    0.30
  -8   0   3    3.28    0.37
  -8   0   3    3.04    0.37
  -7   0   3    0.76    0.54
  -7   0   3    0.41    0.11
  -7   0   3    0.50    0.51
  -6   0   3    8.61    0.84
  -6   0   3    8.27    0.78
  -6   0   3    8.17    0.55
  -5   0   3    1.79    0.36
  -5   0   3    1.70    0.15
  -5   0   3    1.78    0.39
  -4   0   3    5.62    0.40
  -4   0   3    6.73    0.49
  -4   0   3    5.90    0.54
  -4   0   3    6.25    0.53
  -3   0   3    4.07    0.39
  -3   0   3    4.80    0.36
  -3   0   3    4.70    0.41
  -2   0   3  225.60   14.18
  -2   0   3  204.61   14.81
  -2   0   3  203.61   14.02
  -1   0   3  116.09    7.93
  -1   0   3  120.08    8.37
  -1   0   3  121.20    8.02
   0   0   3  353.03   22.34
   0   0   3  317.50   23.33
   0   0   3  329.44   22.12
   1   0   3    0.25    0.11
   2   0   3   23.48    1.75
   2   0   3   24.37    1.66
   2   0   3   24.77    1.68
   3   0   3   26.15    1.85
   3   0   3   24.76    1.75
   3   0   3   25.54    1.79
   4   0   3   18.22    1.40
   4   0   3   18.98    1.43
   4   0   3   19.71    1.36
   5   0   3    1.29    0.36
   5   0   3    1.99    0.44
   6   0   3    1.12    0.53
   6   0   3    0.80    0.47
   7   0   3    0.23    0.74
  -8   0  -3   12.21    0.89
  -8   0  -3   12.31    0.91
  -9   0  -3    0.16    0.16
  -9   0  -3    0.18    0.15
 -10   0  -3    2.26    0.29
 -10   0  -3    2.25    0.29
 -11   0  -3   -0.07    0.14
 -11   0  -3   -0.02    0.14
  -9  -1   3    1.59    0.25
  -9  -1   3    1.43    0.30
  -9  -1   3    1.54    0.33
  -8  -1   3    5.83    0.55
  -8  -1   3    6.47    0.49
  -8  -1   3    7.81    1.34
  -8  -1   3    5.88    0.54
  -8   1   3    7.10    0.55
  -8   1   3    7.63    0.49
  -8   1   3    7.05    0.54
  -7  -1   3    7.61    1.03
  -7  -1   3    6.40    0.90
  -7  -1   3    6.02    0.50
  -7   1   3    9.35    1.03
  -7   1   3    8.26    0.50
  -7   1   3    7.48    0.93
   7   1  -3    5.79    1.08
  -6  -1   3    1.86    0.40
  -6  -1   3    1.63    0.17
  -6  -1   3    1.71    0.43
  -6   1   3    2.62    0.56
  -6   1   3    3.04    0.50
  -5  -1   3    3.44    0.27
  -5  -1   3    3.73    0.46
  -5  -1   3    3.85    0.50
  -5   1   3    4.52    0.46
  -5   1   3    4.57    0.51
  -4  -1   3    3.63    0.26
  -4  -1   3    3.78    0.40
  -4  -1   3    4.11    0.36
  -4  -1   3    3.51    0.42
  -3  -1   3   10.95    0.84
  -3  -1   3   12.05    0.87
  -3  -1   3   11.24    0.81
  -3   1   3   10.57    0.84
  -3   1   3   12.38    0.88
  -3   1   3   11.81    0.79
  -1  -1   3  391.09   28.51
  -1  -1   3  444.58   29.78
  -1  -1   3  430.00   28.24
  -1   1   3  441.53   28.52
  -1   1   3  422.68   29.78
  -1   1   3  423.77   28.22
   0  -1   3  452.64   31.46
   0  -1   3  449.10   29.84
   0   1   3  467.93   29.83
   0   1   3  428.83   31.46
   1  -1   3    5.38    0.43
   1  -1   3    5.86    0.40
   1   1   3    4.58    0.40
   2   1   3    3.30    0.33
   2   1   3    3.79    0.35
   2   1   3    3.21    0.29
   3  -1   3    2.26    0.24
   3  -1   3    2.34    0.28
   3  -1   3    2.48    0.33
  -3  -1  -3    2.23    0.28
   3   1   3    2.44    0.32
   3   1   3    2.09    0.32
   3   1   3    2.02    0.29
   4  -1   3    0.42    0.22
   4  -1   3    0.31    0.26
  -4  -1  -3    0.40    0.21
   4   1   3    0.81    0.25
   4   1   3    0.91    0.25
   4   1   3    0.72    0.30
  -5  -1  -3   13.37    1.07
   5  -1   3   13.23    1.15
   5  -1   3   13.98    1.13
   5   1   3   15.03    1.18
   5   1   3   14.09    1.16
   6   1   3    5.71    0.83
   6   1   3    6.02    0.88
   7  -1   3    2.12    0.81
   7   1   3    2.26    0.75
  -8  -1  -3    1.38    0.27
  -8  -1  -3    1.89    0.29
  -8   1  -3    2.16    0.28
  -8   1  -3    1.94    0.27
  -8   1  -3    2.82    0.44
  -9  -1  -3    1.15    0.24
  -9   1  -3    0.65    0.17
  -9   1  -3    0.66    0.18
 -10  -1  -3   21.60    1.41
 -10  -1  -3   20.46    1.45
 -10   1  -3   19.18    1.41
 -10   1  -3   19.22    1.45
 -11  -1  -3    1.66    0.24
 -11  -1  -3    1.82    0.23
 -11   1  -3    1.20    0.24
 -11   1  -3    1.37    0.24
 -10  -2   3    7.26    0.60
  -9   2   3    0.71    0.16
  -9   2   3    0.51    0.20
  -9   2   3    0.78    0.19
  -8  -2   3    1.83    0.28
  -8  -2   3    1.43    0.29
  -8  -2   3    1.96    0.84
  -8  -2   3    1.88    0.24
  -7  -2   3    1.31    0.56
  -7  -2   3    1.43    0.19
  -7  -2   3    1.49    0.54
   7   2  -3    0.98    0.63
  -7   2   3    1.35    0.58
  -7   2   3    0.65    0.54
  -6  -2   3    6.21    0.73
  -6  -2   3    6.85    0.40
  -6  -2   3    6.11    0.69
  -6   2   3    5.50    0.40
  -6   2   3    4.93    0.65
  -6   2   3    4.45    0.72
  -5  -2   3   10.29    0.63
  -5  -2   3   10.57    0.79
  -5  -2   3   10.25    0.85
  -5   2   3    8.29    0.82
  -5   2   3    8.19    0.78
  -4  -2   3   14.46    1.05
  -4  -2   3   13.63    1.00
  -4  -2   3   13.49    0.96
  -4  -2   3   12.36    0.86
  -3  -2   3    3.45    0.31
  -3  -2   3    3.53    0.33
  -3  -2   3    2.93    0.33
  -2  -2   3   11.90    0.87
  -2  -2   3   12.17    0.89
  -2  -2   3   12.10    0.92
  -2   2   3   13.26    0.93
  -2   2   3   12.69    0.89
  -1  -2   3   54.53    3.45
  -1  -2   3   49.23    3.47
  -1  -2   3   53.61    3.63
  -1   2   3   51.19    3.42
  -1   2   3   48.99    3.48
  -1   2   3   50.92    3.64
   0  -2   3   29.74    1.76
   0   2   3   21.79    1.75
   0   2   3   21.91    1.65
   1  -2   3    4.35    0.42
   1  -2   3    4.85    0.42
   1  -2   3    5.63    0.38
  -1  -2  -3    4.54    0.39
   1   2   3    5.50    0.44
   1   2   3    5.88    0.42
   2  -2   3    6.84    0.57
   2  -2   3    7.40    0.52
  -2  -2  -3    7.40    0.55
   2  -2   3    7.40    0.59
   3  -2   3    9.32    0.75
   3  -2   3    9.39    0.66
  -3  -2  -3    9.18    0.70
   3  -2   3    9.40    0.73
   3   2   3    9.20    0.73
   3   2   3    9.08    0.72
   3   2   3    9.34    0.76
  -5  -2  -3    1.38    0.32
   5  -2   3    1.26    0.42
   5   2   3    1.88    0.41
   5   2   3    1.49    0.45
   5   2   3    1.94    0.46
   6  -2   3    9.53    1.05
  -6  -2  -3   10.21    0.90
   6   2   3    9.53    1.06
   6   2   3    9.00    1.02
   7  -2   3   -0.24    0.77
   7   2   3    1.10    0.79
   7   2   3    0.19    0.70
  -8  -2  -3    1.92    0.28
  -8  -2  -3    2.21    0.29
  -8  -2  -3    2.25    0.38
  -8   2  -3    2.09    0.29
  -8   2  -3    2.32    0.40
  -8   2  -3    1.97    0.29
  -9  -2  -3    4.11    0.38
  -9  -2  -3    3.92    0.37
  -9   2  -3    4.16    0.47
  -9   2  -3    3.27    0.37
  -9   2  -3    3.35    0.37
 -10   2  -3    1.48    0.25
 -10   2  -3    1.41    0.26
 -11  -2  -3    0.77    0.15
 -11  -2  -3    0.66    0.16
 -11   2  -3    0.60    0.15
 -11   2  -3    0.63    0.17
 -10  -3   3    3.57    0.42
  -9  -3   3    9.81    0.73
  -9  -3   3    8.85    0.72
  -9   3   3    9.41    0.72
  -9   3   3    9.85    0.67
  -8  -3   3    1.04    0.82
  -8   3   3    2.74    0.27
  -8   3   3    2.74    0.32
  -8   3   3    2.14    0.34
  -8   3   3    3.06    0.35
  -7  -3   3    2.41    0.24
  -7  -3   3    1.88    0.60
  -7  -3   3    2.09    0.61
  -7   3   3    2.77    0.63
   7   3  -3    3.35    0.69
  -7   3   3    3.11    0.25
  -6  -3   3    3.41    0.65
  -6  -3   3    3.87    0.31
  -6  -3   3    3.58    0.60
  -6   3   3    4.93    0.31
  -5  -3   3    9.87    0.85
  -5  -3   3    9.70    0.78
  -5  -3   3    9.43    0.80
  -5  -3   3    9.35    0.62
  -5   3   3    9.57    0.79
  -5   3   3    9.48    0.63
  -5   3   3    9.40    0.83
  -4  -3   3    4.02    0.32
  -4  -3   3    4.51    0.46
  -4  -3   3    4.52    0.48
  -4   3   3    5.42    0.46
  -4   3   3    5.68    0.48
  -3  -3   3    6.72    0.52
  -3  -3   3    6.28    0.50
  -3  -3   3    6.33    0.55
  -2  -3   3   12.11    0.88
  -2  -3   3   11.66    0.83
  -2  -3   3   11.48    0.84
  -2   3   3   12.16    0.86
  -2   3   3   11.44    0.88
  -1  -3   3   92.20    5.98
  -1  -3   3   92.71    6.03
  -1  -3   3   92.16    6.29
  -1   3   3   90.45    6.30
  -1   3   3   80.16    6.03
   0  -3   3   16.12    1.17
   0  -3   3   16.70    1.11
   0  -3   3   17.19    1.13
   0   3   3   14.39    1.12
  -1  -3  -3    4.87    0.40
   1  -3   3    5.35    0.45
   1  -3   3    5.28    0.43
   1  -3   3    5.32    0.38
   1   3   3    5.64    0.42
   1   3   3    5.19    0.42
   1   3   3    5.26    0.45
  -2  -3  -3    6.35    0.49
   2  -3   3    6.27    0.46
   2  -3   3    7.02    0.55
   2  -3   3    6.47    0.52
   3  -3   3    1.84    0.35
  -3  -3  -3    1.99    0.28
   3  -3   3    1.68    0.29
   3   3   3    1.49    0.31
  -4  -3  -3   27.16    1.85
   4  -3   3   25.67    1.94
   4  -3   3   26.23    1.89
   4   3   3   26.30    1.90
   4   3   3   26.67    1.98
   4   3   3   26.38    1.88
   5  -3   3    0.96    0.44
  -5  -3  -3    0.91    0.29
   5   3   3    1.02    0.46
   5   3   3    1.37    0.41
   5   3   3    1.85    0.43
  -6  -3  -3    3.39    0.56
   6  -3   3    4.04    0.79
   7  -3   3    4.69    0.92
   7   3   3    5.91    1.17
   7   3   3    6.09    1.19
  -8   3  -3    2.18    0.29
  -8   3  -3    1.90    0.29
  -8   3  -3    2.35    0.38
  -9  -3  -3   10.65    0.81
  -9  -3  -3   10.01    0.90
  -9  -3  -3   10.49    0.83
  -9   3  -3   11.19    0.81
  -9   3  -3   11.68    0.87
  -9   3  -3   11.53    0.83
 -10   3  -3    2.23    0.29
 -10   3  -3    2.10    0.30
 -10   3  -3    2.19    0.39
 -11  -3  -3    0.50    0.15
 -11  -3  -3    0.55    0.14
 -10  -4   3    1.91    0.35
  -9  -4   3    2.51    0.36
  -9   4   3    1.55    0.32
  -9   4   3    1.39    0.27
  -9   4   3    1.95    0.36
  -8  -4   3    1.20    0.80
  -8   4   3    2.00    0.30
  -8   4   3    1.57    0.24
  -8   4   3    2.20    0.31
  -8   4   3    1.47    0.31
  -7  -4   3    6.23    0.93
  -7  -4   3    5.65    0.42
  -7  -4   3    6.28    0.93
  -6  -4   3   17.89    1.34
  -6  -4   3   17.62    1.05
  -6  -4   3   19.01    1.32
   6   4  -3   14.81    1.35
  -6   4   3   15.15    1.05
  -6   4   3   15.15    1.28
  -6   4   3   14.07    1.35
  -5  -4   3    2.52    0.43
  -5  -4   3    2.47    0.19
  -5  -4   3    1.98    0.40
  -5  -4   3    2.72    0.47
  -4  -4   3   19.48    1.25
  -4  -4   3   19.49    1.40
  -4  -4   3   19.55    1.46
  -3  -4   3    1.09    0.23
  -3  -4   3    0.74    0.19
  -3  -4   3    0.70    0.17
  -2  -4   3    1.84    0.23
  -2  -4   3    2.00    0.25
  -2  -4   3    1.94    0.25
  -1  -4   3   68.81    4.47
  -1  -4   3   68.47    4.67
  -1  -4   3   68.11    4.44
  -1   4   3   59.45    4.67
   0  -4   3    6.77    0.44
   0  -4   3    6.30    0.48
   0  -4   3    5.57    0.47
   0  -4  -3    5.49    0.43
   0   4   3    5.17    0.49
   0   4   3    5.78    0.45
   0   4   3    6.31    0.46
   1  -4   3   13.75    1.02
   1  -4   3   13.86    1.00
  -1  -4  -3   14.43    0.98
   1  -4   3   14.05    0.96
   2  -4   3    3.16    0.37
  -2  -4  -3    3.13    0.29
   2  -4   3    2.78    0.31
   3  -4   3   23.35    1.61
  -3  -4  -3   24.45    1.59
   3  -4   3   23.14    1.64
   3   4   3   20.14    1.61
   3   4   3   22.20    1.69
   4   4   3    2.67    0.51
   4   4   3    3.71    0.54
  -5  -4  -3    2.44    0.45
   5  -4   3    2.82    0.59
   5   4   3    3.47    0.58
   6  -4   3    2.51    0.60
  -6  -4  -3    3.24    0.65
   6   4   3    3.22    0.67
   6   4   3    3.76    0.71
   7  -4   3    0.71    0.79
  -7  -4  -3    0.30    0.14
   7   4   3   -0.21    0.72
  -8  -4  -3    0.39    0.20
  -8  -4  -3    0.32    0.15
  -8  -4  -3    0.62    0.16
  -8   4  -3    0.42    0.22
  -8   4  -3    0.26    0.15
  -8   4  -3    0.32    0.16
  -9  -4  -3    9.78    0.75
  -9  -4  -3   10.00    0.74
  -9  -4  -3    9.89    0.81
  -9   4  -3    9.03    0.75
  -9   4  -3   10.64    0.79
  -9   4  -3    9.32    0.74
 -10   4  -3    0.55    0.17
 -10   4  -3    0.56    0.22
 -10   4  -3    0.71    0.17
 -11  -4  -3    1.10    0.21
 -11  -4  -3    0.87    0.17
 -10  -5   3    1.49    0.23
 -10  -5   3    1.37    0.23
  -9  -5   3   14.25    1.05
  -9  -5   3   14.84    0.97
  -9  -5   3   15.23    0.96
  -9   5   3   11.60    1.00
  -9   5   3   11.56    0.89
  -9   5   3   11.93    0.96
  -8  -5   3    5.67    0.46
  -8  -5   3    6.09    0.47
  -8  -5   3    5.15    0.51
  -8  -5   3    7.45    1.31
  -8  -5   3    5.18    0.41
  -8   5   3    5.22    0.41
  -8   5   3    4.86    0.49
  -8   5   3    4.80    0.45
  -7  -5   3    1.92    0.21
  -7  -5   3    2.03    0.62
  -7  -5   3    1.24    0.62
  -7   5   3    2.15    0.22
  -6  -5   3    8.13    0.49
  -6  -5   3    9.24    0.85
  -6  -5   3    7.12    0.80
  -6   5   3    5.50    0.77
   6   5  -3    5.84    0.84
  -6   5   3    7.10    0.50
  -5  -5   3    5.49    0.36
  -5  -5   3    5.29    0.58
  -5  -5   3    5.48    0.58
  -5  -5   3    5.31    0.58
   5   5  -3    5.04    0.64
  -5   5   3    4.86    0.61
  -5   5   3    5.38    0.37
  -5   5   3    5.15    0.57
  -4  -5   3   11.81    0.81
  -4  -5   3   11.25    0.99
  -4  -5   3   11.81    0.94
  -4  -5   3   11.71    0.95
  -4   5   3   14.17    0.82
  -4   5   3   13.99    0.95
  -4   5   3   13.29    0.99
  -3  -5   3    5.77    0.51
  -3  -5   3    6.09    0.50
  -3  -5   3    5.83    0.49
  -2  -5   3    2.45    0.27
  -2  -5   3    2.67    0.29
  -2  -5   3    2.40    0.29
  -1  -5   3   15.28    1.18
  -1  -5   3   17.39    1.15
  -1  -5   3   16.31    1.14
   0  -5   3    3.41    0.27
   0  -5  -3    3.26    0.27
   0  -5   3    3.03    0.32
   0  -5   3    2.84    0.29
   0   5   3    3.78    0.31
   0   5   3    3.21    0.32
   1  -5   3   28.10    1.93
   1  -5   3   27.28    1.98
  -1  -5  -3   27.15    1.89
   1  -5   3   29.09    1.88
   2  -5   3    1.52    0.32
  -2  -5  -3    1.17    0.23
   2   5   3    0.64    0.20
   2   5   3    0.65    0.21
   3  -5   3    4.33    0.45
  -3  -5  -3    4.88    0.41
   3   5   3    3.08    0.48
   3   5   3    3.84    0.50
   4  -5   3    5.46    0.60
  -4  -5  -3    6.20    0.56
   4   5   3    5.03    0.65
   4   5   3    4.12    0.63
  -5  -5  -3    6.85    0.71
   5  -5   3    7.59    0.79
   6  -5   3   11.78    1.21
  -6  -5  -3   11.04    1.06
   6   5   3   13.34    1.44
   6   5   3   13.21    1.26
   6   5   3   13.20    1.31
  -7  -5  -3    7.80    0.69
  -7  -5  -3    8.27    0.61
  -7  -5  -3    7.61    0.62
  -7   5  -3    8.10    0.63
   7   5   3    7.60    1.33
  -7   5  -3    8.07    0.60
  -8  -5  -3    0.73    0.16
  -8  -5  -3    0.38    0.15
  -8  -5  -3    0.57    0.20
   8   5   3    0.73    1.10
  -9  -5  -3    6.11    0.51
  -9  -5  -3    6.03    0.51
 -10  -5  -3    0.82    0.17
 -10  -5  -3    0.69    0.17
 -10  -5  -3    0.84    0.22
 -10   5  -3    0.66    0.18
 -10   5  -3    0.66    0.18
 -10   5  -3    0.66    0.21
 -11  -5  -3    1.12    0.21
 -11  -5  -3    1.00    0.22
 -10  -6   3    0.44    0.19
 -10  -6   3    0.31    0.20
 -10   6   3    0.38    0.18
  -9   6   3    1.12    0.20
  -9   6   3    0.95    0.19
  -9   6   3    0.88    0.17
  -8  -6   3    2.94    0.39
  -8  -6   3    3.18    0.31
  -8  -6   3    3.11    0.37
  -8  -6   3    3.10    0.36
  -8  -6   3    2.94    0.89
  -8   6   3    3.89    0.48
  -8   6   3    3.61    0.38
  -8   6   3    3.59    0.31
  -8   6   3    3.69    0.35
  -7  -6   3   18.23    1.54
  -7  -6   3   16.27    1.15
  -7  -6   3   17.61    1.06
  -7  -6   3   15.54    1.26
  -7  -6   3   15.38    1.16
  -7   6   3   15.77    1.14
  -7   6   3   16.33    1.06
  -7   6   3   15.76    1.20
  -6  -6   3    4.67    0.70
  -6  -6   3    5.11    0.71
  -6  -6   3    4.22    0.30
   6   6  -3    3.47    0.73
  -6   6   3    3.63    0.30
  -6   6   3    3.44    0.57
  -5  -6   3    1.19    0.15
  -5  -6   3    1.40    0.34
  -5  -6   3    1.67    0.35
  -5  -6   3    1.08    0.36
  -4  -6   3    1.17    0.12
  -4  -6   3    0.96    0.28
  -4  -6   3    0.79    0.25
  -4  -6   3    1.10    0.26
  -4   6   3    1.90    0.35
  -3  -6   3    3.06    0.23
  -3  -6   3    3.16    0.38
  -3  -6   3    3.54    0.38
  -3  -6   3    3.06    0.34
  -2  -6   3    2.21    0.31
  -2  -6   3    2.42    0.29
  -2  -6   3    2.57    0.28
  -2   6   3    1.64    0.31
   1  -6  -3    1.62    0.18
  -1  -6   3    1.93    0.24
  -1  -6   3    1.91    0.27
  -1  -6   3    2.33    0.24
  -1   6   3    2.67    0.30
  -1   6   3    2.51    0.29
  -1   6   3    2.10    0.20
   0  -6   3    0.58    0.19
   0  -6   3    0.50    0.13
   0  -6  -3    0.52    0.13
   0  -6   3    0.52    0.12
   0   6   3    0.86    0.18
   0   6   3    0.83    0.18
   2  -6   3    5.40    0.49
  -2  -6  -3    5.55    0.46
   2   6   3    4.49    0.52
   4  -6   3   16.22    1.23
  -4  -6  -3   15.84    1.19
   4   6   3   15.65    1.26
   4   6   3   15.03    1.30
  -5  -6  -3    3.95    0.55
   5  -6   3    3.41    0.67
  -6  -6  -3    1.99    0.53
   6  -6   3    2.75    0.66
   6   6   3    3.77    0.82
   6   6   3    2.58    0.68
   6   6   3    2.98    0.71
  -7  -6  -3    1.33    0.24
  -7   6  -3    1.27    0.26
  -7   6  -3    1.21    0.25
   7   6   3   -0.44    0.80
  -8  -6  -3    1.47    0.27
  -8  -6  -3    1.69    0.35
  -8  -6  -3    1.76    0.28
  -8   6  -3    1.72    0.35
  -8   6  -3    2.28    0.29
  -8   6  -3    2.36    0.31
  -8   6  -3    2.04    0.35
   8   6   3    1.86    1.12
  -9  -6  -3    3.80    0.39
  -9  -6  -3    4.23    0.40
  -9  -6  -3    3.70    0.47
  -9   6  -3    4.54    0.45
  -9   6  -3    4.21    0.41
  -9   6  -3    4.25    0.40
 -10  -6  -3    0.12    0.19
 -10  -6  -3    0.11    0.15
 -10  -6  -3    0.05    0.16
 -10   6  -3    0.01    0.15
 -10   6  -3    0.00    0.19
 -10   6  -3    0.05    0.17
 -11  -6  -3    1.63    0.24
 -11  -6  -3    1.82    0.23
 -11  -7   3    2.63    0.35
 -11  -7   3    3.21    0.35
 -10  -7   3    2.02    0.35
 -10  -7   3    1.70    0.34
 -10   7   3    2.70    0.32
 -10   7   3    2.97    0.34
  -9  -7   3   15.47    0.98
  -9  -7   3   14.97    1.06
  -9   7   3   12.48    0.90
  -9   7   3   13.08    1.03
  -9   7   3   12.34    0.97
  -9   7   3   12.04    1.01
  -8  -7   3    0.73    0.15
  -8  -7   3    1.70    0.86
  -8  -7   3    0.67    0.19
  -8  -7   3    0.67    0.18
  -8  -7   3    0.91    0.18
  -8   7   3    0.56    0.16
  -8   7   3    0.37    0.18
  -8   7   3    0.34    0.14
   8   7  -3    0.32    0.16
  -8   7   3    0.61    0.26
  -7  -7   3    0.67    0.17
  -7  -7   3    0.61    0.13
  -7  -7   3    0.56    0.17
  -7  -7   3    0.53    0.19
  -7  -7   3    0.84    0.61
  -7   7   3    0.71    0.20
  -7   7   3    0.61    0.15
  -7   7   3    0.66    0.18
  -7   7   3    0.55    0.13
  -6  -7   3    6.34    0.85
  -6  -7   3    5.46    0.78
  -6  -7   3    6.02    0.39
  -6  -7   3    5.53    0.79
  -6   7   3    4.73    0.38
   6   7  -3    3.97    0.80
  -5  -7   3    1.95    0.18
  -5  -7   3    1.65    0.36
  -5  -7   3    2.11    0.40
  -5  -7   3    1.97    0.42
  -4  -7   3    2.21    0.40
  -4  -7   3    2.99    0.42
  -4  -7   3    2.47    0.21
  -4  -7   3    2.36    0.44
   4   7  -3    3.36    0.47
  -4   7   3    3.29    0.42
  -2  -7   3    9.49    0.72
  -2  -7   3    9.00    0.72
  -2  -7   3    9.16    0.70
   2   7  -3    8.17    0.70
  -2   7   3   10.47    0.74
  -2   7   3    8.56    0.72
  -1  -7   3   13.97    1.11
  -1  -7   3   13.81    1.09
   1  -7  -3   14.47    1.06
  -1  -7   3   14.02    1.14
  -1   7   3   17.34    1.13
   1   7  -3   17.73    1.11
  -1   7   3   17.53    1.17
   0  -7  -3    9.17    0.69
   0  -7   3    8.26    0.71
   0  -7   3    8.75    0.68
   0  -7   3    8.82    0.74
   0   7   3   10.45    0.73
   0   7   3   10.01    0.76
   0   7  -3   10.69    0.69
   1  -7   3   19.85    1.26
   1  -7   3   21.15    1.28
   1   7   3   15.04    1.25
   1   7   3   16.19    1.31
  -1   7  -3   15.23    1.19
  -2  -7  -3    0.94    0.24
   2  -7   3    0.85    0.27
   2   7   3    1.39    0.28
   3  -7   3    0.96    0.31
  -3  -7  -3    0.72    0.26
   3   7   3    0.75    0.30
   3   7   3    0.48    0.33
   4  -7   3   13.44    1.09
  -4  -7  -3   14.09    1.05
   4   7   3   12.73    1.13
   4   7   3   11.98    1.12
   5  -7   3    4.58    0.75
  -5  -7  -3    4.98    0.61
  -6  -7  -3    5.32    0.84
   6  -7   3    4.99    1.01
   6   7   3    7.14    1.08
   6   7   3    8.41    1.26
   6   7   3    6.39    1.06
  -7  -7  -3   23.67    1.57
  -7  -7  -3   24.23    1.68
  -7  -7  -3   23.44    1.52
  -7   7  -3   20.63    1.52
  -7   7  -3   19.18    1.57
  -7   7  -3   19.39    1.56
  -7   7  -3   21.52    1.55
   7   7   3   21.53    2.08
  -8  -7  -3    1.85    0.34
  -8   7  -3    1.42    0.22
  -8   7  -3    1.53    0.28
  -8   7  -3    1.21    0.24
  -8   7  -3    1.55    0.29
   8   7   3    0.85    1.11
  -9  -7  -3    4.50    0.50
  -9  -7  -3    4.60    0.43
  -9  -7  -3    4.86    0.43
 -10  -7  -3    0.68    0.18
 -10  -7  -3    1.09    0.21
 -10  -7  -3    0.85    0.18
 -11  -7  -3    2.57    0.32
 -11  -7  -3    2.36    0.26
 -11  -7  -3    2.33    0.26
 -11  -8   3    0.27    0.18
 -11  -8   3    0.49    0.16
 -11   8   3    0.38    0.15
 -10   8   3    1.06    0.20
 -10   8   3    1.11    0.20
 -10   8   3    1.07    0.19
  -9  -8   3    5.47    0.55
  -9  -8   3    5.45    0.57
  -9   8   3    6.60    0.49
  -9   8   3    7.10    0.57
  -9   8   3    7.29    0.60
  -9   8   3    6.98    0.54
  -8  -8   3    3.42    0.91
  -8  -8   3    3.17    0.44
  -8  -8   3    3.62    0.42
   8   8  -3    4.62    0.38
  -8   8   3    4.81    0.40
  -8   8   3    4.40    0.44
  -8   8   3    4.78    0.50
  -8   8   3    4.61    0.36
  -7  -8   3    7.74    1.22
  -7   8   3   10.44    0.74
  -7   8   3   10.03    0.79
  -7   8   3   10.50    0.81
  -6  -8   3    1.67    0.20
  -6  -8   3    1.43    0.50
  -6  -8   3    0.94    0.55
  -6   8   3    1.78    0.20
   6   8  -3    1.95    0.58
   6   8  -3    2.02    0.21
  -5  -8   3    4.68    0.37
  -5  -8   3    4.54    0.69
  -5  -8   3    5.20    0.67
  -5  -8   3    5.98    0.70
  -5   8   3    5.73    0.37
   5   8  -3    5.52    0.71
   5   8  -3    5.20    0.37
  -5   8   3    4.64    0.65
  -4  -8   3    3.23    0.23
  -4  -8   3    2.73    0.47
  -4  -8   3    2.91    0.46
  -4  -8   3    3.01    0.50
  -4   8   3    2.85    0.23
  -4   8   3    3.35    0.45
   4   8  -3    2.59    0.23
   4   8  -3    2.91    0.49
  -3  -8   3    1.78    0.35
  -3  -8   3    2.07    0.19
  -3  -8   3    2.34    0.40
  -3  -8   3    1.71    0.37
   3   8  -3    2.49    0.36
  -3   8   3    2.91    0.38
   3   8  -3    2.63    0.19
  -3   8   3    2.60    0.19
  -3   8   3    2.73    0.39
  -2  -8   3    6.96    0.44
  -2  -8   3    7.22    0.55
  -2  -8   3    7.48    0.58
  -2  -8   3    6.95    0.58
   2   8  -3    5.87    0.56
  -2   8   3    5.50    0.58
  -2   8   3    5.41    0.57
  -1  -8   3    3.01    0.35
  -1  -8   3    3.07    0.33
   1  -8  -3    3.35    0.30
  -1  -8   3    3.36    0.31
  -1   8   3    2.31    0.36
  -1   8   3    2.19    0.36
   1   8  -3    2.24    0.31
   0  -8  -3   11.07    0.77
   0  -8   3   11.26    0.82
   0  -8   3   11.17    0.79
   0   8  -3    8.36    0.75
   1   8   3    9.21    0.74
   1   8   3    8.21    0.72
  -2  -8  -3    3.08    0.40
   2  -8   3    2.64    0.44
  -3  -8  -3   20.83    1.80
   3   8   3   27.75    1.93
   3   8   3   28.10    1.87
  -4  -8  -3    2.49    0.50
   4  -8   3    2.13    0.45
  -6  -8  -3    5.46    0.90
   6  -8   3    4.73    1.03
   6   8   3    5.33    1.01
   6   8   3    4.85    0.96
  -7  -8  -3    7.06    0.59
  -7  -8  -3    6.15    0.66
  -7  -8  -3    7.10    0.57
  -7   8  -3    7.57    0.61
  -7   8  -3    8.20    0.60
  -7   8  -3    7.34    0.60
   7   8   3    7.10    1.29
  -7   8  -3    8.74    0.59
  -8  -8  -3    0.97    0.24
  -8  -8  -3    1.42    0.26
  -8  -8  -3    1.57    0.28
  -8   8  -3    1.00    0.20
  -8   8  -3    0.74    0.22
   8   8   3    0.41    1.13
  -8   8  -3    0.91    0.19
  -8   8  -3    1.30    0.20
  -9  -8  -3    2.11    0.40
  -9  -8  -3    2.26    0.33
  -9  -8  -3    2.12    0.31
  -9   8  -3    3.10    0.37
  -9   8  -3    2.58    0.31
  -9   8  -3    2.59    0.33
  -9   8  -3    2.88    0.37
 -10  -8  -3    0.54    0.19
 -10  -8  -3    0.23    0.16
 -10  -8  -3    0.28    0.14
 -10   8  -3    0.06    0.18
 -10   8  -3    0.18    0.15
 -11  -8  -3    2.39    0.27
 -11  -8  -3    2.56    0.27
 -11  -8  -3    3.06    0.32
 -11   8  -3    2.68    0.28
 -11   8  -3    2.62    0.28
 -11  -9   3    4.15    0.39
 -11  -9   3    4.03    0.41
 -11   9   3    4.79    0.39
 -10   9   3    6.69    0.55
 -10   9   3    6.91    0.57
 -10   9   3    7.78    0.59
 -10   9   3    6.17    0.52
  -9   9   3    2.03    0.28
  -9   9   3    1.92    0.35
  -9   9   3    2.82    0.40
  -9   9   3    2.45    0.33
  -8   9   3    1.77    0.36
  -8   9   3    1.50    0.29
  -8   9   3    1.60    0.25
  -8   9   3    1.61    0.24
  -7  -9   3    1.45    0.71
  -7  -9   3    0.45    0.17
  -7  -9   3    0.32    0.13
  -7  -9   3    0.34    0.18
  -7  -9   3    0.38    0.17
   7   9  -3    0.19    0.13
  -7   9   3    0.23    0.22
  -7   9   3    0.35    0.13
  -7   9   3    0.24    0.19
  -7   9   3    0.29    0.16
  -6  -9   3    2.97    0.65
  -6  -9   3    2.60    0.23
  -6  -9   3    2.65    0.60
   6   9  -3    2.03    0.23
  -6   9   3    1.97    0.24
   6   9  -3    2.69    0.64
  -5  -9   3    5.87    0.39
  -5  -9   3    6.12    0.68
  -5  -9   3    4.72    0.75
   5   9  -3    5.60    0.39
   5   9  -3    5.89    0.76
  -5   9   3    5.49    0.40
  -5   9   3    4.72    0.71
   4   9  -3    2.47    0.43
  -4   9   3    2.44    0.50
  -3  -9   3    3.41    0.52
  -3   9   3    4.83    0.50
   3   9  -3    4.50    0.32
  -3   9   3    4.55    0.51
  -3   9   3    4.70    0.32
   3   9  -3    5.17    0.53
  -2  -9   3    6.86    0.63
  -2  -9   3    6.36    0.46
  -2  -9   3    6.23    0.61
  -2  -9   3    6.86    0.60
   2   9  -3    6.99    0.60
  -2   9   3    7.18    0.46
  -2   9   3    7.26    0.62
   2   9  -3    7.11    0.46
  -2   9   3    7.54    0.62
  -1  -9   3    7.05    0.71
   1   9  -3    8.47    0.58
  -1   9   3    9.31    0.73
   1   9  -3   10.14    0.70
  -1   9   3    9.61    0.74
   0  -9   3   14.47    1.09
   0  -9  -3   14.62    1.06
   0  -9   3   13.37    1.08
   0   9  -3   15.24    1.04
   0   9   3   15.21    1.09
   0   9   3   14.44    1.12
   1  -9   3    7.42    0.66
  -2  -9  -3   11.43    0.94
   2  -9   3   11.09    0.96
   2   9   3   13.61    0.99
   2   9   3   11.96    1.00
   3  -9   3    1.62    0.37
   3   9   3    2.43    0.51
   3   9   3    3.08    0.54
  -3   9  -3    2.22    0.19
   4  -9   3    1.94    0.45
  -4  -9  -3    2.70    0.47
  -4   9  -3    1.87    0.20
   4   9   3    2.81    0.55
   4   9   3    2.24    0.48
   5  -9   3   -0.13    0.50
  -5  -9  -3    0.12    0.44
   5   9   3    0.18    0.47
   5   9   3    1.39    0.61
  -6  -9  -3    1.46    0.61
   6  -9   3    2.49    0.80
   7   9   3   -0.16    0.82
  -8  -9  -3    7.48    0.65
  -8  -9  -3    8.02    0.64
  -8   9  -3    8.24    0.66
  -8   9  -3    8.53    0.66
  -8   9  -3    8.59    0.64
  -8   9  -3    8.52    0.66
  -9  -9  -3    6.21    0.52
  -9  -9  -3    6.17    0.60
  -9  -9  -3    6.56    0.52
  -9   9  -3    6.27    0.55
  -9   9  -3    5.92    0.54
  -9   9  -3    6.10    0.51
  -9   9  -3    6.12    0.54
 -10  -9  -3    6.14    0.51
 -10  -9  -3    6.51    0.52
 -10  -9  -3    6.36    0.57
 -11  -9  -3    1.84    0.27
 -11  -9  -3    1.86    0.25
 -11   9  -3    1.71    0.24
 -11   9  -3    1.69    0.24
 -11 -10   3    0.30    0.14
 -11  10   3    0.25    0.13
 -10  10   3    0.98    0.21
 -10  10   3    0.78    0.18
 -10  10   3    0.64    0.18
  -9 -10   3    1.82    0.35
  -9  10   3    2.40    0.35
  -9  10   3    2.52    0.29
  -8 -10   3    9.55    0.67
  -8 -10   3    9.36    0.71
  -8 -10   3    9.69    0.67
  -8  10   3    7.95    0.70
  -8  10   3    7.44    0.60
  -8  10   3    7.21    0.68
  -8  10   3    7.63    0.64
  -7 -10   3    2.71    0.35
  -7 -10   3    2.71    0.31
  -7 -10   3    2.84    0.36
  -7 -10   3    3.22    0.80
  -7 -10   3    2.63    0.38
  -7  10   3    3.94    0.42
  -7  10   3    3.97    0.30
  -7  10   3    3.91    0.39
  -6 -10   3    1.56    0.65
  -6 -10   3    1.68    0.61
  -6 -10   3    1.12    0.19
  -6 -10   3    1.02    0.24
  -6 -10   3    1.21    0.25
  -6  10   3    1.78    0.21
  -6  10   3    1.51    0.32
  -5 -10   3    2.66    0.22
  -5 -10   3    2.68    0.52
  -5 -10   3    2.76    0.52
   5  10  -3    2.49    0.54
   5  10  -3    1.97    0.22
  -5  10   3    2.20    0.22
  -4 -10   3    5.55    0.70
  -4 -10   3    6.41    0.67
  -4 -10   3    5.90    0.38
   4  10  -3    4.97    0.37
  -4  10   3    5.05    0.66
   4  10  -3    5.21    0.67
  -4  10   3    4.86    0.38
  -3 -10   3   18.35    1.28
  -3 -10   3   17.84    1.09
  -3 -10   3   16.72    1.32
  -3  10   3   16.06    1.28
   3  10  -3   16.04    1.08
  -3  10   3   16.09    1.09
   3  10  -3   16.64    1.28
  -2 -10   3    5.24    0.52
  -2  10   3    3.96    0.49
   2  10  -3    3.89    0.29
  -2  10   3    3.83    0.30
  -2  10   3    4.22    0.50
   2  10  -3    4.33    0.47
  -1 -10   3   10.99    0.83
   1  10  -3    9.51    0.79
   1  10  -3   10.21    0.66
  -1  10   3    9.93    0.83
  -1  10   3   10.25    0.82
   0 -10   3    3.18    0.44
   0 -10  -3    2.70    0.45
   0 -10   3    3.16    0.38
   0  10  -3    2.46    0.32
   0  10  -3    2.61    0.20
   0  10   3    2.52    0.39
   0  10   3    2.57    0.40
   1 -10   3   70.31    4.64
  -1 -10  -3   71.00    4.63
  -1  10  -3   62.83    4.34
   1  10   3   69.27    4.87
   1  10   3   68.50    4.68
   2  10   3    3.10    0.48
  -2  10  -3    2.84    0.22
   2  10   3    2.77    0.50
  -3 -10  -3    5.60    0.64
   3 -10   3    5.13    0.64
   3  10   3    4.32    0.63
   3  10   3    4.70    0.67
  -3  10  -3    4.53    0.33
  -5 -10  -3    1.10    0.54
   5 -10   3    0.33    0.58
   5  10   3    2.33    0.58
  -6 -10  -3    4.04    0.37
  -6 -10  -3    3.35    0.42
  -6 -10  -3    3.36    0.37
   6 -10   3    3.37    0.92
   6  10   3    4.86    1.05
  -6  10  -3    4.37    0.36
   6  10   3    5.63    0.87
  -6  10  -3    3.83    0.37
  -6  10  -3    3.82    0.38
  -7 -10  -3    1.47    0.27
  -7 -10  -3    1.17    0.25
  -7  10  -3    0.91    0.18
  -7  10  -3    0.89    0.19
  -7  10  -3    0.86    0.18
  -7  10  -3    0.62    0.19
   7  10   3    1.12    0.84
  -8 -10  -3    1.51    0.36
  -8 -10  -3    1.39    0.29
  -8 -10  -3    1.30    0.29
  -8  10  -3    1.56    0.31
  -8  10  -3    1.88    0.30
  -8  10  -3    1.89    0.28
  -8  10  -3    1.61    0.31
  -9 -10  -3    9.48    0.76
  -9 -10  -3    9.38    0.69
  -9 -10  -3    9.51    0.68
  -9  10  -3    7.99    0.70
  -9  10  -3    7.94    0.69
  -9  10  -3    8.24    0.67
 -10 -10  -3    2.38    0.30
 -10 -10  -3    2.84    0.31
 -10 -10  -3    2.90    0.35
 -10  10  -3    2.58    0.33
 -10  10  -3    2.66    0.35
 -11 -10  -3    1.84    0.21
 -11 -10  -3    1.94    0.25
 -11  10  -3    1.21    0.22
 -11  10  -3    1.10    0.22
 -11 -11   3    0.87    0.21
 -11  11   3    1.14    0.20
 -10 -11   3    2.92    0.34
 -10 -11   3    3.49    0.35
 -10  11   3    2.59    0.33
 -10  11   3    2.53    0.32
 -10  11   3    3.22    0.36
  -9  11   3    4.81    0.43
  -9  11   3    4.08    0.45
  -9  11   3    4.55    0.38
  -8 -11   3    1.59    0.26
  -8 -11   3    2.14    0.34
  -8 -11   3    1.98    0.33
  -8  11   3    2.03    0.38
  -8  11   3    2.09    0.28
  -8  11   3    2.46    0.28
  -8  11   3    2.45    0.30
  -7 -11   3    0.72    0.19
  -7 -11   3    1.45    0.75
  -7 -11   3    0.79    0.19
  -7 -11   3    0.80    0.20
  -7  11   3    1.08    0.22
  -7  11   3    1.20    0.22
  -7  11   3    0.89    0.21
  -7  11   3    1.06    0.20
   7  11  -3    1.14    0.17
  -6 -11   3    1.45    0.27
  -6 -11   3    1.02    0.64
  -6 -11   3    1.23    0.21
  -6  11   3    1.78    0.30
  -6  11   3    1.99    0.32
  -5 -11   3    0.90    0.52
  -5 -11   3    1.00    0.19
  -5 -11   3    1.29    0.52
   5  11  -3    1.53    0.18
  -5  11   3    1.46    0.20
   5  11  -3    1.34    0.51
  -4  11   3    2.56    0.47
  -4  11   3    2.52    0.23
   4  11  -3    2.68    0.23
   4  11  -3    2.87    0.50
  -3  11   3    1.52    0.17
   3  11  -3    1.73    0.16
  -3  11   3    1.21    0.36
   3  11  -3    1.42    0.38
  -2 -11   3   27.44    2.18
  -2 -11   3   26.28    2.27
  -2  11   3   31.89    1.99
  -2  11   3   32.42    2.29
  -2  11   3   34.50    2.22
   2  11  -3   33.39    2.20
   2  11  -3   31.70    1.99
  -1 -11   3   37.21    2.70
  -1 -11   3   35.80    2.60
   1  11  -3   37.08    2.39
  -1  11   3   37.74    2.39
  -1  11   3   36.85    2.62
  -1  11   3   39.77    2.72
   1  11  -3   37.69    2.59
   0 -11  -3   26.13    1.69
   0 -11   3   25.66    1.70
   0  11   3   22.92    1.70
   0  11  -3   21.49    1.50
   0  11   3   21.19    1.75
  -1 -11  -3    8.92    0.89
   1 -11   3    9.67    0.85
   1  11   3   11.18    0.88
  -1  11  -3   10.48    0.66
   1  11   3   10.28    0.86
   2  11   3    2.54    0.53
   2  11   3    3.04    0.50
  -2  11  -3    2.65    0.21
  -3 -11  -3    5.61    0.76
   3 -11   3    5.05    0.73
   3  11   3    6.40    0.72
   3  11   3    7.73    0.75
  -3  11  -3    6.25    0.43
  -4 -11  -3    1.50    0.53
   4 -11   3    1.18    0.51
  -4  11  -3    2.29    0.21
   4  11   3    2.89    0.55
   4  11   3    2.09    0.55
   5 -11   3    1.31    0.65
  -5 -11  -3    2.19    0.64
   5  11   3    1.73    0.56
   5  11   3    1.78    0.66
  -6 -11  -3    4.08    0.36
  -6 -11  -3    4.26    0.44
  -6  11  -3    3.05    0.36
  -6  11  -3    3.22    0.35
  -6  11  -3    2.78    0.33
   6  11   3    4.05    0.81
  -6  11  -3    3.02    0.36
  -7 -11  -3    1.53    0.37
  -7 -11  -3    1.81    0.31
  -7 -11  -3    2.10    0.29
   7  11   3    3.78    0.96
  -7  11  -3    2.19    0.28
  -7  11  -3    2.33    0.31
  -7  11  -3    2.37    0.30
  -7  11  -3    1.98    0.32
  -8 -11  -3    4.48    0.52
  -8 -11  -3    4.45    0.45
  -8 -11  -3    4.61    0.43
  -8  11  -3    4.70    0.46
  -8  11  -3    4.42    0.43
  -8  11  -3    5.09    0.45
  -8  11  -3    4.97    0.46
  -9 -11  -3    2.79    0.34
  -9 -11  -3    3.22    0.35
  -9 -11  -3    2.62    0.40
 -10 -11  -3    1.75    0.27
 -10 -11  -3    1.90    0.32
 -10 -11  -3    1.87    0.27
 -10 -12   3    1.16    0.28
 -10 -12   3    0.89    0.19
 -10  12   3    1.00    0.18
 -10  12   3    1.68    0.29
 -10  12   3    1.19    0.19
  -9 -12   3    3.18    0.42
  -9 -12   3    3.74    0.43
  -9  12   3    4.44    0.41
  -9  12   3    4.70    0.45
  -9  12   3    4.08    0.36
  -9  12   3    3.98    0.42
  -8 -12   3    1.68    0.32
  -8  12   3    1.58    0.26
  -8  12   3    1.50    0.27
  -8  12   3    1.81    0.30
  -8  12   3    1.65    0.34
  -7 -12   3    0.64    0.19
  -7 -12   3    0.82    0.80
  -7 -12   3    0.56    0.19
  -7 -12   3    0.32    0.19
  -7 -12   3    0.68    0.23
  -7  12   3    0.55    0.18
  -7  12   3    0.81    0.16
  -7  12   3    0.64    0.21
  -7  12   3    0.49    0.21
   7  12  -3    0.65    0.15
  -6 -12   3    8.21    0.63
  -6 -12   3    8.28    1.19
  -6 -12   3    8.03    0.62
  -6 -12   3    8.20    0.67
  -6 -12   3    8.47    0.68
  -6  12   3    8.34    0.67
  -6  12   3    7.57    0.65
   6  12  -3    7.60    0.56
  -6  12   3    8.28    0.63
  -6  12   3    7.77    0.57
  -5 -12   3    2.63    0.63
  -5 -12   3    2.49    0.63
  -5  12   3    1.26    0.22
   5  12  -3    1.47    0.20
   5  12  -3    1.71    0.59
  -4 -12   3    4.30    0.72
  -4  12   3    2.62    0.25
   4  12  -3    2.98    0.54
   4  12  -3    2.70    0.23
  -3 -12   3    3.14    0.60
  -3  12   3    2.35    0.23
  -3  12   3    2.21    0.45
   3  12  -3    2.47    0.21
   3  12  -3    2.81    0.59
  -2 -12   3    0.48    0.34
  -2 -12   3    0.85    0.34
   2  12  -3    0.42    0.31
   2  12  -3    1.04    0.13
  -2  12   3    0.93    0.16
  -2  12   3    0.83    0.35
  -1 -12   3    9.81    0.83
  -1 -12   3   11.02    0.83
  -1  12   3    8.39    0.62
   1  12  -3    8.56    0.60
  -1  12   3    9.41    0.84
   1  12  -3    8.54    0.75
  -1  12   3    9.43    0.83
   0  12   3   13.72    1.09
   0  12  -3   13.43    0.86
   0  12   3   13.87    1.08
   0  12   3   12.12    0.87
   1 -12   3    5.32    0.69
  -1 -12  -3    5.38    0.75
   1  12   3    7.13    0.67
   1  12   3    6.61    0.67
  -1  12  -3    6.50    0.43
  -2  12  -3    8.00    0.54
   2  12   3    8.16    0.82
   2  12   3    8.47    0.84
  -3 -12  -3   16.90    1.45
   3 -12   3   16.90    1.42
  -3  12  -3   18.15    1.15
   3  12   3   17.21    1.44
   3  12   3   19.34    1.48
  -4  12  -3    4.01    0.31
   4  12   3    3.74    0.74
   4  12   3    4.35    0.71
   5 -12   3    1.02    0.75
  -5 -12  -3    0.96    0.66
   5  12   3    1.22    0.57
  -5  12  -3    1.49    0.23
   5  12   3    1.60    0.72
  -6  12  -3    1.93    0.27
  -6  12  -3    2.10    0.31
   6  12   3    2.03    0.72
  -6  12  -3    2.19    0.31
  -6  12  -3    2.12    0.32
  -7 -12  -3    0.42    0.22
  -7 -12  -3    0.86    0.19
  -7 -12  -3    0.61    0.18
   7  12   3    0.66    0.87
  -7  12  -3    0.11    0.18
  -7  12  -3    0.14    0.16
  -7  12  -3    0.20    0.16
  -7  12  -3    0.41    0.19
  -8 -12  -3    2.49    0.42
  -8 -12  -3    2.58    0.36
  -8 -12  -3    2.83    0.35
  -8  12  -3    3.39    0.38
  -8  12  -3    2.60    0.37
  -8  12  -3    2.87    0.36
  -9 -12  -3    3.53    0.35
  -9 -12  -3    3.89    0.36
  -9 -12  -3    3.53    0.41
  -9  12  -3    3.06    0.38
  -9  12  -3    2.79    0.38
  -9  12  -3    2.99    0.35
 -10 -12  -3    2.54    0.35
 -10 -12  -3    2.22    0.30
 -10 -12  -3    2.63    0.31
 -10  12  -3    3.36    0.31
 -10  12  -3    3.42    0.33
 -10  12  -3    2.98    0.30
 -10 -13   3    2.18    0.30
 -10 -13   3    2.66    0.31
 -10  13   3    2.74    0.31
 -10  13   3    2.32    0.29
  -9 -13   3    0.87    0.20
  -9 -13   3    0.80    0.18
  -9 -13   3    0.96    0.21
  -9  13   3    0.67    0.18
  -9  13   3    0.63    0.17
  -9  13   3    0.58    0.21
  -9  13   3    0.63    0.19
  -8  13   3    2.72    0.35
  -8  13   3    1.56    0.27
  -8  13   3    1.89    0.32
  -8  13   3    2.32    0.28
  -7 -13   3    0.07    0.18
  -7 -13   3    0.56    0.18
  -7 -13   3    0.53    0.18
  -7 -13   3    0.52    0.22
  -7  13   3    0.03    0.20
  -7  13   3    0.20    0.16
   7  13  -3    0.07    0.15
  -7  13   3    0.03    0.18
  -7  13   3   -0.03    0.21
  -6 -13   3    3.59    0.80
  -6 -13   3    2.58    0.33
  -6 -13   3    2.28    0.31
  -6 -13   3    2.24    0.31
  -6  13   3    2.31    0.32
  -6  13   3    2.16    0.29
  -6  13   3    2.16    0.32
  -6  13   3    2.06    0.37
   6  13  -3    2.38    0.26
  -5 -13   3    0.57    0.69
  -5 -13   3    1.00    0.63
  -5  13   3    1.10    0.22
  -5  13   3    1.22    0.25
  -5  13   3    1.38    0.27
  -5  13   3    1.28    0.21
   5  13  -3    1.21    0.19
  -4 -13   3    8.90    1.05
  -4 -13   3    9.27    1.08
   4  13  -3    9.83    0.66
   4  13  -3   11.08    1.05
  -4  13   3   10.18    0.67
  -3 -13   3   11.66    1.12
  -3 -13   3   12.21    1.04
  -3  13   3   11.51    0.78
   3  13  -3   12.03    1.04
   3  13  -3   12.12    0.77
  -3  13   3   10.85    1.09
   2  13  -3    7.52    0.53
  -2  13   3    8.37    0.83
  -2  13   3    7.47    0.54
   2  13  -3    9.00    0.77
  -1 -13   3    2.17    0.44
   1  13  -3    2.63    0.20
  -1  13   3    2.52    0.48
  -1  13   3    2.56    0.48
  -1  13   3    2.22    0.24
   0  13   3    3.87    0.34
   0  13   3    4.30    0.60
   0  13  -3    4.50    0.30
   0  13   3    4.14    0.57
  -1 -13  -3    3.02    0.56
   1 -13   3    3.02    0.59
  -1  13  -3    2.29    0.20
   1  13   3    2.55    0.54
   1  13   3    2.08    0.45
   2 -13   3    7.77    0.81
  -2 -13  -3    6.82    0.92
   2  13   3    6.36    0.74
   2  13   3    5.89    0.73
  -2  13  -3    5.73    0.43
   3 -13   3    2.68    0.56
  -3 -13  -3    3.09    0.62
   3  13   3    1.66    0.49
   3  13   3    1.42    0.45
  -3  13  -3    1.73    0.19
   4 -13   3    1.31    0.62
  -4 -13  -3    1.32    0.64
   4  13   3    1.03    0.54
  -4  13  -3    1.20    0.19
   4  13   3    0.56    0.61
  -5 -13  -3    1.59    0.30
  -5 -13  -3    1.46    0.25
  -5 -13  -3    1.89    0.34
   5 -13   3    1.21    0.83
   5  13   3    1.86    0.65
  -5  13  -3    1.47    0.25
  -5  13  -3    1.08    0.18
  -5  13  -3    1.51    0.31
  -5  13  -3    1.00    0.19
  -6 -13  -3    1.96    0.30
  -6 -13  -3    1.78    0.37
  -6 -13  -3    2.35    0.31
   6  13   3    1.03    0.73
  -7 -13  -3    1.92    0.34
  -7 -13  -3    1.81    0.34
  -7  13  -3    2.45    0.37
  -7  13  -3    2.52    0.31
  -7  13  -3    2.69    0.33
  -7  13  -3    2.52    0.32
  -8 -13  -3   14.31    1.10
  -8 -13  -3   14.13    1.06
  -8 -13  -3   15.03    1.17
  -8  13  -3   15.02    1.08
  -8  13  -3   14.69    1.06
  -8  13  -3   14.90    1.10
  -9 -13  -3   -0.16    0.19
  -9 -13  -3    0.11    0.17
  -9 -13  -3    0.00    0.16
  -9  13  -3    0.11    0.17
  -9  13  -3    0.17    0.17
  -9  13  -3    0.03    0.16
 -10 -14   3    0.55    0.14
 -10  14   3    0.14    0.15
  -9 -14   3    0.49    0.20
  -9 -14   3    0.22    0.18
  -9 -14   3    0.34    0.17
  -9  14   3    0.49    0.17
  -9  14   3    0.61    0.15
  -9  14   3    0.39    0.17
  -8 -14   3   23.46    1.74
  -8 -14   3   23.38    1.67
  -8 -14   3   24.61    1.82
  -8 -14   3   23.41    1.68
  -8  14   3   23.20    1.66
  -8  14   3   25.09    1.75
  -8  14   3   24.72    1.71
  -8  14   3   23.60    1.56
  -7 -14   3    2.16    0.37
  -7 -14   3    1.99    0.40
  -7 -14   3    2.14    0.35
  -7  14   3    3.08    0.38
   7  14  -3    2.90    0.30
  -7  14   3    2.96    0.39
  -7  14   3    2.98    0.36
  -7  14   3    3.14    0.32
  -6  14   3    4.40    0.47
  -6  14   3    4.47    0.43
   6  14  -3    4.32    0.36
   6  14  -3    4.95    1.00
  -6  14   3    4.33    0.38
  -6  14   3    4.31    0.43
  -5 -14   3    3.18    0.76
  -5 -14   3    2.73    0.33
  -5 -14   3    2.83    0.36
  -5 -14   3    2.97    0.32
  -5 -14   3    2.54    0.34
  -5  14   3    2.53    0.34
  -5  14   3    2.45    0.30
   5  14  -3    2.74    0.26
  -5  14   3    2.65    0.37
  -5  14   3    2.55    0.37
  -5  14   3    2.33    0.31
  -4 -14   3    1.96    0.61
  -4 -14   3    2.85    0.68
  -4  14   3    2.03    0.26
   4  14  -3    2.25    0.60
   4  14  -3    2.46    0.23
  -3 -14   3    2.88    0.59
  -3 -14   3    4.12    0.85
   3  14  -3    5.09    0.74
  -3  14   3    2.95    0.64
  -3  14   3    3.87    0.34
   3  14  -3    4.51    0.31
  -2 -14   3    2.93    0.53
  -2 -14   3    2.33    0.51
   2  14  -3    1.74    0.44
   2  14  -3    1.99    0.19
  -2  14   3    1.46    0.49
  -2  14   3    1.56    0.22
  -1 -14   3    2.26    0.42
   1  14  -3    1.85    0.18
  -1  14   3    1.45    0.22
  -1  14   3    1.62    0.47
   0  14   3    3.15    0.64
   0  14  -3    3.20    0.25
   0  14   3    4.15    0.64
   0  14   3    3.15    0.30
   1  14   3    5.41    0.72
   1  14   3    4.27    0.74
  -1  14  -3    4.74    0.35
   2 -14   3   10.49    1.05
  -2 -14  -3   10.26    1.20
  -2  14  -3   10.18    0.69
   2  14   3   10.36    1.05
   2  14   3   11.18    1.05
   3 -14   3    1.27    0.61
  -3  14  -3    2.50    0.23
   3  14   3    3.53    0.68
   3  14   3    3.29    0.63
  -4 -14  -3   11.20    1.47
   4 -14   3   10.83    1.41
   4  14   3   12.68    1.32
  -4  14  -3   14.30    0.87
   4  14   3   14.65    1.29
  -5 -14  -3   11.76    0.97
  -5 -14  -3   12.39    1.01
  -5 -14  -3   13.43    1.05
  -5 -14  -3   13.10    1.08
   5  14   3   14.58    1.39
  -5  14  -3   14.56    0.90
  -5  14  -3   13.95    1.00
  -5  14  -3   14.18    0.99
  -5  14  -3   13.64    0.97
  -5  14  -3   13.27    1.01
  -6 -14  -3    9.11    0.74
  -6 -14  -3    9.75    0.79
  -6 -14  -3   10.03    0.85
  -6 -14  -3    9.41    0.72
   6  14   3   10.33    1.31
  -6  14  -3    9.57    0.74
  -6  14  -3    8.77    0.75
  -6  14  -3    9.37    0.71
  -6  14  -3    8.92    0.72
  -7 -14  -3    1.62    0.23
  -7 -14  -3    1.59    0.32
  -7 -14  -3    1.38    0.25
  -7  14  -3    1.03    0.24
  -7  14  -3    1.31    0.29
  -8 -14  -3    0.83    0.22
  -8  14  -3    0.67    0.19
  -8  14  -3    0.50    0.18
  -8  14  -3    0.54    0.19
  -9 -14  -3    0.05    0.16
  -9 -14  -3    0.02    0.16
  -9 -14  -3   -0.07    0.17
  -9  14  -3    0.01    0.15
  -9  14  -3    0.04    0.16
  -9  14  -3    0.01    0.17
 -10 -14  -3    0.45    0.15
 -10 -14  -3    0.27    0.14
 -10 -14  -3    0.40    0.14
 -10  14  -3    0.45    0.15
 -10  14  -3    0.49    0.15
 -10  14  -3    0.46    0.13
 -10 -15   3    3.76    0.32
 -10 -15   3    2.91    0.32
  -9 -15   3    0.35    0.16
  -9 -15   3    0.23    0.17
  -9  15   3    0.16    0.15
  -9  15   3    0.13    0.17
  -9  15   3   -0.02    0.16
  -8 -15   3    3.72    0.39
  -8 -15   3    2.97    0.40
  -8 -15   3    3.72    0.38
  -8 -15   3    3.74    0.42
  -8  15   3    2.80    0.33
  -8  15   3    2.77    0.37
  -8  15   3    3.13    0.39
  -7 -15   3    5.09    0.44
  -7 -15   3    4.82    0.43
  -7  15   3    3.65    0.43
  -7  15   3    3.86    0.42
  -7  15   3    3.27    0.45
  -7  15   3    3.67    0.38
  -6 -15   3    4.64    0.49
  -6 -15   3    4.45    0.48
  -6 -15   3    4.75    0.47
  -6 -15   3    4.36    0.96
  -6 -15   3    4.72    0.49
  -6  15   3    5.38    0.48
  -6  15   3    5.58    0.47
  -6  15   3    6.12    0.52
   6  15  -3    5.53    0.41
  -6  15   3    5.19    0.44
   6  15  -3    7.26    1.09
  -5 -15   3    4.65    0.95
  -5 -15   3    5.24    0.49
  -5 -15   3    4.86    0.51
  -5 -15   3    4.77    0.52
  -5 -15   3    5.46    0.51
   5  15  -3    7.80    0.99
  -5  15   3    6.22    0.51
  -5  15   3    5.85    0.49
  -5  15   3    6.46    0.46
  -5  15   3    6.62    0.54
  -5  15   3    5.67    0.52
   5  15  -3    6.02    0.43
  -4 -15   3    8.34    0.64
  -4 -15   3    9.31    0.63
  -4 -15   3   10.04    1.20
  -4  15   3    7.54    0.58
   4  15  -3    7.65    1.07
  -4  15   3    7.69    0.63
  -4  15   3    7.48    0.63
   4  15  -3    7.46    0.55
   3  15  -3    2.69    0.23
   3  15  -3    2.67    0.58
  -3  15   3    2.19    0.28
  -2 -15   3   13.80    1.30
   2  15  -3   15.67    1.00
  -2  15   3   14.77    1.38
  -2  15   3   16.07    1.01
   1  15  -3    2.33    0.21
  -1  15   3    2.27    0.26
  -1  15   3    2.32    0.57
   0 -15   3    6.24    0.82
   0  15   3    6.73    0.51
   0  15   3    6.77    0.86
   0  15  -3    7.47    0.48
   1 -15   3    0.09    0.48
   1  15   3    0.60    0.45
   1  15   3    0.88    0.46
   2 -15   3   13.77    1.27
  -2 -15  -3   15.43    1.48
   2  15   3   12.42    1.26
  -2  15  -3   12.96    0.89
   2  15   3   14.25    1.27
  -3 -15  -3    6.80    1.15
   3 -15   3    7.04    1.04
   3  15   3    5.02    0.94
   3  15   3    6.03    0.86
  -3  15  -3    5.67    0.42
  -4 -15  -3    3.30    0.33
  -4 -15  -3    3.00    0.40
  -4 -15  -3    3.71    0.45
   4 -15   3    3.71    1.06
  -4  15  -3    3.00    0.37
  -4  15  -3    2.84    0.32
   4  15   3    2.23    0.33
  -4  15  -3    2.55    0.28
   4  15   3    2.19    0.62
  -5  15  -3    2.62    0.35
   5  15   3    2.26    0.68
  -5  15  -3    2.76    0.34
  -5  15  -3    2.69    0.31
   5  15   3    2.48    0.35
  -5  15  -3    2.00    0.31
  -5  15  -3    2.61    0.32
  -6 -15  -3    2.81    0.55
  -6 -15  -3    2.42    0.37
   6  15   3    3.93    0.42
   6  15   3    5.20    1.12
  -6  15  -3    3.79    0.37
  -6  15  -3    3.53    0.41
  -6  15  -3    3.36    0.37
  -6  15  -3    3.06    0.37
  -7 -15  -3    0.03    0.34
  -7  15  -3    0.95    0.21
  -7  15  -3    0.94    0.19
  -8 -15  -3    8.14    0.68
  -8 -15  -3    8.41    0.67
  -8  15  -3    8.27    0.66
  -8  15  -3    9.14    0.69
  -8  15  -3    8.52    0.67
  -9 -15  -3    0.89    0.19
  -9 -15  -3    1.17    0.25
  -9 -15  -3    1.31    0.26
  -9  15  -3    1.33    0.25
  -9  15  -3    1.13    0.25
  -9  15  -3    1.09    0.19
 -10  15  -3    3.36    0.29
 -10  15  -3    3.44    0.31
 -10  15  -3    3.25    0.32
  -9 -16   3    0.67    0.17
  -9  16   3    0.93    0.17
  -9  16   3    0.76    0.17
  -9  16   3    0.98    0.17
  -8 -16   3    9.47    0.80
  -8 -16   3    9.59    0.77
  -8 -16   3    8.39    0.75
  -8 -16   3    8.79    0.74
  -8  16   3   10.70    0.77
  -8  16   3    9.85    0.68
  -8  16   3   10.45    0.75
  -8  16   3   10.40    0.73
  -7 -16   3    0.59    0.22
  -7 -16   3    0.82    0.19
  -7 -16   3    0.87    0.22
  -7 -16   3    1.18    0.22
  -7  16   3    0.89    0.23
  -7  16   3    1.17    0.22
  -7  16   3    1.04    0.20
  -7  16   3    0.94    0.21
  -6 -16   3    6.48    0.53
  -6 -16   3    5.27    0.54
  -6 -16   3    5.86    0.52
  -6 -16   3    5.91    0.53
  -6  16   3    5.90    0.53
  -6  16   3    5.67    0.48
  -6  16   3    5.90    0.56
  -6  16   3    5.98    0.52
   6  16  -3    5.68    0.45
  -5 -16   3    0.88    0.83
  -5 -16   3    1.01    0.23
  -5 -16   3    1.11    0.22
  -5 -16   3    0.92    0.21
  -5  16   3    1.47    0.28
   5  16  -3    1.57    0.24
  -5  16   3    1.87    0.34
  -5  16   3    1.84    0.29
   5  16  -3    2.00    0.68
  -5  16   3    1.51    0.24
  -4 -16   3    3.54    0.41
  -4 -16   3    4.55    0.39
  -4 -16   3    3.42    0.87
  -4 -16   3    3.94    0.40
   4  16  -3    3.69    0.69
  -4  16   3    3.99    0.45
  -4  16   3    3.67    0.40
  -4  16   3    3.08    0.36
  -4  16   3    3.62    0.40
  -4  16   3    3.54    0.38
   4  16  -3    3.73    0.32
  -3  16   3    9.96    0.70
   3  16  -3   10.19    0.68
  -2 -16   3    1.14    0.55
   2  16  -3    1.90    0.20
  -2  16   3    1.91    0.26
   1  16  -3    0.56    0.12
  -1  16   3    0.67    0.16
  -1  16   3    0.71    0.58
   0 -16   3    0.25    0.50
   0  16   3    0.74    0.54
   0  16   3    0.64    0.17
   1  16   3    2.44    0.58
  -1  16  -3    3.17    0.26
   1  16   3    2.76    0.66
   2 -16   3   29.43    2.46
   2  16   3   34.14    2.54
  -2  16  -3   34.31    2.09
   2  16   3   32.21    2.48
  -3 -16  -3    7.88    1.51
   3  16   3    9.64    1.11
  -3  16  -3   10.32    0.74
  -3  16  -3    9.40    0.66
  -4 -16  -3   20.31    1.48
  -4 -16  -3   20.50    1.62
   4 -16   3   21.09    1.54
  -4 -16  -3   19.31    1.51
  -4 -16  -3   19.56    1.54
  -4  16  -3   20.93    1.52
   4  16   3   23.38    1.86
  -4  16  -3   20.95    1.48
   4  16   3   22.00    1.47
  -4  16  -3   22.47    1.37
  -4  16  -3   21.00    1.52
  -4  16  -3   21.42    1.54
  -5  16  -3    2.65    0.31
  -5  16  -3    2.19    0.32
   5  16   3    2.02    0.33
  -5  16  -3    2.43    0.37
   5  16   3    2.23    0.72
  -5  16  -3    2.48    0.36
  -5  16  -3    2.44    0.32
  -6 -16  -3    0.43    0.20
   6 -16   3    0.75    0.24
  -6 -16  -3    0.44    0.21
  -6 -16  -3    0.32    0.30
  -6  16  -3    0.94    0.20
  -6  16  -3    0.92    0.19
  -6  16  -3    0.86    0.19
  -6  16  -3    1.04    0.22
   6  16   3    0.76    0.21
  -7 -16  -3    2.66    0.40
  -7 -16  -3    3.02    0.37
  -7 -16  -3    3.02    0.52
  -7 -16  -3    2.55    0.37
  -7  16  -3    2.91    0.38
  -7  16  -3    2.83    0.37
   7  16   3    3.38    0.40
  -7  16  -3    2.37    0.36
  -8 -16  -3    0.29    0.18
  -8 -16  -3    0.18    0.19
  -8 -16  -3    0.35    0.18
  -8  16  -3    0.23    0.18
  -8  16  -3    0.22    0.17
  -8  16  -3    0.13    0.18
  -9 -16  -3    0.33    0.16
  -9 -16  -3    0.15    0.15
  -9 -16  -3    0.21    0.15
  -9  16  -3    0.15    0.15
  -9  16  -3    0.13    0.15
  -9  16  -3    0.07    0.14
  -9  17   3    2.62    0.30
  -9  17   3    3.10    0.31
  -9  17   3    2.63    0.29
  -8 -17   3    0.18    0.16
  -8 -17   3    0.01    0.19
  -8 -17   3    0.45    0.19
  -8 -17   3    0.09    0.20
   8  17  -3    0.26    0.16
  -8  17   3    0.22    0.16
  -8  17   3    0.40    0.17
  -8  17   3    0.06    0.17
  -8  17   3    0.42    0.17
  -7 -17   3    1.45    0.32
  -7 -17   3    1.62    0.30
  -7 -17   3    0.93    0.24
  -7  17   3    1.36    0.28
  -7  17   3    1.30    0.24
  -7  17   3    1.44    0.23
  -7  17   3    1.40    0.23
  -6 -17   3    0.85    0.24
  -6 -17   3    0.86    0.21
  -6 -17   3    1.00    0.20
  -6 -17   3    0.68    0.22
  -6  17   3    1.17    0.23
  -6  17   3    0.97    0.22
   6  17  -3    1.18    0.18
  -6  17   3    1.05    0.20
  -6  17   3    0.90    0.22
  -5 -17   3    2.73    0.40
  -5 -17   3    2.84    0.40
  -5 -17   3    2.63    0.45
  -5 -17   3    2.26    1.02
  -5  17   3    3.98    0.44
   5  17  -3    4.08    0.33
  -5  17   3    3.82    0.37
  -5  17   3    4.17    0.44
  -5  17   3    3.96    0.39
  -5  17   3    3.60    0.41
  -4 -17   3    3.46    0.37
  -4 -17   3    3.41    0.38
  -4 -17   3    4.12    0.46
  -4 -17   3    2.90    0.42
  -4  17   3    2.94    0.40
  -4  17   3    2.60    0.35
  -4  17   3    3.12    0.39
  -4  17   3    2.75    0.39
  -4  17   3    3.85    0.45
   4  17  -3    3.31    0.29
  -3 -17   3    7.79    0.73
  -3 -17   3    7.07    0.69
  -3 -17   3    7.26    0.67
  -3  17   3    9.70    0.63
   3  17  -3    9.74    0.65
  -3  17   3    9.07    0.68
  -3  17   3    8.63    0.69
   3  17  -3    9.66    0.60
  -3  17   3    8.86    0.68
  -2 -17   3    4.59    0.41
  -2 -17   3    4.62    0.42
   2  17  -3    4.04    0.38
  -2  17   3    3.88    0.38
   2  17  -3    4.18    0.34
  -1 -17   3    5.02    0.94
  -1  17   3    5.47    1.16
   1  17  -3    6.82    0.47
  -1  17   3    6.64    0.49
   0  17   3    2.34    0.73
   0  17   3    2.58    0.31
   0  17  -3    2.85    0.26
   1  17   3    4.36    0.79
  -1  17  -3    4.33    0.35
   2 -17   3    5.31    0.95
  -2 -17  -3    5.37    0.54
  -2 -17  -3    6.57    0.52
  -2  17  -3    6.12    0.44
   2  17   3    6.22    0.49
   2  17   3    6.74    0.99
  -3 -17  -3    6.85    0.58
  -3 -17  -3    6.59    0.60
  -3 -17  -3    6.30    0.53
   3 -17   3    7.40    0.56
  -3  17  -3    5.66    0.52
   3  17   3    6.19    0.51
   3  17   3    5.54    1.08
  -3  17  -3    6.36    0.47
  -3  17  -3    6.24    0.55
  -3  17  -3    5.30    0.53
  -4 -17  -3    0.84    0.24
   4 -17   3    1.56    0.33
  -4 -17  -3    1.18    0.28
  -4 -17  -3    0.91    0.21
   4  17   3    1.67    0.70
  -4  17  -3    1.18    0.20
  -4  17  -3    1.67    0.31
  -5 -17  -3    0.31    0.27
  -5  17  -3    0.97    0.20
   5  17   3    1.03    0.19
  -5  17  -3    1.11    0.22
  -5  17  -3    0.90    0.18
  -5  17  -3    0.77    0.19
  -5  17  -3    0.86    0.21
   5  17   3    1.38    0.78
  -6 -17  -3    0.81    0.29
  -6 -17  -3    0.86    0.21
  -6 -17  -3    0.71    0.21
  -6 -17  -3    0.67    0.21
   6 -17   3    0.85    0.23
  -6  17  -3    0.35    0.19
  -6  17  -3    0.56    0.20
  -6  17  -3    0.45    0.21
   6  17   3    0.66    0.20
  -6  17  -3    0.80    0.24
  -6  17  -3    0.71    0.18
  -7 -17  -3    4.94    0.45
  -7 -17  -3    4.68    0.55
  -7 -17  -3    4.80    0.48
  -7 -17  -3    4.63    0.46
  -7  17  -3    4.81    0.45
   7  17   3    4.42    0.45
  -7  17  -3    4.11    0.44
  -7  17  -3    4.32    0.45
  -8  17  -3    1.03    0.19
  -8  17  -3    0.66    0.18
  -8  17  -3    0.95    0.18
  -9 -17  -3    2.39    0.29
  -9 -17  -3    2.70    0.27
  -9 -17  -3    2.71    0.27
  -9  17  -3    1.81    0.27
  -9  17  -3    1.91    0.26
  -9  17  -3    1.92    0.26
  -9  18   3    1.47    0.23
  -9  18   3    1.54    0.22
  -9  18   3    1.04    0.22
  -8 -18   3    2.10    0.33
  -8 -18   3    2.34    0.32
  -8 -18   3    1.68    0.32
  -8 -18   3    2.15    0.32
  -8  18   3    2.43    0.26
  -8  18   3    2.14    0.31
  -8  18   3    2.47    0.30
  -8  18   3    2.37    0.29
   8  18  -3    2.34    0.28
  -7 -18   3    7.81    0.71
  -7 -18   3    8.49    0.71
  -7 -18   3    8.63    0.71
  -7 -18   3    9.04    0.74
  -7  18   3    9.36    0.72
  -7  18   3    9.63    0.69
  -7  18   3    9.42    0.64
  -7  18   3    8.43    0.70
   7  18  -3    9.57    0.67
  -6 -18   3    0.09    0.18
  -6 -18   3   -0.32    0.22
  -6 -18   3    0.09    0.21
  -6 -18   3    0.04    0.17
  -6  18   3   -0.08    0.20
  -6  18   3   -0.14    0.19
   6  18  -3    0.14    0.16
  -6  18   3    0.00    0.20
  -6  18   3    0.02    0.18
   6  18  -3    0.08    0.16
  -5  18   3    1.20    0.24
  -5  18   3    0.73    0.21
  -5  18   3    0.92    0.23
  -5  18   3    1.11    0.21
   5  18  -3    0.75    0.18
  -5  18   3    0.51    0.21
   5  18  -3    1.00    0.17
  -4 -18   3    0.18    0.20
  -4 -18   3    0.68    0.25
  -4  18   3    0.24    0.20
   4  18  -3    0.23    0.14
  -4  18   3    0.53    0.24
   4  18  -3    0.18    0.16
  -4  18   3    0.08    0.19
  -4  18   3    0.21    0.20
  -4  18   3    0.10    0.19
  -3 -18   3    9.62    0.78
  -3 -18   3   10.08    0.84
  -3 -18   3   10.32    0.79
   3 -18  -3    9.62    0.79
  -3  18   3    9.70    0.79
  -3  18   3   10.22    0.77
   3  18  -3   10.02    0.75
   3  18  -3   10.72    0.69
  -3  18   3   10.02    0.77
  -3  18   3   10.72    0.71
   2 -18  -3    0.10    0.20
  -2 -18   3    0.50    0.30
  -2 -18   3    0.07    0.20
  -2 -18   3   -0.08    0.16
  -2  18   3    0.45    0.23
   2  18  -3    0.15    0.16
   2  18  -3    0.33    0.13
  -2  18   3    0.36    0.19
  -2  18   3    0.12    0.17
  -2  18   3    0.39    0.18
  -1 -18   3    2.53    0.34
  -1 -18   3    2.43    0.32
   1 -18  -3    2.49    0.37
   1  18  -3    1.84    0.29
  -1  18   3    2.19    0.29
  -1  18   3    1.64    0.31
  -1  18   3    2.34    0.37
   1  18  -3    2.63    0.26
   0 -18   3    2.95    0.37
   0 -18  -3    3.59    0.37
   0  18  -3    2.99    0.34
   0  18   3    2.45    0.46
   0  18   3    2.36    0.84
   0  18  -3    3.30    0.30
   0  18   3    2.58    0.33
   0  18   3    3.02    0.34
  -1  18  -3    4.09    0.41
  -1  18  -3    4.09    0.45
   1  18   3    3.84    0.40
  -1  18  -3    4.92    0.36
  -2 -18  -3    6.31    0.60
   2 -18   3    6.27    0.62
  -2  18  -3    8.14    0.62
   2  18   3    7.69    0.58
  -2  18  -3    8.44    0.53
  -2  18  -3    7.33    0.61
  -3 -18  -3   13.44    1.02
  -3 -18  -3   14.52    0.96
   3 -18   3   13.99    1.00
  -3 -18  -3   13.18    0.99
  -3  18  -3   13.13    0.98
  -3  18  -3   12.82    0.88
   3  18   3   12.18    1.42
   3  18   3   12.06    0.94
  -3  18  -3   12.34    0.98
  -4 -18  -3    0.50    0.19
  -4 -18  -3    0.79    0.27
   4 -18   3    0.90    0.22
  -4 -18  -3    0.78    0.23
  -4  18  -3    0.54    0.18
  -4  18  -3    0.92    0.21
   4  18   3   -0.04    0.72
   4  18   3    0.79    0.19
  -4  18  -3    0.76    0.17
  -4  18  -3    0.81    0.20
  -5  18  -3    1.95    0.32
  -5  18  -3    1.76    0.34
  -5  18  -3    2.16    0.36
  -5  18  -3    2.49    0.34
   5  18   3    2.09    0.33
  -5  18  -3    1.80    0.32
  -6 -18  -3    0.09    0.19
  -6 -18  -3   -0.02    0.19
   6 -18   3    0.31    0.23
  -6 -18  -3   -0.08    0.26
  -6 -18  -3    0.11    0.19
  -6  18  -3    0.41    0.22
   6  18   3    0.15    0.18
  -6  18  -3    0.05    0.19
  -6  18  -3    0.16    0.17
  -6  18  -3   -0.09    0.18
  -6  18  -3    0.28    0.22
  -7 -18  -3    0.97    0.21
  -7 -18  -3    0.75    0.20
  -7 -18  -3    0.77    0.28
  -7 -18  -3    1.28    0.22
  -7  18  -3    1.48    0.30
  -8 -18  -3    0.81    0.18
  -8 -18  -3    0.85    0.18
  -8 -18  -3    0.83    0.17
  -8  18  -3    0.63    0.18
  -8  18  -3    0.50    0.17
  -8  18  -3    0.53    0.17
  -9 -18  -3    2.24    0.26
  -9 -18  -3    1.89    0.24
  -9 -18  -3    2.11    0.25
  -9  18  -3    1.54    0.24
  -9  18  -3    1.78    0.23
  -9  18  -3    1.81    0.23
  -9 -19   3    5.76    0.43
  -9  19   3    4.93    0.42
  -9  19   3    5.80    0.44
  -8 -19   3    0.37    0.18
  -8 -19   3    0.76    0.17
  -8 -19   3    0.58    0.16
  -8 -19   3    0.57    0.19
   8  19  -3    0.83    0.15
  -8  19   3    0.68    0.17
  -8  19   3    0.78    0.16
  -8  19   3    0.99    0.17
  -7 -19   3    1.78    0.34
  -7 -19   3    1.99    0.34
  -7 -19   3    2.47    0.32
  -7  19   3    1.64    0.31
   7  19  -3    1.92    0.27
  -7  19   3    1.68    0.32
  -7  19   3    1.37    0.26
  -7  19   3    1.91    0.30
  -6 -19   3    0.18    0.22
  -6 -19   3    0.34    0.18
  -6 -19   3    0.45    0.18
  -6 -19   3    0.16    0.21
  -6  19   3    0.78    0.21
  -6  19   3    0.80    0.20
  -6  19   3    0.79    0.20
  -6  19   3    0.42    0.20
   5  19  -3    2.04    0.32
   5  19  -3    1.91    0.27
  -5  19   3    2.01    0.38
  -5  19   3    1.85    0.25
  -5  19   3    1.88    0.26
  -5  19   3    1.52    0.32
  -4 -19   3    0.37    0.19
   4 -19  -3    0.36    0.23
  -4 -19   3    0.34    0.24
  -4 -19   3    0.18    0.21
  -4  19   3    0.11    0.19
  -4  19   3    0.45    0.21
   4  19  -3    0.22    0.15
  -4  19   3    0.13    0.21
  -4  19   3    0.11    0.20
   4  19  -3    0.11    0.17
  -3 -19   3    9.63    0.81
  -3 -19   3   10.27    0.81
   3 -19  -3    9.44    0.81
  -3 -19   3    9.43    0.87
   3  19  -3   11.62    0.79
  -3  19   3   10.76    0.82
   3  19  -3   11.48    0.73
  -3  19   3   10.80    0.80
  -3  19   3   11.02    0.75
  -3  19   3   11.45    0.81
  -2 -19   3    0.91    0.22
  -2 -19   3    1.04    0.20
  -2 -19   3    1.38    0.32
   2 -19  -3    1.37    0.22
   2  19  -3    1.26    0.24
   2  19  -3    0.87    0.18
  -2  19   3    0.80    0.21
  -2  19   3    0.87    0.20
  -2  19   3    0.60    0.20
   1  19  -3    2.37    0.28
  -1  19   3    2.32    0.37
  -1  19   3    1.98    0.31
   1  19  -3    2.14    0.30
  -1  19   3    2.04    0.32
   0 -19   3    0.32    0.19
   0 -19  -3    0.57    0.20
   0 -19   3    0.39    0.18
   0  19   3    0.23    0.19
   0  19  -3    0.54    0.15
   0  19   3    0.35    0.22
   0  19   3    0.21    0.18
   0  19  -3    0.19    0.17
   2 -19   3    0.11    0.18
  -2 -19  -3    0.21    0.20
   2 -19   3    0.23    0.16
  -2  19  -3    0.31    0.15
  -2  19  -3    0.05    0.20
   2  19   3    0.28    0.18
  -2  19  -3    0.17    0.19
  -3 -19  -3    0.46    0.19
  -3 -19  -3    0.34    0.24
   3 -19   3    0.57    0.20
  -3 -19  -3    0.22    0.24
   3  19   3    0.58    0.18
  -3  19  -3    0.45    0.16
  -3  19  -3    0.09    0.18
  -3  19  -3    0.50    0.19
  -3  19  -3    0.53    0.22
   4 -19   3    3.18    0.41
  -4 -19  -3    3.04    0.39
  -4 -19  -3    2.98    0.44
  -4  19  -3    4.02    0.40
   4  19   3    3.55    1.05
  -4  19  -3    3.96    0.38
   5 -19   3    0.39    0.21
  -5 -19  -3    0.36    0.22
  -5 -19  -3   -0.02    0.20
  -5 -19  -3    0.16    0.20
  -5 -19  -3   -0.18    0.24
  -5  19  -3    0.26    0.16
  -5  19  -3    0.45    0.21
   5  19   3    0.25    0.17
  -5  19  -3    0.35    0.19
  -5  19  -3    0.49    0.20
  -6 -19  -3    1.62    0.33
  -6 -19  -3    1.96    0.33
   6 -19   3    2.03    0.36
  -6 -19  -3    1.40    0.29
  -6 -19  -3    2.09    0.36
  -6  19  -3    1.89    0.35
  -6  19  -3    1.46    0.33
  -6  19  -3    1.55    0.32
  -6  19  -3    1.36    0.32
   6  19   3    1.77    0.32
  -7 -19  -3   11.99    1.00
  -7 -19  -3   12.73    0.95
  -7 -19  -3   12.82    0.93
  -7  19  -3   12.39    0.93
  -7  19  -3   12.50    0.92
  -7  19  -3   13.16    0.95
   7  19   3   12.54    0.91
  -8 -19  -3   -0.02    0.15
  -8 -19  -3    0.13    0.15
  -8 -19  -3    0.07    0.16
   8  19   3    0.18    0.18
  -8  19  -3    0.16    0.14
  -8  19  -3   -0.14    0.14
  -8  19  -3   -0.05    0.15
  -8 -20   3    0.79    0.16
  -8 -20   3    0.69    0.17
  -8 -20   3    0.83    0.16
  -8  20   3    0.55    0.15
  -8  20   3    0.52    0.16
   8  20  -3    0.59    0.15
  -8  20   3    0.71    0.15
  -7 -20   3    8.95    0.68
  -7 -20   3    9.69    0.68
  -7 -20   3    9.07    0.68
  -7 -20   3    9.86    0.72
  -7  20   3    7.70    0.61
   7  20  -3    8.67    0.64
  -7  20   3    8.51    0.67
  -7  20   3    8.12    0.69
  -7  20   3    8.04    0.67
  -6  20   3    0.94    0.21
  -6  20   3    0.58    0.20
   6  20  -3    0.77    0.17
  -6  20   3    0.97    0.19
  -6  20   3    0.76    0.20
   4 -20  -3    0.48    0.22
  -4 -20   3    0.17    0.25
  -4 -20   3    0.13    0.21
  -4 -20   3    0.43    0.18
  -4  20   3   -0.05    0.21
  -4  20   3    0.10    0.20
  -4  20   3   -0.18    0.20
   4  20  -3    0.18    0.17
   4  20  -3    0.20    0.15
  -4  20   3    0.15    0.20
  -3 -20   3    1.48    0.31
  -3 -20   3    1.13    0.24
   3 -20  -3    1.60    0.34
  -3  20   3    1.68    0.34
   3  20  -3    1.36    0.28
   3  20  -3    1.53    0.25
  -3  20   3    1.19    0.24
  -3  20   3    1.12    0.22
  -3  20   3    1.26    0.23
   2 -20  -3    5.65    0.47
  -2 -20   3    5.18    0.51
  -2 -20   3    5.72    0.61
  -2  20   3    4.14    0.42
   2  20  -3    4.40    0.39
   2  20  -3    4.17    0.43
  -2  20   3    4.03    0.44
  -2  20   3    4.05    0.48
  -1 -20   3    1.24    0.24
   1 -20  -3    1.23    0.23
  -1 -20   3    1.16    0.22
  -1  20   3    1.18    0.25
   1  20  -3    1.82    0.27
  -1  20   3    1.46    0.22
   1  20  -3    1.89    0.29
  -1  20   3    1.42    0.31
   0 -20  -3    4.06    0.44
   0 -20   3    3.96    0.43
   0 -20   3    3.55    0.44
   0  20  -3    4.55    0.43
   0  20  -3    5.30    0.38
   0  20   3    4.98    0.43
   0  20   3    5.12    0.49
  -2  20  -3    1.38    0.23
  -2  20  -3    1.73    0.26
  -2  20  -3    1.79    0.26
   2  20   3    1.51    0.30
   3 -20   3    9.56    0.65
  -3  20  -3    7.98    0.57
  -3  20  -3    7.55    0.65
  -3  20  -3    7.11    0.64
   3  20   3    6.85    0.62
  -4  20  -3    1.33    0.23
  -4  20  -3    1.28    0.30
   4  20   3    1.69    0.32
  -4  20  -3    1.81    0.29
  -5 -20  -3    3.12    0.41
  -5  20  -3    1.90    0.35
   5  20   3    2.51    0.33
  -5  20  -3    2.28    0.32
  -5  20  -3    2.30    0.39
  -5  20  -3    2.13    0.33
  -6 -20  -3    0.88    0.21
  -6 -20  -3    0.67    0.21
  -6 -20  -3    1.18    0.23
  -6  20  -3    0.98    0.20
  -6  20  -3    1.31    0.28
  -6  20  -3    1.76    0.33
  -6  20  -3    1.63    0.31
   6  20   3    1.32    0.28
  -7 -20  -3    2.48    0.35
  -7 -20  -3    2.22    0.32
  -7 -20  -3    2.36    0.32
   7  20   3    2.38    0.31
  -7  20  -3    2.13    0.29
  -7  20  -3    2.10    0.31
  -7  20  -3    2.48    0.31
  -8 -20  -3    0.74    0.15
  -8 -20  -3    0.59    0.15
  -8 -20  -3    0.83    0.17
   8 -20   3    0.70    0.14
  -8  20  -3    0.37    0.15
  -8  20  -3    0.95    0.21
  -8  20  -3    0.44    0.15
   8  20   3    0.33    0.16
  -8  21   3    0.45    0.14
   8  21  -3    0.08    0.13
  -8  21   3    0.25    0.13
  -8  21   3    0.24    0.13
  -7  21   3    1.65    0.26
  -7  21   3    1.56    0.27
   7  21  -3    1.39    0.23
  -7  21   3    1.21    0.20
  -6 -21   3    0.68    0.20
  -6 -21   3    0.64    0.18
  -6 -21   3    0.34    0.22
  -6  21   3    0.27    0.19
  -6  21   3    0.44    0.18
   6  21  -3    0.55    0.16
  -6  21   3    0.83    0.19
  -6  21   3    0.26    0.17
  -5 -21   3    0.29    0.23
  -5  21   3    0.66    0.21
  -5  21   3    0.39    0.20
   5  21  -3    0.89    0.18
  -5  21   3    0.67    0.20
   5  21  -3    0.75    0.18
  -4 -21   3    6.05    0.49
   4 -21  -3    5.67    0.49
  -4 -21   3    5.79    0.56
  -4 -21   3    5.11    0.51
   4  21  -3    4.90    0.42
   4  21  -3    4.76    0.46
  -4  21   3    4.87    0.45
  -4  21   3    4.88    0.51
  -4  21   3    4.69    0.49
  -4  21   3    4.65    0.49
  -3 -21   3    5.50    0.52
  -3 -21   3    5.15    0.61
   3 -21  -3    5.21    0.53
  -3  21   3    5.87    0.49
  -3  21   3    5.86    0.55
  -3  21   3    5.94    0.54
   3  21  -3    5.78    0.50
  -3  21   3    5.80    0.52
   3  21  -3    6.37    0.45
  -2 -21   3    1.06    0.25
  -2 -21   3    0.82    0.35
   2  21  -3    1.69    0.30
  -2  21   3    1.71    0.24
   2  21  -3    1.74    0.26
  -2  21   3    1.56    0.34
   2  21  -3    1.50    0.25
  -2  21   3    1.44    0.25
  -1 -21   3    3.05    0.36
   1 -21  -3    3.37    0.37
  -1 -21   3    2.87    0.39
  -1  21   3    2.27    0.35
  -1  21   3    2.03    0.38
   1  21  -3    2.72    0.31
   1  21  -3    2.56    0.34
  -1  21   3    1.93    0.37
   0 -21   3    0.15    0.19
   0 -21   3    0.27    0.18
   0 -21  -3    0.38    0.21
   0  21   3    0.48    0.19
   0  21  -3    0.49    0.18
   0  21  -3    0.81    0.17
   0  21   3    0.96    0.22
  -1 -21  -3    1.33    0.23
   1 -21   3    1.03    0.20
   1 -21   3    1.03    0.20
  -1  21  -3    0.67    0.20
   1  21   3    1.04    0.24
   1  21   3    0.59    0.19
  -1  21  -3    0.81    0.24
  -1  21  -3    1.18    0.24
   2 -21   3    0.72    0.20
  -2 -21  -3    0.88    0.21
   2 -21   3    0.80    0.19
   2  21   3    1.45    0.31
  -3 -21  -3    6.92    0.60
   3 -21   3    6.50    0.53
  -3 -21  -3    7.19    0.55
   3 -21   3    6.67    0.54
  -3  21  -3    5.54    0.56
   3  21   3    5.58    0.52
  -3  21  -3    5.81    0.55
  -3  21  -3    5.85    0.49
  -4 -21  -3    4.80    0.52
  -4 -21  -3    4.78    0.49
   4 -21   3    4.71    0.49
   4 -21   3    4.87    0.47
  -4  21  -3    5.90    0.51
  -4  21  -3    5.42    0.48
   4  21   3    6.25    0.48
  -4  21  -3    6.23    0.45
   5 -21   3    0.79    0.21
  -5 -21  -3    0.53    0.21
  -5 -21  -3    0.83    0.21
  -5  21  -3    0.95    0.21
   5  21   3    0.40    0.18
  -5  21  -3    0.63    0.18
  -5  21  -3    0.53    0.20
  -6 -21  -3    0.64    0.18
   6 -21   3    0.60    0.17
  -6 -21  -3    0.77    0.22
  -6 -21  -3    0.56    0.19
   6  21   3    0.36    0.17
  -6  21  -3    0.34    0.17
  -6  21  -3    0.28    0.17
  -6  21  -3    0.43    0.19
  -7 -21  -3    5.03    0.43
  -7 -21  -3    5.20    0.44
  -7 -21  -3    5.82    0.48
   7 -21   3    5.18    0.41
  -7  21  -3    4.66    0.43
  -7  21  -3    4.23    0.42
  -7  21  -3    4.68    0.43
   7  21   3    4.74    0.42
  -8 -21  -3    1.15    0.21
  -8 -21  -3    1.32    0.24
   8 -21   3    1.38    0.19
  -8 -21  -3    1.30    0.23
  -8  21  -3    1.76    0.22
  -8  21  -3    1.67    0.21
  -7 -22   3    8.18    0.66
  -7 -22   3    8.03    0.61
  -7 -22   3    8.62    0.62
   7  22  -3    7.77    0.59
  -7  22   3    8.40    0.63
  -7  22   3    7.54    0.60
  -7  22   3    7.80    0.61
  -6  22   3    2.83    0.32
  -6  22   3    3.08    0.35
   6  22  -3    2.86    0.30
  -6  22   3    2.40    0.31
  -6  22   3    2.36    0.33
  -5 -22   3    4.89    0.48
  -5 -22   3    4.87    0.45
   5  22  -3    3.89    0.41
  -5  22   3    4.90    0.44
   5  22  -3    5.07    0.41
  -5  22   3    4.53    0.40
  -5  22   3    4.86    0.45
   4 -22  -3    1.47    0.24
  -4 -22   3    2.03    0.42
  -4 -22   3    1.88    0.32
  -4  22   3    1.82    0.34
   4  22  -3    1.76    0.30
  -4  22   3    1.21    0.23
   4  22  -3    1.25    0.26
  -4  22   3    1.32    0.23
  -4  22   3    0.99    0.24
  -3  22   3    1.78    0.32
   3  22  -3    1.83    0.32
  -3  22   3    2.08    0.34
   3  22  -3    1.63    0.31
  -3  22   3    1.37    0.25
   3  22  -3    1.88    0.27
   2 -22  -3    2.08    0.37
  -2 -22   3    2.25    0.40
  -2 -22   3    2.18    0.37
  -2  22   3    2.59    0.35
  -2  22   3    2.72    0.40
   2  22  -3    3.06    0.31
  -2  22   3    2.55    0.37
   2  22  -3    3.14    0.36
   1 -22  -3    1.80    0.34
  -1 -22   3    1.48    0.23
  -1 -22   3    1.65    0.24
  -1  22   3    1.05    0.23
  -1  22   3    1.20    0.24
   1  22  -3    1.72    0.32
  -1  22   3    1.29    0.24
   1  22  -3    1.61    0.28
   0 -22   3    2.68    0.37
   0 -22  -3    2.31    0.39
   0 -22   3    2.35    0.36
   0  22   3    2.93    0.37
   0  22   3    3.31    0.39
   0  22  -3    3.13    0.35
   1 -22   3    1.67    0.33
  -1  22  -3    2.37    0.33
   1  22   3    2.15    0.35
   1  22   3    2.41    0.39
  -1  22  -3    2.77    0.30
  -2  22  -3    2.45    0.31
  -2  22  -3    2.20    0.39
   2  22   3    2.46    0.34
   2  22   3    2.20    0.42
  -2  22  -3    2.22    0.36
   3 -22   3   18.01    1.29
  -3 -22  -3   18.09    1.31
   3 -22   3   18.37    1.33
  -3 -22  -3   18.38    1.35
  -3  22  -3   18.48    1.20
  -3  22  -3   17.48    1.31
   3  22   3   18.35    1.28
  -3  22  -3   17.85    1.29
   4 -22   3    5.70    0.56
  -4 -22  -3    5.59    0.56
  -4 -22  -3    5.93    0.58
   4 -22   3    5.67    0.54
  -4  22  -3    7.28    0.58
   4  22   3    7.19    0.55
  -4  22  -3    6.87    0.55
  -4  22  -3    7.31    0.57
  -4  22  -3    7.20    0.51
  -5 -22  -3    1.26    0.22
   5 -22   3    1.27    0.28
   5 -22   3    1.45    0.23
  -5 -22  -3    1.59    0.31
   5  22   3    1.54    0.30
  -5  22  -3    1.15    0.22
  -5  22  -3    1.72    0.30
  -5  22  -3    1.37    0.29
  -6 -22  -3    0.50    0.17
   6 -22   3    0.65    0.15
  -6 -22  -3    0.46    0.18
  -6  22  -3    0.60    0.17
   6  22   3    0.37    0.16
  -6  22  -3    0.57    0.16
  -7 -22  -3    0.84    0.16
  -7 -22  -3    0.84    0.19
  -7 -22  -3    0.56    0.16
   7 -22   3    0.93    0.19
  -7  22  -3    0.67    0.15
   7  22   3    0.83    0.15
  -7  22  -3    0.78    0.16
  -7 -23   3    0.16    0.13
  -7 -23   3    0.22    0.15
   7  23  -3    0.47    0.12
  -7  23   3    0.37    0.13
  -7  23   3    0.26    0.13
   7  23  -3    0.30    0.11
  -6 -23   3    0.34    0.18
  -6 -23   3    0.51    0.16
  -6  23   3    0.51    0.17
   6  23  -3    0.49    0.14
  -6  23   3    0.59    0.16
   6  23  -3    0.49    0.14
  -5 -23   3    1.10    0.23
  -5 -23   3    0.96    0.19
   5  23  -3    1.39    0.25
  -5  23   3    1.48    0.26
   5  23  -3    1.48    0.25
  -5  23   3    1.50    0.30
  -5  23   3    1.01    0.21
  -4 -23   3    3.99    0.42
  -4 -23   3    4.45    0.50
   4 -23  -3    4.38    0.43
  -4  23   3    4.34    0.47
  -4  23   3    4.82    0.40
  -4  23   3    3.89    0.43
   4  23  -3    4.39    0.39
  -4  23   3    4.11    0.44
   4  23  -3    3.82    0.37
   4  23  -3    4.60    0.41
  -3 -23   3    5.29    0.47
  -3 -23   3    4.73    0.56
   3 -23  -3    5.46    0.47
   3  23  -3    4.50    0.40
   3  23  -3    4.50    0.44
  -3  23   3    4.36    0.44
  -3  23   3    4.60    0.46
  -3  23   3    4.83    0.48
   3  23  -3    5.14    0.45
   2  23  -3    5.19    0.46
  -2  23   3    4.45    0.46
   2  23  -3    5.01    0.41
  -2  23   3    4.64    0.47
  -2  23   3    4.85    0.45
  -1 -23   3    3.38    0.40
   1 -23  -3    3.46    0.39
  -1 -23   3    3.19    0.39
  -1  23   3    2.86    0.41
   1  23  -3    3.19    0.33
   1  23  -3    2.88    0.38
  -1  23   3    2.98    0.38
  -1  23   3    2.88    0.38
   0 -23   3    7.98    0.66
   0 -23   3    8.17    0.68
   0 -23  -3    8.40    0.68
   0  23   3    8.45    0.67
   0  23   3    8.72    0.66
   0  23  -3    8.18    0.65
   0  23  -3    8.59    0.60
   1 -23   3   12.10    0.91
   1 -23   3   12.74    0.93
  -1 -23  -3   13.00    0.93
  -1  23  -3   12.05    0.84
   1  23   3   12.35    0.92
   1  23   3   11.97    0.90
  -1  23  -3   11.72    0.90
   2 -23   3    0.61    0.19
   2 -23   3    0.70    0.19
  -2 -23  -3    0.66    0.21
  -2  23  -3    0.21    0.20
   2  23   3    0.49    0.24
   3 -23   3    1.36    0.29
  -3 -23  -3    1.06    0.23
   3 -23   3    1.44    0.29
  -3  23  -3    1.11    0.20
  -3  23  -3    0.88    0.22
  -3  23  -3    1.11    0.22
   3  23   3    1.18    0.20
  -4 -23  -3    2.66    0.37
  -4 -23  -3    2.59    0.37
   4 -23   3    2.33    0.35
   4 -23   3    2.75    0.33
  -4  23  -3    2.83    0.37
  -4  23  -3    3.00    0.32
  -4  23  -3    3.20    0.38
   4  23   3    3.25    0.34
  -4  23  -3    2.55    0.35
  -5 -23  -3    0.91    0.20
   5 -23   3    0.77    0.17
  -5 -23  -3    0.92    0.20
  -5  23  -3    0.65    0.19
  -5  23  -3    1.09    0.21
  -5  23  -3    1.13    0.18
   5  23   3    0.93    0.18
  -6 -23  -3    1.63    0.27
   6 -23   3    1.57    0.23
  -6 -23  -3    1.90    0.28
   6  23   3    1.66    0.26
  -6  23  -3    1.58    0.25
  -6  23  -3    1.72    0.27
  -7 -23  -3    0.54    0.13
   7 -23   3    0.47    0.12
  -7 -23  -3    0.46    0.14
  -7  23  -3    0.67    0.14
  -7  23  -3    0.62    0.13
  -6 -24   3    4.65    0.39
  -6 -24   3    4.75    0.37
  -6  24   3    4.01    0.36
   6  24  -3    3.98    0.34
   6  24  -3    3.48    0.33
  -6  24   3    4.07    0.37
  -5 -24   3    0.28    0.20
  -5 -24   3    0.09    0.15
  -5  24   3   -0.01    0.16
   5  24  -3    0.13    0.14
  -5  24   3    0.44    0.18
   5  24  -3    0.14    0.13
   4 -24  -3    1.65    0.32
  -4 -24   3    1.93    0.32
  -4  24   3    2.40    0.32
   4  24  -3    2.27    0.28
  -4  24   3    2.72    0.30
  -3 -24   3    1.34    0.30
  -3 -24   3    1.53    0.29
   3 -24  -3    1.51    0.31
   3  24  -3    1.14    0.20
  -3  24   3    1.37    0.23
   3  24  -3    1.48    0.30
   3  24  -3    1.23    0.25
  -3  24   3    1.27    0.22
  -3  24   3    1.20    0.23
  -2 -24   3    5.07    0.49
  -2 -24   3    5.50    0.49
   2 -24  -3    5.59    0.48
   2  24  -3    5.07    0.46
   2  24  -3    5.32    0.42
  -2  24   3    5.17    0.46
  -2  24   3    4.66    0.47
  -2  24   3    5.21    0.47
  -1 -24   3    0.34    0.20
   1 -24  -3    0.33    0.20
  -1 -24   3    0.37    0.20
  -1  24   3    0.55    0.21
   1  24  -3    0.50    0.19
   1  24  -3    0.48    0.17
  -1  24   3    0.38    0.19
   0 -24  -3    7.65    0.67
   0 -24   3    8.20    0.68
   0 -24   3    7.30    0.66
   0  24   3    8.59    0.67
   0  24  -3    8.62    0.65
   0  24   3    8.63    0.66
   0  24  -3    9.12    0.60
   1 -24   3    0.54    0.19
  -1 -24  -3    0.52    0.21
   1 -24   3    0.69    0.19
   1  24   3    0.96    0.22
  -1  24  -3    0.71    0.20
   1  24   3    0.64    0.19
   2 -24   3    9.89    0.78
  -2 -24  -3   10.27    0.80
   2 -24   3   10.12    0.80
  -2  24  -3   10.69    0.73
   2  24   3   10.84    0.81
   2  24   3   10.70    0.78
  -2  24  -3   10.63    0.79
   3 -24   3    6.26    0.53
   3 -24   3    6.19    0.55
  -3 -24  -3    6.46    0.56
   3  24   3    7.15    0.55
  -3  24  -3    6.49    0.55
  -3  24  -3    7.06    0.51
   4 -24   3    6.77    0.56
   4 -24   3    6.79    0.53
  -4 -24  -3    7.10    0.57
  -4 -24  -3    7.18    0.56
  -4  24  -3    6.00    0.50
  -4  24  -3    6.95    0.56
  -4  24  -3    6.29    0.55
   4  24   3    6.70    0.54
  -5 -24  -3    1.02    0.19
  -5 -24  -3    1.18    0.26
   5 -24   3    1.08    0.22
  -5  24  -3    1.43    0.26
  -5  24  -3    0.79    0.18
   5  24   3    1.15    0.24
   6 -24   3    0.45    0.13
  -6 -24  -3    0.44    0.15
  -6 -24  -3    0.46    0.15
  -6  24  -3    0.72    0.15
  -6 -25   3    0.42    0.13
   6  25  -3    0.38    0.10
   6  25  -3    0.55    0.12
  -6  25   3    0.45    0.13
  -6  25   3    0.64    0.15
  -5 -25   3    1.56    0.29
  -5 -25   3    1.33    0.23
   5  25  -3    1.79    0.22
  -5  25   3    1.13    0.25
   5  25  -3    1.42    0.20
  -4 -25   3    3.58    0.43
   4 -25  -3    3.03    0.36
  -4 -25   3    3.23    0.36
  -4  25   3    4.21    0.35
   4  25  -3    3.81    0.33
   3 -25  -3    0.24    0.17
  -3 -25   3    0.30    0.17
   3  25  -3    0.33    0.16
  -3  25   3    0.33    0.18
  -3  25   3    0.29    0.18
  -3  25   3    0.52    0.20
   3  25  -3    0.10    0.15
   3  25  -3    0.46    0.16
  -2 -25   3    9.70    0.83
   2 -25  -3   10.15    0.82
  -2 -25   3   10.21    0.84
   2  25  -3   11.27    0.75
  -2  25   3   11.82    0.82
  -2  25   3   11.61    0.82
  -2  25   3   11.59    0.79
   2  25  -3   12.38    0.82
  -1 -25   3    0.19    0.18
  -1 -25   3    0.15    0.19
   1 -25  -3    0.10    0.19
   1  25  -3    0.19    0.16
  -1  25   3    0.13    0.19
   1  25  -3    0.12    0.18
  -1  25   3    0.07    0.18
   0 -25  -3    8.33    0.69
   0 -25   3    8.39    0.70
   0 -25   3    8.21    0.68
   0  25  -3    9.28    0.63
   0  25  -3    9.25    0.67
   0  25   3    9.40    0.68
   0  25   3    9.37    0.70
   1 -25   3    5.30    0.44
  -1 -25  -3    4.81    0.45
   1 -25   3    4.94    0.43
   1  25   3    3.85    0.45
  -1  25  -3    4.14    0.44
   1  25   3    4.29    0.43
  -1  25  -3    4.27    0.38
   2  25   3    0.34    0.17
   2  25   3    0.52    0.23
  -2  25  -3    0.60    0.17
  -2  25  -3    0.32    0.18
   3 -25   3    0.35    0.16
  -3 -25  -3    0.39    0.18
   3 -25   3    0.18    0.17
   3  25   3   -0.09    0.16
  -3  25  -3    0.09    0.17
  -3  25  -3    0.40    0.17
  -4 -25  -3    0.56    0.19
  -4 -25  -3    0.66    0.17
   4 -25   3    0.41    0.18
  -4  25  -3    0.48    0.20
   4  25   3    0.34    0.16
  -5 -25  -3    0.14    0.15
  -5 -25  -3    0.20    0.14
   5 -25   3    0.29    0.13
   5  25   3    0.24    0.13
  -5 -26   3    0.12    0.12
  -5  26   3   -0.15    0.14
   5  26  -3    0.00    0.10
   5  26  -3    0.15    0.11
   4  26  -3    2.46    0.26
   4  26  -3    2.69    0.27
  -4  26   3    2.14    0.28
   3 -26  -3    0.49    0.17
  -3  26   3    0.06    0.16
  -3  26   3    0.13    0.17
   3  26  -3    0.18    0.15
  -2 -26   3    0.48    0.16
  -2 -26   3    0.36    0.19
   2 -26  -3    0.35    0.17
  -2  26   3    0.25    0.17
   2  26  -3    0.10    0.16
   2  26  -3    0.41    0.16
  -2  26   3    0.12    0.18
   1 -26  -3    0.41    0.18
  -1 -26   3    0.66    0.18
  -1 -26   3    0.54    0.19
  -1  26   3    0.93    0.18
   1  26  -3    1.00    0.18
  -1  26   3    0.75    0.19
   1  26  -3    0.86    0.17
   0 -26  -3    2.65    0.35
   0 -26   3    2.75    0.34
   0 -26   3    2.31    0.34
   0  26   3    3.45    0.34
   0  26  -3    3.32    0.31
   0  26  -3    3.54    0.35
   0  26   3    3.11    0.36
   1 -26   3    0.17    0.17
   1 -26   3   -0.02    0.16
  -1 -26  -3    0.17    0.17
  -1  26  -3    0.05    0.16
  -1  26  -3    0.16    0.17
   1  26   3    0.10    0.16
   1  26   3    0.16    0.19
   2 -26   3    9.64    0.71
   2 -26   3    8.99    0.68
  -2 -26  -3    9.84    0.69
  -2  26  -3    9.09    0.68
   2  26   3    8.88    0.69
  -2  26  -3    8.52    0.63
   3 -26   3    0.31    0.15
   3 -26   3    0.36    0.17
  -3 -26  -3    0.18    0.16
   3  26   3    0.21    0.15
  -3  26  -3    0.33    0.17
   4 -26   3    5.70    0.46
  -4 -26  -3    6.07    0.47
  -5 -26  -3    0.44    0.15
   5 -26   3    0.41    0.12
  -5 -26  -3    0.22    0.13
   5  26   3    0.54    0.13
  -4 -27   3    1.21    0.23
  -4  27   3    1.70    0.23
   4  27  -3    1.91    0.20
   4  27  -3    1.50    0.21
   3  27  -3    0.75    0.14
  -3  27   3    0.55    0.16
  -2 -27   3    3.18    0.31
   2 -27  -3    3.35    0.31
   2  27  -3    2.54    0.29
  -2  27   3    2.51    0.31
  -2  27   3    2.45    0.31
  -1  27   3    0.28    0.17
   1  27  -3    0.18    0.15
  -1  27   3    0.22    0.16
   0 -27   3    6.55    0.50
   0 -27  -3    6.43    0.49
   0 -27   3    6.15    0.49
   0  27   3    5.70    0.48
   0  27   3    6.28    0.51
   0  27  -3    5.81    0.49
   1 -27   3    0.21    0.15
  -1 -27  -3    0.40    0.16
   1 -27   3    0.48    0.15
   1  27   3    0.21    0.17
  -1  27  -3    0.12    0.15
   1  27   3    0.27    0.15
   2 -27   3    1.48    0.24
  -2 -27  -3    1.35    0.25
   2 -27   3    1.41    0.25
  -3 -27  -3    0.25    0.14
   3 -27   3    0.13    0.13
   3 -27   3    0.11    0.16
   3  27   3    0.07    0.13
   4 -27   3    0.27    0.12
  -4 -27  -3    0.20    0.13
   4  27   3    0.44    0.12
   3  28  -3    0.90    0.17
  -3  28   3    0.68    0.14
   2 -28  -3    0.12    0.13
  -2 -28   3    0.22    0.13
  -2  28   3    0.12    0.14
   2  28  -3    0.10    0.11
  -2  28   3    0.13    0.14
  -1 -28   3    0.14    0.15
   1 -28  -3    0.11    0.13
  -1  28   3    0.46    0.14
   1  28  -3    0.38    0.13
  -1  28   3    0.44    0.15
   0 -28   3    1.13    0.22
   0 -28  -3    1.25    0.22
   0  28  -3    0.76    0.16
   0  28   3    1.02    0.22
   0  28   3    0.81    0.17
  -1 -28  -3    0.44    0.15
   1 -28   3    0.37    0.14
   1 -28   3    0.40    0.14
   1  28   3    0.56    0.17
  -1  28  -3    0.46    0.14
   1  28   3    0.52    0.14
   2 -28   3    1.64    0.25
  -2 -28  -3    1.85    0.26
   2 -28   3    1.63    0.22
   2  28   3    2.09    0.23
  -2  28  -3    2.14    0.24
 -10   0   4    9.79    0.74
 -10   0   4    9.81    0.72
  -9   0   4    0.25    0.16
  -9   0   4    0.13    0.16
  -9   0   4    0.19    0.14
  -8   0   4    3.69    0.38
  -8   0   4    4.56    1.10
  -8   0   4    3.90    0.33
  -8   0   4    3.98    0.38
  -7   0   4    0.37    0.11
  -7   0   4    0.32    0.13
  -7   0   4    0.25    0.13
  -7   0   4    0.06    0.54
  -6   0   4   51.34    3.59
  -6   0   4   47.34    3.13
  -6   0   4   48.64    3.43
  -5   0   4    0.95    0.13
  -5   0   4    0.65    0.28
  -5   0   4    1.06    0.31
  -4   0   4   32.30    2.05
  -4   0   4   34.20    2.24
  -4   0   4   29.79    2.32
  -3   0   4    1.97    0.31
  -3   0   4    2.42    0.32
  -2   0   4    6.47    0.54
  -2   0   4    6.51    0.48
   0   0   4   45.20    2.92
   0   0   4   41.23    2.94
   0   0   4   42.89    3.08
   1   0   4    0.20    0.15
   1   0   4    0.07    0.12
   1   0   4    0.16    0.17
   2   0   4   19.25    1.37
   2   0   4   19.87    1.44
   2   0   4   19.73    1.40
   3   0   4    0.54    0.25
   3   0   4    0.89    0.20
   3   0   4    0.73    0.22
   4   0   4   41.58    2.98
   4   0   4   41.00    2.88
   5   0   4    0.77    0.39
   5   0   4    0.89    0.45
   6   0   4   16.68    1.47
  -7   0  -4    3.49    0.34
  -7   0  -4    3.61    0.42
  -7   0  -4    3.62    0.35
  -8   0  -4    4.49    0.43
  -8   0  -4    4.99    0.43
  -8   0  -4    5.59    0.52
  -9   0  -4    0.21    0.15
  -9   0  -4    0.29    0.16
 -10   0  -4    4.57    0.41
 -10   0  -4    4.50    0.40
 -11   0  -4    0.53    0.13
 -11   0  -4    0.41    0.13
 -10  -1   4   22.29    1.42
 -10  -1   4   22.54    1.43
 -10   1   4   19.14    1.42
 -10   1   4   19.07    1.43
 -10   1   4   19.17    1.33
  -9  -1   4    1.48    0.28
  -9  -1   4    1.63    0.27
  -9  -1   4    1.53    0.24
  -9   1   4    1.15    0.20
  -9   1   4    0.95    0.19
  -9   1   4    1.11    0.17
  -8  -1   4    1.46    0.27
  -8  -1   4    1.85    0.86
  -8  -1   4    1.66    0.27
  -8  -1   4    1.61    0.23
  -7  -1   4    1.87    0.26
  -7  -1   4    2.19    0.26
  -7  -1   4    2.38    0.62
  -7  -1   4    2.30    0.22
  -7   1   4    1.92    0.22
  -7   1   4    2.24    0.65
  -7   1   4    1.58    0.26
  -7   1   4    1.96    0.25
  -7   1   4    1.66    0.61
  -6  -1   4    7.42    0.82
  -6  -1   4    7.84    0.87
  -6  -1   4    9.17    0.56
  -6   1   4    9.06    0.56
  -6   1   4    7.18    0.87
  -6   1   4    7.94    0.83
  -5  -1   4   12.18    0.76
  -5  -1   4   10.92    0.93
  -5  -1   4   12.18    0.99
  -5   1   4   12.27    0.98
  -5   1   4   11.11    0.76
  -5   1   4   11.57    0.94
  -4  -1   4    8.94    0.67
  -4  -1   4    9.44    0.84
  -4  -1   4   10.26    0.82
  -4   1   4   10.49    0.67
  -4   1   4   11.69    0.83
  -4   1   4   11.61    0.85
  -3  -1   4   10.39    0.76
  -3  -1   4    9.67    0.68
  -3  -1   4    9.21    0.82
  -3  -1   4    9.53    0.79
  -3   1   4   12.29    0.80
  -3   1   4   12.00    0.83
  -2  -1   4   23.45    1.59
  -2  -1   4   23.80    1.49
  -2   1   4   18.19    1.52
  -1  -1   4   22.04    1.63
  -1  -1   4   22.25    1.54
  -1  -1   4   22.95    1.55
  -1   1   4   23.20    1.56
  -1   1   4   21.78    1.53
  -1   1   4   22.36    1.63
   0  -1   4  266.84   19.94
   0  -1   4  285.64   18.92
   0  -1   4  295.53   19.09
   0   1   4  287.68   18.91
   0   1   4  273.36   19.95
   0   1   4  298.96   19.10
   1   1   4    5.37    0.47
   1   1   4    5.19    0.47
   2   1   4    9.74    0.78
   2   1   4   10.41    0.75
   2   1   4    9.84    0.79
   3  -1   4    7.50    0.57
   3  -1   4    7.24    0.63
   3  -1   4    7.49    0.67
   3   1   4    7.29    0.60
   3   1   4    6.85    0.63
   3   1   4    7.06    0.67
   4  -1   4    3.01    0.49
   4  -1   4    3.71    0.53
   4   1   4    3.78    0.53
   4   1   4    4.58    0.50
   4   1   4    4.89    0.60
   5  -1   4    8.83    0.83
   5  -1   4    9.20    0.92
   5   1   4    7.92    0.91
   5   1   4    7.57    0.87
   6   1   4   10.57    1.22
   6   1   4   12.74    1.21
  -7   1  -4    4.84    0.44
  -7   1  -4    3.83    0.39
  -7   1  -4    4.37    0.39
  -8   1  -4    2.78    0.33
  -8   1  -4    3.20    0.42
  -8   1  -4    2.92    0.33
  -9   1  -4    2.26    0.30
  -9   1  -4    2.56    0.32
  -9   1  -4    2.61    0.43
 -10  -1  -4   23.89    1.64
 -10  -1  -4   24.17    1.69
 -10   1  -4   23.36    1.64
 -10   1  -4   22.76    1.69
 -11  -1  -4    1.10    0.20
 -11  -1  -4    1.07    0.20
 -10  -2   4    4.31    0.41
 -10  -2   4    4.03    0.38
 -10   2   4    4.17    0.41
 -10   2   4    3.77    0.35
 -10   2   4    3.91    0.37
  -9  -2   4    0.69    0.16
  -9  -2   4    0.83    0.18
  -9  -2   4    0.89    0.19
  -9   2   4    1.31    0.23
  -8  -2   4    6.53    0.45
  -8  -2   4    7.01    1.35
  -8  -2   4    6.44    0.50
  -8  -2   4    6.18    0.49
  -8   2   4    5.37    0.49
  -8   2   4    5.58    0.49
  -8   2   4    5.76    0.44
  -8   2   4    6.01    0.53
  -7  -2   4    3.02    0.32
  -7  -2   4    3.94    0.69
  -7  -2   4    3.26    0.28
  -7  -2   4    3.22    0.32
  -6  -2   4   14.78    0.82
  -6  -2   4   15.07    1.14
  -6   2   4   10.88    1.06
  -6   2   4   10.89    0.82
  -6   2   4   10.63    1.11
  -5  -2   4   13.82    1.09
  -5  -2   4   13.85    0.85
  -5  -2   4   14.04    1.03
  -5   2   4   12.08    0.85
  -5   2   4   12.78    1.05
  -5   2   4   12.39    1.08
  -4  -2   4   17.26    1.00
  -4  -2   4   16.91    1.20
  -4  -2   4   17.25    1.14
  -4   2   4   13.35    1.18
  -4   2   4   13.94    1.14
  -4   2   4   13.95    0.99
  -3  -2   4   11.61    0.76
  -3  -2   4   10.71    0.65
  -3  -2   4   10.37    0.73
  -3  -2   4   10.87    0.80
  -3   2   4    8.75    0.65
  -3   2   4    8.63    0.78
  -3   2   4    9.02    0.76
  -2  -2   4   39.95    2.76
  -2  -2   4   39.70    2.61
  -2  -2   4   40.30    2.65
  -2   2   4   35.30    2.65
  -2   2   4   38.13    2.77
  -1  -2   4   29.50    1.88
  -1  -2   4   28.45    1.98
  -1  -2   4   27.54    1.88
  -1   2   4   26.40    1.98
  -1   2   4   27.12    1.85
  -1   2   4   25.66    1.90
   0  -2   4   21.52    1.46
   0  -2   4   20.33    1.38
   0  -2   4   20.72    1.39
   0   2   4   19.91    1.39
   0   2   4   18.49    1.46
   0   2   4   18.76    1.37
   1  -2   4   15.42    1.12
   1  -2   4   15.28    1.16
   1  -2   4   15.01    1.09
   1   2   4   16.17    1.12
   1   2   4   15.93    1.17
   1   2   4   16.01    1.11
   2  -2   4   12.34    0.87
   2  -2   4   11.77    0.86
   2  -2   4   12.53    0.80
   2   2   4   10.91    0.83
   2   2   4    9.89    0.85
   2   2   4    9.40    0.86
  -3  -2  -4   12.78    0.88
   3  -2   4   12.69    0.94
   3  -2   4   11.86    0.92
   3   2   4   11.45    0.93
   3   2   4   11.20    0.94
   3   2   4   10.29    0.88
  -4  -2  -4   24.88    1.88
   4  -2   4   24.36    1.92
   4  -2   4   24.57    1.97
   4   2   4   29.25    1.92
   4   2   4   28.35    1.95
   4   2   4   29.38    2.02
   5   2   4    5.09    0.71
   5   2   4    4.71    0.79
   6  -2   4   21.81    1.99
   6   2   4   25.66    2.04
   6   2   4   27.55    2.06
  -7  -2  -4    1.39    0.35
  -7   2  -4    2.52    0.28
  -7   2  -4    2.08    0.32
  -7   2  -4    2.01    0.28
  -8  -2  -4    5.39    0.48
  -8  -2  -4    5.46    0.48
  -8  -2  -4    5.11    0.56
  -8   2  -4    6.35    0.48
  -8   2  -4    6.35    0.53
  -8   2  -4    5.66    0.48
  -9  -2  -4    0.75    0.17
  -9  -2  -4    1.21    0.26
  -9   2  -4    0.76    0.17
  -9   2  -4    0.68    0.16
  -9   2  -4    0.86    0.25
 -10  -2  -4    2.71    0.29
 -10  -2  -4    2.74    0.30
 -10   2  -4    2.61    0.29
 -10   2  -4    2.24    0.29
 -11  -2  -4    1.53    0.21
 -11  -2  -4    1.33    0.21
 -11   2  -4    1.41    0.22
 -11   2  -4    1.34    0.20
 -11  -3   4    5.58    0.47
 -10  -3   4    6.07    0.51
 -10  -3   4    6.19    0.53
 -10   3   4    6.27    0.51
 -10   3   4    6.24    0.47
 -10   3   4    6.96    0.53
  -9  -3   4    1.24    0.19
  -9  -3   4    0.97    0.17
  -9  -3   4    1.00    0.19
  -9   3   4    0.85    0.21
  -9   3   4    0.60    0.16
  -8  -3   4    2.11    0.24
  -8  -3   4    1.61    0.27
  -8  -3   4    2.50    0.87
  -8  -3   4    2.16    0.29
  -8  -3   4    1.73    0.28
  -7  -3   4    1.80    0.21
  -7  -3   4    1.76    0.61
  -7  -3   4    1.60    0.27
  -7  -3   4    1.33    0.24
  -7  -3   4    1.33    0.26
  -6  -3   4    3.79    0.65
  -6  -3   4    4.65    0.68
  -6   3   4    3.09    0.65
  -6   3   4    3.18    0.63
  -6   3   4    3.38    0.27
  -5  -3   4    1.82    0.36
  -5   3   4    1.22    0.32
  -5   3   4    0.87    0.28
  -5   3   4    1.07    0.14
  -4  -3   4    9.43    0.70
  -4  -3   4   10.03    0.84
  -4  -3   4    9.86    0.88
  -4   3   4   12.64    0.89
  -4   3   4   12.31    0.71
  -3  -3   4    0.86    0.11
  -3  -3   4    1.15    0.22
  -3  -3   4    0.92    0.23
  -3  -3   4    0.81    0.21
  -3   3   4    1.25    0.27
  -3   3   4    1.41    0.30
  -3   3   4    1.29    0.11
  -2  -3   4    7.47    0.59
  -2  -3   4    6.90    0.57
  -2  -3   4    7.34    0.57
  -1  -3   4   20.63    1.55
  -1  -3   4   20.29    1.56
  -1   3   4   26.70    1.65
   0  -3   4  103.16    6.65
   0  -3   4  105.24    6.68
   0  -3   4  100.22    6.99
   0   3   4  100.00    6.70
   0   3   4   90.72    7.00
   0   3   4   96.82    6.63
   1  -3   4   16.83    1.36
   1  -3   4   19.43    1.33
   1  -3   4   20.69    1.41
   1   3   4   20.30    1.36
   1   3   4   19.70    1.43
   1   3   4   19.05    1.36
   2  -3   4   17.81    1.27
   2  -3   4   16.95    1.29
   2  -3   4   17.91    1.20
  -2  -3  -4   17.39    1.23
   3   3   4    2.98    0.43
   3   3   4    3.22    0.44
   3   3   4    2.81    0.42
  -4  -3  -4   13.16    0.91
   4  -3   4   12.26    0.94
   4   3   4   10.00    0.98
   4   3   4   10.33    0.97
   4   3   4   10.25    0.94
   5  -3   4    1.89    0.52
  -5  -3  -4    2.45    0.52
   5   3   4    1.80    0.50
   5   3   4    2.16    0.56
   6   3   4    4.45    0.92
   6   3   4    4.04    0.80
  -7  -3  -4    1.51    0.26
  -7  -3  -4    1.82    0.35
  -7   3  -4    2.45    0.28
  -7   3  -4    2.17    0.26
  -7   3  -4    2.27    0.31
  -9  -3  -4    5.25    0.48
  -9  -3  -4    5.64    0.47
  -9  -3  -4    5.03    0.56
  -9   3  -4    5.56    0.47
  -9   3  -4    5.67    0.54
  -9   3  -4    5.99    0.47
 -10   3  -4    7.77    0.64
 -10   3  -4    8.47    0.66
 -10   3  -4    9.60    0.69
 -11  -3  -4    4.47    0.39
 -11  -3  -4    4.46    0.38
 -11   3  -4    5.11    0.38
 -11   3  -4    5.01    0.40
 -11  -4   4    2.04    0.30
 -10  -4   4    0.87    0.17
 -10  -4   4    0.96    0.19
 -10   4   4    0.85    0.16
 -10   4   4    0.93    0.17
  -9   4   4    3.01    0.30
  -9   4   4    2.92    0.34
  -9   4   4    3.20    0.39
  -9   4   4    2.69    0.34
  -8  -4   4    1.90    0.24
  -8  -4   4    1.82    0.28
  -8  -4   4    1.76    0.30
  -8  -4   4    2.22    0.85
  -8  -4   4    1.94    0.37
  -7  -4   4    2.77    0.40
  -7  -4   4    2.71    0.30
  -7  -4   4    2.56    0.30
  -7  -4   4    2.44    0.63
  -7  -4   4    2.75    0.25
  -6  -4   4   14.18    1.19
  -6  -4   4   13.97    1.15
  -6  -4   4   13.52    0.86
  -6   4   4   12.19    1.19
  -6   4   4   13.11    0.86
  -6   4   4   12.04    1.13
  -5  -4   4   18.38    1.13
  -5  -4   4   17.82    1.40
  -5  -4   4   18.16    1.33
  -5   4   4   16.96    1.34
  -5   4   4   15.96    1.13
  -5   4   4   18.30    1.38
  -4  -4   4    2.84    0.41
  -4  -4   4    3.41    0.24
  -4  -4   4    3.22    0.43
  -4  -4   4    3.14    0.44
  -3  -4   4    5.37    0.49
  -3  -4   4    5.53    0.36
  -3  -4   4    5.67    0.49
  -3  -4   4    5.21    0.49
  -3   4   4    4.62    0.49
  -3   4   4    4.96    0.36
  -3   4   4    5.81    0.51
  -2  -4   4    2.81    0.32
  -2  -4   4    3.37    0.35
  -2  -4   4    3.36    0.35
  -1  -4   4   17.67    1.24
  -1  -4   4   17.75    1.22
  -1  -4   4   17.70    1.28
  -1   4   4   16.53    1.29
   0  -4   4    4.76    0.40
   0  -4   4    4.91    0.43
   0  -4   4    4.69    0.36
   0   4   4    4.09    0.39
   0   4   4    4.33    0.43
   0   4   4    3.73    0.40
   1  -4   4    4.69    0.44
   1  -4   4    5.04    0.49
   1  -4   4    4.80    0.38
  -1  -4  -4    5.25    0.42
   2  -4   4    9.29    0.80
  -2  -4  -4    9.39    0.77
   2  -4   4    9.26    0.80
   2   4   4   10.90    0.81
   2   4   4   11.26    0.82
   2   4   4   11.50    0.83
   3  -4   4    5.90    0.65
   3  -4   4    5.87    0.60
  -3  -4  -4    6.29    0.59
   3   4   4    7.34    0.68
   3   4   4    7.19    0.67
   3   4   4    7.57    0.64
  -4  -4  -4    2.59    0.46
   4   4   4    2.18    0.48
   4   4   4    2.01    0.42
   4   4   4    2.25    0.46
   5  -4   4   29.23    2.17
  -5  -4  -4   29.11    2.11
   5   4   4   28.25    2.17
   5   4   4   30.42    2.23
   5   4   4   29.60    2.29
   6  -4   4   12.33    1.31
  -6  -4  -4   11.42    1.14
   6   4   4   13.16    1.38
   6   4   4   13.56    1.36
  -7  -4  -4   10.97    0.73
  -7  -4  -4   10.73    0.83
  -7  -4  -4   10.25    0.74
  -7   4  -4    8.95    0.74
  -7   4  -4    9.07    0.72
  -7   4  -4    8.83    0.75
   7   4   4   10.06    1.48
  -8  -4  -4    2.03    0.37
  -8  -4  -4    1.80    0.28
  -8  -4  -4    2.02    0.30
  -9  -4  -4    4.15    0.37
  -9  -4  -4    3.86    0.45
  -9  -4  -4    3.97    0.37
  -9   4  -4    3.09    0.35
  -9   4  -4    3.00    0.37
  -9   4  -4    3.29    0.43
 -10  -4  -4    0.45    0.15
 -10  -4  -4    0.39    0.15
 -10  -4  -4    0.60    0.21
 -10   4  -4    0.37    0.15
 -10   4  -4    0.29    0.20
 -10   4  -4    0.26    0.15
 -11  -4  -4    1.61    0.21
 -11  -4  -4    1.32    0.20
 -11   4  -4    1.38    0.20
 -11   4  -4    1.44    0.22
 -11  -5   4    5.23    0.45
 -10  -5   4    0.56    0.18
 -10  -5   4    0.47    0.16
 -10   5   4    0.06    0.14
 -10   5   4    0.11    0.18
 -10   5   4    0.26    0.15
  -9  -5   4    5.14    0.54
  -9   5   4    7.11    0.54
  -9   5   4    7.14    0.58
   9   5  -4    7.27    0.53
  -9   5   4    6.63    0.55
  -9   5   4    7.00    0.50
  -8  -5   4    1.59    0.23
  -8  -5   4    1.49    0.35
  -8  -5   4    1.64    0.84
  -8  -5   4    1.25    0.27
  -8  -5   4    1.33    0.28
  -7  -5   4    6.57    0.53
  -7  -5   4    6.59    0.61
  -7  -5   4    6.66    0.53
  -7  -5   4    7.41    0.49
  -7  -5   4    7.45    1.03
  -6  -5   4    3.78    0.63
  -6  -5   4    3.51    0.70
  -6  -5   4    3.91    0.29
  -6   5   4    3.53    0.29
   6   5  -4    3.45    0.63
  -6   5   4    3.87    0.61
  -5  -5   4    1.37    0.14
  -5  -5   4    0.90    0.34
  -5  -5   4    0.92    0.36
  -5   5   4    0.95    0.33
  -5   5   4    1.01    0.37
  -4  -5   4   29.75    2.10
  -4  -5   4   31.69    2.30
  -4  -5   4   31.33    2.40
  -4  -5   4   31.35    2.28
  -4   5   4   36.25    2.32
  -4   5   4   36.65    2.40
  -4   5   4   33.72    2.10
  -3  -5   4   11.04    0.63
  -3  -5   4   10.39    0.76
  -3   5   4    8.36    0.77
  -3   5   4    8.09    0.74
  -2  -5   4    3.12    0.32
  -2  -5   4    3.22    0.37
  -2  -5   4    3.13    0.34
  -1  -5   4   24.82    1.82
  -1  -5   4   25.30    1.74
  -1  -5   4   25.48    1.76
   0  -5   4    2.53    0.35
   0  -5   4    2.27    0.28
   0   5   4    1.84    0.32
   0   5   4    1.67    0.28
   0   5   4    2.06    0.32
  -2  -5  -4    4.24    0.39
   2   5   4    2.77    0.43
   2   5   4    2.94    0.42
   2   5   4    2.84    0.41
   3   5   4   12.61    1.05
   3   5   4   13.16    1.05
   3   5   4   13.47    1.09
  -4  -5  -4   15.51    1.09
   4  -5   4   15.21    1.14
   4   5   4   12.51    1.19
   4   5   4   12.23    1.15
   4   5   4   12.22    1.15
  -5  -5  -4    3.06    0.60
   5  -5   4    2.05    0.54
   5   5   4    2.47    0.64
   5   5   4    1.20    0.64
   5   5   4    1.65    0.56
   6  -5   4    6.27    1.09
   6   5   4    7.55    1.14
   6   5   4    7.96    1.16
  -7   5  -4    4.16    0.39
   7   5   4    4.26    1.02
  -7   5  -4    3.75    0.37
  -7   5  -4    3.76    0.36
  -8  -5  -4    0.79    0.23
  -8  -5  -4    0.81    0.17
  -8  -5  -4    0.67    0.16
  -9   5  -4    6.13    0.51
 -10   5  -4    0.56    0.16
 -10   5  -4    0.48    0.16
 -10   5  -4    0.78    0.19
 -11  -5  -4    8.06    0.56
 -11  -5  -4    7.51    0.55
 -11   5  -4    6.88    0.57
 -11   5  -4    7.19    0.55
 -11   5  -4    7.12    0.58
 -11  -6   4    0.59    0.17
 -10  -6   4    1.06    0.19
 -10  -6   4    0.96    0.19
 -10  -6   4    0.85    0.18
  -9  -6   4    3.28    0.36
  -9  -6   4    3.26    0.41
  -9  -6   4    3.29    0.39
  -9  -6   4    3.44    0.40
  -9   6   4    4.67    0.39
  -9   6   4    4.60    0.41
  -9   6   4    4.56    0.35
  -9   6   4    4.40    0.40
  -8  -6   4    1.96    0.87
  -8  -6   4    1.14    0.22
  -8  -6   4    1.07    0.19
  -8  -6   4    1.33    0.22
  -8  -6   4    1.21    0.18
  -8   6   4    0.77    0.18
  -8   6   4    0.77    0.20
  -8   6   4    0.76    0.17
  -8   6   4    0.91    0.16
   8   6  -4    0.87    0.17
  -7  -6   4   15.19    1.33
  -7  -6   4   15.83    1.20
  -7  -6   4   14.73    1.20
  -7  -6   4   15.67    1.12
  -7  -6   4   15.44    1.57
  -7   6   4   17.51    1.21
  -7   6   4   18.79    1.27
  -7   6   4   20.08    1.30
  -7   6   4   18.80    1.13
  -7   6   4   19.20    1.20
  -6  -6   4    1.45    0.18
  -6  -6   4    1.54    0.45
  -6  -6   4    1.44    0.49
   6   6  -4    0.78    0.51
  -6   6   4    1.06    0.48
  -6   6   4    1.17    0.18
  -5  -6   4   22.03    1.61
  -5  -6   4   24.00    1.91
  -5  -6   4   22.80    1.81
  -5   6   4   25.01    1.84
   5   6  -4   28.86    1.90
  -5   6   4   27.05    1.90
  -5   6   4   26.30    1.61
  -4  -6   4    3.31    0.50
  -4  -6   4    3.66    0.25
  -4  -6   4    2.63    0.43
  -4  -6   4    3.22    0.47
  -4   6   4    3.37    0.49
  -4   6   4    3.50    0.25
  -4   6   4    3.17    0.47
  -3  -6   4   26.22    1.63
  -3  -6   4   24.14    1.70
  -3  -6   4   25.68    1.46
  -3  -6   4   25.13    1.63
  -3   6   4   19.37    1.46
  -3   6   4   20.47    1.63
  -3   6   4   19.17    1.68
  -2  -6   4    3.76    0.37
  -2  -6   4    3.80    0.39
  -2  -6   4    3.46    0.25
  -2  -6   4    3.38    0.41
  -2   6   4    3.04    0.40
  -1  -6   4   14.93    0.99
  -1  -6   4   14.08    1.03
  -1  -6   4   14.08    1.02
  -1   6   4   12.08    1.00
  -1   6   4   13.50    1.06
   0  -6  -4    0.57    0.16
   0  -6   4    0.45    0.22
   0  -6   4    0.51    0.17
   0  -6   4    0.39    0.14
   1  -6   4    2.52    0.37
  -1  -6  -4    3.14    0.34
   1  -6   4    2.47    0.31
  -2  -6  -4    0.35    0.22
   2  -6   4    0.01    0.25
   2   6   4    0.18    0.23
   2   6   4    0.12    0.20
   3  -6   4    8.89    0.81
  -3  -6  -4    8.86    0.76
  -4  -6  -4    0.81    0.33
   4  -6   4    1.59    0.44
   4   6   4    0.98    0.41
   4   6   4    0.97    0.49
   4   6   4    0.58    0.44
  -5  -6  -4   27.51    2.03
   5  -6   4   26.99    2.07
   5   6   4   28.76    2.14
   5   6   4   26.77    2.21
   5   6   4   26.88    2.17
  -6  -6  -4    1.99    0.59
   6  -6   4    2.55    0.77
   6   6   4    2.19    0.76
   6   6   4    2.06    0.81
  -7   6  -4    7.42    0.57
  -7   6  -4    7.81    0.57
   7   6   4    6.46    1.42
  -7   6  -4    6.45    0.58
  -8  -6  -4    1.20    0.19
  -8  -6  -4    0.86    0.18
  -8  -6  -4    0.95    0.24
  -9  -6  -4    1.12    0.23
  -9   6  -4    0.76    0.17
  -9   6  -4    0.71    0.21
  -9   6  -4    1.26    0.27
 -10  -6  -4    0.00    0.15
 -10  -6  -4    0.23    0.19
 -10  -6  -4    0.14    0.14
 -10   6  -4    0.16    0.15
 -10   6  -4    0.24    0.18
 -10   6  -4    0.06    0.14
 -11  -6  -4    3.01    0.27
 -11  -6  -4    2.42    0.27
 -11   6  -4    3.30    0.30
 -11   6  -4    2.67    0.27
 -11  -7   4    5.19    0.43
 -10  -7   4    0.21    0.17
 -10  -7   4    0.33    0.17
 -10  -7   4    0.38    0.16
 -10   7   4    0.32    0.15
 -10   7   4    0.48    0.18
 -10   7   4    0.36    0.15
  -9  -7   4   16.70    1.30
  -9  -7   4   16.63    1.19
  -9  -7   4   16.44    1.20
  -9  -7   4   16.71    1.12
  -9   7   4   17.10    1.21
  -9   7   4   17.09    1.19
   9   7  -4   17.59    1.12
  -9   7   4   16.75    1.25
  -9   7   4   16.72    1.11
  -8  -7   4    2.68    0.33
  -8  -7   4    3.05    0.35
  -8  -7   4    3.00    0.37
  -8  -7   4    3.13    0.29
  -8   7   4    2.72    0.29
   8   7  -4    2.64    0.30
  -8   7   4    2.68    0.49
  -8   7   4    2.55    0.31
  -8   7   4    2.60    0.35
  -8   7   4    2.30    0.34
  -7  -7   4    4.55    0.52
  -7  -7   4    4.70    0.46
  -7  -7   4    4.67    0.46
  -7  -7   4    4.76    0.40
  -7   7   4    6.27    0.41
  -7   7   4    6.02    0.46
  -7   7   4    5.93    0.50
  -7   7   4    6.30    0.46
  -7   7   4    6.82    0.57
  -6  -7   4    5.15    0.72
  -6  -7   4    5.47    0.77
  -6   7   4    3.22    0.64
  -6   7   4    3.22    0.29
   6   7  -4    2.58    0.64
  -5  -7   4    5.03    0.67
  -5  -7   4    5.31    0.36
  -5  -7   4    5.32    0.72
  -5  -7   4    5.87    0.67
  -5   7   4    4.57    0.36
   5   7  -4    3.45    0.70
  -4  -7   4    7.60    0.75
  -4  -7   4    6.92    0.56
  -4  -7   4    7.08    0.79
  -4   7   4    9.66    0.57
   4   7  -4    9.93    0.79
  -4   7   4    9.30    0.79
  -4   7   4    9.55    0.78
  -3  -7   4   26.58    1.96
  -3  -7   4   27.50    1.89
  -3  -7   4   25.78    1.88
  -3  -7   4   26.84    1.71
  -2  -7   4    1.84    0.33
  -2  -7   4    2.01    0.38
  -2  -7   4    2.06    0.17
  -2  -7   4    1.60    0.33
  -2   7   4    2.76    0.37
  -2   7   4    2.36    0.19
  -2   7   4    2.62    0.38
   2   7  -4    2.11    0.17
  -1  -7   4   14.39    1.09
  -1  -7   4   12.60    1.04
  -1  -7   4   13.79    1.10
  -1   7   4   16.19    1.14
  -1   7   4   16.49    1.10
   0  -7   4   18.36    1.21
   0  -7   4   17.41    1.27
   0  -7  -4   17.20    1.21
   0  -7   4   17.94    1.27
   0   7   4   17.30    1.31
   0   7   4   15.99    1.22
   0   7   4   16.95    1.26
   1  -7   4   25.65    1.98
  -1  -7  -4   27.17    1.95
   1  -7   4   26.13    2.02
   1   7   4   31.27    2.09
   1   7   4   31.49    2.01
  -2  -7  -4    7.69    0.67
   2  -7   4    7.22    0.66
   2   7   4    6.82    0.70
   2   7   4    7.86    0.71
  -3  -7  -4    6.29    0.64
   3  -7   4    5.61    0.68
   4  -7   4   12.53    1.00
   4   7   4    9.10    1.04
   4   7   4    9.26    1.04
  -5  -7  -4    4.38    0.74
   5  -7   4    3.32    0.64
   5   7   4    3.23    0.71
   5   7   4    3.64    0.78
   5   7   4    3.50    0.79
  -6  -7  -4    1.26    0.62
   6  -7   4    0.93    0.77
   6   7   4    1.81    0.79
   6   7   4    2.61    0.96
  -7  -7  -4   18.67    1.35
  -7  -7  -4   18.78    1.40
  -7  -7  -4   19.20    1.50
  -7   7  -4   18.74    1.41
  -7   7  -4   21.05    1.38
  -7   7  -4   18.83    1.35
  -7   7  -4   18.76    1.39
   7   7   4   20.60    2.03
  -8  -7  -4    0.16    0.16
  -8  -7  -4   -0.03    0.15
  -8  -7  -4    0.00    0.22
  -8   7  -4    0.18    0.18
  -8   7  -4    0.14    0.16
  -8   7  -4    0.10    0.15
  -8   7  -4    0.00    0.20
  -9  -7  -4   14.82    1.08
  -9  -7  -4   14.88    0.97
  -9  -7  -4   14.48    0.99
  -9   7  -4   11.94    0.96
  -9   7  -4   11.96    0.99
  -9   7  -4   11.72    0.98
 -10  -7  -4    0.28    0.19
 -10  -7  -4    0.36    0.17
 -10  -7  -4    0.05    0.15
 -10   7  -4    0.56    0.15
 -10   7  -4    0.36    0.14
 -10   7  -4    0.45    0.18
 -11  -7  -4   11.75    0.81
 -11  -7  -4   12.16    0.87
 -11  -7  -4   10.96    0.78
 -11   7  -4   10.02    0.78
 -11   7  -4   10.25    0.80
 -11  -8   4    1.12    0.25
 -11  -8   4    1.08    0.24
 -11   8   4    1.42    0.23
 -10  -8   4    0.52    0.17
 -10  -8   4    0.38    0.16
 -10  -8   4    0.68    0.17
 -10   8   4    0.75    0.16
 -10   8   4    0.40    0.15
 -10   8   4    0.57    0.17
  -9  -8   4    5.37    0.48
  -9  -8   4    5.13    0.52
  -9  -8   4    5.00    0.48
  -9   8   4    5.72    0.56
  -9   8   4    5.62    0.51
  -9   8   4    5.86    0.44
  -9   8   4    6.27    0.48
  -8   8   4    3.76    0.36
  -8   8   4    3.25    0.38
  -8   8   4    3.46    0.40
  -8   8   4    3.53    0.33
   8   8  -4    3.46    0.34
  -8   8   4    3.64    0.50
  -7  -8   4    5.86    1.13
  -7  -8   4    5.28    0.48
   7   8  -4    7.52    0.49
  -7   8   4    7.39    0.58
  -7   8   4    6.37    0.48
  -7   8   4    7.08    0.54
  -6  -8   4    4.46    0.78
  -6  -8   4    2.38    0.56
   6   8  -4    2.68    0.26
   6   8  -4    2.22    0.70
  -6   8   4    2.84    0.26
  -5  -8   4   11.45    1.00
  -5  -8   4   12.24    1.03
  -5  -8   4   11.99    0.95
  -5   8   4    9.42    0.69
   5   8  -4    9.32    0.69
  -5   8   4    9.31    0.98
   5   8  -4   10.84    1.02
  -4  -8   4    6.05    0.45
  -4  -8   4    5.93    0.69
  -4  -8   4    7.02    0.68
  -4  -8   4    5.81    0.75
   4   8  -4    7.22    0.69
  -4   8   4    7.83    0.70
  -4   8   4    6.91    0.46
   4   8  -4    6.61    0.45
  -4   8   4    6.72    0.69
  -3   8   4    9.07    0.78
  -3   8   4    8.66    0.58
   3   8  -4    8.76    0.58
   3   8  -4    8.35    0.78
  -2  -8   4    1.57    0.15
  -2  -8   4    1.35    0.30
  -2  -8   4    1.83    0.34
  -2  -8   4    1.74    0.31
  -2   8   4    1.65    0.37
  -2   8   4    1.38    0.16
   2   8  -4    1.52    0.15
  -1  -8   4    7.06    0.65
  -1  -8   4    7.70    0.68
  -1  -8   4    7.89    0.64
   1   8  -4    8.55    0.53
  -1   8   4    8.02    0.68
   1   8  -4    7.71    0.66
  -1   8   4    9.15    0.71
   0  -8   4    5.84    0.63
   0  -8  -4    6.25    0.58
   0   8  -4    6.87    0.56
   0   8   4    7.77    0.62
   0   8   4    7.37    0.64
   1   8   4    9.14    0.80
  -2  -8  -4    5.56    0.57
   2  -8   4    5.90    0.58
   2   8   4    4.82    0.60
   2   8   4    4.36    0.61
  -3  -8  -4   37.14    2.44
   3  -8   4   34.86    2.44
   3   8   4   32.69    2.58
   3   8   4   32.77    2.48
  -4  -8  -4   10.10    0.91
   4  -8   4    9.48    0.93
   4   8   4    7.93    0.93
   4   8   4    6.96    1.00
   5   8   4    4.97    0.98
   5   8   4    6.40    1.09
   5   8   4    6.36    1.10
  -6  -8  -4    4.14    0.40
  -6  -8  -4    3.83    0.50
  -6  -8  -4    4.35    0.42
   6   8   4    5.86    1.17
  -6   8  -4    5.65    0.43
  -6   8  -4    5.24    0.40
   6   8   4    6.51    1.25
  -6   8  -4    5.13    0.44
  -7  -8  -4   21.10    1.56
   7   8   4   21.26    2.09
  -7   8  -4   19.96    1.44
  -7   8  -4   20.59    1.41
  -7   8  -4   18.06    1.46
  -7   8  -4   19.85    1.45
  -8  -8  -4    0.46    0.17
  -8  -8  -4    0.46    0.17
  -8  -8  -4    0.16    0.22
  -8   8  -4    0.31    0.17
  -8   8  -4    0.34    0.18
  -8   8  -4    0.22    0.15
  -8   8  -4    0.02    0.20
  -9  -8  -4    1.18    0.24
  -9   8  -4    0.87    0.22
  -9   8  -4    1.30    0.25
  -9   8  -4    0.82    0.21
  -9   8  -4    1.24    0.26
 -10  -8  -4    0.39    0.15
 -10  -8  -4    0.43    0.15
 -10  -8  -4    0.39    0.19
 -10   8  -4    0.72    0.15
 -11  -8  -4    1.89    0.22
 -11  -8  -4    1.80    0.21
 -11   8  -4    1.71    0.23
 -11   8  -4    1.74    0.21
 -11  -9   4   10.77    0.77
 -11  -9   4   10.18    0.84
 -11   9   4   11.37    0.80
 -10  -9   4    8.84    0.68
 -10  -9   4    9.66    0.72
 -10  -9   4    8.74    0.67
 -10   9   4    8.99    0.66
 -10   9   4    8.46    0.70
  -9  -9   4    2.40    0.37
  -9  -9   4    3.26    0.38
  -9  -9   4    3.29    0.35
  -9   9   4    3.49    0.35
  -9   9   4    3.27    0.44
  -9   9   4    3.17    0.31
  -9   9   4    2.71    0.38
  -8  -9   4    1.44    0.25
  -8  -9   4    1.00    0.20
  -8  -9   4    1.05    0.21
  -8  -9   4    1.56    0.27
  -8   9   4    1.11    0.17
  -8   9   4    0.98    0.21
  -8   9   4    0.81    0.22
  -8   9   4    0.98    0.27
  -8   9   4    0.88    0.18
   8   9  -4    1.26    0.19
  -7  -9   4    7.95    0.53
  -7  -9   4    7.46    0.59
  -7  -9   4    9.12    1.26
  -7  -9   4    7.98    0.65
  -7  -9   4    7.73    0.59
  -7   9   4    6.87    0.59
  -7   9   4    7.24    0.58
  -7   9   4    6.60    0.64
   7   9  -4    7.47    0.54
  -7   9   4    7.41    0.54
  -7   9   4    7.83    0.66
  -6  -9   4    5.17    0.84
  -6   9   4    3.69    0.43
  -6   9   4    3.40    0.39
  -6   9   4    3.61    0.35
   6   9  -4    3.40    0.30
  -6   9   4    3.35    0.35
  -6   9   4    3.53    0.31
  -5  -9   4    1.20    0.51
  -5  -9   4    1.46    0.50
  -5   9   4    0.85    0.45
   5   9  -4    0.95    0.50
  -5   9   4    0.90    0.18
   5   9  -4    0.88    0.16
  -4  -9   4   12.45    1.11
  -4  -9   4   13.42    1.11
  -4  -9   4   12.40    1.08
  -4  -9   4   12.32    0.85
   4   9  -4   13.04    0.85
  -4   9   4   13.31    1.09
   4   9  -4   14.15    1.11
  -4   9   4   13.46    0.86
  -3  -9   4    1.66    0.16
  -3  -9   4    1.98    0.38
  -3  -9   4    1.44    0.34
  -3  -9   4    1.13    0.31
   3   9  -4    1.75    0.16
  -3   9   4    1.29    0.36
  -3   9   4    1.58    0.34
  -3   9   4    1.56    0.17
   3   9  -4    1.63    0.36
  -2  -9   4   38.48    2.90
  -2  -9   4   39.90    2.90
  -2  -9   4   38.90    2.68
  -2  -9   4   39.03    3.02
  -2   9   4   43.05    2.94
  -2   9   4   45.62    2.69
   2   9  -4   42.05    2.68
  -2   9   4   46.31    3.05
   2   9  -4   45.63    2.92
  -1  -9   4   28.92    2.08
  -1  -9   4   26.65    2.02
  -1  -9   4   29.47    2.00
   1   9  -4   30.40    2.01
  -1   9   4   29.31    2.04
  -1   9   4   27.64    2.11
   1   9  -4   28.21    1.83
   0  -9   4   27.51    1.91
   0  -9   4   26.12    1.94
   0   9   4   27.88    1.99
   0   9   4   27.30    1.92
   0   9  -4   25.28    1.71
   1  -9   4   50.54    2.94
   1   9   4   37.21    2.93
   1   9   4   40.66    3.06
  -1   9  -4   40.23    2.68
  -2  -9  -4   72.35    4.53
   2  -9   4   67.37    4.53
  -2   9  -4   61.86    4.22
   2   9   4   63.32    4.77
   2   9   4   67.60    4.59
  -3  -9  -4    1.61    0.44
   3  -9   4    1.42    0.42
  -3   9  -4    1.92    0.19
   3   9   4    1.55    0.41
   3   9   4    1.65    0.48
  -4  -9  -4    7.09    0.86
   4  -9   4    7.15    0.85
   4   9   4    6.41    0.91
   4   9   4    4.82    0.92
  -5  -9  -4    1.86    0.62
   5  -9   4    2.15    0.62
   5   9   4    3.42    0.74
   5   9   4    2.16    0.83
  -6  -9  -4    0.67    0.15
  -6  -9  -4    0.60    0.23
  -6  -9  -4    1.27    0.26
  -6   9  -4    1.01    0.18
   6   9   4    1.08    0.77
  -7   9  -4    7.97    0.64
  -7   9  -4    7.70    0.62
   7   9   4   10.67    1.55
  -7   9  -4    8.21    0.65
  -7   9  -4    8.06    0.65
  -8   9  -4    8.01    0.65
  -8   9  -4    8.15    0.66
  -8   9  -4    8.35    0.66
  -8   9  -4    8.31    0.64
  -9  -9  -4    8.45    0.83
  -9  -9  -4    9.09    0.75
  -9  -9  -4    9.57    0.73
  -9   9  -4   10.88    0.78
  -9   9  -4   10.80    0.76
  -9   9  -4   10.15    0.73
  -9   9  -4    9.72    0.75
 -10  -9  -4    3.45    0.41
 -10  -9  -4    3.58    0.35
 -10  -9  -4    3.13    0.34
 -10   9  -4    3.71    0.36
 -10   9  -4    3.69    0.33
 -10   9  -4    4.14    0.37
 -10 -10   4    0.32    0.16
 -10 -10   4    0.40    0.16
 -10 -10   4    0.65    0.17
 -10  10   4    0.44    0.14
 -10  10   4    0.35    0.16
  -9 -10   4    4.54    0.44
  -9 -10   4    4.86    0.48
  -9 -10   4    4.05    0.45
  -9  10   4    5.31    0.44
  -9  10   4    4.91    0.39
  -9  10   4    4.63    0.47
  -9  10   4    5.55    0.51
  -8 -10   4    7.83    0.63
  -8 -10   4    7.91    0.57
  -8 -10   4    7.97    0.57
  -8  10   4    6.33    0.58
  -8  10   4    5.86    0.61
  -8  10   4    6.93    0.56
  -8  10   4    7.07    0.64
  -8  10   4    6.42    0.52
   8  10  -4    6.56    0.52
  -7 -10   4    1.51    0.32
  -7 -10   4    1.42    0.28
  -7 -10   4    1.91    0.24
  -7 -10   4    2.56    0.79
  -7 -10   4    1.74    0.27
   7  10  -4    1.01    0.18
  -7  10   4    1.40    0.24
  -7  10   4    1.15    0.20
  -7  10   4    1.40    0.26
  -7  10   4    1.63    0.27
  -6 -10   4    9.48    0.84
  -6 -10   4    9.09    0.77
  -6 -10   4    9.70    0.71
  -6 -10   4    9.99    0.76
  -6 -10   4   10.34    1.19
  -6  10   4   10.68    0.82
  -6  10   4   11.49    0.71
   6  10  -4   11.70    0.71
  -6  10   4   11.52    0.78
  -6  10   4   11.03    0.82
  -6  10   4   10.39    0.77
  -5 -10   4    1.60    0.53
  -5 -10   4    1.83    0.59
  -5  10   4    2.76    0.26
   5  10  -4    2.69    0.23
   5  10  -4    3.16    0.64
  -5  10   4    1.76    0.54
  -4 -10   4   20.99    1.45
  -4 -10   4   22.18    1.71
  -4 -10   4   22.08    1.70
  -4 -10   4   21.10    1.75
  -4  10   4   23.87    1.71
   4  10  -4   23.74    1.45
  -4  10   4   22.91    1.45
   4  10  -4   23.11    1.72
  -3 -10   4   26.41    1.94
  -3 -10   4   26.41    1.66
  -3 -10   4   27.62    1.88
  -3 -10   4   26.02    1.88
  -3  10   4   24.49    1.89
   3  10  -4   25.09    1.65
  -3  10   4   25.53    1.66
  -3  10   4   25.15    1.93
   3  10  -4   25.63    1.88
  -2 -10   4    3.94    0.56
  -2 -10   4    4.53    0.59
  -2  10   4    4.73    0.61
  -2  10   4    5.06    0.58
  -2  10   4    5.36    0.36
   2  10  -4    5.72    0.35
   2  10  -4    3.97    0.57
  -1 -10   4   30.10    2.15
  -1 -10   4   32.24    2.10
  -1  10   4   28.25    2.18
   1  10  -4   28.93    2.07
  -1  10   4   26.99    2.11
   1  10  -4   29.40    1.88
  -1  10   4   30.46    1.89
   0 -10   4    7.48    0.72
   0  10   4    6.60    0.68
   0  10   4    8.17    0.71
   0  10  -4    6.86    0.48
   1 -10   4   27.99    2.04
  -1 -10  -4   28.15    2.04
   1  10   4   28.27    2.05
  -1  10  -4   28.02    1.81
   1  10   4   29.63    2.12
  -2 -10  -4    3.54    0.63
   2  10   4    2.35    0.53
   2  10   4    1.66    0.42
  -2  10  -4    2.13    0.19
   3  10   4    1.95    0.54
   3  10   4    1.97    0.50
  -3  10  -4    1.33    0.18
  -4 -10  -4   38.06    2.82
   4 -10   4   36.57    2.81
   4  10   4   40.52    2.89
   4  10   4   40.96    2.96
  -5 -10  -4    1.28    0.70
   5 -10   4    1.32    0.67
   5  10   4    0.85    0.61
   5  10   4    1.12    0.81
  -6 -10  -4   10.82    0.80
  -6 -10  -4   10.88    0.77
  -6 -10  -4   10.84    0.88
   6  10   4   11.96    1.46
  -6  10  -4   10.67    0.79
  -6  10  -4   10.45    0.77
  -6  10  -4    9.13    0.80
  -6  10  -4    9.90    0.79
   7  10   4    2.31    1.00
  -7  10  -4    1.93    0.28
  -7  10  -4    1.52    0.24
  -7  10  -4    1.85    0.28
  -7  10  -4    2.11    0.32
  -8  10  -4    4.49    0.45
  -8  10  -4    4.14    0.46
  -8  10  -4    5.15    0.43
  -8  10  -4    4.84    0.43
  -9 -10  -4    7.90    0.61
  -9 -10  -4    8.50    0.59
  -9  10  -4    7.05    0.60
  -9  10  -4    7.39    0.63
  -9  10  -4    6.86    0.58
  -9  10  -4    7.19    0.60
 -10 -10  -4    0.53    0.15
 -10 -10  -4    0.61    0.18
 -10 -10  -4    0.50    0.15
 -10  10  -4    0.66    0.17
 -10  10  -4    0.31    0.14
 -10 -11   4    3.03    0.33
 -10 -11   4    3.62    0.35
 -10 -11   4    3.42    0.34
  -9 -11   4    0.75    0.18
  -9 -11   4    0.63    0.19
  -9  11   4    0.50    0.17
  -9  11   4    0.05    0.19
  -9  11   4    0.33    0.15
  -9  11   4    0.36    0.21
  -8 -11   4    1.76    0.32
  -8 -11   4    2.04    0.35
  -8  11   4    2.52    0.40
  -8  11   4    2.80    0.33
  -8  11   4    2.53    0.28
  -8  11   4    1.89    0.37
   8  11  -4    2.75    0.30
  -7 -11   4    0.13    0.17
  -7 -11   4    1.30    0.84
  -7 -11   4    0.48    0.17
  -7  11   4   -0.25    0.20
  -7  11   4   -0.08    0.14
  -7  11   4    0.02    0.17
   7  11  -4   -0.11    0.13
  -7  11   4    0.10    0.15
  -7  11   4    0.05    0.22
  -6 -11   4    0.87    0.17
  -6 -11   4    0.83    0.15
  -6 -11   4    1.36    0.26
  -6 -11   4    0.81    0.19
  -6 -11   4    1.18    0.64
  -6  11   4    0.86    0.21
  -6  11   4    0.43    0.20
  -6  11   4    1.06    0.22
  -6  11   4    0.92    0.17
  -6  11   4    0.71    0.18
  -5 -11   4    0.86    0.53
  -5 -11   4    0.84    0.13
  -5 -11   4    0.85    0.60
   5  11  -4    0.83    0.58
   5  11  -4    0.50    0.12
  -4 -11   4    9.84    0.62
  -4 -11   4    8.90    0.99
  -4 -11   4   10.56    0.96
  -4  11   4    9.36    0.63
  -4  11   4    8.21    0.98
   4  11  -4    9.05    0.96
   4  11  -4    8.65    0.62
  -3 -11   4    0.63    0.38
  -3 -11   4    0.89    0.41
  -3  11   4    1.40    0.19
   3  11  -4    1.23    0.41
  -3  11   4    1.14    0.40
   3  11  -4    1.60    0.16
  -2 -11   4   35.71    2.70
  -2 -11   4   35.45    2.59
  -2  11   4   38.52    2.63
  -2  11   4   37.81    2.71
   2  11  -4   39.09    2.60
  -2  11   4   37.50    2.36
   2  11  -4   34.76    2.36
  -1 -11   4   19.32    1.51
  -1 -11   4   20.72    1.54
   1  11  -4   22.38    1.50
  -1  11   4   19.83    1.31
  -1  11   4   20.08    1.52
   1  11  -4   19.70    1.30
  -1  11   4   20.17    1.57
   0 -11   4   28.30    1.96
   0  11   4   25.92    2.03
   0  11  -4   26.42    1.73
   0  11   4   28.03    1.97
   1 -11   4    7.32    0.73
   1  11   4    6.37    0.74
  -1  11  -4    6.11    0.43
   1  11   4    6.34    0.73
   2  11   4   12.53    1.11
  -2  11  -4   11.31    0.78
   2  11   4   12.54    1.09
   3  11   4    1.76    0.52
  -3  11  -4    1.12    0.18
   3  11   4    1.88    0.56
  -4 -11  -4    7.81    1.05
   4 -11   4    6.72    0.96
   4  11   4    6.20    1.05
   4  11   4    7.04    0.96
  -5 -11  -4    1.79    0.79
   5 -11   4    1.40    0.73
   5  11   4    2.63    0.70
   5  11   4    2.51    0.87
  -6 -11  -4    3.35    0.43
  -6 -11  -4    3.05    0.36
  -6 -11  -4    3.01    0.33
  -6  11  -4    2.97    0.33
  -6  11  -4    3.50    0.35
  -6  11  -4    2.72    0.32
   6  11   4    3.82    0.91
  -6  11  -4    2.93    0.35
  -7  11  -4    1.26    0.19
  -7  11  -4    0.80    0.19
  -7  11  -4    0.94    0.18
  -7  11  -4    0.93    0.22
   7  11   4    1.60    1.02
  -9 -11  -4    0.56    0.17
  -9 -11  -4    0.48    0.16
  -9 -11  -4    0.21    0.21
  -9  11  -4    0.45    0.17
  -9  11  -4    0.42    0.16
  -9  11  -4    0.51    0.19
  -9  11  -4    0.39    0.18
 -10 -11  -4    4.98    0.43
 -10 -11  -4    4.46    0.44
 -10 -11  -4    5.29    0.50
 -10  11  -4    5.92    0.47
 -10  11  -4    6.14    0.45
 -10  11  -4    5.65    0.43
 -10 -12   4   -0.09    0.14
 -10 -12   4    0.25    0.14
 -10  12   4    0.27    0.13
 -10  12   4    0.16    0.14
 -10  12   4    0.35    0.17
  -9 -12   4    3.31    0.43
  -9  12   4    4.69    0.36
  -9  12   4    4.66    0.40
  -9  12   4    4.33    0.43
   8  12  -4    0.36    0.16
  -8  12   4    0.42    0.16
  -8  12   4    0.62    0.17
  -8  12   4    0.01    0.20
  -8  12   4    0.30    0.23
  -7 -12   4    1.78    0.29
  -7 -12   4    1.80    0.30
  -7 -12   4    2.04    0.32
  -7  12   4    1.56    0.23
  -7  12   4    1.63    0.31
   7  12  -4    1.29    0.25
  -7  12   4    1.66    0.27
  -6 -12   4   16.58    1.65
  -6 -12   4   14.40    1.22
  -6 -12   4   13.69    1.11
  -6 -12   4   13.73    1.10
   6  12  -4   16.40    1.03
  -6  12   4   17.69    1.04
  -6  12   4   16.88    1.12
  -6  12   4   16.75    1.19
  -6  12   4   15.34    1.11
  -6  12   4   15.65    1.16
  -5 -12   4    0.28    0.58
  -5 -12   4   -0.14    0.66
  -5 -12   4    0.40    0.16
  -5 -12   4    0.36    0.18
  -5  12   4    0.61    0.15
   5  12  -4    0.74    0.13
  -5  12   4    0.68    0.23
  -5  12   4    0.71    0.20
  -5  12   4    0.71    0.17
  -5  12   4    0.89    0.17
  -4 -12   4   23.21    1.82
   4  12  -4   21.52    1.77
  -4  12   4   24.48    1.46
  -4  12   4   20.95    1.77
   4  12  -4   22.09    1.45
  -3 -12   4    0.58    0.41
  -3 -12   4    0.71    0.43
   3  12  -4    0.81    0.14
   3  12  -4    0.53    0.46
  -3  12   4    0.33    0.43
  -3  12   4    0.72    0.13
  -2 -12   4    6.61    0.68
  -2  12   4    5.12    0.39
   2  12  -4    5.16    0.37
   2  12  -4    4.88    0.64
  -2  12   4    4.35    0.71
  -1 -12   4    9.40    0.82
  -1  12   4    7.49    0.78
  -1  12   4    7.34    0.82
  -1  12   4    8.19    0.56
   1  12  -4    7.45    0.53
   0 -12   4    1.09    0.39
   0  12   4    1.28    0.38
   0  12  -4    1.76    0.16
   0  12   4    1.27    0.43
   1 -12   4    2.64    0.53
   1  12   4    3.13    0.59
  -1  12  -4    3.78    0.26
   1  12   4    3.29    0.60
  -2 -12  -4    8.17    1.13
   2 -12   4    8.63    1.00
   2  12   4   11.17    1.05
   2  12   4   11.87    1.03
  -2  12  -4   10.95    0.68
  -3 -12  -4    4.85    0.95
   3 -12   4    4.57    0.80
   3  12   4    5.08    0.79
  -3  12  -4    3.94    0.32
   3  12   4    4.33    0.85
  -4 -12  -4   16.36    1.73
   4 -12   4   16.22    1.58
   4  12   4   19.13    1.69
  -4  12  -4   18.71    1.20
   4  12   4   20.88    1.65
  -5 -12  -4    1.54    0.36
  -5 -12  -4    1.97    0.33
  -5 -12  -4    1.54    0.27
  -5  12  -4    1.89    0.29
  -5  12  -4    1.82    0.28
  -5  12  -4    1.79    0.25
  -5  12  -4    1.68    0.28
   5  12   4    1.83    0.68
  -6  12  -4    7.89    0.60
  -6  12  -4    7.27    0.60
   6  12   4    7.72    1.29
  -6  12  -4    7.19    0.60
  -6  12  -4    7.02    0.58
  -7 -12  -4   -0.18    0.22
  -7 -12  -4   -0.03    0.16
  -7 -12  -4    0.13    0.18
  -7  12  -4    0.10    0.16
  -7  12  -4   -0.02    0.19
  -7  12  -4    0.28    0.16
  -7  12  -4    0.20    0.17
  -8 -12  -4    8.29    0.61
  -8 -12  -4    7.70    0.63
  -8 -12  -4    7.99    0.68
  -8  12  -4    7.32    0.63
  -8  12  -4    7.42    0.62
  -8  12  -4    7.84    0.60
  -8  12  -4    6.82    0.61
  -9 -12  -4    1.89    0.36
  -9 -12  -4    2.17    0.29
  -9  12  -4    1.47    0.29
  -9  12  -4    1.99    0.30
  -9  12  -4    1.43    0.29
 -10 -12  -4    0.71    0.15
 -10 -12  -4    0.59    0.17
 -10 -12  -4    0.73    0.15
 -10  12  -4    0.71    0.15
 -10  12  -4    1.19    0.24
 -10  12  -4    0.80    0.15
 -10 -13   4    1.79    0.26
 -10 -13   4    1.78    0.25
 -10  13   4    2.38    0.24
 -10  13   4    2.11    0.26
  -9 -13   4    0.50    0.18
  -9 -13   4    0.74    0.17
  -9 -13   4    0.63    0.17
  -9  13   4    0.21    0.16
  -9  13   4    0.21    0.18
  -9  13   4    0.48    0.19
  -8 -13   4    2.20    0.34
  -8  13   4    1.74    0.35
  -8  13   4    1.86    0.36
  -8  13   4    1.93    0.28
  -8  13   4    2.37    0.31
  -7 -13   4   -0.09    0.17
  -7 -13   4   -0.24    0.18
  -7 -13   4    0.08    0.18
  -7  13   4    0.27    0.18
  -7  13   4    0.34    0.19
  -7  13   4    0.12    0.16
  -7  13   4    0.08    0.22
   7  13  -4    0.28    0.14
  -7  13   4   -0.24    0.21
  -6 -13   4    1.98    0.32
  -6 -13   4    3.00    0.42
  -6 -13   4    2.26    0.36
  -6 -13   4    2.40    0.85
  -6  13   4    2.74    0.40
  -6  13   4    2.87    0.37
  -6  13   4    2.37    0.40
  -6  13   4    3.19    0.36
   6  13  -4    3.20    0.27
  -6  13   4    2.96    0.32
  -5 -13   4    2.24    0.73
  -5  13   4    2.83    0.35
   5  13  -4    2.49    0.25
  -5  13   4    2.69    0.33
  -5  13   4    2.28    0.38
  -5  13   4    2.28    0.29
  -5  13   4    2.67    0.33
  -4 -13   4   13.52    1.31
   4  13  -4   14.79    1.29
  -4  13   4   12.14    0.88
   4  13  -4   12.98    0.86
  -3 -13   4    4.26    0.82
  -3 -13   4    3.99    0.80
   3  13  -4    5.50    0.38
  -3  13   4    5.49    0.40
  -3  13   4    4.44    0.81
   3  13  -4    5.87    0.84
  -2 -13   4   20.33    1.65
  -2 -13   4   22.16    1.61
  -2  13   4   20.50    1.35
   2  13  -4   19.74    1.33
  -2  13   4   21.10    1.63
  -1 -13   4    4.93    0.68
  -1  13   4    3.20    0.71
  -1  13   4    3.77    0.35
  -1  13   4    4.73    0.68
   1  13  -4    3.90    0.30
   0  13   4   11.08    0.97
   0  13   4   10.14    0.98
   0  13  -4   10.00    0.68
   1 -13   4    0.32    0.47
   1  13   4   -0.37    0.40
  -1  13  -4    0.20    0.09
   1  13   4    0.21    0.41
   2 -13   4   16.27    1.54
   2  13   4   20.84    1.60
   2  13   4   19.12    1.60
  -2  13  -4   19.87    1.23
  -3 -13  -4    2.50    0.80
   3 -13   4    2.93    0.63
  -3  13  -4    1.91    0.22
   3  13   4    2.16    0.58
   3  13   4    2.79    0.67
  -4 -13  -4    9.63    1.40
   4 -13   4    9.11    1.21
   4  13   4    9.36    1.15
  -4  13  -4   10.61    0.67
   4  13   4    8.60    1.26
  -5 -13  -4    0.76    0.17
  -5  13  -4    0.37    0.19
   5  13   4    0.30    0.67
  -5  13  -4    0.46    0.16
  -5  13  -4    0.02    0.16
  -5  13  -4    0.27    0.16
  -6 -13  -4    1.83    0.32
  -6  13  -4    2.02    0.29
   6  13   4    1.47    0.85
  -6  13  -4    2.48    0.33
  -6  13  -4    1.88    0.32
  -6  13  -4    2.20    0.31
  -7 -13  -4    1.06    0.22
  -7 -13  -4    1.11    0.21
  -7  13  -4    1.41    0.22
  -7  13  -4    1.00    0.19
  -7  13  -4    1.34    0.21
  -7  13  -4    1.52    0.28
  -8 -13  -4   10.50    0.79
  -8 -13  -4   10.48    0.76
  -8 -13  -4   10.86    0.85
  -8  13  -4    9.43    0.76
  -8  13  -4    9.68    0.78
  -8  13  -4    9.26    0.78
  -8  13  -4   10.62    0.79
  -9 -13  -4    1.80    0.27
  -9 -13  -4    1.23    0.23
  -9  13  -4    1.29    0.20
  -9  13  -4    1.15    0.25
  -9  13  -4    1.48    0.29
  -9  13  -4    1.55    0.29
 -10 -13  -4    2.46    0.28
 -10 -13  -4    2.64    0.32
 -10 -13  -4    2.58    0.29
 -10  13  -4    3.38    0.27
 -10  13  -4    3.30    0.28
 -10 -14   4    0.56    0.14
 -10 -14   4    0.47    0.13
 -10  14   4    0.26    0.14
 -10  14   4    0.50    0.15
 -10  14   4    0.28    0.12
  -9 -14   4    0.99    0.19
  -9 -14   4    1.24    0.26
  -9 -14   4    1.21    0.28
  -9  14   4    1.18    0.20
  -9  14   4    1.18    0.20
  -9  14   4    1.08    0.17
  -9  14   4    0.97    0.18
  -8  14   4   10.26    0.76
  -8  14   4   11.11    0.81
  -8  14   4   11.01    0.86
  -8  14   4   11.62    0.85
  -7 -14   4    0.40    0.19
  -7  14   4    0.08    0.21
  -7  14   4    0.16    0.18
   7  14  -4    0.14    0.14
  -7  14   4   -0.18    0.20
  -7  14   4    0.32    0.19
  -7  14   4    0.08    0.17
  -6 -14   4    4.32    0.44
  -6 -14   4    5.04    0.99
  -6 -14   4    3.62    0.37
  -6  14   4    3.29    0.44
  -6  14   4    3.69    0.39
  -6  14   4    3.02    0.38
  -6  14   4    3.03    0.41
   6  14  -4    3.25    0.31
  -6  14   4    3.14    0.34
  -5 -14   4    1.90    0.79
  -5 -14   4    1.05    0.21
  -5 -14   4    1.32    0.22
  -5 -14   4    1.03    0.20
  -5 -14   4    1.33    0.23
  -5  14   4    1.20    0.25
  -5  14   4    1.26    0.21
  -5  14   4    1.14    0.21
  -5  14   4    1.21    0.23
   5  14  -4    1.34    0.21
  -5  14   4    1.16    0.19
  -4 -14   4   16.55    1.64
  -4 -14   4   15.94    1.20
  -4 -14   4   16.89    1.22
   4  14  -4   16.92    1.57
  -4  14   4   18.40    1.13
  -4  14   4   17.29    1.22
  -4  14   4   16.74    1.25
   4  14  -4   17.87    1.12
  -3 -14   4    5.20    0.91
  -3 -14   4    4.72    0.85
   3  14  -4    3.88    0.32
  -3  14   4    4.16    0.71
  -3  14   4    4.04    0.35
   3  14  -4    3.76    0.81
  -2 -14   4    8.75    0.95
  -2  14   4    8.65    0.60
   2  14  -4    8.42    0.58
  -2  14   4    8.67    1.01
  -1 -14   4    0.99    0.43
  -1  14   4    1.22    0.52
   1  14  -4    0.92    0.16
  -1  14   4    0.52    0.17
   0 -14   4    3.57    0.72
   0  14   4    3.58    0.59
   0  14  -4    3.63    0.28
   0  14   4    4.00    0.78
   1 -14   4    2.14    0.58
  -1  14  -4    2.18    0.20
   1  14   4    1.56    0.51
   1  14   4    1.77    0.50
   2 -14   4   10.29    1.12
   2  14   4   11.02    1.10
   2  14   4   10.16    1.15
  -2  14  -4    9.82    0.68
  -3 -14  -4    5.09    0.99
   3 -14   4    3.69    0.73
   3  14   4    3.44    0.66
  -3  14  -4    3.29    0.30
   3  14   4    5.65    0.98
  -4  14  -4   10.60    0.87
  -4  14  -4   12.31    0.79
   4  14   4   11.93    0.89
   4  14   4   12.92    1.31
  -4  14  -4   11.22    0.87
  -4  14  -4   11.34    0.85
  -5 -14  -4    0.84    0.22
  -5 -14  -4    0.83    0.23
  -5 -14  -4    0.84    0.37
   5  14   4    0.43    0.24
  -5  14  -4    0.65    0.21
  -5  14  -4    0.37    0.17
  -5  14  -4    0.54    0.17
  -5  14  -4    0.51    0.18
   5  14   4    0.43    0.73
  -6 -14  -4   21.30    1.48
  -6 -14  -4   21.13    1.43
  -6 -14  -4   21.37    1.56
  -6  14  -4   18.98    1.42
   6  14   4   20.14    1.99
  -6  14  -4   19.18    1.44
  -6  14  -4   20.04    1.47
  -6  14  -4   18.77    1.46
  -7  14  -4    0.84    0.19
  -7  14  -4    0.80    0.19
  -7  14  -4    0.93    0.21
  -7  14  -4    0.75    0.20
  -8 -14  -4    8.25    0.64
  -8 -14  -4    8.25    0.59
  -8  14  -4    6.58    0.57
  -8  14  -4    6.89    0.59
  -8  14  -4    6.19    0.59
  -8  14  -4    6.20    0.57
  -9 -14  -4    0.13    0.17
  -9 -14  -4    0.14    0.16
  -9 -14  -4    0.34    0.16
  -9  14  -4    0.22    0.14
  -9  14  -4    0.25    0.15
  -9  14  -4    0.33    0.16
 -10 -14  -4    0.11    0.12
 -10 -14  -4    0.15    0.12
 -10 -14  -4    0.19    0.14
 -10  14  -4    0.38    0.12
 -10  14  -4    0.28    0.12
  -9 -15   4    3.64    0.38
  -9 -15   4    3.40    0.36
  -9 -15   4    3.84    0.36
  -9  15   4    4.25    0.37
  -9  15   4    3.75    0.37
  -9  15   4    3.39    0.35
  -8 -15   4    5.46    0.53
  -8 -15   4    6.19    0.58
  -8 -15   4    5.50    0.53
  -8  15   4    6.86    0.49
  -8  15   4    6.99    0.57
  -8  15   4    7.21    0.53
  -8  15   4    7.42    0.56
  -7  15   4    0.37    0.19
  -7  15   4    0.20    0.20
  -7  15   4    0.15    0.18
  -7  15   4    0.03    0.20
   7  15  -4    0.49    0.16
  -6 -15   4    3.07    0.39
  -6 -15   4    1.96    0.33
  -6 -15   4    2.24    0.36
  -6 -15   4    2.71    0.35
   6  15  -4    2.41    0.26
  -6  15   4    1.95    0.38
  -6  15   4    2.21    0.34
  -6  15   4    2.12    0.36
  -6  15   4    1.73    0.40
  -6  15   4    2.17    0.31
  -5 -15   4    3.55    0.95
  -5  15   4    4.48    0.47
  -5  15   4    4.13    0.42
  -5  15   4    3.88    0.43
  -5  15   4    4.23    0.41
  -5  15   4    3.98    0.38
   5  15  -4    4.08    0.34
  -4  15   4    4.25    0.41
  -4  15   4    5.17    0.51
  -4  15   4    3.91    0.42
   4  15  -4    4.37    0.33
  -4  15   4    3.77    0.38
  -4  15   4    3.78    0.42
  -3 -15   4    0.63    0.74
   3  15  -4    1.85    0.21
  -3  15   4    1.97    0.27
  -2 -15   4   17.00    1.35
   2  15  -4   14.54    0.97
  -2  15   4   14.17    1.46
  -2  15   4   14.03    0.99
  -1 -15   4    6.87    0.94
  -1  15   4    7.58    1.05
  -1  15   4    8.06    0.59
   1  15  -4    8.11    0.54
   0  15   4    4.99    0.92
   0  15   4    5.09    0.86
   0  15  -4    5.48    0.39
   1  15   4   12.96    1.32
   1  15   4   15.27    1.32
  -1  15  -4   13.84    0.92
   2 -15   4   10.38    1.31
  -2  15  -4   13.87    0.86
   2  15   4   13.61    1.32
   2  15   4   13.17    1.34
  -3 -15  -4    7.45    0.53
  -3  15  -4    5.67    0.46
  -3  15  -4    5.99    0.54
   3  15   4    6.33    0.99
  -4 -15  -4    6.13    0.68
  -4 -15  -4    7.18    0.55
  -4 -15  -4    7.27    0.64
  -4 -15  -4    6.49    0.63
   4  15   4    6.17    0.57
  -4  15  -4    6.08    0.56
  -4  15  -4    7.16    0.59
  -4  15  -4    6.68    0.56
  -4  15  -4    7.08    0.50
   4  15   4    6.79    1.16
  -4  15  -4    7.09    0.55
  -5 -15  -4   12.03    0.90
  -5 -15  -4   11.58    0.88
  -5 -15  -4   11.42    0.84
  -5 -15  -4   11.44    0.80
  -5  15  -4   10.14    0.80
  -5  15  -4    9.58    0.81
  -5  15  -4    9.66    0.81
  -5  15  -4    8.96    0.78
   5  15   4   10.65    1.45
   5  15   4   10.22    0.80
  -6 -15  -4    1.81    0.26
  -6 -15  -4    1.93    0.37
  -6 -15  -4    1.90    0.39
  -6 -15  -4    2.29    0.33
  -6  15  -4    1.40    0.32
  -6  15  -4    1.33    0.32
  -7 -15  -4    0.30    0.22
  -7 -15  -4    0.45    0.20
  -7  15  -4    0.85    0.20
  -7  15  -4    0.80    0.20
  -7  15  -4    0.71    0.19
  -8 -15  -4   12.50    0.94
  -8 -15  -4   11.73    0.86
   8 -15   4   13.54    0.90
  -8 -15  -4   12.51    0.89
  -8  15  -4   11.29    0.89
  -8  15  -4   11.08    0.87
  -8  15  -4   10.27    0.88
  -8  15  -4   10.05    0.85
  -9 -15  -4    3.12    0.32
  -9 -15  -4    3.25    0.36
  -9 -15  -4    2.97    0.33
  -9  15  -4    3.00    0.31
  -9  15  -4    3.44    0.34
  -9  15  -4    3.54    0.32
  -9 -16   4    2.16    0.27
  -9 -16   4    2.19    0.27
  -9 -16   4    2.39    0.29
   9  16  -4    1.71    0.24
  -9  16   4    1.63    0.25
  -9  16   4    1.98    0.27
  -8 -16   4    5.33    0.44
  -8 -16   4    5.17    0.46
  -8 -16   4    4.93    0.44
  -8  16   4    4.66    0.45
  -8  16   4    4.43    0.46
  -8  16   4    4.65    0.43
  -8  16   4    4.25    0.39
  -7 -16   4    4.38    0.51
  -7 -16   4    4.30    0.50
  -7  16   4    5.63    0.47
  -7  16   4    5.84    0.49
  -7  16   4    5.54    0.44
   7  16  -4    5.69    0.43
  -7  16   4    5.85    0.51
  -6 -16   4    2.56    0.37
  -6 -16   4    2.51    0.39
  -6 -16   4    2.37    0.38
  -6  16   4    3.18    0.34
  -6  16   4    2.87    0.37
  -6  16   4    3.12    0.42
  -6  16   4    3.15    0.39
  -6  16   4    2.84    0.38
   6  16  -4    2.99    0.30
  -5 -16   4   -0.48    0.97
   5  16  -4    1.31    0.75
  -5  16   4    1.99    0.37
  -5  16   4    1.54    0.25
   5  16  -4    1.94    0.24
  -5  16   4    1.53    0.28
  -5  16   4    1.70    0.35
  -5  16   4    1.84    0.34
  -4 -16   4    9.85    0.68
  -4 -16   4   10.11    1.60
  -4 -16   4   10.31    0.70
  -4 -16   4    9.65    0.75
  -4  16   4    7.73    0.69
  -4  16   4    7.96    0.67
  -4  16   4    9.26    0.77
   4  16  -4    8.16    0.61
  -4  16   4    7.70    0.69
  -4  16   4    8.20    0.64
  -3 -16   4   11.72    0.94
  -3 -16   4   12.20    0.91
  -3 -16   4   13.72    0.97
  -3  16   4   11.99    0.93
  -3  16   4   13.43    0.86
  -3  16   4   12.15    0.94
  -3  16   4   12.38    0.91
   3  16  -4   12.68    0.84
  -2  16   4    3.67    0.36
   2  16  -4    3.69    0.30
  -2  16   4    1.99    0.81
  -2  16   4    3.65    0.39
  -1 -16   4    1.34    0.60
  -1  16   4    0.74    0.20
  -1  16   4   -0.03    0.65
   0 -16   4    0.81    0.56
   0  16  -4    0.97    0.20
   0  16   4    0.84    0.66
   1  16   4    2.17    0.64
  -1  16  -4    2.30    0.24
   1  16   4    1.26    0.68
  -2  16  -4    5.75    0.52
   2  16   4    5.01    1.04
  -2  16  -4    6.50    0.44
   2  16   4    5.54    0.50
   3 -16   4   29.44    2.20
  -3 -16  -4   28.94    2.13
  -3  16  -4   29.12    2.19
  -3  16  -4   30.79    2.20
  -3  16  -4   30.19    2.13
   3  16   4   32.05    2.12
   3  16   4   32.04    2.48
  -3  16  -4   32.73    1.97
  -4 -16  -4    5.00    0.45
   4 -16   4    5.84    0.48
  -4 -16  -4    5.19    0.54
  -4 -16  -4    4.44    0.55
  -4  16  -4    4.80    0.49
   4  16   4    4.78    0.45
  -4  16  -4    4.32    0.45
   4  16   4    4.36    0.87
  -4  16  -4    4.73    0.44
  -4  16  -4    4.76    0.40
  -4  16  -4    4.03    0.43
  -5 -16  -4    1.86    0.34
  -5 -16  -4    2.20    0.38
   5 -16   4    2.52    0.35
  -5 -16  -4    2.42    0.37
  -5 -16  -4    1.38    0.34
  -5  16  -4    1.68    0.32
   5  16   4    1.54    0.85
  -5  16  -4    1.68    0.36
  -5  16  -4    2.05    0.32
   5  16   4    1.74    0.36
  -6  16  -4    2.64    0.36
  -6  16  -4    2.23    0.35
  -6  16  -4    2.59    0.35
   6  16   4    2.87    0.41
  -6  16  -4    2.43    0.36
  -7 -16  -4    1.73    0.37
  -7 -16  -4    1.90    0.32
  -7 -16  -4    1.74    0.35
   7 -16   4    2.00    0.36
  -7  16  -4    2.27    0.34
  -7  16  -4    2.37    0.34
  -7  16  -4    1.97    0.32
  -7  16  -4    2.00    0.30
  -8 -16  -4    3.62    0.36
  -8 -16  -4    3.36    0.37
  -8 -16  -4    3.14    0.35
   8 -16   4    3.98    0.40
  -8  16  -4    2.74    0.33
  -8  16  -4    2.76    0.34
  -8  16  -4    3.29    0.37
  -8  16  -4    2.47    0.36
  -9 -16  -4    0.81    0.17
  -9 -16  -4    0.96    0.21
  -9 -16  -4    0.89    0.18
  -9  16  -4    0.90    0.16
  -9  16  -4    1.15    0.21
  -9  16  -4    0.99    0.21
  -9 -17   4    8.76    0.65
  -9 -17   4    9.66    0.65
  -9 -17   4    9.19    0.70
  -9  17   4    8.17    0.64
  -9  17   4    9.27    0.67
  -9  17   4    8.49    0.67
   9  17  -4    8.34    0.64
  -8  17   4    3.06    0.35
  -8  17   4    3.62    0.36
  -8  17   4    3.34    0.31
  -8  17   4    3.26    0.35
   8  17  -4    3.46    0.32
  -7 -17   4    3.96    0.41
  -7 -17   4    4.20    0.40
  -7 -17   4    3.73    0.40
   7  17  -4    3.34    0.34
  -7  17   4    3.17    0.39
  -7  17   4    3.26    0.36
  -7  17   4    3.63    0.39
  -7  17   4    3.16    0.41
  -6 -17   4    0.42    0.21
  -6 -17   4    0.49    0.20
   6  17  -4    0.16    0.15
  -6  17   4    0.18    0.19
  -6  17   4    0.25    0.20
  -6  17   4    0.00    0.18
  -6  17   4   -0.01    0.20
  -6  17   4    0.07    0.20
  -5 -17   4    1.00    0.21
  -5 -17   4    0.62    0.21
  -5 -17   4    0.82    0.23
  -5 -17   4    0.84    0.20
  -5  17   4    1.37    0.22
  -5  17   4    1.17    0.24
  -5  17   4    1.13    0.21
  -5  17   4    1.06    0.22
   5  17  -4    1.21    0.23
  -5  17   4    1.17    0.21
  -4 -17   4    0.69    0.20
  -4 -17   4    0.82    0.21
  -4  17   4    0.46    0.19
  -4  17   4    0.62    0.25
   4  17  -4    0.58    0.14
  -4  17   4    0.38    0.19
  -4  17   4    0.46    0.20
  -3 -17   4    9.63    0.97
  -3  17   4   11.60    0.91
  -3  17   4   13.09    0.84
   3  17  -4   13.38    0.81
  -3  17   4   11.90    0.88
  -3  17   4   12.42    0.91
  -2 -17   4    6.48    0.54
  -2 -17   4    6.48    0.54
  -2  17   4    5.81    0.52
  -2  17   4    6.11    0.55
  -2  17   4    6.43    0.52
   2  17  -4    6.40    0.46
  -2  17   4    6.57    0.57
   2  17  -4    6.35    0.51
  -1 -17   4   15.72    1.31
  -1 -17   4   16.67    1.28
   1  17  -4   17.59    1.26
  -1  17   4   19.12    1.31
   1  17  -4   18.71    1.17
  -1  17   4   20.08    1.21
  -1  17   4   17.97    1.27
   0 -17   4    1.07    0.20
   0  17  -4    1.92    0.22
   0  17   4    1.58    0.28
   0  17  -4    1.51    0.31
   1 -17   4   13.41    0.84
  -1  17  -4   10.62    0.86
  -1  17  -4    9.87    0.81
  -1  17  -4   10.64    0.73
   1  17   4    9.61    0.80
  -2 -17  -4    5.94    0.50
   2 -17   4    6.13    0.50
  -2  17  -4    5.62    0.51
  -2  17  -4    4.98    0.49
   2  17   4    5.62    1.12
  -2  17  -4    5.57    0.42
   2  17   4    4.74    0.48
  -3 -17  -4    2.31    0.35
   3 -17   4    2.75    0.34
  -3  17  -4    1.89    0.26
   3  17   4    1.52    0.73
  -3  17  -4    1.73    0.32
  -3  17  -4    2.29    0.34
  -4 -17  -4    1.31    0.26
   4 -17   4    1.44    0.31
  -4 -17  -4    0.93    0.20
   4  17   4    0.39    0.78
  -4  17  -4    0.47    0.18
  -4  17  -4    0.64    0.19
  -4  17  -4    0.81    0.18
  -4  17  -4    0.69    0.18
   4  17   4    0.91    0.20
  -5 -17  -4    5.52    0.53
  -5 -17  -4    5.11    0.50
  -5 -17  -4    6.00    0.54
   5 -17   4    5.45    0.50
  -5  17  -4    5.20    0.49
  -5  17  -4    5.59    0.48
  -5  17  -4    5.32    0.51
  -5  17  -4    5.30    0.47
   5  17   4    5.27    0.50
  -5  17  -4    4.28    0.48
  -6 -17  -4    2.84    0.41
   6 -17   4    3.68    0.40
  -6 -17  -4    3.50    0.39
  -6 -17  -4    3.32    0.44
  -6  17  -4    3.07    0.39
   6  17   4    3.06    0.42
  -6  17  -4    3.02    0.39
  -6  17  -4    3.45    0.37
   7 -17   4    8.86    0.69
  -7 -17  -4    8.17    0.67
  -7 -17  -4    7.55    0.72
  -7 -17  -4    8.39    0.69
  -7  17  -4    9.05    0.67
  -7  17  -4    7.90    0.66
  -7  17  -4    9.12    0.69
  -7  17  -4    8.51    0.68
  -8 -17  -4    2.32    0.34
  -8 -17  -4    1.94    0.29
  -8 -17  -4    2.03    0.29
  -8  17  -4    2.46    0.29
  -8  17  -4    2.65    0.31
  -8  17  -4    2.38    0.29
  -9 -17  -4    4.77    0.42
  -9 -17  -4    4.61    0.38
  -9 -17  -4    4.63    0.40
  -9  17  -4    4.82    0.38
  -9  17  -4    4.72    0.40
  -9  17  -4    4.59    0.38
  -9 -18   4    0.50    0.14
  -9 -18   4    0.42    0.13
  -9  18   4    0.29    0.11
  -9  18   4    0.58    0.14
  -9  18   4    0.34    0.13
   9  18  -4    0.59    0.13
  -8 -18   4    2.24    0.29
  -8 -18   4    1.84    0.31
  -8 -18   4    2.03    0.31
  -8  18   4    2.69    0.30
  -8  18   4    2.52    0.29
   8  18  -4    2.76    0.27
  -8  18   4    2.61    0.31
  -7 -18   4   10.06    0.75
  -7 -18   4    9.73    0.79
  -7 -18   4   10.20    0.77
  -7 -18   4   10.23    0.75
  -7  18   4    9.31    0.75
  -7  18   4   10.09    0.74
  -7  18   4    9.49    0.77
   7  18  -4    9.50    0.72
  -7  18   4    9.46    0.69
  -6 -18   4    0.97    0.21
  -6 -18   4    1.04    0.19
  -6 -18   4    0.93    0.23
  -6  18   4    0.73    0.20
   6  18  -4    0.66    0.16
  -6  18   4    0.37    0.20
  -6  18   4    0.64    0.21
  -6  18   4    0.72    0.22
  -6  18   4    0.51    0.22
  -5  18   4    0.30    0.20
  -5  18   4    0.57    0.22
   5  18  -4    0.33    0.15
  -5  18   4    0.20    0.21
  -5  18   4    0.42    0.20
  -5  18   4    0.31    0.19
  -4 -18   4    0.18    0.21
  -4 -18   4    0.02    0.25
  -4 -18   4    0.06    0.17
  -4  18   4    0.24    0.20
  -4  18   4    0.32    0.19
  -4  18   4    0.29    0.19
   4  18  -4    0.52    0.14
   4  18  -4    0.45    0.17
  -4  18   4   -0.09    0.21
  -3 -18   4   17.47    1.35
  -3 -18   4   17.36    1.37
  -3 -18   4   16.75    1.31
  -3  18   4   18.89    1.30
   3  18  -4   19.25    1.21
   3  18  -4   18.76    1.29
  -3  18   4   20.28    1.24
  -3  18   4   18.21    1.34
  -3  18   4   19.12    1.32
   2 -18  -4    0.64    0.28
  -2 -18   4    0.41    0.21
  -2 -18   4    0.72    0.19
  -2  18   4    1.12    0.22
   2  18  -4    0.84    0.15
  -2  18   4    1.01    0.22
   2  18  -4    0.81    0.17
  -2  18   4    0.75    0.23
  -2  18   4    1.03    0.20
  -1 -18   4    0.69    0.18
   1 -18  -4    0.80    0.26
  -1 -18   4    0.43    0.21
  -1  18   4    1.19    0.26
   1  18  -4    0.94    0.18
  -1  18   4    0.85    0.19
  -1  18   4    0.92    0.23
   0 -18   4    2.85    0.38
   0 -18   4    2.86    0.33
   0 -18  -4    3.16    0.42
   0  18  -4    2.21    0.27
   0  18  -4    2.21    0.46
   0  18   4    2.35    0.49
  -1 -18  -4    3.66    0.44
   1 -18   4    3.78    0.41
   1 -18   4    3.39    0.39
  -1  18  -4    3.21    0.44
   1  18   4    3.44    0.37
  -1  18  -4    4.20    0.33
  -1  18  -4    3.69    0.41
  -2 -18  -4    2.40    0.39
   2 -18   4    2.29    0.38
   2  18   4    3.31    0.88
  -2  18  -4    2.75    0.41
   2  18   4    3.17    0.35
  -2  18  -4    2.88    0.38
  -2  18  -4    3.64    0.30
  -2  18  -4    3.26    0.41
   3 -18   4   13.65    0.97
  -3 -18  -4   13.46    0.95
  -3  18  -4   13.07    0.95
   3  18   4   11.97    0.93
  -3  18  -4   12.76    0.86
  -3  18  -4   12.50    0.97
   3  18   4   11.91    1.61
  -3  18  -4   12.04    0.96
  -4 -18  -4    0.65    0.21
  -4 -18  -4    0.85    0.26
   4 -18   4    0.58    0.20
   4  18   4    1.09    0.94
  -4  18  -4    0.52    0.19
  -4  18  -4    0.48    0.17
  -4  18  -4    0.52    0.19
  -4  18  -4    0.46    0.18
   4  18   4    0.39    0.18
  -5  18  -4    7.50    0.63
  -5  18  -4    7.55    0.59
  -5  18  -4    7.54    0.63
  -5  18  -4    7.33    0.61
  -5  18  -4    7.80    0.63
   5  18   4    7.48    0.61
   6 -18   4    0.55    0.22
  -6  18  -4    1.08    0.21
   6  18   4    0.94    0.22
  -6  18  -4    1.02    0.19
  -6  18  -4    0.91    0.20
  -6  18  -4    1.09    0.21
   7 -18   4    5.54    0.50
  -7 -18  -4    5.94    0.49
  -7 -18  -4    5.82    0.53
  -7 -18  -4    5.62    0.49
  -7  18  -4    5.19    0.49
  -7  18  -4    5.07    0.49
  -7  18  -4    4.85    0.46
  -7  18  -4    4.79    0.46
   7  18   4    6.01    0.53
  -8 -18  -4    0.33    0.16
  -8 -18  -4    1.01    0.18
  -8 -18  -4    0.64    0.15
  -8  18  -4    0.63    0.16
  -8  18  -4    0.55    0.16
  -8  18  -4    0.72    0.16
  -8 -19   4   -0.12    0.15
  -8 -19   4    0.14    0.17
  -8 -19   4    0.04    0.14
  -8 -19   4    0.11    0.16
  -8  19   4   -0.22    0.14
  -8  19   4    0.01    0.14
   8  19  -4    0.08    0.12
  -8  19   4   -0.07    0.13
  -7 -19   4    2.86    0.33
  -7  19   4    2.50    0.31
   7  19  -4    2.50    0.28
  -7  19   4    2.05    0.30
  -7  19   4    2.27    0.33
  -7  19   4    1.91    0.28
  -6 -19   4    0.37    0.19
  -6 -19   4    0.24    0.21
  -6  19   4    0.36    0.20
   6  19  -4    0.61    0.16
  -6  19   4    0.91    0.21
  -6  19   4    0.63    0.19
   6  19  -4    0.74    0.17
  -6  19   4    1.05    0.20
  -6  19   4    0.74    0.20
  -5 -19   4    0.14    0.20
  -5 -19   4    0.12    0.19
  -5 -19   4   -0.02    0.23
  -5 -19   4    0.01    0.19
  -5  19   4    0.06    0.18
   5  19  -4    0.31    0.14
  -5  19   4   -0.02    0.20
  -5  19   4    0.01    0.20
  -5  19   4    0.39    0.20
  -5  19   4    0.61    0.23
   5  19  -4    0.16    0.17
  -4 -19   4    2.78    0.42
   4  19  -4    2.06    0.32
  -4  19   4    1.22    0.26
  -4  19   4    1.73    0.34
   4  19  -4    2.18    0.26
  -4  19   4    1.76    0.34
  -4  19   4    1.62    0.33
  -3 -19   4   11.64    1.00
  -3 -19   4   12.56    0.96
  -3 -19   4   12.39    0.95
   3  19  -4   13.20    0.85
  -3  19   4   12.54    0.95
  -3  19   4   13.22    0.88
  -3  19   4   12.16    0.95
   3  19  -4   13.22    0.92
  -3  19   4   12.47    0.92
  -2 -19   4    1.67    0.35
   2 -19  -4    1.73    0.29
  -2  19   4    1.19    0.25
   2  19  -4    1.51    0.24
  -2  19   4    1.86    0.25
  -2  19   4    1.19    0.27
  -2  19   4    1.02    0.21
   2  19  -4    1.44    0.29
  -1  19   4    1.96    0.38
   1  19  -4    2.61    0.29
   1  19  -4    2.18    0.31
  -1  19   4    2.04    0.34
  -1  19   4    2.24    0.41
   0 -19   4    1.38    0.31
   0 -19   4    1.18    0.23
   0 -19  -4    1.10    0.25
   0  19  -4    1.34    0.29
   0  19   4    2.19    0.45
   0  19   4    1.30    0.22
   1 -19   4   11.03    0.84
   1 -19   4   11.65    0.86
  -1 -19  -4   12.05    0.87
  -1  19  -4   10.42    0.83
   1  19   4   11.41    0.83
  -1  19  -4   11.09    0.77
  -1  19  -4   11.03    0.87
  -2 -19  -4    0.42    0.20
   2 -19   4    0.47    0.18
   2 -19   4    0.40    0.19
  -2  19  -4    0.11    0.20
   2  19   4   -0.03    0.19
  -2  19  -4    0.18    0.21
  -2  19  -4    0.16    0.14
  -2  19  -4    0.10    0.20
   3 -19   4    4.15    0.42
  -3 -19  -4    4.05    0.43
  -3  19  -4    3.85    0.35
   3  19   4    3.00    0.39
  -3  19  -4    3.64    0.43
  -4 -19  -4    5.56    0.61
  -4 -19  -4    5.15    0.56
   4 -19   4    5.51    0.56
  -4  19  -4    6.98    0.55
   4  19   4    7.18    0.54
  -4  19  -4    7.24    0.50
  -4  19  -4    6.54    0.55
  -5 -19  -4    0.15    0.20
  -5 -19  -4    0.50    0.24
   5 -19   4    0.43    0.20
  -5 -19  -4    0.26    0.22
  -5  19  -4    0.52    0.17
  -5  19  -4    0.59    0.23
  -5  19  -4    0.61    0.20
   5  19   4    0.49    0.19
  -5  19  -4    0.70    0.22
  -6 -19  -4    0.56    0.21
   6 -19   4    0.73    0.20
  -6 -19  -4    0.60    0.21
  -6 -19  -4    0.58    0.20
  -6  19  -4    0.22    0.18
  -6  19  -4    0.43    0.17
  -6  19  -4    0.25    0.19
   6  19   4    0.34    0.20
  -7 -19  -4    8.62    0.72
  -7 -19  -4    8.08    0.70
   7 -19   4    8.93    0.73
  -7 -19  -4    8.66    0.77
  -7  19  -4    9.51    0.69
   7  19   4   10.25    0.71
  -7  19  -4   10.75    0.71
  -8 -19  -4    0.03    0.16
  -8 -19  -4   -0.04    0.13
  -8 -19  -4    0.12    0.14
  -8  19  -4    0.08    0.13
  -8  19  -4    0.03    0.14
  -8  19  -4    0.28    0.13
  -8 -20   4    0.57    0.17
  -8 -20   4    0.35    0.13
  -8 -20   4    0.44    0.15
  -8  20   4    0.34    0.13
  -8  20   4    0.21    0.11
  -8  20   4    0.42    0.14
   8  20  -4    0.42    0.12
  -7 -20   4    4.68    0.43
  -7 -20   4    4.30    0.43
  -7 -20   4    4.69    0.42
  -7 -20   4    4.43    0.41
   7  20  -4    5.16    0.38
  -7  20   4    4.79    0.43
  -7  20   4    4.18    0.41
  -7  20   4    3.70    0.37
  -7  20   4    4.47    0.40
  -6 -20   4    1.11    0.22
  -6 -20   4    1.05    0.21
  -6 -20   4    1.37    0.29
  -6 -20   4    1.06    0.24
  -6  20   4    1.64    0.23
  -6  20   4    1.67    0.26
   6  20  -4    1.68    0.27
  -6  20   4    1.46    0.30
   6  20  -4    1.34    0.20
  -6  20   4    1.98    0.33
   5  20  -4    4.99    0.42
  -5  20   4    5.28    0.46
  -5  20   4    5.35    0.49
   5  20  -4    5.42    0.46
  -5  20   4    5.23    0.49
  -5  20   4    4.98    0.50
  -5  20   4    5.88    0.53
  -4 -20   4    2.25    0.46
  -4 -20   4    2.47    0.39
  -4 -20   4    3.06    0.37
  -4  20   4    3.30    0.38
   4  20  -4    3.56    0.31
  -4  20   4    2.31    0.41
  -4  20   4    3.09    0.36
  -4  20   4    2.68    0.36
   4  20  -4    3.24    0.35
  -3 -20   4    5.72    0.52
  -3 -20   4    4.61    0.52
  -3 -20   4    5.84    0.62
  -3  20   4    5.76    0.50
  -3  20   4    5.80    0.54
  -3  20   4    5.70    0.50
   3  20  -4    5.81    0.48
  -3  20   4    5.59    0.55
   3  20  -4    5.93    0.45
  -2  20   4    2.11    0.36
  -2  20   4    2.25    0.43
   2  20  -4    2.60    0.28
  -2  20   4    1.54    0.28
  -2  20   4    1.66    0.35
   2  20  -4    2.03    0.31
   1 -20  -4    0.42    0.23
  -1 -20   4    0.24    0.18
  -1  20   4    0.06    0.20
   1  20  -4    0.35    0.16
   1  20  -4    0.34    0.17
  -1  20   4    0.23    0.24
   0 -20  -4    3.64    0.46
   0 -20   4    4.20    0.45
   0  20  -4    5.20    0.40
   0  20   4    4.63    0.43
   0  20   4    4.88    0.53
   0  20  -4    4.32    0.43
  -1  20  -4    2.84    0.43
  -1  20  -4    2.29    0.37
   1  20   4    3.00    0.36
  -1  20  -4    3.22    0.31
   2 -20   4    1.54    0.32
   2 -20   4    2.16    0.32
  -2 -20  -4    1.73    0.36
  -2  20  -4    1.99    0.27
   2  20   4    1.75    0.24
  -2  20  -4    1.64    0.36
  -2  20  -4    1.96    0.28
  -3 -20  -4    9.35    0.86
   3 -20   4    9.89    0.86
   3 -20   4    9.46    0.82
   3  20   4   12.65    0.84
  -3  20  -4   12.67    0.78
  -3  20  -4   12.49    0.86
  -3  20  -4   11.95    0.86
  -4 -20  -4    3.27    0.45
  -4 -20  -4    3.09    0.40
   4 -20   4    3.53    0.39
   4  20   4    2.76    0.36
  -4  20  -4    2.96    0.36
  -4  20  -4    2.96    0.34
  -4  20  -4    2.42    0.39
  -5  20  -4    2.26    0.35
   5  20   4    2.41    0.35
  -5  20  -4    2.64    0.33
  -5  20  -4    2.47    0.35
   6 -20   4    4.64    0.46
  -6 -20  -4    4.74    0.46
  -6 -20  -4    4.68    0.45
  -6 -20  -4    5.08    0.51
   6  20   4    5.07    0.45
  -6  20  -4    4.76    0.46
  -6  20  -4    4.22    0.44
  -6  20  -4    5.14    0.45
  -7 -20  -4    9.12    0.80
  -7 -20  -4    9.53    0.75
  -7 -20  -4    9.08    0.73
  -7  20  -4   10.32    0.74
  -7  20  -4   10.04    0.74
  -7  20  -4   10.14    0.72
   7  20   4   10.37    0.73
  -8 -20  -4    1.29    0.20
   8 -20   4    1.18    0.19
  -8 -20  -4    1.70    0.24
  -8 -20  -4    1.50    0.23
  -8  20  -4    0.95    0.22
  -8  20  -4    1.68    0.21
  -8  20  -4    1.36    0.20
  -7 -21   4    2.96    0.36
  -7 -21   4    2.99    0.35
  -7  21   4    3.32    0.33
   7  21  -4    3.76    0.31
  -7  21   4    3.90    0.34
  -7  21   4    3.99    0.35
  -6  21   4    0.79    0.18
  -6  21   4    0.99    0.20
  -6  21   4    0.82    0.19
   6  21  -4    0.90    0.16
  -5 -21   4    0.41    0.23
  -5 -21   4    0.18    0.20
  -5 -21   4    0.54    0.19
   5  21  -4    0.60    0.17
   5  21  -4    0.59    0.16
  -5  21   4    0.63    0.19
  -5  21   4    0.68    0.19
  -5  21   4    0.66    0.20
  -5  21   4    0.28    0.20
  -4  21   4    4.10    0.45
  -4  21   4    3.97    0.43
  -4  21   4    4.14    0.44
   4  21  -4    4.10    0.36
   4  21  -4    4.29    0.40
  -4  21   4    4.05    0.41
  -3 -21   4    4.98    0.61
  -3 -21   4    5.19    0.48
  -3  21   4    5.01    0.47
  -3  21   4    4.83    0.48
  -3  21   4    5.01    0.52
   3  21  -4    5.29    0.41
   3  21  -4    4.70    0.46
  -2 -21   4    1.37    0.22
   2 -21  -4    1.31    0.25
  -2  21   4    1.06    0.22
  -2  21   4    0.81    0.24
  -2  21   4    0.76    0.24
   2  21  -4    0.91    0.19
   2  21  -4    0.84    0.18
  -1 -21   4    3.14    0.40
   1 -21  -4    2.62    0.43
  -1  21   4    3.43    0.40
   1  21  -4    3.81    0.34
  -1  21   4    3.40    0.46
   1  21  -4    3.33    0.39
   0  21  -4    1.26    0.21
   0  21   4    1.73    0.29
   0  21   4    1.56    0.24
   0  21  -4    1.88    0.28
  -1  21  -4    2.51    0.35
  -1  21  -4    3.07    0.31
   1  21   4    2.40    0.37
  -2 -21  -4    6.02    0.64
   2 -21   4    6.17    0.63
  -2  21  -4    8.44    0.56
  -2  21  -4    8.54    0.65
  -2  21  -4    7.91    0.63
   2  21   4    8.89    0.62
  -3 -21  -4   12.10    0.84
   3 -21   4   11.21    0.83
   3 -21   4   10.68    0.80
   3  21   4   10.22    0.81
  -3  21  -4   10.14    0.83
  -3  21  -4   10.15    0.74
  -4 -21  -4    6.84    0.63
   4 -21   4    6.90    0.63
  -4 -21  -4    7.48    0.67
   4 -21   4    6.63    0.60
  -4  21  -4    8.50    0.63
  -4  21  -4    8.23    0.63
   4  21   4    8.93    0.62
  -4  21  -4    8.67    0.58
  -5 -21  -4    0.43    0.19
  -5 -21  -4    0.53    0.21
  -5  21  -4    0.17    0.16
   5  21   4    0.21    0.17
  -5  21  -4    0.34    0.21
  -5  21  -4    0.03    0.18
   6 -21   4    0.77    0.17
  -6 -21  -4    0.94    0.19
   6 -21   4    0.88    0.19
  -6 -21  -4    0.90    0.20
  -6 -21  -4    0.84    0.22
  -7 -21  -4    3.49    0.33
  -7 -21  -4    3.45    0.31
   7 -21   4    3.31    0.29
  -7 -21  -4    3.01    0.35
  -7  21  -4    2.50    0.30
  -7  21  -4    3.14    0.31
   7  21   4    3.00    0.33
  -7  21  -4    2.90    0.31
  -7 -22   4    3.02    0.31
  -7 -22   4    2.79    0.32
  -7 -22   4    2.54    0.31
  -7  22   4    3.30    0.29
  -7  22   4    3.35    0.31
  -7  22   4    3.10    0.31
   7  22  -4    3.37    0.28
   6  22  -4    4.73    0.40
  -6  22   4    5.26    0.46
  -6  22   4    5.15    0.44
  -6  22   4    4.87    0.44
  -5 -22   4    2.50    0.43
  -5 -22   4    2.75    0.36
  -5  22   4    3.49    0.37
   5  22  -4    3.84    0.34
   5  22  -4    3.09    0.32
  -5  22   4    3.83    0.36
  -5  22   4    3.31    0.38
  -5  22   4    3.70    0.38
  -4 -22   4    1.31    0.27
   4  22  -4    0.70    0.17
  -4  22   4    0.78    0.20
  -4  22   4    0.85    0.21
  -4  22   4    1.07    0.22
   4  22  -4    0.73    0.17
  -4  22   4    0.39    0.20
   3 -22  -4    7.96    0.66
  -3 -22   4    7.23    0.77
  -3 -22   4    7.67    0.63
  -3  22   4    7.84    0.63
  -3  22   4    7.68    0.66
  -3  22   4    7.68    0.60
   3  22  -4    7.51    0.56
  -3  22   4    7.58    0.61
   3  22  -4    7.77    0.61
   2 -22  -4    7.00    0.62
  -2 -22   4    7.10    0.61
  -2  22   4    7.03    0.59
   2  22  -4    7.31    0.53
  -2  22   4    7.32    0.63
  -2  22   4    6.92    0.59
   2  22  -4    7.28    0.58
   1 -22  -4    2.02    0.40
  -1 -22   4    2.23    0.38
   1  22  -4    3.27    0.31
  -1  22   4    2.73    0.42
   1  22  -4    2.74    0.35
  -1  22   4    2.41    0.37
   0 -22   4    6.37    0.50
   0 -22   4    5.33    0.50
   0 -22  -4    5.18    0.52
   0  22   4    4.93    0.49
   0  22  -4    5.67    0.44
   0  22  -4    4.83    0.48
   0  22   4    5.15    0.55
   1 -22   4   -0.04    0.19
   1 -22   4    0.34    0.19
   1  22   4    0.74    0.19
  -1  22  -4    0.70    0.19
  -3  22  -4    4.75    0.49
  -3  22  -4    5.63    0.43
  -3  22  -4    5.44    0.50
   3  22   4    5.06    0.48
   4 -22   4    3.17    0.35
  -4 -22  -4    2.66    0.38
   4 -22   4    2.64    0.34
  -4  22  -4    2.85    0.38
  -4  22  -4    3.27    0.34
  -4  22  -4    3.18    0.34
   4  22   4    2.94    0.36
   5 -22   4    2.68    0.32
   5 -22   4    2.84    0.31
  -5 -22  -4    3.08    0.35
  -5 -22  -4    2.50    0.34
  -5  22  -4    2.71    0.35
  -5  22  -4    2.26    0.31
  -5  22  -4    2.12    0.33
   5  22   4    2.00    0.32
   6 -22   4    2.84    0.31
  -6 -22  -4    2.92    0.32
  -6  22  -4    1.87    0.29
   6  22   4    2.13    0.29
  -6  22  -4    2.00    0.28
   7 -22   4    4.54    0.35
  -7 -22  -4    4.71    0.38
  -7 -22  -4    4.66    0.36
   7  22   4    4.16    0.38
  -7  22  -4    3.67    0.37
  -6 -23   4    2.52    0.28
  -6 -23   4    2.57    0.33
  -6  23   4    2.40    0.28
   6  23  -4    2.15    0.25
   6  23  -4    2.33    0.25
  -6  23   4    2.88    0.29
  -5  23   4    2.09    0.30
  -5  23   4    1.35    0.29
   5  23  -4    2.03    0.26
   5  23  -4    1.88    0.26
  -5  23   4    2.62    0.31
  -4 -23   4    6.72    0.55
  -4 -23   4    7.07    0.61
  -4  23   4    5.96    0.54
   4  23  -4    6.25    0.52
   4  23  -4    6.45    0.48
   4  23  -4    6.47    0.52
  -4  23   4    6.91    0.52
  -4  23   4    7.02    0.57
  -4  23   4    6.36    0.53
   3 -23  -4    2.06    0.36
  -3 -23   4    2.08    0.32
  -3  23   4    1.26    0.24
  -3  23   4    1.49    0.25
   3  23  -4    1.84    0.26
  -3  23   4    1.54    0.31
   3  23  -4    1.98    0.30
  -2 -23   4    5.36    0.56
  -2  23   4    6.76    0.57
   2  23  -4    7.04    0.54
   2  23  -4    6.74    0.49
  -2  23   4    6.54    0.55
  -2  23   4    6.91    0.58
  -1  23   4    1.94    0.35
   1  23  -4    2.39    0.29
  -1  23   4    1.82    0.40
   1  23  -4    2.20    0.34
   0 -23  -4   24.71    1.71
   0 -23   4   23.10    1.70
   0 -23   4   25.23    1.75
   0  23  -4   24.36    1.57
   0  23  -4   23.54    1.68
   0  23   4   24.18    1.70
   0  23   4   24.19    1.69
   1 -23   4    6.11    0.50
  -1 -23  -4    5.85    0.51
   1 -23   4    5.32    0.49
   1  23   4    5.57    0.58
   1  23   4    5.25    0.50
  -1  23  -4    4.94    0.49
  -1  23  -4    5.03    0.44
   3 -23   4    1.92    0.32
   3 -23   4    1.88    0.30
  -3 -23  -4    1.97    0.35
   3  23   4    2.04    0.32
  -3  23  -4    2.54    0.29
  -3  23  -4    2.22    0.37
  -3  23  -4    2.03    0.36
   4 -23   4    2.56    0.32
  -4 -23  -4    3.31    0.36
   4 -23   4    2.76    0.33
  -4  23  -4    2.77    0.33
  -4  23  -4    3.22    0.36
   4  23   4    3.01    0.33
  -4  23  -4    2.85    0.32
   5 -23   4    1.19    0.25
  -5  23  -4    0.61    0.17
   5  23   4    0.69    0.17
  -5  23  -4    0.67    0.16
  -6 -23  -4    3.33    0.30
  -6 -23  -4    2.94    0.32
   6 -23   4    3.18    0.28
  -6  23  -4    2.58    0.30
   6  23   4    2.53    0.30
  -6 -24   4    3.86    0.34
  -6 -24   4    4.38    0.37
  -6  24   4    4.03    0.35
   6  24  -4    3.90    0.31
   6  24  -4    3.64    0.31
  -6  24   4    3.49    0.33
  -5 -24   4    0.76    0.21
  -5 -24   4    0.37    0.15
   5  24  -4    0.45    0.13
   5  24  -4    0.47    0.13
  -5  24   4    0.28    0.16
  -5  24   4    0.64    0.18
  -4 -24   4    6.09    0.55
  -4 -24   4    5.80    0.61
   4  24  -4    6.52    0.52
   4  24  -4    7.07    0.52
  -4  24   4    7.55    0.58
  -4  24   4    7.12    0.54
  -4  24   4    6.77    0.53
   3 -24  -4    4.16    0.40
  -3 -24   4    3.89    0.38
   3  24  -4    3.31    0.32
  -3  24   4    3.76    0.39
   3  24  -4    3.72    0.35
  -3  24   4    2.89    0.39
  -3  24   4    3.30    0.37
   2 -24  -4    8.91    0.68
  -2 -24   4    9.30    0.69
   2  24  -4    8.57    0.66
   2  24  -4    8.32    0.61
  -2  24   4    8.44    0.67
  -2  24   4    8.42    0.68
   1 -24  -4    0.04    0.20
  -1 -24   4    0.16    0.19
   1  24  -4    0.46    0.16
  -1  24   4    0.18    0.21
   1  24  -4    0.05    0.17
  -1  24   4    0.04    0.18
   0 -24   4    2.52    0.35
   0 -24  -4    2.30    0.35
   0  24  -4    2.32    0.29
   0  24  -4    2.14    0.33
   0  24   4    2.16    0.38
   0  24   4    1.79    0.33
  -1 -24  -4    2.06    0.34
   1 -24   4    2.50    0.32
  -1  24  -4    1.43    0.32
   1  24   4    1.69    0.32
  -1  24  -4    1.78    0.27
   2 -24   4   13.33    1.04
  -2 -24  -4   14.44    1.06
   2 -24   4   14.53    1.08
  -2  24  -4   15.37    0.97
   2  24   4   15.17    1.05
  -2  24  -4   14.56    1.04
   3 -24   4    1.96    0.28
   3 -24   4    2.00    0.28
  -3 -24  -4    1.83    0.31
   3  24   4    1.65    0.30
  -3  24  -4    1.47    0.26
   4 -24   4    5.63    0.49
  -4 -24  -4    5.92    0.50
   4 -24   4    5.57    0.48
  -4  24  -4    6.10    0.50
   4  24   4    6.57    0.48
  -5 -24  -4    1.12    0.23
   5 -24   4    1.00    0.21
   5 -24   4    1.10    0.18
   5  24   4    1.06    0.23
  -5  24  -4    1.02    0.23
  -5  24  -4    0.67    0.16
   6 -24   4    1.33    0.21
  -6 -24  -4    1.65    0.22
  -6 -24  -4    1.79    0.25
   6  24   4    2.08    0.22
  -6  24  -4    1.69    0.22
   5 -25  -4    0.51    0.14
  -5 -25   4    0.58    0.14
  -5  25   4    0.49    0.17
  -4  25   4    2.58    0.31
  -4  25   4    2.91    0.31
   4  25  -4    3.14    0.29
  -3 -25   4    0.32    0.17
   3 -25  -4    0.37    0.19
  -3  25   4    0.25    0.17
  -3  25   4    0.36    0.16
   3  25  -4    0.50    0.15
  -2 -25   4    8.51    0.60
   2 -25  -4    8.19    0.59
   2  25  -4    7.36    0.57
  -2  25   4    6.80    0.59
   2  25  -4    6.70    0.53
  -2  25   4    6.85    0.58
  -1 -25   4    1.08    0.20
   1 -25  -4    0.87    0.20
  -1  25   4    0.87    0.21
   1  25  -4    1.12    0.19
   1  25  -4    1.23    0.23
  -1  25   4    0.86    0.19
   0 -25   4   14.82    1.18
   0 -25  -4   15.85    1.19
   0 -25   4   16.93    1.22
   0  25   4   18.19    1.19
   0  25  -4   16.72    1.17
   0  25   4   16.96    1.18
   0  25  -4   16.67    1.09
  -1 -25  -4    1.13    0.20
   1 -25   4    1.12    0.19
  -1  25  -4    0.71    0.19
   1  25   4    0.57    0.18
  -1  25  -4    0.75    0.18
   2 -25   4    5.95    0.47
  -2 -25  -4    6.34    0.49
   2 -25   4    6.47    0.48
  -2  25  -4    4.77    0.47
  -2  25  -4    4.83    0.43
   2  25   4    5.38    0.48
   3 -25   4    0.56    0.15
  -3 -25  -4    0.55    0.17
   3 -25   4    0.42    0.16
   3  25   4    0.25    0.16
   4 -25   4    1.50    0.24
   4 -25   4    1.74    0.23
  -4 -25  -4    1.41    0.24
   4  25   4    1.01    0.23
  -5 -25  -4    1.46    0.21
   5 -25   4    1.52    0.19
   5  25   4    1.05    0.21
  -5  25  -4    0.89    0.18
  -4 -26   4    4.61    0.36
  -4  26   4    3.53    0.35
   4  26  -4    3.89    0.33
  -3 -26   4    0.05    0.14
   3  26  -4    0.26    0.13
  -3  26   4    0.01    0.16
  -3  26   4    0.07    0.15
   2 -26  -4    3.72    0.36
  -2 -26   4    3.96    0.35
   2  26  -4    3.42    0.33
  -2  26   4    3.34    0.35
  -2  26   4    3.23    0.36
  -1 -26   4    1.58    0.27
   1  26  -4    1.70    0.23
  -1  26   4    2.02    0.30
   1  26  -4    2.00    0.27
  -1  26   4    1.85    0.28
   0 -26   4    0.84    0.18
   0 -26  -4    0.83    0.18
   0 -26   4    1.40    0.26
   0  26   4    1.45    0.31
   0  26   4    0.85    0.18
   0  26  -4    1.23    0.26
   0  26  -4    0.76    0.16
  -1 -26  -4    0.81    0.18
   1 -26   4    0.99    0.18
   1 -26   4    0.76    0.17
   2 -26   4    3.23    0.32
   2 -26   4    2.80    0.31
  -2 -26  -4    2.75    0.33
  -3 -26  -4    0.07    0.15
   3 -26   4    0.19    0.15
   3 -26   4    0.04    0.13
   3  26   4    0.20    0.13
   4 -26   4    4.74    0.41
   4 -26   4    4.66    0.38
  -4 -26  -4    4.54    0.40
   4  26   4    5.44    0.39
  -3  27   4    0.54    0.15
  -3  27   4    0.47    0.14
   3  27  -4    0.90    0.18
  -2 -27   4    1.85    0.27
   2 -27  -4    1.90    0.28
  -2  27   4    2.36    0.27
  -2  27   4    2.58    0.28
   2  27  -4    2.54    0.25
   1 -27  -4    0.31    0.15
  -1 -27   4    0.33    0.14
  -1  27   4    0.28    0.15
  -1  27   4    0.37    0.18
   1  27  -4    0.22    0.14
   0 -27   4    4.98    0.44
   0 -27  -4    5.05    0.44
   0 -27   4    4.57    0.44
   0  27   4    5.47    0.43
   0  27   4    5.94    0.46
   0  27  -4    5.60    0.43
   1 -27   4    0.39    0.14
   1 -27   4    0.37    0.14
  -1 -27  -4    0.18    0.14
  -1  27  -4    0.08    0.14
   1  27   4    0.25    0.14
   2 -27   4    1.01    0.22
  -2 -27  -4    1.34    0.23
   2 -27   4    0.93    0.20
  -2  27  -4    1.62    0.23
   2  27   4    1.44    0.22
  -3 -27  -4    0.17    0.13
   3 -27   4    0.22    0.13
   3 -27   4    0.29    0.12
   2 -28  -4    0.63    0.15
   2  28  -4    0.47    0.12
  -2  28   4    0.63    0.14
  -1 -28   4    0.40    0.13
   1 -28  -4    0.48    0.14
   1  28  -4    0.63    0.13
  -1  28   4    0.61    0.15
  -1  28   4    0.68    0.13
   0 -28  -4    0.13    0.13
   0 -28   4    0.21    0.12
   0  28  -4    0.08    0.12
   0  28   4    0.15    0.12
  -1 -28  -4    2.26    0.24
   1 -28   4    2.07    0.24
   1 -28   4    2.09    0.24
 -11   0   5    4.07    0.34
 -11   0   5    3.38    0.32
 -10   0   5    3.03    0.30
 -10   0   5    3.23    0.34
 -10   0   5    3.50    0.33
  -9   0   5    3.30    0.30
  -9   0   5    3.28    0.35
  -9   0   5    3.28    0.34
  -8   0   5    1.90    0.30
  -8   0   5    2.37    0.28
  -8   0   5    1.91    0.25
  -8   0   5    2.02    0.40
  -8   0   5    2.04    0.97
  -7   0   5    0.53    0.19
  -7   0   5   -0.16    0.58
  -7   0   5    0.18    0.11
  -7   0   5    0.19    0.13
  -7   0   5    0.19    0.13
  -6   0   5   35.87    2.69
  -6   0   5   36.29    2.28
  -6   0   5   34.38    2.56
  -5   0   5    2.37    0.21
  -5   0   5    3.10    0.52
  -5   0   5    2.19    0.43
  -4   0   5   34.59    2.36
  -4   0   5   35.42    2.15
  -4   0   5   30.73    2.45
  -3   0   5    1.61    0.33
  -3   0   5    1.16    0.26
  -3   0   5    1.23    0.13
  -2   0   5   40.37    3.15
  -2   0   5   47.75    3.03
  -1   0   5   29.29    2.00
  -1   0   5   28.12    2.02
  -1   0   5   29.90    2.11
   0   0   5   50.45    3.51
   0   0   5   47.44    3.33
   0   0   5   49.73    3.36
   1   0   5   27.81    2.00
   1   0   5   27.54    1.90
   1   0   5   26.85    1.91
   2   0   5    4.14    0.43
   2   0   5    4.46    0.52
   2   0   5    4.61    0.48
   3   0   5    2.38    0.41
   3   0   5    1.40    0.38
   4   0   5   23.25    1.80
   4   0   5   24.20    1.80
   5   0   5    1.67    0.61
   5   0   5    1.84    0.49
   6   0   5   40.55    3.05
  -7   0  -5    0.25    0.19
  -7   0  -5    0.17    0.14
  -8   0  -5    5.93    0.51
  -8   0  -5    6.21    0.50
  -8   0  -5    5.66    0.55
  -9   0  -5    0.20    0.16
  -9   0  -5    0.28    0.23
  -9   0  -5    0.30    0.16
 -10   0  -5    9.78    0.74
 -10   0  -5    9.96    0.72
 -11   0  -5    0.83    0.13
 -11   0  -5    1.10    0.18
 -11  -1   5    1.95    0.22
 -11   1   5    1.60    0.25
 -11   1   5    1.50    0.22
 -10  -1   5   27.81    1.85
 -10  -1   5   30.54    1.97
 -10  -1   5   28.67    1.98
 -10   1   5   28.50    1.97
 -10   1   5   29.58    1.98
 -10   1   5   27.50    1.85
  -9  -1   5    2.56    0.25
  -9  -1   5    2.16    0.30
  -9  -1   5    2.57    0.29
  -9   1   5    1.46    0.25
  -9   1   5    1.70    0.30
  -9   1   5    1.94    0.30
  -8  -1   5    5.64    0.48
  -8  -1   5    5.95    0.49
  -8  -1   5    5.77    0.44
  -8  -1   5    4.57    1.05
  -8   1   5    6.28    0.56
  -8   1   5    5.63    0.48
  -8   1   5    5.96    0.45
  -8   1   5    6.24    0.49
  -7  -1   5    2.35    0.26
  -7  -1   5    2.49    0.35
  -7  -1   5    2.51    0.65
  -7  -1   5    2.27    0.24
  -7  -1   5    2.29    0.27
  -7   1   5    1.64    0.27
  -7   1   5    1.55    0.26
  -7   1   5    1.77    0.23
  -7   1   5    1.17    0.64
  -7   1   5    2.23    0.34
  -6  -1   5   19.87    1.19
  -6  -1   5   17.54    1.46
  -6  -1   5   17.67    1.53
  -6   1   5   17.07    1.46
  -6   1   5   19.49    1.19
  -6   1   5   16.87    1.51
  -5  -1   5    1.76    0.18
  -5  -1   5    2.05    0.41
  -5  -1   5    1.39    0.38
  -5   1   5    2.38    0.51
  -5   1   5    2.26    0.19
  -5   1   5    2.52    0.50
  -4  -1   5   16.31    1.19
  -4  -1   5   14.35    0.97
  -4  -1   5   14.41    1.13
  -4   1   5   15.47    1.18
  -4   1   5   15.40    1.15
  -4   1   5   14.15    0.97
  -3  -1   5   14.03    1.22
  -3  -1   5   13.78    1.18
  -3  -1   5   14.28    1.05
  -3   1   5   18.68    1.24
  -3   1   5   18.18    1.21
  -3   1   5   18.70    1.05
  -2  -1   5   49.55    3.56
  -2  -1   5   51.99    3.77
  -2  -1   5   51.24    3.61
  -2   1   5   56.12    3.63
  -2   1   5   56.04    3.78
  -1  -1   5   42.22    3.05
  -1  -1   5   43.88    3.03
  -1  -1   5   45.77    3.20
  -1   1   5   45.47    3.02
  -1   1   5   44.18    3.06
  -1   1   5   46.51    3.20
   0  -1   5  481.00   30.88
   0  -1   5  459.85   30.59
   0  -1   5  446.55   32.25
   0   1   5  463.35   30.58
   0   1   5  450.33   32.25
   0   1   5  462.60   30.88
   1  -1   5   15.66    1.20
   1  -1   5   16.71    1.24
   1  -1   5   16.56    1.17
   1   1   5   16.59    1.24
   1   1   5   16.19    1.20
   1   1   5   16.96    1.19
   2  -1   5   34.53    2.22
   2  -1   5   32.03    2.29
   2  -1   5   33.28    2.18
   2   1   5   29.79    2.21
   2   1   5   31.54    2.19
   2   1   5   28.30    2.29
   3  -1   5    6.28    0.59
   3  -1   5    5.89    0.63
   3   1   5    5.68    0.65
   3   1   5    4.21    0.56
   3   1   5    5.07    0.58
   4  -1   5   24.55    1.93
   4  -1   5   24.48    1.95
   4   1   5   26.10    1.97
   4   1   5   29.34    1.97
   5   1   5    1.46    0.49
   5   1   5    1.00    0.59
   6  -1   5    2.14    0.75
   6   1   5    3.05    0.86
  -7  -1  -5    0.27    0.20
  -7  -1  -5    0.26    0.23
  -7  -1  -5    0.11    0.14
  -7  -1  -5    0.31    0.15
  -7   1  -5    0.33    0.15
  -7   1  -5    0.39    0.18
  -7   1  -5    0.52    0.15
  -8  -1  -5    5.99    0.52
  -8  -1  -5    6.36    0.51
  -8  -1  -5    7.17    0.57
  -8   1  -5    5.78    0.52
  -8   1  -5    6.33    0.56
  -8   1  -5    5.84    0.50
  -9  -1  -5    1.47    0.27
  -9   1  -5    1.35    0.26
  -9   1  -5    1.60    0.25
  -9   1  -5    1.49    0.26
 -10  -1  -5   26.34    1.86
 -10  -1  -5   26.45    1.92
 -10   1  -5   27.09    1.86
 -10   1  -5   27.39    1.92
 -11  -1  -5    1.45    0.20
 -11  -1  -5    1.40    0.19
 -11   1  -5    1.71    0.19
 -11   1  -5    1.83    0.21
 -11  -2   5    2.97    0.28
 -10  -2   5    2.45    0.29
 -10  -2   5    2.72    0.32
 -10  -2   5    2.98    0.30
 -10   2   5    2.67    0.28
 -10   2   5    2.25    0.27
 -10   2   5    2.64    0.31
  -9  -2   5    3.78    0.38
  -9  -2   5    3.91    0.38
  -9  -2   5    4.09    0.34
  -9   2   5    3.92    0.38
  -9   2   5    3.90    0.44
  -9   2   5    3.52    0.33
  -9   2   5    3.96    0.37
  -8  -2   5    3.99    0.99
  -8  -2   5    4.17    0.42
  -8  -2   5    4.58    0.38
  -8  -2   5    4.41    0.42
  -8  -2   5    4.18    0.54
  -8   2   5    5.27    0.39
  -8   2   5    4.99    0.42
  -8   2   5    5.57    0.48
  -8   2   5    5.16    0.42
  -7  -2   5    7.64    0.57
  -7  -2   5    8.28    1.10
  -7  -2   5    7.21    0.69
  -7  -2   5    7.89    0.53
  -7  -2   5    8.11    0.57
  -7   2   5    7.14    1.13
  -7   2   5    7.33    0.61
  -7   2   5    7.07    0.52
  -7   2   5    6.96    0.56
  -7   2   5    7.04    0.56
  -6  -2   5   23.26    1.74
  -6  -2   5   22.13    1.38
  -6  -2   5   22.05    1.66
  -6   2   5   19.60    1.66
  -6   2   5   20.10    1.37
  -6   2   5   20.68    1.72
  -5  -2   5   13.91    0.94
  -5  -2   5   13.09    1.12
  -5  -2   5   14.67    1.20
  -5   2   5   14.41    0.94
  -5   2   5   15.85    1.19
  -5   2   5   14.55    1.16
  -4  -2   5   33.41    2.40
  -4  -2   5   32.35    2.18
  -4  -2   5   33.18    2.49
  -4   2   5   34.71    2.18
  -4   2   5   34.63    2.49
  -4   2   5   36.72    2.40
  -3  -2   5    7.84    0.57
  -3  -2   5    8.03    0.72
  -3   2   5   10.96    0.75
  -2  -2   5   24.19    1.58
  -2  -2   5   25.69    1.74
  -2  -2   5   24.75    1.71
  -2  -2   5   24.06    1.81
  -2   2   5   23.33    1.81
  -2   2   5   26.27    1.75
  -1  -2   5   38.16    2.55
  -1  -2   5   36.60    2.67
  -1  -2   5   36.75    2.54
  -1   2   5   37.37    2.57
   0  -2   5   47.52    3.29
   0  -2   5   43.76    3.13
   0   2   5   44.60    3.12
   0   2   5   48.53    3.15
   0   2   5   45.76    3.30
   1  -2   5   27.60    1.76
   1  -2   5   27.81    1.86
   1  -2   5   27.32    1.80
   1   2   5   22.34    1.77
   1   2   5   23.96    1.77
   1   2   5   23.07    1.85
   2  -2   5   10.84    1.02
   2   2   5   13.78    0.99
   2   2   5   14.38    1.05
   2   2   5   13.19    1.02
   3  -2   5   37.71    2.48
   3  -2   5   35.07    2.54
   3   2   5   33.60    2.47
   3   2   5   34.37    2.57
   3   2   5   34.40    2.44
   4  -2   5    8.10    0.84
   4  -2   5    8.61    0.76
   4   2   5    6.50    0.87
   4   2   5    6.22    0.78
   5  -2   5   14.94    1.36
   5   2   5   15.41    1.36
   5   2   5   15.65    1.36
   6  -2   5   29.24    2.26
   6   2   5   25.66    2.35
   6   2   5   28.88    2.32
  -7  -2  -5    4.90    0.45
  -7  -2  -5    4.98    0.45
  -7  -2  -5    4.50    0.50
  -7  -2  -5    5.11    0.54
  -7   2  -5    6.16    0.47
  -7   2  -5    5.59    0.44
  -7   2  -5    5.59    0.46
  -8  -2  -5   12.01    0.85
  -8  -2  -5   11.63    0.97
  -8  -2  -5   11.49    0.87
  -8  -2  -5   12.09    0.90
  -8   2  -5   11.22    0.89
  -8   2  -5   11.61    0.88
  -8   2  -5   11.18    0.85
  -9  -2  -5    3.14    0.36
  -9  -2  -5    3.49    0.35
  -9   2  -5    3.56    0.42
  -9   2  -5    3.65    0.36
  -9   2  -5    3.58    0.35
 -10  -2  -5    4.04    0.36
 -10  -2  -5    3.83    0.37
 -10   2  -5    4.16    0.41
 -10   2  -5    4.23    0.37
 -10   2  -5    4.37    0.37
 -11  -2  -5    0.40    0.12
 -11  -2  -5    0.40    0.12
 -11  -3   5    9.83    0.71
 -11  -3   5   10.61    0.73
 -11   3   5    9.58    0.71
 -10  -3   5   13.49    0.86
 -10  -3   5   14.79    0.91
 -10  -3   5   14.00    0.92
  10   3  -5   11.69    0.87
 -10   3   5   12.02    0.90
 -10   3   5   12.25    0.91
 -10   3   5   11.11    0.85
  -9  -3   5    6.90    0.54
  -9  -3   5    6.93    0.49
  -9  -3   5    7.11    0.53
  -9   3   5    5.96    0.48
  -9   3   5    6.42    0.53
  -9   3   5    6.74    0.59
  -9   3   5    6.19    0.53
  -8  -3   5    4.56    0.33
  -8  -3   5    4.44    0.37
  -8  -3   5    3.36    0.46
  -8  -3   5    3.67    1.03
  -8  -3   5    4.07    0.37
  -8   3   5    3.43    0.33
  -8   3   5    3.41    0.37
  -8   3   5    3.37    0.37
  -8   3   5    3.53    0.42
  -7  -3   5    6.26    0.59
  -7  -3   5    6.44    1.01
  -7  -3   5    7.17    0.48
  -7  -3   5    6.44    0.47
  -7   3   5    5.48    0.44
  -7   3   5    5.49    0.51
  -7   3   5    5.55    0.47
  -7   3   5    4.99    0.47
  -6  -3   5    7.62    0.92
  -6  -3   5    7.09    0.90
  -6  -3   5    7.84    0.55
  -6   3   5    8.18    0.97
  -6   3   5    7.23    0.92
  -6   3   5    9.36    0.56
  -5  -3   5   11.01    0.73
  -5  -3   5    9.94    0.93
  -5  -3   5   10.11    0.99
  -5   3   5   12.72    0.74
  -5   3   5   11.23    0.94
  -5   3   5   11.33    0.99
  -4  -3   5   12.34    0.98
  -4  -3   5   11.15    0.92
  -4  -3   5   11.68    0.77
  -4   3   5   11.43    0.97
  -4   3   5   11.60    0.77
  -4   3   5   12.48    0.96
  -3  -3   5    8.84    0.83
  -3  -3   5    9.12    0.68
  -3   3   5   12.34    0.87
  -3   3   5   12.26    0.86
  -2  -3   5    6.02    0.54
  -2  -3   5    6.18    0.53
  -2  -3   5    6.19    0.39
  -2   3   5    5.28    0.54
  -2   3   5    4.95    0.55
  -1  -3   5   37.43    2.63
  -1  -3   5   39.72    2.51
  -1  -3   5   36.04    2.51
  -1   3   5   34.49    2.64
  -1   3   5   35.04    2.52
   0  -3   5  105.18    7.41
   0  -3   5  102.02    7.08
   0  -3   5  104.62    7.05
   0   3   5  105.96    7.42
   0   3   5  106.46    7.02
   0   3   5  106.50    7.10
   1  -3   5   53.29    3.84
   1  -3   5   55.78    3.86
   1  -3   5   55.86    4.03
   1   3   5   60.59    3.88
   1   3   5   58.28    3.85
   1   3   5   56.78    4.05
   2  -3   5    9.39    0.79
   2  -3   5    9.27    0.76
   2   3   5    7.45    0.77
   2   3   5    8.24    0.77
   2   3   5    9.81    0.74
   3   3   5    5.82    0.64
   3   3   5    5.93    0.68
   3   3   5    5.26    0.61
   4  -3   5   25.05    1.76
   4   3   5   21.64    1.81
   4   3   5   22.83    1.79
   5  -3   5    5.68    0.84
   5   3   5    4.00    0.78
   5   3   5    3.89    0.85
   6   3   5    6.68    1.16
   6   3   5    5.21    1.04
  -7  -3  -5    4.00    0.40
  -7  -3  -5    3.50    0.48
  -7  -3  -5    3.66    0.44
  -7  -3  -5    4.38    0.40
  -7   3  -5    5.41    0.41
  -8  -3  -5    2.62    0.32
  -8  -3  -5    2.21    0.40
  -8  -3  -5    2.03    0.30
  -9  -3  -5    6.06    0.46
  -9  -3  -5    6.30    0.56
  -9  -3  -5    5.68    0.47
  -9   3  -5    4.40    0.45
  -9   3  -5    4.97    0.46
  -9   3  -5    4.96    0.51
 -10  -3  -5    6.06    0.55
 -10  -3  -5    6.34    0.56
 -10   3  -5    8.13    0.56
 -10   3  -5    8.42    0.59
 -10   3  -5    7.17    0.55
 -11  -3  -5    6.06    0.50
 -11  -3  -5    6.23    0.49
 -11   3  -5    7.23    0.50
 -11   3  -5    6.74    0.49
 -11  -4   5    3.27    0.30
 -11  -4   5    2.87    0.28
 -11   4   5    2.95    0.28
 -10  -4   5    1.34    0.28
 -10  -4   5    1.73    0.26
 -10   4   5    2.05    0.31
 -10   4   5    2.19    0.26
 -10   4   5    1.95    0.25
 -10   4   5    1.61    0.22
  -9  -4   5    1.77    0.28
  -9  -4   5    1.45    0.34
  -9  -4   5    1.43    0.24
  -9  -4   5    1.34    0.29
  -9   4   5    1.77    0.33
  -9   4   5    1.56    0.27
  -9   4   5    1.58    0.27
  -9   4   5    1.45    0.23
  -8  -4   5    2.35    0.32
  -8  -4   5    2.46    0.27
  -8  -4   5    2.11    0.33
  -8  -4   5    2.20    0.40
  -8   4   5    2.86    0.32
  -8   4   5    2.96    0.36
  -8   4   5    3.17    0.32
  -8   4   5    2.91    0.29
  -7  -4   5   15.34    1.48
  -7  -4   5   15.32    0.98
  -7  -4   5   15.58    1.05
  -7  -4   5   14.93    1.17
  -7  -4   5   15.64    1.05
  -7   4   5   14.44    1.11
  -7   4   5   14.61    1.05
  -7   4   5   14.11    1.05
  -7   4   5   14.02    0.98
  -6  -4   5   19.78    1.57
  -6  -4   5   18.00    1.53
  -6  -4   5   18.78    1.21
  -6   4   5   17.05    1.52
  -6   4   5   18.59    1.21
  -6   4   5   19.83    1.57
  -5  -4   5   24.48    1.71
  -5  -4   5   24.70    1.47
  -5  -4   5   26.90    1.79
  -5   4   5   21.34    1.75
  -5   4   5   19.76    1.47
  -5   4   5   20.53    1.71
  -4  -4   5   12.70    0.95
  -4  -4   5   12.78    0.94
  -4  -4   5   12.64    0.74
  -4   4   5    9.03    0.94
  -4   4   5    9.94    0.74
  -3  -4   5   31.95    2.27
  -3  -4   5   32.59    2.08
  -3  -4   5   33.11    2.25
  -2  -4   5    7.90    0.63
  -2  -4   5    6.51    0.66
  -2  -4   5    7.66    0.51
  -2  -4   5    7.32    0.64
  -2   4   5    8.62    0.69
  -2   4   5    8.28    0.68
  -2   4   5    7.84    0.51
  -1  -4   5   11.52    0.93
  -1  -4   5   11.65    0.97
  -1  -4   5   12.38    0.98
  -1   4   5   14.57    1.01
  -1   4   5   13.63    0.96
   0  -4   5   13.14    0.96
   0  -4   5   13.46    0.90
   0  -4   5   13.73    0.96
   0   4   5   10.53    0.91
   0   4   5   11.74    0.98
   0   4   5   11.44    0.92
   1  -4   5    6.31    0.57
   1  -4   5    5.45    0.49
   1  -4   5    6.10    0.60
   1   4   5    5.89    0.58
   1   4   5    6.40    0.58
   1   4   5    6.57    0.60
   2  -4   5    9.99    0.92
   2  -4   5   10.35    0.89
   2   4   5   12.09    0.90
   2   4   5   11.52    0.94
   2   4   5   11.23    0.93
   3  -4   5   22.19    1.63
   3   4   5   22.28    1.65
   3   4   5   21.12    1.63
   3   4   5   21.77    1.69
   4  -4   5   14.10    1.16
   4   4   5   12.26    1.16
   4   4   5   12.45    1.16
   4   4   5   12.35    1.19
   5  -4   5   33.99    2.74
   5   4   5   37.71    2.80
   5   4   5   40.92    2.90
  -6  -4  -5   15.65    1.19
  -6  -4  -5   17.12    1.16
  -6   4  -5   15.62    1.15
  -6   4  -5   15.81    1.17
  -6   4  -5   16.71    1.19
   6   4   5   17.12    1.70
  -7  -4  -5   20.44    1.50
  -7  -4  -5   19.90    1.40
  -7  -4  -5   19.94    1.36
  -7   4  -5   18.44    1.38
  -7   4  -5   18.29    1.39
  -7   4  -5   18.45    1.35
  -8  -4  -5    0.68    0.25
  -8  -4  -5    0.73    0.18
  -8  -4  -5    0.71    0.17
  -8   4  -5    0.97    0.18
  -8   4  -5    0.93    0.18
  -8   4  -5    1.13    0.22
  -9  -4  -5    2.97    0.33
  -9  -4  -5    2.34    0.32
  -9  -4  -5    2.59    0.42
  -9   4  -5    2.10    0.38
  -9   4  -5    3.04    0.31
  -9   4  -5    3.31    0.32
 -10  -4  -5    3.35    0.41
 -10  -4  -5    2.68    0.29
 -10  -4  -5    2.80    0.29
 -10   4  -5    2.43    0.33
 -10   4  -5    2.17    0.28
 -10   4  -5    2.71    0.29
 -11  -4  -5    1.50    0.22
 -11  -4  -5    1.23    0.19
 -11   4  -5    1.52    0.18
 -11   4  -5    1.57    0.20
 -11  -5   5    9.37    0.65
 -11  -5   5    9.56    0.66
 -11   5   5    8.03    0.64
 -10  -5   5    0.52    0.18
 -10  -5   5    0.41    0.16
 -10  -5   5    0.39    0.15
 -10   5   5    0.25    0.13
 -10   5   5    0.49    0.14
 -10   5   5    0.41    0.15
 -10   5   5    0.51    0.16
  -9  -5   5   13.99    1.10
  -9  -5   5   13.93    1.02
  -9  -5   5   14.89    1.09
  -9  -5   5   13.51    1.21
  -9   5   5   17.11    1.16
  -9   5   5   16.90    1.10
  -9   5   5   16.57    1.10
  -9   5   5   17.00    1.03
   9   5  -5   15.39    1.04
  -8  -5   5    1.16    0.24
  -8  -5   5    1.51    0.23
  -8  -5   5    1.33    0.29
  -8  -5   5    1.54    0.28
  -8   5   5    2.12    0.28
  -8   5   5    1.71    0.25
  -8   5   5    1.62    0.26
  -8   5   5    1.54    0.32
  -7  -5   5    9.37    0.79
  -7  -5   5    9.86    0.66
  -7  -5   5    9.83    0.71
  -7  -5   5    9.51    1.17
  -7  -5   5    9.17    0.71
  -7   5   5    9.18    0.71
  -7   5   5    9.62    0.75
  -7   5   5   10.38    0.71
  -7   5   5    9.40    0.66
  -6  -5   5    8.33    0.95
  -6  -5   5    9.04    0.58
  -6   5   5    8.22    0.58
  -6   5   5    6.63    0.98
  -6   5   5    9.44    1.03
  -5  -5   5    5.05    0.68
  -5  -5   5    4.58    0.69
  -5  -5   5    5.86    0.38
  -5   5   5    4.42    0.69
  -5   5   5    4.81    0.67
  -5   5   5    5.42    0.38
  -4  -5   5    4.42    0.62
  -4  -5   5    4.86    0.59
  -4   5   5    5.80    0.59
  -4   5   5    5.49    0.38
  -4   5   5    6.28    0.63
  -3  -5   5    3.45    0.44
  -3  -5   5    3.59    0.26
  -3  -5   5    2.92    0.48
  -3  -5   5    3.76    0.46
  -3   5   5    3.56    0.48
  -3   5   5    3.48    0.26
  -3   5   5    2.86    0.45
  -2  -5   5   10.31    0.78
  -2  -5   5   10.25    0.61
  -2  -5   5    9.61    0.73
  -2  -5   5   10.85    0.76
  -2   5   5    8.31    0.78
  -2   5   5    7.87    0.61
  -2   5   5    7.80    0.75
  -1  -5   5   66.19    4.01
  -1  -5   5   62.23    4.19
  -1  -5   5   62.24    4.01
  -1  -5   5   62.94    3.75
  -1   5   5   54.09    4.03
  -1   5   5   54.49    4.20
   1   5  -5   50.57    3.75
   0  -5   5    4.75    0.46
   0  -5   5    4.84    0.42
   0  -5   5    4.39    0.52
   0   5   5    4.71    0.50
   0   5   5    4.21    0.48
   1  -5   5   46.70    3.20
   1  -5   5   44.96    3.32
   1   5   5   46.81    3.18
   1   5   5   45.95    3.36
   1   5   5   48.66    3.22
   2  -5   5    8.23    0.81
   2  -5   5    9.33    0.82
   2   5   5   10.31    0.86
   2   5   5   10.49    0.86
   2   5   5   10.13    0.84
   3  -5   5    8.35    0.80
  -3  -5  -5    9.69    0.77
   3   5   5    8.20    0.83
   3   5   5    8.22    0.86
   3   5   5    7.12    0.80
   4  -5   5   11.87    1.11
  -4  -5  -5   12.67    1.04
   4   5   5   10.98    1.14
   4   5   5   11.40    1.20
   4   5   5   13.02    1.18
   5  -5   5    7.37    0.92
   5   5   5    7.10    1.14
   5   5   5    6.78    1.07
  -6  -5  -5    1.90    0.27
  -6  -5  -5    2.31    0.27
  -6  -5  -5    1.73    0.33
  -6   5  -5    2.31    0.29
  -6   5  -5    2.69    0.28
   6   5   5    1.69    0.85
  -6   5  -5    2.26    0.29
  -7  -5  -5    6.78    0.56
  -7  -5  -5    5.95    0.65
  -7  -5  -5    6.20    0.57
  -7   5  -5    7.78    0.58
   7   5   5    6.67    1.26
  -7   5  -5    8.06    0.58
  -7   5  -5    7.73    0.56
  -8  -5  -5    0.22    0.23
  -8  -5  -5    0.17    0.16
  -8  -5  -5    0.28    0.16
  -8   5  -5    0.21    0.16
  -8   5  -5    0.15    0.20
  -8   5  -5    0.21    0.15
  -9  -5  -5   14.47    1.08
  -9  -5  -5   14.98    1.16
  -9  -5  -5   14.82    1.05
  -9   5  -5   14.57    1.04
  -9   5  -5   13.49    1.07
  -9   5  -5   15.11    1.08
 -10  -5  -5    0.03    0.14
 -10  -5  -5    0.38    0.19
 -10   5  -5    0.24    0.13
 -10   5  -5    0.38    0.14
 -10   5  -5    0.34    0.17
 -11  -5  -5   10.57    0.68
 -11  -5  -5   10.71    0.70
 -11   5  -5    8.39    0.69
 -11   5  -5    8.59    0.67
 -11   5  -5    8.91    0.70
 -11  -6   5    2.04    0.26
 -11   6   5    2.91    0.25
 -10  -6   5    1.44    0.30
 -10  -6   5    1.42    0.25
 -10  -6   5    1.24    0.24
 -10   6   5    1.67    0.21
  -9  -6   5    5.55    0.50
  -9  -6   5    5.79    0.48
  -9  -6   5    5.76    0.55
  -9  -6   5    5.48    0.45
   9   6  -5    6.92    0.46
  -9   6   5    5.57    0.48
  -9   6   5    5.57    0.44
  -9   6   5    6.20    0.53
  -9   6   5    5.85    0.49
  -8  -6   5    4.58    0.47
  -8  -6   5    4.83    0.42
  -8  -6   5    4.90    0.47
  -8  -6   5    4.79    0.53
  -8   6   5    6.01    0.43
  -8   6   5    6.09    0.47
  -8   6   5    5.98    0.51
   8   6  -5    6.32    0.45
  -8   6   5    6.10    0.47
  -7  -6   5   15.39    0.98
  -7  -6   5   14.89    1.05
  -7  -6   5   15.73    1.47
  -7  -6   5   14.44    1.17
  -7  -6   5   14.12    1.05
  -7   6   5   14.88    1.05
  -7   6   5   14.16    0.98
  -7   6   5   14.59    1.11
  -7   6   5   15.37    1.05
  -7   6   5   15.28    1.16
  -6  -6   5    0.71    0.19
  -6  -6   5    0.58    0.14
  -6  -6   5    0.54    0.14
  -6  -6   5    0.46    0.47
  -6  -6   5    0.47    0.12
  -6   6   5    0.75    0.60
  -6   6   5    0.85    0.15
  -5  -6   5   24.96    1.92
  -5  -6   5   26.83    1.99
  -5  -6   5   26.10    1.66
  -5   6   5   26.24    1.66
  -5   6   5   25.04    1.92
  -5   6   5   25.26    1.96
  -4  -6   5    2.77    0.23
  -4  -6   5    2.65    0.50
  -4  -6   5    2.76    0.51
  -4   6   5    2.98    0.54
  -4   6   5    3.03    0.24
  -4   6   5    2.64    0.49
  -3  -6   5   24.62    1.98
  -3  -6   5   26.70    1.72
  -3  -6   5   26.33    1.91
  -3  -6   5   25.44    1.90
  -3   6   5   29.49    1.95
  -3   6   5   28.64    1.72
  -3   6   5   27.19    2.00
   2   6  -5    3.71    0.27
  -2   6   5    4.29    0.48
  -2   6   5    3.87    0.28
  -2   6   5    3.50    0.49
  -1  -6   5    7.55    0.65
  -1  -6   5    7.54    0.70
  -1  -6   5    7.63    0.51
  -1  -6   5    8.35    0.63
   0  -6   5   23.10    1.79
   0  -6   5   24.52    1.76
   0  -6   5   25.28    1.71
   0   6   5   25.82    1.84
   0   6   5   24.67    1.77
   1  -6   5    9.45    0.77
   1  -6   5    9.42    0.70
   1   6   5    7.78    0.73
   1   6   5    7.31    0.73
   1   6   5    6.72    0.73
  -2  -6  -5   12.14    1.04
   2  -6   5   12.04    1.07
   2   6   5   15.54    1.11
   2   6   5   13.13    1.11
   2   6   5   14.72    1.10
   3  -6   5   10.35    1.00
   3   6   5   11.60    1.06
   3   6   5   10.99    1.04
   3   6   5   11.60    1.04
   4  -6   5    0.83    0.51
  -4  -6  -5    0.44    0.42
   4   6   5    0.42    0.55
   4   6   5    1.43    0.51
   4   6   5    1.42    0.61
   5  -6   5   29.39    2.30
  -5  -6  -5   28.69    2.21
   5   6   5   29.82    2.39
   5   6   5   30.69    2.45
  -6  -6  -5    1.81    0.27
  -6  -6  -5    2.07    0.25
  -6  -6  -5    1.57    0.37
   6   6   5    1.62    0.85
  -6   6  -5    1.58    0.24
  -6   6  -5    2.04    0.28
  -6   6  -5    1.92    0.25
  -6   6  -5    1.76    0.26
  -7  -6  -5   23.95    1.60
  -7  -6  -5   23.53    1.65
  -7  -6  -5   23.11    1.77
   7   6   5   20.89    2.38
  -7   6  -5   23.09    1.65
  -7   6  -5   20.64    1.66
  -7   6  -5   23.75    1.60
  -7   6  -5   22.85    1.63
  -8  -6  -5    0.13    0.23
  -8  -6  -5    0.55    0.17
  -8  -6  -5    0.35    0.17
  -8   6  -5    0.26    0.21
  -8   6  -5    0.40    0.16
  -8   6  -5    0.43    0.16
  -9  -6  -5    5.12    0.41
  -9  -6  -5    4.61    0.50
  -9  -6  -5    4.13    0.42
  -9   6  -5    3.46    0.44
  -9   6  -5    4.87    0.41
  -9   6  -5    4.37    0.40
 -10  -6  -5    1.18    0.23
 -10  -6  -5    0.87    0.15
 -10   6  -5    0.73    0.18
 -10   6  -5    0.73    0.15
 -10   6  -5    0.68    0.15
 -11  -7   5    6.25    0.46
 -11   7   5    5.83    0.45
 -10  -7   5    1.16    0.28
 -10  -7   5    1.39    0.24
 -10   7   5    1.67    0.23
 -10   7   5    1.79    0.27
  -9  -7   5   21.59    1.40
  -9  -7   5   20.88    1.40
  -9  -7   5   20.38    1.53
  -9  -7   5   20.94    1.31
  -9   7   5   18.73    1.39
   9   7  -5   18.48    1.31
  -9   7   5   19.55    1.31
  -9   7   5   19.57    1.46
  -9   7   5   19.88    1.39
  -8  -7   5    6.02    0.51
  -8  -7   5    5.85    0.56
  -8  -7   5    5.71    0.52
  -8  -7   5    5.89    0.46
  -8   7   5    6.21    0.50
  -8   7   5    6.36    0.47
   8   7  -5    6.26    0.47
  -8   7   5    6.70    0.63
  -8   7   5    6.58    0.51
  -7  -7   5   20.32    1.40
  -7  -7   5   19.61    1.64
  -7  -7   5   19.96    1.49
  -7  -7   5   20.14    1.50
  -7   7   5   22.64    1.58
  -7   7   5   21.38    1.50
   7   7  -5   23.48    1.41
  -7   7   5   23.88    1.58
  -7   7   5   22.25    1.50
  -7   7   5   21.81    1.40
  -6  -7   5    0.72    0.14
  -6  -7   5    0.59    0.18
  -6  -7   5    0.67    0.15
  -6  -7   5    0.96    0.52
  -6  -7   5    0.94    0.18
  -6   7   5    0.32    0.27
  -6   7   5    0.53    0.14
  -6   7   5    0.34    0.18
  -6   7   5    0.36    0.14
  -5  -7   5    3.61    0.69
  -5  -7   5    4.42    0.31
  -5  -7   5    4.14    0.68
  -5   7   5    4.23    0.31
  -5   7   5    3.14    0.69
   5   7  -5    3.12    0.64
  -5   7   5    3.02    0.67
  -4  -7   5    2.73    0.55
  -4  -7   5    3.30    0.56
  -4  -7   5    2.98    0.26
  -4   7   5    3.92    0.27
  -4   7   5    3.66    0.56
  -4   7   5    4.22    0.60
  -3  -7   5   17.19    1.04
  -3  -7   5   16.51    1.21
  -3  -7   5   16.61    1.27
  -3  -7   5   14.79    1.23
  -3   7   5   16.22    1.27
   3   7  -5   14.93    1.04
  -3   7   5   16.65    1.26
  -3   7   5   15.71    1.04
  -2  -7   5   19.09    1.34
  -2  -7   5   19.51    1.37
  -2  -7   5   19.38    1.31
  -2  -7   5   20.70    1.16
  -2   7   5   16.23    1.16
  -2   7   5   15.95    1.33
   2   7  -5   16.17    1.16
  -2   7   5   16.79    1.38
  -1  -7   5   72.89    5.12
  -1  -7   5   74.59    5.11
  -1  -7   5   75.75    5.35
  -1  -7   5   71.83    4.80
  -1   7   5   80.49    5.17
   1   7  -5   75.08    4.80
  -1   7   5   78.73    5.38
   0  -7   5   41.41    2.79
   0  -7   5   42.75    2.88
   0   7   5   39.25    2.80
   0   7   5   40.86    2.92
   0   7  -5   36.80    2.56
   1  -7   5   49.81    3.38
  -1  -7  -5   51.45    3.23
   1  -7   5   54.31    3.29
   1   7   5   44.39    3.43
   1   7   5   44.97    3.29
   1   7   5   45.45    3.25
  -1   7  -5   41.43    3.01
   2  -7   5   25.49    1.88
  -2  -7  -5   25.97    1.85
   2   7   5   24.95    1.90
   2   7   5   26.45    1.98
   2   7   5   26.06    1.91
   3   7   5    7.72    0.91
   3   7   5    8.14    0.96
   3   7   5    7.66    0.89
   4  -7   5    2.54    0.59
   4   7   5    1.44    0.69
   4   7   5    0.47    0.65
   4   7   5    1.03    0.54
  -5  -7  -5    4.33    0.90
   5  -7   5    4.69    0.96
   5   7   5    3.93    0.99
   5   7   5    6.75    1.31
   5   7   5    4.98    1.08
  -6  -7  -5    1.95    0.25
  -6  -7  -5    1.83    0.27
  -6  -7  -5    1.46    0.28
  -6   7  -5    1.94    0.29
  -6   7  -5    2.30    0.27
  -6   7  -5    1.58    0.23
   6   7   5    1.54    0.90
  -6   7  -5    1.69    0.28
  -7  -7  -5   10.25    0.97
  -7  -7  -5   11.02    0.86
   7   7   5   11.78    1.92
  -7   7  -5   12.45    0.86
  -7   7  -5   12.50    0.88
  -7   7  -5   12.19    0.90
  -7   7  -5   11.84    0.88
  -8   7  -5    1.53    0.35
  -8   7  -5    1.74    0.27
  -8   7  -5    1.83    0.30
  -8   7  -5    1.75    0.25
  -9  -7  -5   19.61    1.41
  -9  -7  -5   19.78    1.45
  -9  -7  -5   20.11    1.56
  -9   7  -5   20.73    1.44
  -9   7  -5   20.62    1.41
  -9   7  -5   19.32    1.45
 -10  -7  -5    1.40    0.29
 -10  -7  -5    0.95    0.21
 -10  -7  -5    0.84    0.17
 -10   7  -5    1.25    0.24
 -10   7  -5    0.82    0.15
 -10   7  -5    0.99    0.16
 -10  -8   5    5.28    0.45
 -10  -8   5    5.39    0.49
 -10  -8   5    5.11    0.44
 -10   8   5    5.69    0.43
 -10   8   5    5.88    0.47
  -9  -8   5    3.37    0.38
  -9  -8   5    3.86    0.33
  -9  -8   5    3.67    0.35
  -9  -8   5    3.67    0.34
   9   8  -5    3.15    0.33
  -9   8   5    2.50    0.34
  -9   8   5    3.01    0.34
  -9   8   5    2.87    0.38
  -9   8   5    2.72    0.31
  -8  -8   5    7.78    0.54
  -8   8   5    6.11    0.48
   8   8  -5    6.14    0.49
  -8   8   5    6.31    0.52
  -8   8   5    6.06    0.56
  -8   8   5    6.36    0.52
  -8   8   5    6.16    0.63
  -7  -8   5    5.08    0.43
  -7  -8   5    5.23    0.43
  -7  -8   5    5.37    1.13
  -7  -8   5    5.35    0.48
  -7  -8   5    5.41    0.39
  -7   8   5    4.04    0.47
  -7   8   5    4.71    0.43
   7   8  -5    4.83    0.39
  -7   8   5    3.84    0.53
  -7   8   5    5.01    0.42
  -7   8   5    4.38    0.39
  -6  -8   5   12.11    0.89
  -6  -8   5   12.41    1.25
  -6  -8   5   11.66    0.99
  -6  -8   5   12.61    0.83
  -6  -8   5   11.64    0.90
  -6   8   5   13.34    0.96
  -6   8   5   12.36    0.98
  -6   8   5   13.15    0.90
  -6   8   5   12.78    0.84
  -6   8   5   12.67    0.89
   6   8  -5   12.75    0.84
  -5  -8   5   15.64    1.02
  -5  -8   5   16.04    1.33
  -5  -8   5   15.80    1.36
   5   8  -5   15.29    1.02
  -5   8   5   15.17    1.35
  -5   8   5   16.06    1.02
   5   8  -5   15.23    1.38
  -4  -8   5    5.73    0.87
  -4  -8   5    6.94    0.79
  -4  -8   5    7.71    0.77
  -4  -8   5    7.25    0.50
  -4   8   5    8.15    0.80
   4   8  -5    6.71    0.83
  -4   8   5    7.74    0.75
  -4   8   5    7.71    0.51
   4   8  -5    7.22    0.50
  -3  -8   5    8.47    0.85
  -3  -8   5    8.19    0.80
  -3  -8   5    9.42    0.59
  -3  -8   5    9.06    0.80
  -2  -8   5    4.23    0.56
  -2  -8   5    4.49    0.28
  -2  -8   5    4.31    0.51
  -2  -8   5    4.39    0.49
   2   8  -5    3.46    0.28
  -2   8   5    3.31    0.54
  -2   8   5    3.29    0.29
  -2   8   5    3.32    0.52
  -1  -8   5   31.27    2.20
  -1  -8   5   28.50    2.25
  -1  -8   5   29.54    2.16
   1   8  -5   32.57    1.98
  -1   8   5   31.68    2.21
  -1   8   5   32.57    2.29
   0  -8   5   20.01    1.49
   0  -8   5   17.51    1.48
   0   8   5   20.23    1.53
   0   8  -5   22.01    1.28
   1  -8   5    5.05    0.56
  -1   8  -5    4.26    0.32
   1   8   5    4.27    0.60
   1   8   5    4.28    0.61
   2  -8   5    4.88    0.64
  -2  -8  -5    5.37    0.69
   2   8   5    4.93    0.70
   2   8   5    5.88    0.81
   2   8   5    5.53    0.73
   3  -8   5    8.38    0.86
  -3  -8  -5    9.14    0.87
   3   8   5    6.86    0.92
   3   8   5    7.78    1.01
   3   8   5    5.92    0.88
   4  -8   5   13.39    1.15
   4   8   5   12.11    1.36
   4   8   5   12.37    1.49
   4   8   5   12.15    1.31
  -5  -8  -5    8.74    1.23
   5  -8   5    8.77    1.22
   5   8   5    8.53    1.29
   5   8   5   10.16    1.61
   5   8   5    9.34    1.48
  -6  -8  -5   11.14    0.80
  -6  -8  -5   10.71    0.92
  -6  -8  -5   10.99    0.83
   6   8   5   10.67    1.66
  -6   8  -5   11.77    0.82
  -6   8  -5   10.85    0.83
  -6   8  -5   10.32    0.82
  -6   8  -5   10.72    0.80
  -7  -8  -5   26.03    2.03
  -7  -8  -5   26.54    1.90
  -7  -8  -5   26.90    1.84
  -7   8  -5   28.38    1.84
   7   8   5   25.60    2.62
  -7   8  -5   24.28    1.90
  -7   8  -5   26.14    1.87
  -7   8  -5   26.78    1.89
  -8   8  -5    2.04    0.35
  -8   8  -5    2.59    0.33
  -8   8  -5    2.28    0.36
  -8   8  -5    2.77    0.31
  -9  -8  -5    3.71    0.46
  -9  -8  -5    4.22    0.37
  -9  -8  -5    3.85    0.38
  -9   8  -5    3.54    0.36
  -9   8  -5    3.39    0.35
 -10  -8  -5    1.91    0.31
 -10  -8  -5    1.63    0.25
 -10  -8  -5    1.29    0.23
 -10   8  -5    1.81    0.22
 -10   8  -5    1.89    0.24
 -10   8  -5    1.80    0.27
 -10  -9   5   13.89    0.95
 -10  -9   5   13.43    0.96
 -10  -9   5   14.43    1.05
 -10   9   5   12.81    0.95
 -10   9   5   13.04    1.00
  -9  -9   5    5.23    0.43
  -9   9   5    4.92    0.42
   9   9  -5    4.36    0.40
  -9   9   5    4.21    0.41
  -9   9   5    5.02    0.51
  -9   9   5    4.17    0.38
  -9   9   5    4.55    0.45
  -8  -9   5    6.79    0.61
  -8  -9   5    7.11    0.55
  -8  -9   5    7.69    0.66
  -8  -9   5    7.18    0.60
   8   9  -5    8.55    0.56
  -8   9   5    8.29    0.60
  -8   9   5    8.29    0.69
  -8   9   5    7.34    0.65
  -8   9   5    7.69    0.60
  -8   9   5    7.68    0.56
  -7  -9   5   11.27    0.90
  -7  -9   5   12.06    1.44
  -7  -9   5   11.56    0.89
  -7  -9   5   11.79    0.83
  -7  -9   5   11.98    0.99
  -7   9   5   12.57    0.89
  -7   9   5   12.26    0.96
   7   9  -5   13.03    0.84
  -7   9   5   13.72    0.97
  -7   9   5   12.91    0.89
  -7   9   5   12.78    0.84
  -6  -9   5    2.55    0.25
  -6  -9   5    2.13    0.28
  -6  -9   5    2.29    0.60
  -6  -9   5    1.93    0.29
  -6  -9   5    1.89    0.30
  -6   9   5    2.05    0.25
  -6   9   5    1.99    0.35
   6   9  -5    2.54    0.25
  -6   9   5    2.22    0.27
  -6   9   5    2.37    0.29
  -6   9   5    1.55    0.30
  -5  -9   5    3.72    0.86
  -5  -9   5    4.36    0.81
  -5   9   5    6.12    0.42
   5   9  -5    6.09    0.41
  -5   9   5    5.38    0.88
   5   9  -5    6.01    0.93
  -4  -9   5    1.95    0.20
  -4  -9   5    1.41    0.45
  -4  -9   5    1.12    0.55
  -4  -9   5    1.61    0.42
   4   9  -5    1.22    0.48
   4   9  -5    2.23    0.20
  -4   9   5    1.06    0.44
  -4   9   5    1.87    0.21
  -4   9   5    1.26    0.48
  -3  -9   5    6.79    0.72
  -3  -9   5    6.51    0.67
  -3  -9   5    5.39    0.76
  -3  -9   5    6.36    0.43
   3   9  -5    6.16    0.43
  -3   9   5    6.58    0.44
   3   9  -5    5.39    0.72
  -3   9   5    5.83    0.67
  -3   9   5    5.91    0.68
  -2  -9   5   20.79    1.44
  -2  -9   5   20.82    1.39
  -2  -9   5   18.27    1.41
  -2  -9   5   20.02    1.20
  -2   9   5   18.25    1.43
  -2   9   5   17.25    1.21
   2   9  -5   18.17    1.40
   2   9  -5   17.35    1.20
  -2   9   5   17.13    1.45
  -1  -9   5   32.76    2.25
  -1  -9   5   34.61    2.16
  -1  -9   5   31.98    2.20
   1   9  -5   31.19    2.17
   1   9  -5   28.71    1.97
  -1   9   5   29.50    2.21
  -1   9   5   26.86    2.27
   0  -9   5   49.56    3.20
   0  -9   5   49.65    3.29
   0   9  -5   42.20    2.92
   0   9   5   43.52    3.21
   0   9   5   44.97    3.34
   1   9   5   41.18    2.90
  -1   9  -5   40.25    2.61
   1   9   5   41.52    3.02
   2  -9   5   59.59    4.14
  -2  -9  -5   62.94    4.14
   2   9   5   60.08    4.36
  -2   9  -5   60.67    3.82
   2   9   5   54.18    4.18
   2   9   5   62.44    4.19
   3  -9   5   11.71    1.10
  -3  -9  -5   11.82    1.16
   3   9   5   13.00    1.37
   3   9   5   10.29    1.21
   3   9   5   12.35    1.18
  -4  -9  -5    7.60    1.09
   4  -9   5    6.59    0.95
   4   9   5    8.51    1.32
   4   9   5    5.70    1.02
   4   9   5    5.72    1.16
  -5  -9  -5   -0.32    0.74
   5   9   5    2.12    1.02
  -5   9  -5    1.26    0.27
   5   9   5    1.50    0.78
   5   9   5    1.35    1.12
  -6  -9  -5    4.98    0.48
  -6   9  -5    5.86    0.47
  -6   9  -5    4.79    0.47
  -6   9  -5    6.26    0.45
   6   9   5    3.78    1.08
  -7  -9  -5   12.02    0.92
  -7  -9  -5   11.29    1.01
  -7  -9  -5   12.21    0.89
  -7   9  -5   13.00    0.91
   7   9   5   10.26    2.04
  -7   9  -5   12.34    0.89
  -7   9  -5   12.24    0.92
  -7   9  -5   12.09    0.91
  -8  -9  -5    3.17    0.49
  -8  -9  -5    3.44    0.39
  -8  -9  -5    4.30    0.40
  -8   9  -5    3.84    0.41
  -8   9  -5    3.88    0.38
  -8   9  -5    3.90    0.37
  -8   9  -5    4.25    0.42
  -9  -9  -5    9.18    0.91
  -9  -9  -5   10.90    0.84
  -9  -9  -5    9.90    0.81
  -9   9  -5   12.48    0.83
  -9   9  -5   11.34    0.83
  -9   9  -5   12.53    0.86
  -9   9  -5   11.40    0.81
 -10  -9  -5    6.16    0.50
 -10  -9  -5    6.94    0.52
 -10  -9  -5    7.25    0.57
 -10   9  -5    6.04    0.50
 -10   9  -5    6.98    0.52
 -10   9  -5    6.13    0.52
 -10 -10   5    2.62    0.28
 -10 -10   5    1.69    0.27
 -10 -10   5    2.21    0.25
 -10  10   5    1.92    0.24
 -10  10   5    2.05    0.27
  -9 -10   5    1.18    0.26
  -9 -10   5    1.54    0.31
  -9  10   5    1.77    0.37
  -9  10   5    1.18    0.23
  -9  10   5    1.30    0.27
  -9  10   5    1.36    0.27
   9  10  -5    1.45    0.21
  -9  10   5    1.27    0.21
  -8 -10   5   17.17    1.15
  -8 -10   5   17.56    1.26
  -8 -10   5   17.11    1.16
  -8  10   5   17.11    1.22
  -8  10   5   16.13    1.15
  -8  10   5   15.62    1.15
  -8  10   5   14.31    1.07
   8  10  -5   15.28    1.07
  -8  10   5   15.41    1.21
  -7 -10   5    1.72    0.24
  -7 -10   5    1.09    0.20
  -7 -10   5    1.86    0.27
  -7 -10   5    1.77    0.35
   7  10  -5    1.40    0.24
  -7  10   5    1.29    0.27
  -7  10   5    1.24    0.24
  -7  10   5    0.72    0.27
  -6 -10   5   19.35    1.23
  -6 -10   5   19.99    1.36
  -6 -10   5   19.11    1.65
  -6 -10   5   19.71    1.24
  -6 -10   5   19.01    1.15
   6  10  -5   14.93    1.15
  -6  10   5   16.01    1.30
  -6  10   5   16.16    1.23
  -6  10   5   16.87    1.32
  -6  10   5   17.19    1.24
  -6  10   5   15.78    1.16
  -5  10   5    2.49    0.37
   5  10  -5    2.26    0.24
  -5  10   5    1.69    0.37
  -5  10   5    1.58    0.29
  -5  10   5    1.29    0.60
  -5  10   5    2.12    0.26
  -5  10   5    1.91    0.24
  -4 -10   5   33.55    2.02
  -4 -10   5   32.07    2.35
  -4 -10   5   30.54    2.31
  -4 -10   5   32.74    2.39
   4  10  -5   29.67    2.33
  -4  10   5   33.73    2.03
   4  10  -5   30.39    2.02
  -4  10   5   28.94    2.32
  -3 -10   5   22.47    1.63
  -3 -10   5   22.12    1.37
  -3 -10   5   21.30    1.67
  -3 -10   5   21.50    1.64
  -3  10   5   21.82    1.37
   3  10  -5   20.57    1.37
   3  10  -5   21.08    1.63
  -3  10   5   21.31    1.64
  -3  10   5   18.71    1.65
  -2 -10   5   24.62    1.70
  -2 -10   5   22.44    1.71
  -2 -10   5   23.58    1.75
  -2  10   5   23.58    1.48
   2  10  -5   20.79    1.47
  -2  10   5   24.57    1.74
   2  10  -5   22.37    1.70
  -2  10   5   22.05    1.77
  -1 -10   5   13.08    1.04
  -1 -10   5   11.93    0.98
  -1  10   5   11.79    1.04
  -1  10   5   10.89    1.03
   1  10  -5   11.71    0.77
   0 -10   5   13.27    1.11
   0  10   5   13.07    1.12
   0  10   5   12.13    1.12
   0  10  -5   13.43    0.85
   1 -10   5   10.58    1.02
  -1  10  -5   11.25    0.74
   1  10   5   11.57    1.05
   1  10   5   11.44    1.05
   2 -10   5    7.42    0.77
   2  10   5    8.10    0.88
   2  10   5    5.21    0.87
  -2  10  -5    6.75    0.47
   3 -10   5    9.53    0.97
  -3 -10  -5    8.64    1.15
   3  10   5    8.14    1.26
   3  10   5    7.93    0.94
   3  10   5    6.11    1.06
   4 -10   5   30.79    2.39
  -4 -10  -5   31.32    2.46
   4  10   5   33.16    2.55
   4  10   5   31.13    2.55
   4  10   5   30.22    2.68
  -5  10  -5    3.98    0.37
  -5  10  -5    4.05    0.37
  -5  10  -5    4.22    0.36
  -5  10  -5    3.08    0.37
   5  10   5    3.54    0.88
  -6 -10  -5   24.99    1.63
  -6  10  -5   19.38    1.50
  -6  10  -5   19.81    1.47
  -6  10  -5   19.42    1.45
  -6  10  -5   20.00    1.50
   6  10   5   20.88    2.15
  -7 -10  -5    0.70    0.27
  -7 -10  -5    0.80    0.19
  -7  10  -5    0.43    0.18
  -7  10  -5    0.53    0.17
  -7  10  -5    0.09    0.19
  -7  10  -5    0.46    0.16
  -8 -10  -5   14.49    1.14
  -8 -10  -5   14.41    1.17
  -8 -10  -5   14.23    1.26
  -8  10  -5   17.26    1.17
  -8  10  -5   16.98    1.13
  -8  10  -5   16.73    1.18
  -8  10  -5   17.05    1.16
  -9 -10  -5    4.44    0.42
  -9 -10  -5    4.78    0.41
  -9 -10  -5    4.40    0.49
  -9  10  -5    4.51    0.40
  -9  10  -5    4.69    0.45
  -9  10  -5    4.61    0.41
  -9  10  -5    3.93    0.41
 -10 -10  -5    3.17    0.33
 -10 -10  -5    2.75    0.27
 -10 -10  -5    3.09    0.29
 -10  10  -5    2.65    0.29
 -10  10  -5    2.53    0.26
 -10  10  -5    2.51    0.28
 -10 -11   5    9.43    0.66
 -10 -11   5    8.70    0.60
 -10 -11   5    8.44    0.59
 -10  11   5    6.85    0.58
 -10  11   5    7.09    0.62
  -9 -11   5    0.24    0.16
  -9 -11   5    0.01    0.15
  -9  11   5    0.35    0.15
  -9  11   5    0.43    0.18
  -9  11   5    0.48    0.15
  -9  11   5    0.58    0.21
  -8 -11   5   11.67    0.89
  -8 -11   5   12.23    0.97
  -8 -11   5   11.66    0.88
  -8  11   5   11.63    0.94
  -8  11   5   12.32    0.88
  -8  11   5   12.27    0.83
  -8  11   5   13.17    0.95
   8  11  -5   12.39    0.82
  -8  11   5   11.78    0.88
  -7 -11   5    2.42    0.37
  -7 -11   5    1.94    0.33
  -7 -11   5    1.89    0.34
  -7  11   5    2.16    0.40
  -7  11   5    2.74    0.43
  -7  11   5    2.88    0.29
  -7  11   5    2.73    0.33
  -7  11   5    3.03    0.32
   7  11  -5    2.89    0.28
  -6 -11   5    3.05    0.33
  -6 -11   5    2.59    0.76
  -6 -11   5    2.99    0.30
  -6 -11   5    2.88    0.32
  -6 -11   5    2.81    0.37
  -6  11   5    2.50    0.42
  -6  11   5    3.02    0.31
  -6  11   5    2.75    0.41
  -6  11   5    3.52    0.32
  -5 -11   5    5.53    0.42
  -5 -11   5    5.18    0.37
  -5 -11   5    4.83    0.45
  -5 -11   5    6.70    0.92
  -5 -11   5    5.24    0.41
   5  11  -5    4.67    0.37
  -5  11   5    4.09    0.48
  -5  11   5    4.69    0.44
  -5  11   5    4.21    0.50
  -5  11   5    4.81    0.41
  -5  11   5    4.26    0.39
  -4 -11   5    2.74    0.71
  -4 -11   5    3.59    0.73
  -4 -11   5    3.72    0.29
  -4  11   5    2.75    0.63
   4  11  -5    2.71    0.66
  -3 -11   5    3.86    0.68
  -3 -11   5    4.42    0.68
  -3 -11   5    2.96    0.60
  -3  11   5    3.41    0.29
   3  11  -5    2.74    0.57
  -3  11   5    3.28    0.59
   3  11  -5    3.28    0.28
  -2 -11   5   22.87    1.74
  -2 -11   5   25.10    1.77
   2  11  -5   21.98    1.48
  -2  11   5   21.39    1.72
  -2  11   5   23.94    1.49
  -2  11   5   22.60    1.80
  -1  11   5    3.94    0.65
   1  11  -5    3.01    0.25
  -1  11   5    3.38    0.61
   0  11  -5   75.11    4.94
   0  11   5   80.27    5.37
   0  11   5   77.94    5.57
   1 -11   5    1.89    0.53
   1  11   5    3.11    0.65
  -1  11  -5    3.04    0.23
   1  11   5    2.89    0.57
   2 -11   5   31.29    2.46
  -2  11  -5   34.06    2.17
   2  11   5   34.89    2.54
   2  11   5   35.44    2.61
  -3 -11  -5    4.27    0.88
   3 -11   5    2.88    0.61
   3  11   5    3.79    0.70
   3  11   5    2.86    0.80
   4 -11   5   16.23    1.64
  -4 -11  -5   18.02    1.91
   4  11   5   20.84    2.20
   4  11   5   20.06    1.73
   4  11   5   18.19    1.88
  -5 -11  -5    5.11    0.49
  -5 -11  -5    5.51    0.55
   5  11   5    6.36    1.30
  -5  11  -5    5.97    0.49
  -5  11  -5    6.14    0.50
  -5  11  -5    6.31    0.51
  -5  11  -5    6.55    0.50
  -6 -11  -5    2.46    0.35
  -6 -11  -5    2.21    0.31
  -6 -11  -5    1.71    0.41
  -6  11  -5    1.84    0.29
  -6  11  -5    1.85    0.28
   6  11   5    1.12    1.00
  -6  11  -5    1.92    0.33
  -7 -11  -5    0.50    0.25
  -7  11  -5    0.02    0.19
  -7  11  -5    0.39    0.17
  -7  11  -5    0.34    0.16
  -7  11  -5    0.49    0.18
  -8  11  -5    3.30    0.38
  -8  11  -5    2.82    0.37
  -8  11  -5    3.52    0.35
  -8  11  -5    3.68    0.36
  -9  11  -5    0.41    0.18
  -9  11  -5    0.45    0.16
  -9  11  -5    0.28    0.15
  -9  11  -5    0.62    0.16
 -10 -11  -5    9.27    0.71
 -10 -11  -5    8.89    0.66
 -10 -11  -5    8.41    0.63
 -10  11  -5    8.71    0.67
 -10  11  -5    8.26    0.63
 -10  11  -5    8.96    0.65
 -10 -12   5    1.15    0.21
 -10 -12   5    1.18    0.22
 -10  12   5    0.95    0.16
  -9  12   5    4.34    0.35
  -9  12   5    4.11    0.39
  -9  12   5    4.28    0.41
  -8 -12   5    8.84    0.60
  -8  12   5    7.75    0.59
  -8  12   5    7.14    0.64
  -8  12   5    7.49    0.65
  -8  12   5    6.85    0.54
   8  12  -5    6.92    0.54
  -8  12   5    7.28    0.59
  -7 -12   5    1.49    0.27
  -7  12   5    0.82    0.17
  -7  12   5    1.38    0.29
  -7  12   5    0.92    0.24
  -7  12   5    0.99    0.24
  -7  12   5    0.81    0.18
  -6 -12   5   27.04    1.91
  -6 -12   5   29.40    2.10
  -6 -12   5   27.61    1.92
  -6 -12   5   30.62    2.40
  -6  12   5   28.02    2.02
  -6  12   5   27.47    1.80
  -6  12   5   25.87    1.91
  -6  12   5   27.58    1.92
   6  12  -5   26.72    1.79
  -6  12   5   27.97    1.98
  -5 -12   5    0.52    0.16
  -5 -12   5    0.83    0.18
  -5 -12   5    0.78    0.20
  -5 -12   5    0.54    0.62
  -5  12   5    0.79    0.19
  -5  12   5    0.58    0.16
  -5  12   5    0.70    0.22
  -5  12   5    0.76    0.17
  -5  12   5    0.98    0.24
   5  12  -5    0.80    0.14
  -4 -12   5   26.67    2.08
  -4  12   5   26.36    1.65
  -4  12   5   24.44    1.82
   4  12  -5   24.57    2.02
  -4  12   5   24.49    2.05
   4  12  -5   25.67    1.64
  -3 -12   5    1.14    0.47
  -3 -12   5    0.56    0.53
   3  12  -5    1.20    0.56
  -3  12   5    0.73    0.15
  -3  12   5    0.55    0.47
  -2 -12   5   38.79    3.22
  -2  12   5   50.20    2.94
   2  12  -5   47.79    2.93
  -2  12   5   47.33    3.38
  -2  12   5   45.17    3.27
  -1 -12   5    7.23    0.80
  -1  12   5    6.13    0.81
  -1  12   5    5.80    0.77
   1  12  -5    5.70    0.42
   0 -12   5    5.67    0.84
   0  12  -5    6.52    0.44
   0  12   5    6.09    0.87
   0  12   5    7.14    0.83
   1 -12   5    4.25    0.69
   1  12   5    4.37    0.75
  -1  12  -5    4.24    0.32
   1  12   5    4.49    0.76
   2 -12   5   18.95    1.58
  -2  12  -5   18.72    1.23
   2  12   5   18.35    1.60
   2  12   5   20.50    1.66
   3 -12   5    2.18    0.65
   3  12   5    1.24    0.73
  -3  12  -5    1.37    0.22
   3  12   5    1.93    0.63
  -4 -12  -5   21.99    2.24
  -4 -12  -5   22.13    1.65
  -4 -12  -5   21.96    1.50
  -4  12  -5   20.52    1.53
  -4  12  -5   20.10    1.49
   4  12   5   20.46    2.44
  -4  12  -5   21.51    1.54
  -5 -12  -5    2.02    0.41
  -5 -12  -5    2.95    0.33
  -5 -12  -5    3.17    0.40
  -5  12  -5    2.72    0.32
  -5  12  -5    1.80    0.31
   5  12   5    2.80    0.93
  -5  12  -5    2.43    0.29
  -5  12  -5    2.10    0.30
  -6 -12  -5    9.89    0.81
  -6 -12  -5    9.17    0.91
  -6 -12  -5    9.79    0.85
  -6  12  -5   12.12    0.83
  -6  12  -5   11.43    0.82
  -6  12  -5   11.23    0.82
  -6  12  -5   11.14    0.80
   6  12   5   12.38    1.69
  -7 -12  -5    0.14    0.25
  -7 -12  -5    0.15    0.18
  -7 -12  -5    0.34    0.18
  -7  12  -5    0.06    0.17
  -7  12  -5    0.05    0.16
  -7  12  -5   -0.09    0.16
  -7  12  -5   -0.01    0.19
  -8 -12  -5   18.56    1.19
  -8 -12  -5   18.18    1.22
  -8 -12  -5   18.72    1.30
  -8  12  -5   14.56    1.21
  -8  12  -5   15.28    1.18
  -8  12  -5   15.28    1.21
  -8  12  -5   15.21    1.19
  -9 -12  -5    1.37    0.26
  -9 -12  -5    1.48    0.24
  -9 -12  -5    0.83    0.21
  -9  12  -5    1.17    0.25
  -9  12  -5    1.20    0.27
  -9  12  -5    0.94    0.18
 -10 -12  -5    1.61    0.26
 -10 -12  -5    1.51    0.23
 -10  12  -5    1.95    0.21
 -10  12  -5    1.66    0.20
 -10 -13   5    4.38    0.36
 -10 -13   5    3.86    0.35
 -10 -13   5    4.01    0.37
 -10  13   5    3.96    0.34
 -10  13   5    4.37    0.36
 -10  13   5    5.01    0.39
  -9 -13   5    2.00    0.27
  -9 -13   5    1.94    0.26
  -9 -13   5    1.26    0.27
  -9  13   5    2.09    0.32
  -9  13   5    1.82    0.24
  -9  13   5    1.49    0.24
  -9  13   5    1.27    0.28
  -8 -13   5    6.47    0.58
  -8 -13   5    7.07    0.63
  -8  13   5    7.93    0.59
  -8  13   5    8.21    0.64
  -8  13   5    7.64    0.59
  -8  13   5    7.41    0.63
   8  13  -5    7.41    0.54
  -8  13   5    7.26    0.54
  -7 -13   5    2.56    0.36
  -7 -13   5    2.42    0.36
  -7 -13   5    3.41    0.39
  -7  13   5    3.23    0.33
  -7  13   5    3.57    0.36
  -7  13   5    3.42    0.43
  -7  13   5    3.61    0.36
   7  13  -5    3.39    0.31
  -7  13   5    3.00    0.42
  -6 -13   5    4.27    0.45
  -6 -13   5    6.75    1.43
  -6 -13   5    5.06    0.52
  -6 -13   5    4.55    0.46
  -6  13   5    5.82    0.47
  -6  13   5    6.19    0.44
  -6  13   5    5.54    0.44
  -6  13   5    4.56    0.54
  -6  13   5    5.06    0.51
  -5 -13   5    5.74    1.15
  -5 -13   5    3.87    0.43
   5  13  -5    5.00    0.39
  -5  13   5    5.30    0.44
  -5  13   5    4.74    0.48
  -5  13   5    5.25    0.42
  -5  13   5    5.36    0.54
  -5  13   5    5.01    0.45
  -4 -13   5    5.57    0.60
  -4 -13   5    6.95    0.57
  -4 -13   5    7.53    0.54
  -4 -13   5    6.60    0.51
  -4 -13   5    7.26    1.07
   4  13  -5    6.73    0.47
  -4  13   5    5.50    0.49
  -4  13   5    5.53    0.55
  -4  13   5    6.28    0.52
  -4  13   5    5.66    0.53
  -4  13   5    7.47    0.64
  -3 -13   5    9.74    1.07
  -3 -13   5    8.24    1.13
   3  13  -5    8.75    0.59
  -3  13   5    9.14    0.62
  -3  13   5    6.53    1.12
  -2 -13   5   12.60    1.19
   2  13  -5   12.31    0.81
  -2  13   5   11.83    1.19
  -2  13   5   12.26    0.84
  -1 -13   5   12.89    1.12
  -1  13   5   11.22    1.16
  -1  13   5   11.29    1.15
   1  13  -5   11.34    0.77
   0 -13   5   24.86    2.13
   0  13   5   31.28    2.23
   0  13  -5   29.12    1.83
   0  13   5   28.72    2.16
   1 -13   5    4.18    0.70
   1  13   5    3.64    0.73
  -1  13  -5    3.47    0.29
   1  13   5    3.86    0.66
   2 -13   5   25.14    2.01
  -2  13  -5   25.11    1.65
   2  13   5   26.35    2.10
   2  13   5   26.59    2.11
   3 -13   5    3.54    0.74
   3  13   5    5.95    0.99
  -3  13  -5    4.35    0.34
   3  13   5    2.74    0.86
  -4 -13  -5    6.03    0.53
  -4 -13  -5    6.19    0.64
  -4 -13  -5    6.21    0.63
  -4  13  -5    6.44    0.55
  -4  13  -5    5.37    0.52
   4  13   5    6.73    1.17
  -4  13  -5    6.30    0.52
  -4  13  -5    7.26    0.52
  -5 -13  -5    7.46    0.62
  -5  13  -5    5.24    0.51
  -5  13  -5    6.37    0.52
  -5  13  -5    5.38    0.52
   5  13   5    6.19    1.34
  -5  13  -5    6.03    0.53
  -6 -13  -5    6.09    0.51
  -6 -13  -5    5.36    0.60
  -6 -13  -5    6.01    0.56
  -6  13  -5    5.98    0.49
  -6  13  -5    5.88    0.51
  -6  13  -5    6.03    0.51
  -6  13  -5    5.47    0.53
  -7 -13  -5    0.98    0.22
  -7 -13  -5    0.74    0.26
  -7 -13  -5    0.84    0.21
  -7  13  -5    1.31    0.20
  -7  13  -5    1.33    0.28
  -7  13  -5    1.25    0.22
  -7  13  -5    1.59    0.32
  -8 -13  -5    4.52    0.50
  -8 -13  -5    4.64    0.44
  -8 -13  -5    5.06    0.43
  -8  13  -5    4.49    0.43
  -8  13  -5    4.30    0.42
  -8  13  -5    4.82    0.44
  -8  13  -5    4.58    0.41
  -9 -13  -5    4.45    0.39
  -9 -13  -5    4.56    0.36
  -9 -13  -5    4.17    0.43
  -9  13  -5    3.50    0.36
  -9  13  -5    4.41    0.38
  -9  13  -5    3.82    0.38
  -9  13  -5    3.74    0.37
  -9 -14   5    1.25    0.25
  -9 -14   5    1.93    0.26
  -9 -14   5    1.48    0.24
  -9  14   5    1.55    0.24
  -9  14   5    1.51    0.26
  -8 -14   5    5.41    0.46
  -8 -14   5    5.33    0.46
  -8 -14   5    5.84    0.50
  -8  14   5    5.42    0.50
   8  14  -5    5.55    0.42
  -8  14   5    5.19    0.49
  -8  14   5    4.74    0.46
  -8  14   5    4.73    0.42
  -8  14   5    5.63    0.45
  -7 -14   5    0.40    0.19
  -7  14   5    0.22    0.17
   7  14  -5    0.35    0.14
  -7  14   5    0.22    0.21
  -7  14   5    0.30    0.18
  -7  14   5    0.45    0.17
  -7  14   5    0.08    0.22
   6  14  -5    4.75    0.37
  -6  14   5    4.67    0.41
  -6  14   5    4.43    0.42
  -6  14   5    4.92    0.51
  -6  14   5    4.31    0.45
  -6  14   5    4.04    0.46
  -5 -14   5    1.98    0.91
   5  14  -5    4.04    0.33
  -5  14   5    3.65    0.42
  -5  14   5    4.15    0.38
  -5  14   5    3.57    0.47
  -5  14   5    3.35    0.42
  -5  14   5    3.84    0.38
  -4 -14   5   33.33    2.61
  -4 -14   5   32.33    2.42
  -4 -14   5   31.70    2.21
  -4 -14   5   33.26    2.20
  -4 -14   5   32.91    2.30
   4  14  -5   31.52    2.06
  -4  14   5   29.86    2.20
  -4  14   5   33.79    2.07
  -4  14   5   31.64    2.33
  -4  14   5   31.90    2.21
  -4  14   5   30.11    2.26
  -3 -14   5    5.74    1.06
  -3 -14   5    7.13    0.52
  -3  14   5    6.29    0.50
  -3  14   5    6.75    0.56
  -3  14   5    5.93    0.51
   3  14  -5    6.59    0.46
  -3  14   5    5.66    1.17
  -3  14   5    5.90    0.55
  -2 -14   5   18.48    1.47
  -2  14   5   16.95    1.10
  -2  14   5   14.31    1.50
   2  14  -5   15.92    1.07
  -1 -14   5    9.07    0.99
   1  14  -5    7.66    0.53
  -1  14   5    6.51    1.03
  -1  14   5    7.47    1.02
   0  14  -5    7.49    0.52
   0  14   5    7.76    0.99
   0  14   5    7.76    1.05
   1 -14   5    4.07    0.78
   1  14   5    4.80    0.99
  -1  14  -5    5.02    0.36
   1  14   5    3.96    0.88
   2  14   5    5.04    1.10
  -2  14  -5    5.92    0.42
   2  14   5    5.32    0.96
  -3 -14  -5    8.86    0.69
   3  14   5    8.92    1.21
  -3  14  -5    8.64    0.69
  -3  14  -5    8.82    0.61
  -3  14  -5    9.09    0.71
   3  14   5    8.87    0.74
  -3  14  -5    8.88    0.70
  -4  14  -5   10.90    0.82
  -4  14  -5   10.91    0.82
   4  14   5   11.20    1.40
  -4  14  -5   10.87    0.81
  -4  14  -5   10.47    0.83
   4  14   5   10.55    0.85
   5  14   5    1.31    0.89
  -5  14  -5    1.17    0.20
  -5  14  -5    1.40    0.30
  -5  14  -5    1.38    0.30
  -5  14  -5    1.18    0.20
  -6 -14  -5   10.95    0.88
  -6 -14  -5   11.12    0.80
  -6 -14  -5   10.45    0.83
  -6  14  -5    9.41    0.80
  -6  14  -5   10.62    0.80
  -6  14  -5    9.49    0.80
  -6  14  -5   10.27    0.78
  -7 -14  -5    1.32    0.24
  -7 -14  -5    1.24    0.23
  -7 -14  -5    1.16    0.27
  -7  14  -5    2.00    0.33
  -7  14  -5    1.71    0.30
  -7  14  -5    1.60    0.29
  -7  14  -5    1.91    0.31
  -8 -14  -5   13.42    0.92
  -8 -14  -5   13.66    1.01
  -8 -14  -5   13.08    0.95
  -8  14  -5   12.05    0.93
  -8  14  -5   12.12    0.91
  -8  14  -5   11.86    0.95
  -8  14  -5   11.86    0.94
   9 -14   5    1.43    0.27
  -9 -14  -5    1.01    0.23
  -9  14  -5    1.39    0.25
  -9  14  -5    1.24    0.24
  -9  14  -5    1.15    0.22
  -9  14  -5    1.49    0.21
  -9 -15   5    8.13    0.60
  -9 -15   5    8.75    0.59
  -9 -15   5    8.50    0.64
  -9  15   5    6.96    0.58
  -9  15   5    8.16    0.62
  -9  15   5    7.33    0.62
  -8 -15   5    6.82    0.52
  -8 -15   5    6.01    0.52
  -8  15   5    6.94    0.55
  -8  15   5    6.11    0.47
  -8  15   5    6.35    0.54
  -8  15   5    6.47    0.51
  -8  15   5    6.14    0.52
   8  15  -5    6.25    0.49
  -7 -15   5    0.66    0.20
  -7 -15   5    1.20    0.20
  -7 -15   5    0.76    0.19
  -7  15   5    0.54    0.23
  -7  15   5    0.84    0.22
  -7  15   5    0.94    0.19
  -7  15   5    0.80    0.20
  -7  15   5    0.76    0.19
   7  15  -5    1.20    0.22
  -6 -15   5    2.50    0.33
  -6 -15   5    2.64    0.33
  -6  15   5    1.67    0.31
  -6  15   5    2.07    0.31
   6  15  -5    2.25    0.25
  -6  15   5    1.88    0.40
  -6  15   5    1.87    0.36
  -6  15   5    1.81    0.26
  -5 -15   5    1.55    0.31
  -5 -15   5    1.39    1.01
  -5 -15   5    1.25    0.25
  -5 -15   5    1.66    0.32
  -5  15   5    1.64    0.32
  -5  15   5    2.03    0.32
  -5  15   5    2.07    0.39
  -5  15   5    1.67    0.32
  -5  15   5    2.21    0.26
   5  15  -5    2.15    0.24
  -4 -15   5    3.62    0.45
  -4 -15   5    4.69    0.43
  -4 -15   5    3.61    0.41
  -4 -15   5    3.72    0.44
  -4 -15   5    4.30    0.98
  -4  15   5    3.79    0.43
   4  15  -5    4.78    0.35
  -4  15   5    4.79    0.41
  -4  15   5    3.88    0.40
  -3 -15   5    2.23    0.43
  -3 -15   5    2.29    0.34
   3  15  -5    3.15    0.27
  -3  15   5    2.95    0.41
  -3  15   5    2.93    0.35
  -3  15   5    3.08    0.34
  -3  15   5    3.04    0.35
  -2 -15   5   19.17    1.56
  -2 -15   5   21.98    1.52
  -2  15   5   23.15    1.43
  -2  15   5   21.94    1.51
  -2  15   5   20.34    1.55
   2  15  -5   23.32    1.40
  -1 -15   5   21.41    1.75
  -1  15   5   19.47    1.75
   1  15  -5   19.11    1.29
   0 -15   5    4.45    0.95
   0  15   5    5.20    1.04
   0  15   5    4.54    0.77
   0  15  -5    4.45    0.35
  -1  15  -5   21.92    1.42
   1  15   5   21.89    1.91
  -2 -15  -5   13.87    1.07
   2 -15   5   13.31    1.09
   2  15   5   14.80    1.50
  -2  15  -5   14.53    1.09
   2  15   5   14.83    1.06
  -2  15  -5   15.16    1.09
  -2  15  -5   15.63    0.96
   3  15   5    5.02    1.11
  -3  15  -5    5.32    0.42
   3  15   5    5.25    0.53
  -3  15  -5    4.57    0.46
  -3  15  -5    5.76    0.49
  -3  15  -5    6.12    0.49
   4  15   5    5.95    0.57
  -4  15  -5    6.65    0.53
  -4  15  -5    6.59    0.57
  -4  15  -5    5.94    0.52
   4  15   5    5.57    1.22
  -4  15  -5    5.43    0.51
  -5 -15  -5    1.63    0.32
  -5 -15  -5    1.34    0.26
  -5 -15  -5    1.19    0.26
  -5  15  -5    1.21    0.24
  -5  15  -5    0.87    0.20
  -5  15  -5    0.98    0.21
   5  15   5    1.73    0.96
  -5  15  -5    1.20    0.20
  -6 -15  -5    1.90    0.35
  -6  15  -5    2.09    0.32
  -6  15  -5    2.55    0.35
  -6  15  -5    1.41    0.33
  -6  15  -5    2.05    0.32
  -7 -15  -5    1.45    0.32
  -7 -15  -5    1.30    0.26
  -7 -15  -5    1.62    0.25
  -7  15  -5    1.04    0.21
  -7  15  -5    1.43    0.30
  -7  15  -5    1.80    0.31
  -7  15  -5    1.29    0.29
   8 -15   5    6.08    0.51
  -8 -15  -5    5.20    0.55
  -8 -15  -5    5.54    0.49
  -8 -15  -5    5.61    0.51
  -8  15  -5    5.83    0.50
  -8  15  -5    6.23    0.49
  -8  15  -5    6.90    0.50
  -8  15  -5    5.49    0.47
  -9 -15  -5    6.99    0.56
   9 -15   5    7.94    0.60
  -9 -15  -5    7.53    0.59
  -9 -15  -5    7.37    0.62
  -9  15  -5    8.05    0.58
  -9  15  -5    8.00    0.57
  -9  15  -5    7.31    0.59
  -9  15  -5    7.19    0.56
  -9 -16   5    1.02    0.22
  -9 -16   5    1.15    0.22
  -9 -16   5    1.29    0.21
  -9  16   5    1.44    0.23
   9  16  -5    0.94    0.18
  -8  16   5    1.06    0.17
  -8  16   5    0.90    0.17
  -8  16   5    1.04    0.19
  -8  16   5    0.66    0.18
  -7 -16   5    6.91    0.57
  -7 -16   5    6.16    0.55
  -7 -16   5    6.32    0.54
  -7  16   5    6.61    0.53
  -7  16   5    6.40    0.50
  -7  16   5    6.47    0.57
  -7  16   5    6.83    0.58
   7  16  -5    6.52    0.48
  -7  16   5    6.58    0.53
   6  16  -5    0.98    0.16
  -6  16   5    0.84    0.22
  -6  16   5    0.91    0.19
  -6  16   5    0.63    0.21
  -6  16   5    0.61    0.24
  -5  16   5    0.51    0.24
   5  16  -5    0.34    0.14
  -5  16   5    0.49    0.18
  -5  16   5    0.10    0.20
  -5  16   5    0.20    0.21
  -5  16   5    0.12    0.20
  -4 -16   5    9.75    0.84
  -4 -16   5   10.46    0.91
  -4 -16   5   10.03    0.86
  -4  16   5   12.00    0.81
  -4  16   5   11.51    0.85
  -4  16   5   11.63    0.87
   4  16  -5   11.98    0.77
  -4  16   5   11.58    0.85
  -4  16   5   13.14    0.94
  -3 -16   5   10.70    0.87
  -3 -16   5   11.38    0.94
  -3 -16   5   11.46    0.85
  -3  16   5   11.82    0.88
  -3  16   5   11.42    0.85
  -3  16   5   11.54    0.87
  -3  16   5   12.12    0.81
   3  16  -5   10.92    0.77
  -2 -16   5    9.14    0.72
  -2 -16   5    9.22    0.73
  -2  16   5    9.11    0.75
   2  16  -5    9.35    0.64
  -2  16   5    9.10    0.71
  -2  16   5    9.63    0.70
  -2  16   5    9.82    0.77
  -1 -16   5    9.59    0.80
  -1 -16   5    9.77    0.79
  -1  16   5   11.22    0.90
   1  16  -5   10.94    0.70
  -1  16   5   10.87    0.78
   1  16  -5   10.33    0.76
  -1  16   5    9.90    0.84
   0 -16   5    1.59    0.30
   0 -16   5    1.46    0.27
   0  16  -5    0.84    0.21
   0  16   5    0.98    0.22
   0  16  -5    1.30    0.21
   1 -16   5    5.34    0.48
  -1 -16  -5    4.96    0.55
  -1  16  -5    4.70    0.50
   1  16   5    4.47    0.85
  -1  16  -5    5.63    0.39
   1  16   5    5.08    0.47
  -2 -16  -5    2.98    0.42
   2 -16   5    3.31    0.41
  -2  16  -5    4.12    0.46
  -2  16  -5    3.44    0.37
  -2  16  -5    3.96    0.32
  -2  16  -5    3.77    0.40
   2  16   5    3.88    0.85
   2  16   5    3.38    0.42
  -3 -16  -5   18.92    1.28
   3 -16   5   19.71    1.31
  -3  16  -5   17.66    1.17
  -3  16  -5   16.10    1.27
   3  16   5   19.94    1.76
  -3  16  -5   16.72    1.30
   3  16   5   17.72    1.27
  -3  16  -5   16.62    1.30
   4 -16   5    3.60    0.43
  -4 -16  -5    3.86    0.50
  -4 -16  -5    3.31    0.42
  -4  16  -5    4.10    0.40
  -4  16  -5    4.13    0.39
   4  16   5    2.76    0.92
   4  16   5    3.72    0.45
  -4  16  -5    3.58    0.40
  -5 -16  -5    4.27    0.43
  -5 -16  -5    4.26    0.49
   5 -16   5    3.77    0.43
  -5 -16  -5    4.32    0.50
  -5  16  -5    3.78    0.40
  -5  16  -5    3.54    0.40
  -5  16  -5    3.60    0.44
  -5  16  -5    3.50    0.42
   5  16   5    3.74    0.49
  -6 -16  -5    4.49    0.52
   6 -16   5    4.30    0.47
  -6 -16  -5    4.66    0.51
  -6 -16  -5    4.78    0.47
  -6  16  -5    5.06    0.46
  -6  16  -5    4.57    0.46
  -6  16  -5    5.27    0.48
  -6  16  -5    5.20    0.47
  -7 -16  -5   12.30    0.90
  -7 -16  -5   12.57    0.99
   7 -16   5   11.85    0.93
  -7 -16  -5   12.55    0.93
  -7  16  -5   11.72    0.91
  -7  16  -5   12.47    0.92
  -7  16  -5   11.78    0.89
  -7  16  -5   12.05    0.91
  -8 -16  -5    4.28    0.42
  -8 -16  -5    4.38    0.47
  -8 -16  -5    4.64    0.45
   8 -16   5    4.51    0.44
  -8  16  -5    5.56    0.42
  -8  16  -5    5.02    0.42
  -8  16  -5    5.56    0.44
  -8  16  -5    5.42    0.44
  -9 -16  -5    4.76    0.37
  -9 -16  -5    4.97    0.40
  -9 -16  -5    5.24    0.42
  -9  16  -5    4.47    0.37
  -9  16  -5    4.15    0.39
  -9  16  -5    4.49    0.37
  -9 -17   5    9.34    0.68
  -9 -17   5   10.18    0.68
   9  17  -5    9.53    0.67
  -9  17   5    8.81    0.67
  -9  17   5    9.74    0.71
  -8 -17   5    3.09    0.33
  -8 -17   5    2.89    0.32
  -8 -17   5    3.01    0.33
  -8  17   5    2.78    0.32
   8  17  -5    2.96    0.29
  -8  17   5    3.07    0.32
  -8  17   5    2.69    0.30
  -7 -17   5   10.33    0.80
  -7 -17   5    9.98    0.79
  -7 -17   5   11.02    0.86
  -7  17   5   11.18    0.74
  -7  17   5   10.15    0.78
  -7  17   5   10.69    0.82
  -7  17   5   10.63    0.79
  -7  17   5   11.17    0.81
   7  17  -5   10.63    0.72
  -6 -17   5    0.83    0.22
  -6  17   5    1.09    0.19
  -6  17   5    0.78    0.21
  -6  17   5    0.65    0.22
  -6  17   5    0.99    0.24
   6  17  -5    1.17    0.23
  -6  17   5    0.96    0.21
  -5 -17   5    0.47    0.21
  -5 -17   5    0.45    0.19
  -5 -17   5    0.58    0.23
  -5 -17   5    0.23    0.19
  -5  17   5    0.73    0.20
  -5  17   5    0.78    0.22
  -5  17   5    0.99    0.23
  -4 -17   5    0.48    0.25
  -4 -17   5    0.15    0.18
  -4 -17   5   -0.22    0.18
  -4 -17   5    0.08    0.20
  -4  17   5    0.19    0.19
   4  17  -5    0.43    0.14
  -4  17   5    0.23    0.21
  -4  17   5    0.27    0.19
  -4  17   5   -0.12    0.20
  -3 -17   5    1.99    0.33
  -3  17   5    2.23    0.35
  -3  17   5    2.26    0.35
  -3  17   5    2.43    0.33
  -3  17   5    1.81    0.40
  -2 -17   5    4.18    0.45
  -2 -17   5    4.76    0.48
  -2  17   5    5.13    0.47
   2  17  -5    5.36    0.39
  -2  17   5    4.96    0.49
   2  17  -5    5.31    0.44
  -2  17   5    5.13    0.52
  -2  17   5    5.57    0.56
  -1 -17   5   13.64    1.06
  -1 -17   5   14.76    1.05
   1  17  -5   14.60    1.02
  -1  17   5   13.89    1.03
  -1  17   5   13.29    1.08
  -1  17   5   14.77    1.11
   1  17  -5   15.12    0.95
   0  17   5    0.07    0.19
   0  17  -5    0.39    0.14
   0  17  -5    0.00    0.18
   1 -17   5   25.66    1.74
  -1 -17  -5   25.63    1.71
  -1  17  -5   24.43    1.55
  -1  17  -5   21.45    1.74
   1  17   5   23.66    1.68
   1  17   5   23.28    2.15
  -1  17  -5   23.57    1.73
  -2  17  -5    1.62    0.23
   2  17   5    1.61    0.81
   2  17   5    1.35    0.23
  -2  17  -5    1.86    0.39
  -2  17  -5    1.30    0.28
  -2  17  -5    1.74    0.32
   3 -17   5   17.54    1.43
  -3 -17  -5   18.62    1.40
   3  17   5   21.05    1.39
  -3  17  -5   20.56    1.43
   3  17   5   20.72    1.97
  -3  17  -5   17.90    1.43
  -3  17  -5   21.29    1.41
  -3  17  -5   19.62    1.28
  -4 -17  -5    0.01    0.26
   4 -17   5   -0.07    0.19
  -4 -17  -5   -0.09    0.20
  -4  17  -5    0.43    0.19
  -4  17  -5    0.16    0.19
  -4  17  -5    0.46    0.18
   4  17   5    0.44    0.22
   5 -17   5    0.89    0.21
  -5 -17  -5    0.83    0.23
  -5 -17  -5    1.02    0.26
  -5 -17  -5    1.02    0.27
  -5  17  -5    1.19    0.20
  -5  17  -5    1.06    0.21
  -5  17  -5    1.17    0.23
   5  17   5    0.89    0.26
  -6 -17  -5    3.06    0.43
  -6 -17  -5    2.75    0.40
   6 -17   5    2.86    0.38
  -6 -17  -5    3.19    0.45
  -6  17  -5    3.66    0.37
  -6  17  -5    4.13    0.40
  -6  17  -5    3.69    0.39
  -6  17  -5    3.04    0.36
  -7 -17  -5    4.90    0.46
  -7 -17  -5    4.87    0.48
   7 -17   5    5.78    0.47
  -7 -17  -5    4.85    0.52
  -7  17  -5    5.81    0.46
  -7  17  -5    4.83    0.45
  -7  17  -5    5.12    0.46
  -7  17  -5    4.88    0.45
  -8 -17  -5    2.21    0.27
   8 -17   5    2.35    0.30
  -8 -17  -5    2.20    0.30
  -8 -17  -5    1.92    0.30
  -8  18   5    1.49    0.23
   8  18  -5    1.88    0.22
  -8  18   5    1.65    0.26
  -8  18   5    1.97    0.26
  -7 -18   5   11.64    0.88
  -7 -18   5   11.78    0.82
  -7 -18   5   11.42    0.82
  -7  18   5   10.58    0.76
  -7  18   5   10.62    0.83
   7  18  -5   10.56    0.76
  -7  18   5   10.46    0.80
  -7  18   5   11.72    0.85
   7  18  -5   11.52    0.80
  -6 -18   5    2.23    0.38
  -6 -18   5    2.09    0.34
  -6 -18   5    2.93    0.34
  -6 -18   5    2.97    0.35
  -6  18   5    1.78    0.32
  -6  18   5    2.36    0.35
  -6  18   5    2.43    0.33
  -6  18   5    2.81    0.39
   6  18  -5    2.42    0.27
  -6  18   5    1.75    0.35
  -5 -18   5    3.37    0.44
  -5 -18   5    3.11    0.48
  -5 -18   5    3.23    0.43
  -5  18   5    4.49    0.42
  -5  18   5    4.54    0.42
   5  18  -5    4.05    0.34
  -5  18   5    3.86    0.44
  -5  18   5    4.90    0.50
  -5  18   5    4.18    0.43
  -4 -18   5    0.86    0.19
  -4 -18   5    0.49    0.21
  -4 -18   5    0.81    0.22
  -4 -18   5    0.97    0.27
   4  18  -5    0.57    0.15
  -4  18   5    0.58    0.20
  -4  18   5    0.46    0.19
  -4  18   5    0.43    0.23
   4  18  -5    0.41    0.17
  -3 -18   5   27.11    1.88
  -3 -18   5   25.78    1.82
   3  18  -5   25.02    1.80
   3  18  -5   27.03    1.69
  -3  18   5   27.82    1.72
  -3  18   5   26.33    1.84
  -3  18   5   24.83    1.82
  -3  18   5   25.21    1.87
  -2 -18   5    0.26    0.21
  -2 -18   5    0.53    0.18
  -2  18   5    0.54    0.23
  -2  18   5    0.54    0.24
   2  18  -5    0.52    0.16
   2  18  -5    0.75    0.16
  -2  18   5    0.75    0.26
  -2  18   5    0.43    0.19
   1 -18  -5    1.44    0.25
  -1 -18   5    1.71    0.31
  -1  18   5    2.05    0.34
  -1  18   5    1.90    0.41
  -1  18   5    2.46    0.49
   1  18  -5    2.20    0.30
   0 -18  -5    1.02    0.29
   0 -18   5    1.04    0.19
   0  18  -5    0.66    0.16
   0  18  -5    0.53    0.19
   0  18   5    0.72    0.22
   1 -18   5    3.75    0.43
   1 -18   5    4.25    0.41
  -1 -18  -5    4.10    0.48
  -1  18  -5    3.89    0.34
  -1  18  -5    2.94    0.42
  -1  18  -5    3.90    0.49
   1  18   5    3.27    0.42
  -2 -18  -5    2.33    0.38
  -2  18  -5    1.77    0.28
  -2  18  -5    1.35    0.22
   2  18   5    1.56    0.34
   2  18   5    1.26    0.89
  -2  18  -5    1.85    0.24
   3 -18   5   22.60    1.56
  -3 -18  -5   21.56    1.52
  -3  18  -5   21.68    1.39
   3  18   5   19.43    2.17
  -3  18  -5   21.50    1.56
  -3  18  -5   21.34    1.55
  -3  18  -5   20.37    1.52
   3  18   5   21.04    1.51
  -4  18  -5    0.96    0.21
  -4  18  -5    0.91    0.20
   4  18   5    1.00    0.23
  -4  18  -5    0.92    0.21
  -4  18  -5    0.78    0.19
   5 -18   5    6.11    0.60
  -5 -18  -5    6.59    0.67
  -5 -18  -5    6.63    0.65
  -5 -18  -5    6.47    0.61
  -5  18  -5    7.44    0.60
   5  18   5    8.53    0.62
  -5  18  -5    7.65    0.60
  -5  18  -5    7.68    0.61
  -6 -18  -5    1.91    0.37
  -6 -18  -5    1.17    0.23
   6 -18   5    1.33    0.31
  -6 -18  -5    1.46    0.25
  -6  18  -5    1.99    0.31
  -7 -18  -5   15.22    0.99
  -7 -18  -5   15.14    0.96
  -7 -18  -5   14.45    1.04
   7 -18   5   14.29    0.98
  -7  18  -5   11.24    0.98
  -7  18  -5   11.75    0.95
  -7  18  -5   11.61    0.96
  -7  18  -5   12.02    0.98
  -8 -18  -5    0.78    0.15
   8 -18   5    0.61    0.17
  -8 -18  -5    0.71    0.17
  -8 -18  -5    0.74    0.16
  -8  18  -5    1.02    0.21
  -8  18  -5    0.92    0.20
  -8 -19   5    1.48    0.23
  -8 -19   5    1.69    0.23
  -8 -19   5    1.57    0.25
  -8  19   5    1.28    0.20
   8  19  -5    1.80    0.20
  -8  19   5    1.98    0.23
  -8  19   5    1.44    0.23
  -7  19   5    8.16    0.64
   7  19  -5    7.82    0.59
  -7  19   5    7.70    0.61
  -7  19   5    8.44    0.62
  -6 -19   5    0.81    0.20
  -6 -19   5    0.69    0.22
   6  19  -5    1.30    0.23
   6  19  -5    1.43    0.26
  -6  19   5    1.20    0.22
  -6  19   5    1.05    0.22
  -6  19   5    1.34    0.30
  -6  19   5    1.10    0.22
  -6  19   5    1.33    0.19
  -5 -19   5    0.77    0.20
  -5 -19   5    0.61    0.22
  -5 -19   5    0.81    0.20
  -5 -19   5    0.72    0.24
   5  19  -5    1.09    0.18
   5  19  -5    1.20    0.23
  -5  19   5    1.02    0.23
  -5  19   5    1.13    0.20
  -5  19   5    0.76    0.22
  -5  19   5    0.79    0.20
  -4 -19   5    5.85    0.47
  -4 -19   5    5.73    0.57
  -4 -19   5    5.22    0.50
   4  19  -5    4.62    0.45
   4  19  -5    5.06    0.40
  -4  19   5    4.49    0.47
  -4  19   5    4.54    0.49
  -4  19   5    4.12    0.49
  -4  19   5    5.03    0.46
  -3 -19   5   11.92    0.85
  -3 -19   5   12.20    0.85
  -3  19   5   10.37    0.86
  -3  19   5   10.61    0.80
  -3  19   5   10.46    0.85
  -3  19   5   10.55    0.83
   3  19  -5   11.02    0.75
   3  19  -5   10.72    0.81
   2  19  -5    3.32    0.31
  -2  19   5    2.67    0.47
  -2  19   5    2.63    0.42
  -2  19   5    2.51    0.43
   2  19  -5    3.11    0.35
  -2  19   5    2.57    0.36
  -1  19   5    0.81    0.30
  -1  19   5    0.81    0.27
   1  19  -5    0.79    0.18
   1  19  -5    0.88    0.17
  -1  19   5    0.75    0.21
   0 -19   5    5.89    0.52
   0 -19  -5    5.91    0.60
   0  19  -5    6.16    0.46
   0  19  -5    5.48    0.52
   0  19   5    5.73    0.52
  -1  19  -5   12.76    0.97
   1  19   5   13.64    0.98
  -1  19  -5   13.23    1.03
  -1  19  -5   13.76    0.90
  -2 -19  -5    2.99    0.44
   2 -19   5    3.24    0.39
   2 -19   5    3.28    0.39
  -2  19  -5    3.54    0.45
  -2  19  -5    3.73    0.33
  -2  19  -5    3.25    0.39
   2  19   5    3.22    0.41
  -3 -19  -5   12.89    0.98
   3 -19   5   11.29    0.98
   3  19   5   13.59    0.96
  -3  19  -5   12.01    0.97
  -3  19  -5   13.45    0.88
  -3  19  -5   14.47    0.98
   4 -19   5    3.67    0.43
  -4 -19  -5    3.71    0.46
  -4  19  -5    4.63    0.43
  -4  19  -5    4.55    0.40
   4  19   5    4.43    0.45
  -4  19  -5    4.16    0.45
  -5 -19  -5    1.82    0.35
  -5 -19  -5    2.11    0.40
  -5 -19  -5    2.47    0.42
   5 -19   5    1.68    0.31
  -5  19  -5    1.51    0.33
   5  19   5    1.85    0.35
  -5  19  -5    1.76    0.32
   6 -19   5    0.64    0.18
  -6 -19  -5    0.57    0.20
  -6 -19  -5    0.54    0.21
  -6 -19  -5    0.76    0.20
  -6  19  -5    0.55    0.18
  -6  19  -5    0.68    0.18
   6  19   5    0.71    0.22
  -6  19  -5    0.61    0.19
   7 -19   5    3.65    0.35
  -7 -19  -5    3.30    0.34
  -7 -19  -5    3.09    0.37
  -7 -19  -5    3.57    0.35
  -7  19  -5    3.03    0.33
  -7  19  -5    3.30    0.34
  -7  19  -5    2.67    0.32
  -8 -19  -5    0.70    0.15
  -8 -19  -5    0.55    0.13
  -8  19  -5    0.88    0.20
  -8  19  -5    0.57    0.13
  -7 -20   5    7.20    0.56
  -7 -20   5    7.41    0.55
  -7 -20   5    7.23    0.53
  -7 -20   5    7.22    0.52
  -7  20   5    6.21    0.54
  -7  20   5    6.13    0.52
  -7  20   5    5.86    0.51
   7  20  -5    6.36    0.50
  -6 -20   5    5.58    0.47
  -6 -20   5    5.30    0.44
  -6 -20   5    4.77    0.45
  -6 -20   5    4.33    0.43
  -6  20   5    4.63    0.42
  -6  20   5    4.75    0.43
  -6  20   5    4.14    0.40
  -6  20   5    4.70    0.43
   6  20  -5    4.32    0.38
  -6  20   5    5.03    0.46
   6  20  -5    4.90    0.40
  -5 -20   5    7.00    0.59
  -5 -20   5    6.97    0.57
  -5 -20   5    7.17    0.55
  -5  20   5    5.97    0.54
   5  20  -5    5.63    0.46
  -5  20   5    5.62    0.54
   5  20  -5    5.68    0.51
  -5  20   5    6.22    0.51
  -5  20   5    5.95    0.52
  -4 -20   5   12.50    0.91
  -4 -20   5   12.24    0.88
  -4 -20   5   11.45    0.86
  -4  20   5   11.84    0.83
   4  20  -5   11.34    0.78
  -4  20   5   10.95    0.88
   4  20  -5   10.92    0.84
  -4  20   5   10.93    0.87
  -4  20   5   11.19    0.85
  -3  20   5   11.29    0.86
   3  20  -5   11.60    0.85
   3  20  -5   11.58    0.79
  -3  20   5   12.10    0.84
  -3  20   5   11.35    0.89
  -3  20   5   11.36    0.89
  -2 -20   5    0.47    0.23
  -2 -20   5    0.74    0.20
   2  20  -5    0.91    0.17
  -2  20   5    0.86    0.21
  -2  20   5    0.76    0.27
   2  20  -5    0.91    0.19
  -2  20   5    0.99    0.25
   1  20  -5    2.59    0.30
  -1  20   5    2.22    0.34
  -1  20   5    2.06    0.36
   1  20  -5    2.12    0.34
   0 -20  -5    1.33    0.29
   0  20  -5    2.13    0.27
   0  20   5    1.64    0.36
   0  20  -5    2.13    0.32
   1 -20   5    2.85    0.39
  -1 -20  -5    3.44    0.44
   1 -20   5    3.42    0.38
  -1  20  -5    3.43    0.48
  -1  20  -5    2.52    0.39
   1  20   5    2.78    0.38
  -1  20  -5    3.27    0.32
  -2 -20  -5    2.57    0.39
  -2  20  -5    2.05    0.29
  -2  20  -5    2.08    0.29
   2  20   5    1.86    0.26
  -2  20  -5    1.84    0.37
   3 -20   5    7.64    0.64
  -3 -20  -5    6.58    0.64
   3 -20   5    6.92    0.61
  -3  20  -5    8.26    0.57
  -3  20  -5    8.75    0.64
  -3  20  -5    7.98    0.66
   3  20   5    7.98    0.63
   4 -20   5    0.90    0.20
  -4 -20  -5    0.85    0.23
   4  20   5    0.64    0.21
  -4  20  -5    0.96    0.22
  -5  20  -5    2.11    0.33
  -5  20  -5    2.60    0.33
   5  20   5    2.57    0.36
  -6 -20  -5    5.02    0.47
  -6 -20  -5    4.60    0.45
  -6 -20  -5    4.74    0.42
   6 -20   5    4.69    0.42
   6  20   5    4.66    0.44
  -6  20  -5    4.42    0.42
  -6  20  -5    4.19    0.43
  -6  20  -5    4.15    0.40
  -7 -20  -5   12.00    0.93
   7 -20   5   11.82    0.88
  -7 -20  -5   12.44    0.86
  -7 -20  -5   12.80    0.89
  -7  20  -5   11.38    0.85
  -7  20  -5   11.17    0.86
  -7  20  -5   11.65    0.88
  -7 -21   5    4.41    0.40
  -7 -21   5    4.28    0.41
  -7 -21   5    3.92    0.41
  -7  21   5    5.14    0.39
  -7  21   5    5.00    0.40
   7  21  -5    5.14    0.37
  -7  21   5    4.55    0.38
  -6 -21   5    3.27    0.38
  -6 -21   5    3.27    0.37
  -6 -21   5    2.74    0.34
  -6 -21   5    4.08    0.35
  -6  21   5    3.61    0.37
  -6  21   5    3.57    0.35
   6  21  -5    3.60    0.31
  -6  21   5    3.05    0.34
  -6  21   5    3.01    0.33
  -5  21   5    2.29    0.31
  -5  21   5    2.45    0.33
  -5  21   5    2.46    0.33
  -5  21   5    1.89    0.34
   5  21  -5    1.81    0.26
   5  21  -5    2.34    0.27
  -4  21   5    5.29    0.51
   4  21  -5    5.57    0.43
  -4  21   5    5.34    0.51
  -4  21   5    5.85    0.50
  -4  21   5    5.77    0.49
   4  21  -5    5.41    0.47
  -3  21   5    2.51    0.35
  -3  21   5    2.66    0.41
  -3  21   5    2.90    0.42
   3  21  -5    2.81    0.34
   3  21  -5    3.10    0.31
  -3  21   5    2.36    0.40
  -2 -21   5    4.13    0.48
  -2  21   5    4.66    0.54
   2  21  -5    5.51    0.42
   2  21  -5    5.51    0.46
  -2  21   5    4.95    0.54
  -2  21   5    5.57    0.48
   1 -21  -5    4.38    0.55
  -1 -21   5    4.67    0.48
   1  21  -5    5.18    0.46
  -1  21   5    4.67    0.47
   1  21  -5    5.32    0.42
  -1  21   5    5.20    0.56
   0 -21  -5   12.26    0.82
   0  21  -5    9.08    0.76
   0  21  -5    9.76    0.70
   0  21   5    9.56    0.77
   2 -21   5    5.12    0.46
   2 -21   5    4.95    0.44
  -2  21  -5    3.73    0.50
   3 -21   5    8.29    0.67
   3 -21   5    8.21    0.65
  -3 -21  -5    9.05    0.67
  -3  21  -5    8.04    0.60
  -3  21  -5    8.79    0.69
   3  21   5    8.11    0.66
  -3  21  -5    7.86    0.67
   4 -21   5    9.61    0.77
  -4 -21  -5   10.02    0.77
   4 -21   5    9.13    0.74
  -4  21  -5   10.35    0.77
  -4  21  -5   10.35    0.72
   4  21   5   10.66    0.76
  -4  21  -5   10.25    0.77
   5 -21   5    0.19    0.15
  -5 -21  -5    0.55    0.19
  -5  21  -5    0.05    0.17
  -5  21  -5    0.07    0.15
   5  21   5    0.27    0.18
  -6 -21  -5    1.94    0.30
  -6 -21  -5    1.70    0.27
   6 -21   5    1.80    0.27
   6 -21   5    1.48    0.24
  -6  21  -5    1.51    0.26
  -6  21  -5    1.73    0.25
   6  21   5    1.70    0.31
  -7 -21  -5    1.77    0.22
   7 -21   5    1.40    0.25
  -7 -21  -5    2.18    0.26
  -7 -21  -5    2.02    0.26
  -7  21  -5    1.20    0.21
  -7  21  -5    1.34    0.22
  -6 -22   5    6.01    0.46
  -6 -22   5    5.86    0.47
  -6  22   5    4.96    0.44
   6  22  -5    5.19    0.42
  -6  22   5    5.44    0.45
  -5 -22   5    1.69    0.38
  -5  22   5    2.82    0.33
  -5  22   5    2.59    0.32
   5  22  -5    2.10    0.28
  -5  22   5    2.61    0.30
   5  22  -5    2.55    0.27
  -4 -22   5    4.70    0.41
  -4  22   5    3.87    0.42
  -4  22   5    4.59    0.45
   4  22  -5    4.06    0.38
   4  22  -5    4.13    0.35
  -4  22   5    4.24    0.41
  -4  22   5    4.42    0.44
   3 -22  -5   11.82    0.92
  -3 -22   5   13.07    0.94
  -3  22   5   12.39    0.96
  -3  22   5   12.10    0.91
  -3  22   5   13.01    0.93
  -3  22   5   12.02    0.89
   3  22  -5   12.71    0.84
   3  22  -5   12.44    0.90
  -2 -22   5   10.58    0.81
   2  22  -5   10.18    0.77
  -2  22   5   10.25    0.78
   2  22  -5   10.28    0.72
  -2  22   5   10.45    0.82
  -1  22   5    3.21    0.39
  -1  22   5    3.59    0.48
   1  22  -5    3.29    0.37
   1  22  -5    3.57    0.34
   0 -22  -5    6.13    0.51
   0  22   5    4.86    0.47
   0  22  -5    4.64    0.46
   0  22  -5    5.04    0.42
   1 -22   5    0.42    0.19
   1 -22   5    0.09    0.19
  -1 -22  -5    0.15    0.21
   1  22   5    0.05    0.20
  -1  22  -5    0.13    0.19
  -1  22  -5    0.28    0.16
  -2 -22  -5    2.20    0.37
   2 -22   5    2.62    0.33
   2 -22   5    2.40    0.34
  -2  22  -5    1.63    0.29
   3 -22   5    5.30    0.43
  -3 -22  -5    5.59    0.48
   3  22   5    4.60    0.45
  -3  22  -5    4.48    0.41
  -3  22  -5    4.45    0.47
  -3  22  -5    4.15    0.44
   4 -22   5    3.71    0.35
   4 -22   5    3.92    0.36
  -4 -22  -5    3.25    0.39
  -4  22  -5    2.74    0.38
  -4  22  -5    3.03    0.37
  -4  22  -5    3.66    0.36
   4  22   5    3.64    0.37
  -5 -22  -5    1.93    0.28
   5 -22   5    1.93    0.24
   5 -22   5    1.90    0.27
   5  22   5    1.19    0.21
  -5  22  -5    1.43    0.26
   6 -22   5    6.91    0.53
   6 -22   5    6.76    0.55
  -6 -22  -5    7.65    0.58
  -6 -22  -5    7.16    0.55
   6  22   5    7.54    0.55
  -6  22  -5    7.06    0.55
  -6  22  -5    6.72    0.54
   6 -23  -5    2.61    0.28
  -6 -23   5    3.04    0.31
  -6 -23   5    3.20    0.34
  -6  23   5    2.98    0.29
   6  23  -5    3.19    0.27
  -6  23   5    3.73    0.31
   6  23  -5    2.89    0.27
  -5 -23   5    1.39    0.24
   5  23  -5    0.96    0.22
  -5  23   5    1.07    0.19
  -5  23   5    1.15    0.24
  -5  23   5    1.35    0.26
   5  23  -5    0.95    0.20
   4 -23  -5    5.26    0.43
  -4 -23   5    5.66    0.45
   4  23  -5    5.31    0.42
   4  23  -5    4.43    0.39
  -4  23   5    5.53    0.48
  -4  23   5    5.00    0.46
  -4  23   5    4.92    0.44
  -3 -23   5    0.78    0.19
   3 -23  -5    0.78    0.18
  -3  23   5    1.33    0.28
  -3  23   5    1.08    0.22
  -2 -23   5    4.85    0.42
   2  23  -5    4.11    0.39
  -2  23   5    3.95    0.45
  -2  23   5    3.46    0.42
   2  23  -5    3.94    0.36
   1 -23  -5    5.29    0.55
  -1 -23   5    5.40    0.51
  -1  23   5    6.12    0.56
   1  23  -5    5.87    0.45
  -1  23   5    5.50    0.50
   1  23  -5    5.88    0.49
   0 -23  -5   19.67    1.35
   0 -23   5   20.91    1.38
   0  23  -5   17.78    1.32
   0  23  -5   17.81    1.23
   0  23   5   17.72    1.32
   1 -23   5    1.09    0.20
   1 -23   5    0.89    0.21
  -1 -23  -5    0.94    0.22
  -1  23  -5    0.72    0.18
  -1  23  -5    0.72    0.20
   1  23   5    0.57    0.20
   2 -23   5   14.33    1.02
  -2 -23  -5   14.16    1.01
   2 -23   5   12.64    0.99
   3 -23   5    0.21    0.17
   3 -23   5    0.14    0.16
  -3 -23  -5    0.28    0.19
   3  23   5    0.41    0.17
  -3  23  -5    0.54    0.17
  -3  23  -5    0.39    0.19
   4 -23   5    3.72    0.38
   4 -23   5    4.56    0.40
  -4 -23  -5    4.69    0.41
   4  23   5    4.62    0.41
  -4  23  -5    4.80    0.42
  -4  23  -5    3.99    0.39
  -5 -23  -5    0.07    0.15
   5 -23   5    0.15    0.13
   5 -23   5    0.15    0.14
  -5  23  -5   -0.04    0.14
  -5  23  -5    0.12    0.15
   5  23   5    0.09    0.15
   6 -23   5    2.96    0.30
   6 -23   5    2.81    0.26
  -6 -23  -5    3.00    0.28
  -6  23  -5    3.07    0.28
   6  23   5    2.98    0.30
  -6  23  -5    2.48    0.27
  -5 -24   5    0.32    0.14
  -5  24   5    0.34    0.15
  -5  24   5    0.06    0.15
   5  24  -5    0.11    0.11
  -5  24   5    0.02    0.14
   4 -24  -5    8.62    0.74
  -4 -24   5    9.04    0.75
  -4  24   5   10.51    0.73
   4  24  -5   10.56    0.72
  -4  24   5   10.66    0.76
  -4  24   5   10.71    0.74
  -3 -24   5    3.26    0.36
   3  24  -5    3.81    0.33
   3  24  -5    3.10    0.31
  -3  24   5    3.81    0.36
  -3  24   5    3.51    0.38
  -2  24   5   11.07    0.81
   2  24  -5   10.34    0.73
  -2  24   5   10.75    0.80
   2  24  -5   11.07    0.79
   1 -24  -5    0.30    0.20
  -1 -24   5    0.31    0.19
   1  24  -5    0.67    0.17
  -1  24   5    0.58    0.19
   1  24  -5    0.89    0.16
  -1  24   5    0.70    0.23
   0 -24   5    5.41    0.46
   0 -24  -5    5.43    0.47
   0  24  -5    4.87    0.44
   0  24  -5    4.74    0.40
   0  24   5    4.44    0.44
   1 -24   5    0.81    0.18
   1 -24   5    0.56    0.19
  -1 -24  -5    0.71    0.20
   1  24   5    0.10    0.17
  -1  24  -5    0.44    0.16
  -1  24  -5    0.41    0.18
   2 -24   5    4.43    0.41
  -2 -24  -5    4.70    0.44
   2  24   5    4.61    0.42
  -2  24  -5    4.42    0.37
  -3 -24  -5    1.39    0.29
   3 -24   5    1.49    0.26
   3 -24   5    1.24    0.24
   4 -24   5    7.21    0.53
  -4 -24  -5    6.78    0.53
   4 -24   5    6.61    0.51
   4  24   5    6.91    0.53
  -4  24  -5    5.99    0.53
   5 -24   5    0.18    0.13
   5 -24   5    0.30    0.12
  -5 -24  -5    0.23    0.13
   5  24   5    0.25    0.14
  -5  24  -5    0.19    0.13
  -4 -25   5    1.10    0.23
   4  25  -5    1.42    0.20
  -4  25   5    1.30    0.24
  -4  25   5    1.23    0.22
  -3 -25   5    1.37    0.24
  -3  25   5    1.08    0.19
  -3  25   5    1.15    0.24
   3  25  -5    1.42    0.22
  -2  25   5    2.75    0.35
   2  25  -5    3.68    0.33
  -2  25   5    2.86    0.32
  -1 -25   5    0.91    0.18
   1 -25  -5    0.86    0.19
   1  25  -5    0.57    0.16
  -1  25   5    0.86    0.20
  -1  25   5    0.59    0.17
   1  25  -5    0.47    0.15
   0 -25   5   12.74    0.89
   0 -25  -5   12.02    0.87
   0  25  -5   11.69    0.85
   0  25   5   11.79    0.86
   0  25  -5   10.99    0.79
   1 -25   5    0.84    0.18
  -1 -25  -5    0.70    0.18
   1 -25   5    0.56    0.18
   1  25   5    0.48    0.17
  -1  25  -5    0.31    0.16
  -1  25  -5    0.46    0.17
   2 -25   5    9.01    0.75
   2 -25   5    9.92    0.77
  -2 -25  -5   10.46    0.76
   2  25   5   11.54    0.75
  -3 -25  -5    0.44    0.16
   3 -25   5    0.29    0.14
   3 -25   5    0.56    0.15
   3  25   5    0.70    0.15
   4 -25   5    2.59    0.26
   4 -25   5    2.47    0.28
  -4 -25  -5    2.46    0.28
   4  25   5    3.21    0.28
  -3 -26   5    1.18    0.22
  -3  26   5    1.35    0.21
   3  26  -5    1.50    0.20
  -3  26   5    1.23    0.24
  -2 -26   5    4.72    0.40
  -2  26   5    4.26    0.38
  -2  26   5    4.91    0.41
   2  26  -5    4.50    0.38
  -1  26   5    1.20    0.21
   1  26  -5    1.10    0.22
  -1  26   5    1.22    0.24
   0 -26  -5    2.89    0.33
   0 -26   5    3.11    0.31
   0  26  -5    2.75    0.30
   0  26   5    2.81    0.30
   1  26   5    2.29    0.28
  -1  26  -5    2.00    0.28
   2 -26   5    1.87    0.26
  -2 -26  -5    1.81    0.27
   2  26   5    2.03    0.25
   3 -26   5    0.82    0.14
   3 -26   5    1.08    0.20
  -3 -26  -5    0.69    0.16
   3  26   5    0.45    0.14
  -2 -27   5    1.38    0.20
  -2  27   5    0.98    0.20
  -2  27   5    1.08    0.23
   1 -27  -5    1.46    0.27
   1  27  -5    2.12    0.24
  -1  27   5    2.45    0.29
  -1  27   5    2.23    0.24
   0 -27  -5    5.87    0.47
   0 -27   5    5.77    0.48
   0  27  -5    5.91    0.46
   0  27   5    6.50    0.47
  -1 -27  -5    2.18    0.26
   1 -27   5    1.95    0.24
   1  27   5    2.17    0.24
  -1  27  -5    2.34    0.26
 -11   0   6    1.02    0.17
 -11   0   6    1.33    0.19
 -10   0   6    1.55    0.24
 -10   0   6    1.70    0.24
  -9   0   6    0.52    0.15
  -9   0   6    0.63    0.14
  -9   0   6    0.57    0.16
  -8   0   6    0.36    0.13
  -8   0   6    0.63    0.19
  -8   0   6    0.49    0.16
  -8   0   6    0.54    0.16
  -7   0   6    0.81    0.16
  -7   0   6    0.73    0.15
  -7   0   6    1.05    0.22
  -7   0   6    0.80    0.67
  -7   0   6    0.94    0.20
  -6   0   6   31.44    2.17
  -6   0   6   29.98    2.27
  -6   0   6   32.27    2.03
  -6   0   6   30.78    2.17
  -6   0   6   34.27    2.48
  -5   0   6   -0.04    0.38
  -5   0   6    0.52    0.11
  -5   0   6    0.33    0.35
  -4   0   6   33.98    2.43
  -4   0   6   33.51    2.52
  -4   0   6   35.00    2.19
  -3   0   6    2.52    0.42
  -3   0   6    2.33    0.46
  -3   0   6    2.18    0.19
  -2   0   6   87.37    5.39
  -2   0   6   82.24    6.01
  -2   0   6   84.74    5.76
  -1   0   6   17.57    1.37
  -1   0   6   18.34    1.31
   0   0   6   12.61    0.89
   0   0   6   11.26    0.92
   0   0   6   10.47    0.93
   1   0   6    0.38    0.32
   1   0   6    0.37    0.25
   1   0   6    0.54    0.26
   2   0   6    5.98    0.59
   2   0   6    5.98    0.70
   2   0   6    6.52    0.64
   3   0   6    3.54    0.58
   3   0   6    3.07    0.67
   4   0   6   54.80    3.97
   4   0   6   54.60    3.84
   5   0   6   -0.08    0.66
  -6   0  -6   20.61    1.49
  -6   0  -6   21.12    1.44
  -6   0  -6   20.79    1.46
  -6   0  -6   19.71    1.59
  -7   0  -6    0.65    0.16
  -7   0  -6    0.67    0.20
  -7   0  -6    0.44    0.23
  -7   0  -6    0.62    0.18
  -8   0  -6    2.10    0.29
  -8   0  -6    1.58    0.29
  -8   0  -6    1.59    0.32
  -9   0  -6    0.33    0.15
  -9   0  -6    0.36    0.21
  -9   0  -6    0.45    0.17
 -10   0  -6    5.90    0.46
 -10   0  -6    5.96    0.47
 -11  -1   6    0.35    0.10
 -11   1   6    0.26    0.11
 -11   1   6    0.12    0.10
 -10  -1   6    6.04    0.48
 -10  -1   6    5.74    0.48
 -10   1   6    6.50    0.48
 -10   1   6    6.37    0.48
  -9   1   6    0.73    0.17
  -9   1   6    0.66    0.18
  -9   1   6    0.69    0.14
  -9   1   6    0.85    0.17
  -8   1   6    3.73    0.34
  -8   1   6    4.49    0.39
  -8   1   6    4.26    0.38
  -8   1   6    3.79    0.44
  -7  -1   6    0.67    0.20
  -7  -1   6    0.65    0.15
  -7  -1   6    0.44    0.14
  -7  -1   6   -0.10    0.64
  -7  -1   6    0.53    0.14
  -7  -1   6    0.50    0.24
  -7   1   6    0.97    0.71
  -6  -1   6   28.49    1.94
  -6  -1   6   24.98    2.14
  -6  -1   6   28.83    1.94
  -6  -1   6   28.07    2.03
  -6  -1   6   27.70    2.22
  -6  -1   6   30.63    1.82
  -6   1   6   28.93    1.82
  -6   1   6   28.15    2.22
  -6   1   6   28.12    2.04
  -6   1   6   28.59    1.94
  -6   1   6   27.56    1.94
  -5  -1   6    5.22    0.70
  -5  -1   6    4.86    0.70
  -5  -1   6    4.98    0.36
  -5   1   6    4.79    0.72
  -5   1   6    5.10    0.68
  -5   1   6    4.86    0.36
  -4  -1   6   10.06    0.59
  -4  -1   6    9.39    0.82
  -4  -1   6    7.99    0.81
  -4   1   6    7.47    0.81
  -4   1   6    8.71    0.58
  -4   1   6    8.15    0.82
  -3  -1   6    4.19    0.53
  -3  -1   6    3.76    0.52
  -3  -1   6    4.25    0.31
  -3   1   6    5.36    0.51
  -2  -1   6   55.72    3.66
  -2  -1   6   51.67    3.50
  -2  -1   6   58.50    3.25
  -2   1   6   45.94    3.24
  -2   1   6   48.03    3.66
  -2   1   6   45.95    3.50
  -1  -1   6   15.85    1.16
  -1  -1   6   16.62    1.22
  -1  -1   6   15.83    1.02
  -1   1   6   16.11    1.18
  -1   1   6   14.41    1.22
   0  -1   6   36.46    2.76
   0  -1   6   38.25    2.89
   0  -1   6   36.37    2.76
   0   1   6   43.51    2.90
   0   1   6   46.36    2.79
   0   1   6   39.65    2.76
   1  -1   6    1.62    0.29
   1  -1   6    1.76    0.40
   1  -1   6    2.26    0.39
   2  -1   6   15.80    1.19
   2  -1   6   15.80    1.15
   2   1   6   14.40    1.16
   2   1   6   12.53    1.15
   2   1   6   13.30    1.10
   3  -1   6   -0.04    0.43
   3  -1   6    0.27    0.33
   3   1   6    0.53    0.43
   3   1   6    0.93    0.35
   4  -1   6   43.10    3.14
   4  -1   6   41.40    3.22
   4   1   6   45.44    3.25
   4   1   6   46.00    3.16
   5  -1   6    0.89    0.71
   5   1   6    0.04    0.56
   5   1   6    0.99    0.73
  -6  -1  -6    9.63    0.66
  -6  -1  -6    9.44    0.69
  -6  -1  -6    8.28    0.68
  -6  -1  -6    8.70    0.76
  -6   1  -6    8.06    0.76
  -6   1  -6    9.49    0.66
  -6   1  -6    9.11    0.69
  -6   1  -6    7.60    0.67
  -7  -1  -6    1.68    0.28
  -7  -1  -6    1.29    0.29
  -7  -1  -6    1.21    0.23
  -7   1  -6    1.87    0.27
  -7   1  -6    1.78    0.30
  -7   1  -6    1.67    0.29
  -8  -1  -6    4.80    0.39
  -8  -1  -6    4.42    0.41
  -8  -1  -6    4.60    0.45
  -8  -1  -6    4.07    0.52
  -8   1  -6    3.65    0.40
  -8   1  -6    4.14    0.40
  -8   1  -6    3.91    0.43
  -9  -1  -6    0.84    0.17
  -9  -1  -6    0.54    0.22
  -9  -1  -6    0.66    0.16
  -9   1  -6    0.52    0.16
  -9   1  -6    0.43    0.21
  -9   1  -6    0.36    0.16
 -10  -1  -6    2.34    0.25
 -10  -1  -6    2.25    0.24
 -10   1  -6    1.97    0.24
 -10   1  -6    1.80    0.24
 -10   1  -6    2.02    0.30
 -11  -2   6    1.02    0.16
 -11   2   6    1.06    0.18
 -11   2   6    0.94    0.16
 -10  -2   6    0.51    0.15
 -10  -2   6    1.00    0.20
 -10   2   6    0.80    0.15
 -10   2   6    0.74    0.14
  -9   2   6    0.90    0.19
  -9   2   6    0.91    0.17
  -9   2   6    1.23    0.26
  -9   2   6    0.69    0.14
  -8  -2   6    2.20    0.33
  -8  -2   6    2.32    0.34
  -8  -2   6    2.19    0.28
  -8   2   6    3.56    0.33
  -8   2   6    3.16    0.29
  -8   2   6    3.21    0.38
  -8   2   6    3.55    0.33
  -7  -2   6    0.60    0.13
  -7  -2   6    0.62    0.20
  -7  -2   6    0.54    0.15
  -7  -2   6    0.39    0.14
  -7  -2   6    0.51    0.64
  -7  -2   6    0.17    0.22
  -7   2   6    1.66    0.74
  -6  -2   6   14.34    1.26
  -6  -2   6   13.00    1.03
  -6  -2   6   13.81    0.91
  -6  -2   6   13.77    0.85
  -6  -2   6   12.90    0.98
  -6  -2   6   12.67    0.91
  -6   2   6   13.00    1.29
  -6   2   6   12.01    0.97
  -6   2   6   11.95    0.91
  -6   2   6   11.67    0.85
  -6   2   6   12.58    0.91
  -5  -2   6    5.92    0.74
  -5  -2   6    5.99    0.42
  -5  -2   6    6.02    0.75
  -5   2   6    6.09    0.77
  -5   2   6    5.45    0.72
  -5   2   6    5.60    0.41
  -4  -2   6   65.58    3.93
  -4  -2   6   66.01    4.26
  -4  -2   6   65.72    4.44
  -4   2   6   59.80    3.93
  -4   2   6   60.22    4.43
  -4   2   6   52.90    4.25
  -3   2   6   17.49    1.35
  -2   2   6    5.86    0.58
  -2   2   6    5.59    0.39
  -2   2   6    5.42    0.58
  -1  -2   6    3.46    0.41
  -1  -2   6    3.47    0.43
  -1  -2   6    2.61    0.24
  -1  -2   6    3.15    0.52
  -1   2   6    4.06    0.45
   0  -2   6   17.11    1.40
   0  -2   6   18.57    1.33
   0  -2   6   16.93    1.37
   0   2   6   18.90    1.41
   0   2   6   20.93    1.37
   1  -2   6    1.65    0.35
   1  -2   6    1.75    0.40
   1  -2   6    2.31    0.41
   1   2   6    1.85    0.32
   1   2   6    2.18    0.43
   1   2   6    2.57    0.51
   2  -2   6    3.93    0.63
   2  -2   6    4.45    0.57
   2   2   6    4.55    0.54
   2   2   6    3.92    0.62
   2   2   6    5.18    0.57
   3   2   6    1.40    0.49
   3   2   6    1.30    0.40
   4   2   6    4.72    0.90
   4   2   6    5.50    0.78
   5  -2   6    2.88    0.81
   5   2   6    3.40    0.68
   5   2   6    3.18    0.87
  -6  -2  -6   31.18    2.08
  -6  -2  -6   31.58    2.27
  -6  -2  -6   31.55    2.10
  -6  -2  -6   31.08    2.14
  -6   2  -6   28.87    2.10
  -6   2  -6   27.16    2.07
  -6   2  -6   27.86    2.14
  -7  -2  -6    1.06    0.20
  -7  -2  -6    1.14    0.26
  -7  -2  -6    1.61    0.26
  -7  -2  -6    1.32    0.22
  -7   2  -6    1.56    0.26
  -7   2  -6    1.19    0.20
  -7   2  -6    1.10    0.21
  -8  -2  -6    5.08    0.48
  -8  -2  -6    3.91    0.52
  -8  -2  -6    4.71    0.44
  -8  -2  -6    4.88    0.43
  -9   2  -6    0.29    0.20
  -9   2  -6    0.38    0.15
  -9   2  -6    0.44    0.16
 -10   2  -6    2.04    0.26
 -10   2  -6    2.36    0.31
 -10   2  -6    2.48    0.26
 -10  -3   6    4.07    0.37
 -10  -3   6    4.27    0.36
 -10   3   6    4.21    0.36
 -10   3   6    4.03    0.35
  -9  -3   6    0.61    0.15
  -9  -3   6    0.48    0.17
  -9  -3   6    0.66    0.16
  -9   3   6    0.89    0.16
  -9   3   6    0.67    0.14
  -9   3   6    0.93    0.19
  -8   3   6    1.53    0.34
  -7  -3   6    3.89    0.46
  -7  -3   6    4.85    1.02
  -7  -3   6    4.32    0.34
  -7  -3   6    4.23    0.37
  -7  -3   6    4.02    0.37
  -7   3   6    2.22    0.90
  -6  -3   6   15.30    1.09
  -6  -3   6   15.90    1.16
  -6  -3   6   16.34    1.48
  -6  -3   6   14.92    1.29
  -6  -3   6   15.61    1.16
  -6  -3   6   15.48    1.24
  -6   3   6   18.40    1.23
  -6   3   6   19.19    1.54
  -6   3   6   17.61    1.17
  -6   3   6   18.67    1.09
  -5  -3   6    3.10    0.67
  -5  -3   6    3.73    0.68
  -5  -3   6    3.93    0.30
  -5   3   6    3.97    0.31
  -5   3   6    4.50    0.70
  -5   3   6    3.89    0.69
  -4  -3   6   13.64    0.95
  -4  -3   6   13.97    1.16
  -4  -3   6   14.81    1.20
  -4   3   6   15.72    1.20
  -4   3   6   15.53    0.95
  -4   3   6   14.04    1.19
  -3  -3   6    9.28    0.60
  -3  -3   6    8.89    0.78
  -3  -3   6   10.04    0.79
  -3   3   6    8.91    0.80
  -3   3   6    8.72    0.81
  -3   3   6    8.31    0.60
  -2  -3   6   10.04    0.75
  -2  -3   6   10.01    0.93
  -2   3   6   13.42    0.76
  -2   3   6   13.20    0.95
  -1  -3   6   10.28    0.69
  -1  -3   6   10.47    0.89
  -1  -3   6   10.42    0.84
  -1  -3   6   11.39    0.87
   0  -3   6    6.21    0.56
   0  -3   6    5.31    0.64
   0  -3   6    5.91    0.51
   0   3   6    5.12    0.56
   0   3   6    4.81    0.57
   1  -3   6    4.21    0.50
   1  -3   6    4.68    0.57
   1   3   6    3.93    0.53
   1   3   6    3.62    0.58
   1   3   6    3.35    0.51
   2   3   6    8.12    0.77
   2   3   6    6.99    0.75
   2   3   6    7.91    0.80
   3  -3   6    6.16    0.83
   3  -3   6    6.30    0.76
   3   3   6    8.12    0.81
   3   3   6    6.22    0.88
   3   3   6    7.94    0.81
   4  -3   6   22.90    1.94
   4   3   6   24.61    2.03
   4   3   6   27.34    2.02
   5  -3   6    5.59    1.08
   5   3   6    3.65    0.98
   5   3   6    5.13    1.06
  -6  -3  -6    7.43    0.53
  -6  -3  -6    5.89    0.56
  -6  -3  -6    7.35    0.63
  -6  -3  -6    7.16    0.55
  -6   3  -6    6.23    0.54
  -6   3  -6    5.99    0.52
   6   3   6    5.15    1.07
  -7  -3  -6    0.37    0.17
  -7  -3  -6    0.57    0.17
  -7  -3  -6    0.39    0.21
  -7  -3  -6    0.36    0.24
  -7   3  -6    0.52    0.19
  -7   3  -6    0.55    0.17
  -8  -3  -6    0.80    0.18
  -8  -3  -6    0.94    0.23
  -8  -3  -6    0.41    0.24
  -8   3  -6    0.49    0.17
  -8   3  -6    0.65    0.17
  -8   3  -6    0.34    0.20
  -9  -3  -6    4.34    0.40
  -9  -3  -6    4.92    0.38
  -9  -3  -6    5.11    0.49
  -9   3  -6    3.73    0.39
  -9   3  -6    3.70    0.39
  -9   3  -6    4.09    0.44
 -10  -3  -6    0.92    0.16
 -10  -3  -6    0.93    0.19
 -10   3  -6    0.85    0.15
 -10   3  -6    1.08    0.20
 -10   3  -6    0.95    0.17
 -10  -4   6    0.40    0.15
 -10  -4   6    0.64    0.14
 -10   4   6    0.70    0.14
 -10   4   6    0.91    0.19
 -10   4   6    0.82    0.16
  -9  -4   6    2.18    0.39
  -9  -4   6    2.18    0.29
  -9  -4   6    2.31    0.33
   9   4  -6    3.40    0.32
  -9   4   6    3.64    0.32
  -9   4   6    3.19    0.36
  -9   4   6    3.27    0.32
  -9   4   6    3.14    0.28
  -8  -4   6    0.71    0.21
  -8  -4   6    0.67    0.17
  -8   4   6    0.30    0.19
  -8   4   6    0.34    0.14
  -8   4   6    0.33    0.15
  -8   4   6    0.33    0.15
  -7  -4   6    6.84    0.50
  -7  -4   6    6.47    1.14
  -7  -4   6    5.94    0.58
  -7  -4   6    6.39    0.46
  -7  -4   6    6.28    0.50
  -7   4   6    6.18    0.56
  -7   4   6    6.20    0.50
  -7   4   6    5.64    0.46
  -7   4   6    6.27    0.50
  -6  -4   6    6.16    0.58
  -6  -4   6    6.75    0.47
  -6  -4   6    6.71    0.92
  -6  -4   6    6.54    0.51
  -6  -4   6    6.54    0.51
  -6   4   6    7.09    0.97
  -6   4   6    6.48    0.51
  -6   4   6    6.67    0.55
  -6   4   6    6.21    0.47
  -6   4   6    6.65    0.51
  -5  -4   6   10.19    1.06
  -5  -4   6   11.84    1.06
  -5  -4   6   10.56    0.74
  -5   4   6   12.26    1.09
  -5   4   6   11.43    0.75
  -5   4   6   11.36    1.05
  -4  -4   6   15.14    1.17
  -4  -4   6   16.51    0.95
  -4  -4   6   15.80    1.21
  -4   4   6   12.66    1.19
  -4   4   6   14.10    0.95
  -4   4   6   12.35    1.17
  -3   4   6    5.88    0.65
  -3   4   6    6.74    0.65
  -3   4   6    6.92    0.45
  -2  -4   6    9.83    0.79
  -2  -4   6    8.91    0.81
  -2  -4   6    9.78    0.63
  -2   4   6    9.47    0.83
  -2   4   6    9.60    0.81
  -2   4   6    9.36    0.63
  -1  -4   6    3.30    0.43
  -1  -4   6    4.00    0.42
  -1  -4   6    3.22    0.26
  -1  -4   6    3.23    0.56
   0  -4   6    4.29    0.47
   0  -4   6    3.86    0.55
   0  -4   6    4.11    0.45
   0   4   6    3.30    0.50
   1  -4   6    8.83    0.85
   1  -4   6    8.95    0.89
   1   4   6   10.77    0.90
   1   4   6   11.01    0.86
   1   4   6   10.77    0.90
   2  -4   6    2.05    0.48
   2  -4   6    2.68    0.51
   2   4   6    2.47    0.56
   2   4   6    3.41    0.55
   2   4   6    2.98    0.54
   3  -4   6    5.67    0.81
   3   4   6    6.12    0.83
   3   4   6    6.10    0.77
   3   4   6    5.84    0.88
   4   4   6    2.59    0.78
   4   4   6    2.50    0.59
   5  -4   6   16.60    1.73
   5   4   6   17.74    1.89
   5   4   6   22.44    1.79
  -6  -4  -6    9.32    0.66
  -6  -4  -6    9.22    0.69
  -6  -4  -6    8.33    0.69
  -6  -4  -6    9.48    0.76
  -6   4  -6    8.04    0.66
   6   4   6    8.52    1.56
  -6   4  -6    8.20    0.68
  -6   4  -6    8.42    0.65
  -7  -4  -6    5.22    0.57
  -7  -4  -6    5.42    0.47
  -7  -4  -6    4.71    0.51
  -7  -4  -6    5.20    0.49
  -7   4  -6    5.95    0.46
  -7   4  -6    5.41    0.48
  -7   4  -6    5.71    0.48
  -8  -4  -6    1.18    0.26
  -8  -4  -6    1.54    0.28
  -8  -4  -6    0.85    0.20
  -9  -4  -6    1.12    0.26
  -9   4  -6    1.54    0.25
  -9   4  -6    1.41    0.23
  -9   4  -6    1.68    0.26
 -10  -4  -6    0.62    0.14
 -10  -4  -6    0.66    0.16
 -10   4  -6    0.60    0.14
 -10   4  -6    0.68    0.17
 -10   4  -6    0.75    0.14
 -10  -5   6    0.37    0.14
 -10  -5   6    0.49    0.13
 -10   5   6    0.64    0.15
 -10   5   6    0.60    0.14
 -10   5   6    0.59    0.13
  -9  -5   6    2.17    0.35
  -9  -5   6    2.15    0.29
  -9  -5   6    2.17    0.26
  -9  -5   6    1.97    0.30
  -9   5   6    2.24    0.28
  -9   5   6    2.64    0.29
   9   5  -6    2.29    0.27
  -9   5   6    2.08    0.25
  -9   5   6    2.04    0.32
  -8  -5   6    1.53    0.36
  -8  -5   6    1.68    0.24
  -8  -5   6    1.31    0.28
  -8  -5   6    1.46    0.27
  -8   5   6    1.06    0.22
  -8   5   6    1.28    0.28
   8   5  -6    1.02    0.19
  -8   5   6    1.39    0.27
  -8   5   6    1.25    0.18
  -7  -5   6   13.33    1.04
  -7  -5   6   14.70    0.93
  -7  -5   6   13.69    1.41
  -7  -5   6   14.28    0.94
  -7  -5   6   14.83    0.87
  -7   5   6   11.92    0.93
  -7   5   6   11.60    0.98
  -7   5   6   11.79    0.87
  -7   5   6   11.15    0.93
  -6  -5   6    2.70    0.40
  -6  -5   6    2.76    0.32
  -6  -5   6    2.95    0.62
  -6  -5   6    2.72    0.33
  -6  -5   6    3.35    0.30
  -6   5   6    4.15    0.30
  -6   5   6    3.83    0.34
  -6   5   6    4.60    0.98
  -6   5   6    3.93    0.33
  -6   5   6    3.79    0.38
  -5  -5   6   12.03    1.07
  -5  -5   6   12.88    1.08
  -5  -5   6   12.28    0.74
  -5   5   6    9.52    0.74
  -5   5   6    8.92    1.03
  -4  -5   6    8.48    0.86
  -4  -5   6    8.28    0.87
  -4   5   6   10.65    0.91
  -4   5   6   10.87    0.92
  -3  -5   6    4.79    0.59
  -3  -5   6    4.45    0.37
  -3  -5   6    4.88    0.56
  -3   5   6    5.75    0.61
  -3   5   6    6.19    0.62
  -3   5   6    5.82    0.37
  -2  -5   6    7.19    0.46
  -2  -5   6    7.16    0.73
  -2  -5   6    7.07    0.65
  -2  -5   6    6.37    0.63
  -2   5   6    7.25    0.68
  -2   5   6    5.67    0.69
   2   5  -6    6.60    0.46
  -2   5   6    6.47    0.46
  -1  -5   6    4.62    0.47
  -1  -5   6    4.77    0.62
  -1  -5   6    4.51    0.49
  -1  -5   6    4.29    0.32
   0  -5   6   10.08    0.88
   0  -5   6   10.87    0.83
   0   5   6   10.09    0.86
   0   5   6    9.87    0.86
   0   5  -6    9.07    0.66
   1  -5   6    2.82    0.57
   1  -5   6    3.12    0.46
   1   5   6    3.12    0.53
   1   5   6    3.32    0.52
   2   5   6    3.94    0.67
   2   5   6    3.87    0.63
   2   5   6    3.88    0.62
   3   5   6   11.07    1.07
   3   5   6   10.64    1.16
   3   5   6   10.13    1.07
   4  -5   6   10.87    1.15
   4   5   6   10.76    1.17
   4   5   6    9.78    1.33
   5   5   6    6.94    1.52
   5   5   6    9.21    1.29
  -6  -5  -6    2.32    0.32
  -6  -5  -6    2.48    0.34
  -6  -5  -6    2.37    0.42
  -6   5  -6    2.79    0.38
  -6   5  -6    3.25    0.31
  -6   5  -6    3.47    0.34
   6   5   6    3.13    1.09
  -7  -5  -6    2.96    0.37
  -7  -5  -6    3.08    0.36
  -7  -5  -6    2.28    0.46
  -7   5  -6    3.43    0.35
  -7   5  -6    3.14    0.37
  -7   5  -6    3.76    0.35
  -8  -5  -6    0.35    0.17
  -8  -5  -6    0.23    0.18
  -8  -5  -6    0.05    0.23
  -9  -5  -6    2.50    0.39
  -9  -5  -6    2.05    0.31
  -9  -5  -6    2.10    0.29
  -9   5  -6    2.32    0.28
  -9   5  -6    2.00    0.33
  -9   5  -6    2.52    0.29
 -10  -5  -6    0.37    0.13
 -10  -5  -6    0.44    0.18
 -10  -5  -6    0.22    0.12
 -10  -6   6    0.71    0.14
 -10  -6   6    0.83    0.15
 -10  -6   6    0.67    0.17
  -9  -6   6    6.16    0.45
  -9  -6   6    5.73    0.55
  -9  -6   6    6.05    0.50
  -9  -6   6    6.34    0.48
  -9   6   6    6.01    0.45
  -9   6   6    5.78    0.48
  -9   6   6    5.97    0.49
   9   6  -6    6.22    0.46
  -9   6   6    5.99    0.52
  -8  -6   6    0.36    0.16
  -8  -6   6    0.23    0.14
  -8  -6   6    0.47    0.20
  -8  -6   6    0.33    0.17
  -8   6   6    0.26    0.14
  -8   6   6    0.25    0.19
   8   6  -6    0.26    0.16
  -8   6   6    0.37    0.15
  -8   6   6    0.46    0.16
  -7  -6   6    3.45    0.44
  -7  -6   6    4.32    0.39
  -7  -6   6    3.87    0.34
  -7  -6   6    3.88    0.39
  -7  -6   6    4.59    1.04
   7   6  -6    4.34    0.36
  -7   6   6    4.64    0.38
  -7   6   6    4.07    0.35
  -7   6   6    3.94    0.43
  -7   6   6    3.97    0.38
  -6  -6   6    3.09    0.62
  -6  -6   6    2.99    0.34
  -6   6   6    1.98    0.25
  -6   6   6    1.98    0.33
  -6   6   6    2.01    0.27
  -6   6   6    2.48    0.46
  -6   6   6    2.00    0.28
  -5  -6   6   22.61    1.85
  -5  -6   6   24.53    1.54
  -5  -6   6   26.62    1.92
  -5   6   6   21.24    1.84
  -5   6   6   23.55    1.54
  -5   6   6   24.41    1.89
  -4  -6   6    0.86    0.39
  -4  -6   6    1.10    0.40
  -4  -6   6    1.29    0.18
  -4   6   6    1.27    0.38
  -4   6   6    1.71    0.45
  -3  -6   6   23.32    1.81
  -3  -6   6   23.00    1.61
  -3  -6   6   23.40    1.88
  -3   6   6   27.28    1.61
   3   6  -6   25.91    1.61
  -3   6   6   24.45    1.84
  -3   6   6   28.28    1.91
  -2  -6   6    2.91    0.22
  -2  -6   6    3.07    0.45
  -2  -6   6    3.19    0.47
  -2  -6   6    3.23    0.45
  -2   6   6    2.19    0.23
   2   6  -6    2.12    0.21
  -2   6   6    2.58    0.48
  -2   6   6    2.09    0.43
  -1  -6   6    1.11    0.14
  -1  -6   6    1.35    0.28
  -1  -6   6    1.02    0.38
  -1  -6   6    1.49    0.29
   0   6   6    1.14    0.35
   0   6  -6    0.77    0.11
   0   6   6    0.62    0.33
   1  -6   6    7.28    0.76
   1  -6   6    7.22    0.66
   1   6   6    5.93    0.73
   1   6   6    5.84    0.71
   2  -6   6    4.57    0.70
   2   6   6    3.59    0.59
   2   6   6    3.43    0.65
   2   6   6    3.10    0.65
   3  -6   6   14.23    1.26
   3   6   6   12.72    1.42
   3   6   6   13.74    1.30
   3   6   6   15.26    1.32
   4  -6   6    3.62    0.71
   4   6   6    3.04    0.91
   4   6   6    2.62    0.89
   4   6   6    2.20    0.67
  -5  -6  -6   29.66    2.45
  -5  -6  -6   30.16    2.23
  -5   6  -6   33.91    2.30
  -5   6  -6   30.52    2.23
   5   6   6   35.18    2.72
  -5   6  -6   34.46    2.25
  -6  -6  -6    3.62    0.35
  -6  -6  -6    3.35    0.38
  -6  -6  -6    2.84    0.48
   6   6   6    2.50    1.14
  -6   6  -6    2.91    0.38
  -6   6  -6    4.16    0.37
  -6   6  -6    3.59    0.35
  -7  -6  -6   12.17    0.99
  -7  -6  -6   12.27    1.08
  -7  -6  -6   12.10    0.96
  -7   6  -6   12.77    1.01
  -7   6  -6   13.93    0.97
  -7   6  -6   14.88    0.96
  -7   6  -6   13.86    0.98
  -8  -6  -6    0.73    0.20
  -8  -6  -6    0.53    0.26
  -8  -6  -6    1.04    0.19
  -8   6  -6    0.92    0.18
  -8   6  -6    1.08    0.18
  -8   6  -6    1.02    0.22
 -10  -6  -6    0.85    0.19
 -10  -6  -6    0.67    0.14
 -10  -6  -6    0.84    0.14
 -10   6  -6    0.52    0.16
 -10   6  -6    0.40    0.12
 -10   6  -6    0.63    0.13
 -10   7   6    2.87    0.27
 -10   7   6    2.71    0.30
 -10   7   6    2.91    0.28
   9   7  -6    2.27    0.28
  -9   7   6    2.16    0.28
  -9   7   6    2.77    0.30
  -9   7   6    2.77    0.33
  -9   7   6    2.42    0.26
  -8  -7   6    1.21    0.27
  -8  -7   6    1.32    0.24
  -8  -7   6    1.61    0.24
  -8  -7   6    1.05    0.20
  -8   7   6    1.81    0.26
  -8   7   6    1.75    0.29
  -8   7   6    1.63    0.34
  -8   7   6    1.48    0.25
   8   7  -6    1.81    0.26
  -7  -7   6   14.28    1.17
  -7  -7   6   14.63    1.07
  -7  -7   6   15.05    0.99
  -7  -7   6   14.39    1.06
   7   7  -6   15.46    1.00
  -7   7   6   15.25    1.06
  -7   7   6   14.34    1.06
  -7   7   6   14.62    1.00
  -7   7   6   16.51    1.16
  -7   7   6   15.18    1.13
  -6  -7   6    0.66    0.14
  -6  -7   6    0.65    0.20
  -6  -7   6    1.08    0.59
  -6  -7   6    0.75    0.16
  -6  -7   6    1.12    0.24
   6   7  -6    0.73    0.15
  -6   7   6    0.72    0.20
  -6   7   6    0.91    0.16
  -6   7   6    1.24    0.24
  -6   7   6    0.87    0.16
  -6   7   6    1.14    0.28
  -5  -7   6   10.16    0.63
  -5  -7   6    9.26    1.04
  -5  -7   6    8.66    0.67
  -5  -7   6    8.40    0.75
  -5  -7   6    9.24    0.67
  -5   7   6    8.80    0.73
  -5   7   6    8.14    1.00
  -5   7   6    8.89    0.67
  -5   7   6   10.38    0.63
  -5   7   6    9.09    0.68
  -4  -7   6    8.58    1.00
  -4   7   6   11.23    1.01
  -4   7   6   10.49    0.98
   4   7  -6   11.12    0.71
  -4   7   6   11.29    0.72
  -3  -7   6    3.10    0.27
  -3  -7   6    3.64    0.56
  -3  -7   6    2.57    0.57
  -3   7   6    4.30    0.58
  -3   7   6    3.35    0.61
  -3   7   6    3.67    0.29
  -2  -7   6    0.18    0.29
  -2  -7   6    0.27    0.29
  -2  -7   6    0.26    0.38
  -2  -7   6    0.25    0.09
  -2   7   6   -0.05    0.31
   2   7  -6    0.12    0.09
  -2   7   6    0.20    0.11
  -2   7   6    0.33    0.31
  -1  -7   6    3.52    0.44
  -1  -7   6    3.33    0.47
  -1  -7   6    3.09    0.25
  -1  -7   6    2.27    0.50
   0  -7   6    0.12    0.38
   0  -7   6    0.50    0.26
   0   7  -6    0.36    0.10
   0   7   6    0.14    0.36
   0   7   6    0.61    0.34
   1   7   6    1.78    0.47
   1   7   6    2.56    0.56
   2  -7   6    2.56    0.56
   2   7   6    3.01    0.69
   2   7   6    3.57    0.72
   3  -7   6   22.66    1.67
   3   7   6   21.82    1.81
   3   7   6   20.46    1.91
   3   7   6   20.08    1.80
   4  -7   6    1.98    0.61
   4   7   6    1.02    0.71
   4   7   6    2.46    1.00
   4   7   6    1.85    0.87
  -5  -7  -6   16.62    1.19
  -5  -7  -6   15.34    1.28
  -5  -7  -6   16.38    1.15
  -5   7  -6   17.12    1.18
  -5   7  -6   15.96    1.15
   5   7   6   15.72    1.79
  -5   7  -6   17.03    1.14
  -5   7  -6   14.01    1.18
  -6  -7  -6    6.86    0.59
  -6  -7  -6    6.18    0.72
  -6  -7  -6    6.94    0.62
  -6   7  -6    8.01    0.58
   6   7   6    8.10    1.70
  -6   7  -6    7.94    0.62
  -6   7  -6    8.48    0.60
  -6   7  -6    8.10    0.61
  -7  -7  -6    3.48    0.53
  -7  -7  -6    4.55    0.41
  -7   7  -6    4.25    0.43
  -7   7  -6    4.10    0.45
  -7   7  -6    5.16    0.40
  -7   7  -6    4.39    0.41
  -8  -7  -6    3.04    0.51
  -8  -7  -6    3.07    0.40
  -8   7  -6    4.78    0.39
  -8   7  -6    4.39    0.41
  -9  -7  -6    2.01    0.37
  -9  -7  -6    1.61    0.27
  -9   7  -6    2.35    0.27
  -9   7  -6    2.17    0.30
  -9   7  -6    2.59    0.27
 -10  -7  -6    0.34    0.13
 -10  -7  -6    0.57    0.17
 -10  -7  -6    0.46    0.12
 -10   7  -6    0.84    0.17
 -10  -8   6    1.38    0.21
 -10  -8   6    1.11    0.25
 -10   8   6    1.80    0.25
 -10   8   6    1.70    0.22
 -10   8   6    1.92    0.20
  -9  -8   6    0.45    0.16
  -9   8   6    0.58    0.15
  -9   8   6    0.45    0.14
  -9   8   6    0.34    0.18
   9   8  -6    0.41    0.15
  -9   8   6    0.30    0.14
  -8   8   6    1.20    0.23
  -8   8   6    1.14    0.29
   8   8  -6    1.32    0.25
  -8   8   6    1.50    0.26
  -8   8   6    1.65    0.26
  -8   8   6    1.86    0.29
  -7  -8   6    2.05    0.31
  -7  -8   6    2.53    0.28
  -7  -8   6    2.28    0.31
  -7  -8   6    2.28    0.38
  -7   8   6    2.19    0.27
  -7   8   6    1.59    0.38
   7   8  -6    2.58    0.29
  -7   8   6    3.01    0.32
  -7   8   6    2.55    0.48
  -6  -8   6    5.41    0.48
  -6  -8   6    5.39    0.96
  -6  -8   6    5.59    0.43
  -6   8   6    4.38    0.42
   6   8  -6    4.31    0.39
  -6   8   6    4.65    0.42
  -6   8   6    4.34    0.54
  -5  -8   6   18.96    1.48
  -5  -8   6   20.85    1.65
  -5  -8   6   18.73    1.35
  -5  -8   6   20.86    1.26
  -5  -8   6   19.17    1.34
  -5   8   6   19.91    1.43
  -5   8   6   18.78    1.35
  -5   8   6   19.05    1.26
  -5   8   6   18.46    1.42
   5   8  -6   19.45    1.26
  -5   8   6   18.90    1.35
  -4  -8   6    9.42    0.91
  -4   8   6    8.03    0.95
  -4   8   6    9.35    0.91
  -4   8   6    8.44    0.59
   4   8  -6    7.49    1.01
   4   8  -6    8.29    0.58
  -3  -8   6   20.49    1.68
  -3  -8   6   21.51    1.74
  -3  -8   6   21.86    1.45
   3   8  -6   23.10    1.45
  -3   8   6   24.64    1.46
  -3   8   6   23.34    1.76
  -3   8   6   22.44    1.71
  -2   8   6    3.06    0.56
  -2   8   6    3.04    0.53
   2   8  -6    2.79    0.24
  -2   8   6    3.28    0.28
  -1   8   6    7.66    0.79
  -1   8   6    7.02    0.80
   1   8  -6    7.99    0.52
   0  -8   6    0.15    0.44
   0   8   6    1.08    0.36
   0   8  -6    0.70    0.11
   0   8   6    1.08    0.42
   1   8   6    0.60    0.38
  -1   8  -6    0.51    0.12
   1   8   6    0.64    0.46
   2   8   6    5.22    0.85
   2   8   6    4.21    0.72
   3  -8   6    8.30    1.01
   3   8   6    8.78    1.09
   3   8   6   10.16    1.43
   3   8   6    7.86    1.17
   4  -8   6   10.09    1.15
   4   8   6    7.76    1.53
   4   8   6    6.62    1.29
   4   8   6    7.57    1.23
  -5  -8  -6   17.80    1.41
  -5  -8  -6   19.24    1.27
  -5  -8  -6   19.60    1.33
  -5   8  -6   18.18    1.28
  -5   8  -6   16.76    1.26
   5   8   6   15.75    1.98
  -5   8  -6   17.64    1.32
  -5   8  -6   17.43    1.31
  -6  -8  -6    2.02    0.45
  -6   8  -6    1.93    0.32
  -6   8  -6    2.09    0.28
  -6   8  -6    2.17    0.30
  -6   8  -6    2.02    0.30
   6   8   6    0.49    1.16
  -7  -8  -6   22.74    1.92
  -7  -8  -6   23.35    1.73
  -7  -8  -6   24.79    1.79
  -7   8  -6   25.29    1.73
  -7   8  -6   25.69    1.79
  -7   8  -6   25.26    1.78
  -7   8  -6   25.73    1.76
  -8   8  -6    1.21    0.23
  -8   8  -6    1.73    0.29
  -8   8  -6    1.31    0.23
  -8   8  -6    1.58    0.26
  -9  -8  -6    1.03    0.18
  -9  -8  -6    1.19    0.24
  -9  -8  -6    1.17    0.25
  -9   8  -6    1.02    0.19
  -9   8  -6    1.58    0.23
  -9   8  -6    1.51    0.23
 -10  -8  -6    0.64    0.17
 -10  -8  -6    0.50    0.12
 -10  -8  -6    0.69    0.15
 -10   8  -6    0.53    0.12
 -10   8  -6    0.44    0.14
 -10   8  -6    0.32    0.12
 -10  -9   6    1.01    0.21
 -10  -9   6    1.19    0.23
 -10  -9   6    1.33    0.20
 -10   9   6    1.62    0.19
 -10   9   6    1.21    0.22
 -10   9   6    1.26    0.20
  -9   9   6    1.77    0.24
   9   9  -6    1.79    0.25
  -9   9   6    1.32    0.29
  -9   9   6    1.53    0.25
  -9   9   6    1.50    0.21
  -8   9   6    3.13    0.34
  -8   9   6    2.61    0.30
   8   9  -6    2.65    0.29
  -8   9   6    2.64    0.47
  -8   9   6    2.21    0.38
  -8   9   6    2.88    0.32
  -7  -9   6    5.20    0.47
  -7  -9   6    5.27    0.43
  -7  -9   6    5.56    0.53
  -7  -9   6    5.04    0.47
  -7   9   6    5.96    0.59
  -7   9   6    5.93    0.47
  -7   9   6    5.67    0.44
  -7   9   6    5.98    0.47
  -7   9   6    5.45    0.53
   7   9  -6    5.62    0.44
  -6   9   6    5.31    0.54
  -6   9   6    5.56    0.47
  -6   9   6    5.01    0.59
  -6   9   6    5.41    0.43
  -6   9   6    5.96    0.46
   6   9  -6    6.13    0.43
  -5  -9   6    9.98    0.83
  -5  -9   6   10.70    1.19
  -5  -9   6   10.27    0.78
  -5   9   6   12.22    0.84
  -5   9   6   11.73    0.91
   5   9  -6   12.17    0.78
  -5   9   6   12.47    0.84
  -5   9   6   11.75    0.92
  -5   9   6   12.66    0.79
  -4  -9   6    3.41    0.78
  -4  -9   6    3.54    0.77
   4   9  -6    2.68    0.67
  -4   9   6    3.08    0.58
  -4   9   6    4.01    0.32
  -4   9   6    3.95    0.82
   4   9  -6    4.11    0.32
  -3  -9   6    3.49    0.29
  -3  -9   6    3.75    0.70
  -3  -9   6    2.71    0.64
  -3  -9   6    3.84    0.69
  -3   9   6    3.99    0.32
  -3   9   6    3.26    0.67
  -3   9   6    2.98    0.64
   2   9  -6    3.49    0.28
  -2   9   6    4.08    0.32
  -2   9   6    3.47    0.62
  -2   9   6    3.63    0.60
  -1  -9   6    3.44    0.75
  -1   9   6    6.20    0.69
  -1   9   6    5.23    0.72
   1   9  -6    5.17    0.36
   0  -9   6    1.31    0.47
   0   9  -6    0.73    0.14
   0   9   6    0.73    0.46
   0   9   6    0.71    0.40
  -1   9  -6    2.53    0.24
   1   9   6    3.55    0.64
   1   9   6    3.25    0.68
   2   9   6   17.35    1.53
   2   9   6   17.07    1.54
   3  -9   6    8.07    1.16
   3   9   6   12.06    1.25
   3   9   6   11.61    1.35
   4   9   6    9.13    1.53
  -4   9  -6    7.97    0.64
   4   9   6    7.84    1.28
   4   9   6    7.00    1.30
  -5  -9  -6    3.81    0.51
  -5   9  -6    4.25    0.38
   5   9   6    2.66    1.04
  -5   9  -6    4.29    0.39
  -5   9  -6    4.14    0.39
  -6  -9  -6    7.04    0.58
  -6  -9  -6    7.06    0.62
  -6   9  -6    6.79    0.60
  -6   9  -6    7.70    0.59
  -6   9  -6    8.01    0.58
  -6   9  -6    7.35    0.60
   6   9   6    4.91    1.38
  -7  -9  -6    4.31    0.39
  -7  -9  -6    4.19    0.42
  -7  -9  -6    3.03    0.52
  -7   9  -6    4.16    0.40
  -7   9  -6    3.93    0.39
  -7   9  -6    3.77    0.42
  -7   9  -6    3.55    0.41
  -8  -9  -6    1.20    0.28
  -8  -9  -6    1.48    0.31
  -8  -9  -6    1.49    0.28
  -8   9  -6    1.86    0.30
  -9   9  -6    1.15    0.22
  -9   9  -6    0.81    0.17
  -9   9  -6    0.99    0.21
 -10  -9  -6    1.15    0.17
 -10  -9  -6    1.35    0.21
 -10   9  -6    1.07    0.20
 -10   9  -6    1.31    0.19
 -10   9  -6    0.99    0.18
 -10 -10   6    0.70    0.14
 -10 -10   6    0.71    0.14
 -10 -10   6    0.92    0.18
 -10  10   6    0.67    0.12
 -10  10   6    0.67    0.14
  -9 -10   6    0.30    0.15
  -9 -10   6    0.34    0.14
  -9 -10   6    0.61    0.16
  -9  10   6    1.13    0.23
  -9  10   6    0.56    0.17
  -9  10   6    0.80    0.15
  -9  10   6    0.60    0.16
  -8 -10   6    1.39    0.27
  -8 -10   6    1.08    0.19
  -8  10   6    1.03    0.18
  -8  10   6    1.24    0.27
   8  10  -6    0.81    0.16
  -8  10   6    0.88    0.26
  -8  10   6    0.74    0.23
  -8  10   6    0.82    0.18
  -7  10   6    2.62    0.33
  -7  10   6    3.23    0.33
  -7  10   6    2.20    0.31
   7  10  -6    2.82    0.29
  -7  10   6    2.43    0.30
  -7  10   6    2.74    0.46
  -6 -10   6   11.36    0.69
  -6 -10   6   10.71    0.74
  -6 -10   6   11.15    0.81
  -6 -10   6   11.09    0.74
  -6  10   6    9.17    0.72
  -6  10   6    8.73    0.81
  -6  10   6    8.55    0.80
  -6  10   6    9.12    0.69
  -6  10   6    9.26    0.73
   6  10  -6    9.09    0.68
  -5  10   6    2.03    0.28
  -5  10   6    2.05    0.40
   5  10  -6    2.46    0.25
  -5  10   6    2.35    0.30
  -5  10   6    1.98    0.28
  -5  10   6    1.56    0.37
  -4 -10   6   18.43    1.15
  -4 -10   6   17.82    1.47
  -4 -10   6   17.83    1.27
  -4 -10   6   19.57    1.45
  -4  10   6   16.58    1.08
  -4  10   6   13.98    1.15
   4  10  -6   13.97    1.53
   4  10  -6   15.63    1.07
  -4  10   6   14.49    1.21
  -4  10   6   15.64    1.16
  -3 -10   6   20.12    1.29
  -3 -10   6   19.53    1.61
  -3 -10   6   18.19    1.66
  -3 -10   6   20.76    1.63
   3  10  -6   19.86    1.29
  -3  10   6   19.13    1.62
   3  10  -6   20.51    1.63
  -3  10   6   20.51    1.30
  -3  10   6   20.13    1.63
  -2  10   6    5.45    0.40
  -2  10   6    4.66    0.76
  -2  10   6    4.22    0.78
   2  10  -6    4.76    0.36
   1  10  -6    8.30    0.55
  -1  10   6    7.85    0.88
  -1  10   6    8.29    0.87
   0 -10   6   12.69    1.16
   0  10   6   11.35    1.09
   0  10  -6   11.58    0.80
   0  10   6   13.44    1.15
   1  10   6    7.80    1.00
  -1  10  -6    7.94    0.57
   1  10   6    9.98    0.98
   2 -10   6    6.26    0.91
   2  10   6    6.10    0.94
   2  10   6    5.99    1.05
   3 -10   6    3.40    0.69
   3  10   6    4.66    0.98
   3  10   6    3.58    0.94
  -4 -10  -6    6.47    0.67
  -4 -10  -6    7.00    0.58
  -4  10  -6    6.85    0.56
  -4  10  -6    7.02    0.56
  -4  10  -6    7.34    0.56
   4  10   6    8.09    1.30
  -4  10  -6    6.55    0.56
  -5 -10  -6    7.86    0.67
  -5  10  -6    6.26    0.55
  -5  10  -6    6.62    0.54
  -5  10  -6    6.20    0.55
   5  10   6    5.35    1.14
  -5  10  -6    6.71    0.54
   6  10   6    3.73    1.29
  -6  10  -6    6.04    0.53
  -6  10  -6    6.18    0.51
  -6  10  -6    6.37    0.53
  -6  10  -6    6.92    0.54
  -7  10  -6    1.30    0.22
  -7  10  -6    1.51    0.31
  -7  10  -6    1.19    0.27
  -7  10  -6    1.29    0.20
  -8 -10  -6    2.69    0.46
  -8 -10  -6    2.66    0.38
  -8 -10  -6    2.83    0.34
  -8  10  -6    3.19    0.33
  -8  10  -6    3.64    0.36
  -8  10  -6    2.91    0.36
  -8  10  -6    3.45    0.34
  -9 -10  -6    3.66    0.36
  -9 -10  -6    3.68    0.40
  -9 -10  -6    3.49    0.33
  -9  10  -6    3.24    0.32
  -9  10  -6    3.25    0.34
  -9  10  -6    3.52    0.37
  -9  10  -6    3.37    0.33
 -10  10  -6    0.49    0.12
 -10  10  -6    0.49    0.11
 -10  10  -6    0.54    0.13
 -10 -11   6    1.92    0.21
 -10 -11   6    2.13    0.24
 -10 -11   6    1.55    0.22
  -9  11   6    0.59    0.17
  -9  11   6    0.89    0.16
  -9  11   6    1.10    0.22
  -9  11   6    0.72    0.15
  -8  11   6    7.33    0.56
  -8  11   6    8.47    0.68
  -8  11   6    7.41    0.64
   8  11  -6    7.65    0.55
  -8  11   6    7.74    0.60
  -8  11   6    7.91    0.59
  -7  11   6    3.73    0.35
  -7  11   6    2.77    0.45
   7  11  -6    3.54    0.34
  -7  11   6    3.84    0.50
  -7  11   6    4.37    0.38
  -7  11   6    3.66    0.37
  -6  11   6    2.96    0.47
  -6  11   6    3.74    0.48
  -6  11   6    4.12    0.37
  -6  11   6    4.07    0.39
   6  11  -6    4.42    0.34
  -6  11   6    3.99    0.37
  -5 -11   6    5.49    0.59
  -5 -11   6    7.26    1.07
  -5 -11   6    5.89    0.53
  -5 -11   6    6.00    0.53
  -5  11   6    7.01    0.55
   5  11  -6    7.54    0.49
  -5  11   6    7.20    0.53
  -5  11   6    7.54    0.52
  -5  11   6    7.42    0.62
  -5  11   6    6.30    0.62
  -4 -11   6    3.64    0.40
  -4 -11   6    3.67    0.83
  -4 -11   6    4.15    0.38
  -4 -11   6    3.85    0.35
  -4  11   6    3.69    0.35
  -4  11   6    3.56    0.40
  -4  11   6    3.45    0.48
   4  11  -6    3.92    0.32
  -4  11   6    2.89    0.41
  -4  11   6    3.71    0.36
  -3 -11   6   11.96    1.25
  -3 -11   6   12.48    1.12
  -3  11   6    8.60    1.17
  -3  11   6   11.39    0.77
   3  11  -6   10.86    0.74
  -3  11   6   11.10    1.13
  -2 -11   6    8.61    0.93
  -2 -11   6    8.46    1.08
  -2  11   6    8.90    0.61
  -2  11   6    6.64    0.98
  -2  11   6    8.80    0.95
   2  11  -6    8.49    0.57
  -1 -11   6    9.71    1.03
   1  11  -6    9.46    0.63
  -1  11   6   10.62    1.00
  -1  11   6    7.89    1.04
   0 -11   6   18.79    1.42
   0  11  -6   14.99    1.04
   0  11   6   17.35    1.42
   0  11   6   13.71    1.41
   1 -11   6    4.35    0.84
   1  11   6    2.15    0.64
   1  11   6    4.11    0.79
  -1  11  -6    3.58    0.29
   2 -11   6   11.61    1.20
   2  11   6   11.52    1.24
   2  11   6   10.28    1.35
   3  11   6    1.97    0.95
   3  11   6    3.59    0.79
  -4 -11  -6   15.25    1.16
  -4 -11  -6   15.64    1.30
   4  11   6   17.50    1.78
  -4  11  -6   16.44    1.16
  -4  11  -6   16.52    1.19
  -4  11  -6   16.65    1.16
  -4  11  -6   15.92    1.19
  -5  11  -6    5.53    0.48
  -5  11  -6    5.34    0.46
  -5  11  -6    5.79    0.47
   5  11   6    6.49    1.23
  -5  11  -6    5.29    0.48
  -6 -11  -6    1.46    0.32
  -6 -11  -6    2.16    0.33
  -6 -11  -6    1.79    0.37
  -6  11  -6    2.18    0.31
  -6  11  -6    1.81    0.31
  -6  11  -6    1.74    0.32
  -6  11  -6    1.98    0.30
  -7 -11  -6    0.35    0.20
  -7 -11  -6    0.49    0.18
  -7 -11  -6    0.19    0.27
  -7  11  -6    0.37    0.17
  -7  11  -6   -0.11    0.18
  -7  11  -6    0.05    0.16
  -7  11  -6    0.19    0.16
  -8 -11  -6    1.32    0.28
  -8 -11  -6    1.69    0.29
  -8 -11  -6    1.53    0.33
  -8  11  -6    2.53    0.31
  -8  11  -6    1.80    0.30
  -8  11  -6    2.39    0.27
  -9  11  -6    0.31    0.17
  -9  11  -6    0.23    0.14
  -9  11  -6    0.22    0.14
  -9  11  -6    0.39    0.14
  -9  12   6    4.14    0.36
  -9  12   6    4.30    0.39
  -9  12   6    4.31    0.37
  -8 -12   6    0.50    0.19
  -8  12   6    0.77    0.23
  -8  12   6    0.93    0.17
   8  12  -6    1.25    0.22
  -8  12   6    0.91    0.17
  -8  12   6    0.80    0.18
  -8  12   6    0.42    0.20
  -7  12   6    1.88    0.30
   7  12  -6    1.91    0.25
  -7  12   6    1.82    0.28
  -7  12   6    1.84    0.30
  -7  12   6    1.84    0.31
  -7  12   6    1.61    0.27
  -6  12   6    7.93    0.61
  -6  12   6    7.99    0.63
   6  12  -6    8.11    0.57
  -6  12   6    7.41    0.69
  -6  12   6    8.10    0.69
  -6  12   6    8.20    0.59
  -5 -12   6    0.76    0.17
  -5 -12   6    0.89    0.20
  -5 -12   6    1.37    0.75
  -5  12   6    0.57    0.23
  -5  12   6    0.71    0.19
  -5  12   6    0.81    0.17
  -5  12   6    0.74    0.18
  -5  12   6    0.66    0.25
  -4 -12   6   25.41    1.58
  -4 -12   6   25.50    1.73
  -4 -12   6   25.09    1.59
  -4 -12   6   27.04    1.93
  -4  12   6   19.48    1.58
  -4  12   6   20.48    1.64
  -4  12   6   21.68    1.68
  -4  12   6   21.61    1.49
   4  12  -6   21.02    1.47
  -4  12   6   21.29    1.59
  -3 -12   6    5.40    0.92
  -3 -12   6    5.18    0.46
  -3 -12   6    5.66    1.14
  -3 -12   6    4.95    0.50
   3  12  -6    5.80    0.40
  -3  12   6    5.40    0.45
  -3  12   6    5.45    0.46
  -3  12   6    4.96    0.48
  -2 -12   6   32.75    2.48
  -2  12   6   33.81    2.15
   2  12  -6   32.47    2.13
  -2  12   6   33.76    2.56
  -1 -12   6    5.90    0.93
   1  12  -6    5.42    0.41
  -1  12   6    5.57    0.93
  -1  12   6    6.40    0.89
   0 -12   6    7.07    1.02
   0  12   6    5.27    1.01
   0  12   6    7.82    0.94
   0  12  -6    6.45    0.47
   1 -12   6    7.85    1.10
  -1  12  -6    9.53    0.62
   1  12   6    7.76    1.09
   1  12   6   10.79    1.12
   2 -12   6    3.04    0.76
   2  12   6    2.98    0.87
   2  12   6    3.07    0.73
  -2  12  -6    3.05    0.29
  -3 -12  -6   11.50    0.83
  -3 -12  -6   11.66    0.91
  -3  12  -6    9.27    0.80
  -3  12  -6    9.97    0.81
   3  12   6   11.60    1.38
  -4 -12  -6    9.29    0.70
  -4 -12  -6    9.44    0.80
  -4  12  -6    8.96    0.69
  -4  12  -6    7.91    0.67
   4  12   6   10.06    1.46
  -4  12  -6    8.56    0.70
  -4  12  -6    8.72    0.68
  -5 -12  -6    3.47    0.50
   5  12   6    1.62    1.04
  -5  12  -6    2.80    0.33
  -5  12  -6    2.52    0.34
  -5  12  -6    2.88    0.35
  -5  12  -6    2.62    0.34
  -6 -12  -6    7.91    0.84
  -6 -12  -6    7.79    0.72
  -6 -12  -6    7.97    0.76
  -6  12  -6   10.28    0.72
  -6  12  -6    9.86    0.71
  -6  12  -6   10.16    0.73
  -6  12  -6   10.72    0.73
  -7 -12  -6    3.10    0.39
  -7 -12  -6    2.87    0.47
  -7 -12  -6    3.32    0.36
  -7  12  -6    2.73    0.34
  -7  12  -6    2.66    0.34
  -7  12  -6    2.25    0.36
  -7  12  -6    3.07    0.36
  -8  12  -6    3.79    0.37
  -8  12  -6    4.17    0.40
  -8  12  -6    4.23    0.38
  -8  12  -6    3.40    0.38
  -9  12  -6    0.33    0.13
  -9  12  -6    0.48    0.15
  -9  12  -6    0.45    0.14
  -9  12  -6    0.48    0.16
  -9 -13   6    0.90    0.16
  -9 -13   6    1.11    0.23
  -9 -13   6    0.64    0.14
  -9  13   6    0.84    0.14
  -9  13   6    0.90    0.14
  -9  13   6    0.70    0.16
  -8  13   6    2.47    0.30
  -8  13   6    2.58    0.29
  -8  13   6    2.69    0.31
   8  13  -6    2.47    0.27
  -8  13   6    2.02    0.34
  -8  13   6    2.79    0.38
  -7 -13   6    1.40    0.29
  -7 -13   6    1.02    0.20
  -7  13   6    1.61    0.26
  -7  13   6    0.88    0.20
  -7  13   6    1.04    0.24
  -7  13   6    1.09    0.21
   7  13  -6    1.23    0.23
  -7  13   6    1.55    0.28
  -6 -13   6    4.62    0.43
  -6 -13   6    4.92    0.43
  -6 -13   6    5.40    0.50
   6  13  -6    4.79    0.38
  -6  13   6    4.24    0.52
  -6  13   6    4.52    0.41
  -6  13   6    4.43    0.42
  -6  13   6    4.55    0.44
  -6  13   6    3.68    0.51
  -5 -13   6    2.56    0.32
  -5 -13   6    2.07    0.36
  -5 -13   6    1.87    0.31
  -5 -13   6    2.91    0.86
  -5  13   6    2.63    0.44
  -5  13   6    2.21    0.40
  -5  13   6    2.33    0.31
   5  13  -6    2.52    0.27
  -5  13   6    2.24    0.35
  -5  13   6    2.12    0.32
  -4 -13   6    4.84    0.42
  -4 -13   6    5.24    0.45
  -4 -13   6    4.94    0.48
  -4 -13   6    6.83    1.15
  -4  13   6    3.70    0.42
  -4  13   6    4.33    0.44
  -4  13   6    3.52    0.46
   4  13  -6    5.21    0.37
  -4  13   6    4.61    0.51
  -4  13   6    3.92    0.45
  -3 -13   6    7.87    0.72
  -3 -13   6    7.79    0.67
  -3 -13   6    8.32    1.17
  -3  13   6   10.01    0.77
   3  13  -6    8.82    0.60
  -3  13   6    8.84    0.66
  -3  13   6    8.75    0.71
  -3  13   6    8.71    0.65
  -3  13   6    8.86    0.71
  -2  13   6   10.93    0.82
  -2  13   6   10.77    0.86
   2  13  -6   11.74    0.75
  -1 -13   6    5.44    0.99
  -1  13   6    5.82    0.93
  -1  13   6    5.67    0.87
   1  13  -6    5.68    0.42
   0  13   6    4.30    0.83
   0  13   6    7.31    1.02
   0  13  -6    5.80    0.42
   1 -13   6    1.66    0.71
   1  13   6    1.41    0.63
   1  13   6    2.17    0.81
  -1  13  -6    2.15    0.24
   2 -13   6    9.83    0.81
  -2  13  -6   11.01    0.72
  -2  13  -6   10.63    0.80
  -2  13  -6   10.18    0.81
   2  13   6   11.92    1.32
  -3 -13  -6    5.58    0.54
  -3 -13  -6    6.56    0.61
  -3  13  -6    5.34    0.48
  -3  13  -6    5.14    0.50
  -3  13  -6    5.55    0.54
   3  13   6    5.68    1.22
  -4 -13  -6   10.10    0.84
  -4 -13  -6   11.04    0.95
  -4  13  -6   11.57    0.84
  -4  13  -6    9.51    0.83
  -4  13  -6   11.09    0.83
   4  13   6   11.26    1.59
  -4  13  -6   12.12    0.83
  -5 -13  -6    4.82    0.54
  -5  13  -6    3.29    0.41
   5  13   6    3.40    1.13
  -5  13  -6    3.69    0.40
  -5  13  -6    3.77    0.40
  -5  13  -6    3.95    0.40
  -6 -13  -6    4.10    0.40
  -6 -13  -6    3.49    0.51
  -6 -13  -6    3.36    0.45
  -6  13  -6    3.18    0.40
  -6  13  -6    2.67    0.39
  -6  13  -6    3.74    0.38
  -6  13  -6    3.53    0.38
  -7  13  -6    5.53    0.48
  -7  13  -6    4.82    0.48
  -7  13  -6    5.34    0.48
  -7  13  -6    6.19    0.50
  -8 -13  -6    1.90    0.32
  -8 -13  -6    2.04    0.29
  -8 -13  -6    1.57    0.34
  -8  13  -6    2.34    0.30
  -8  13  -6    2.06    0.28
  -8  13  -6    1.82    0.28
  -8  13  -6    1.71    0.27
  -9 -13  -6    0.43    0.17
   9 -13   6    0.54    0.15
  -9 -13  -6    0.35    0.13
  -9 -13  -6    0.49    0.15
  -9  13  -6    0.68    0.14
  -9  13  -6    0.75    0.14
  -9  13  -6    0.71    0.14
  -9  13  -6    1.07    0.22
  -9 -14   6    1.75    0.23
  -9 -14   6    1.31    0.22
  -9 -14   6    1.48    0.21
  -9  14   6    1.73    0.22
  -9  14   6    1.20    0.20
  -8 -14   6    2.14    0.28
  -8 -14   6    3.12    0.34
  -8 -14   6    1.90    0.31
  -8  14   6    2.59    0.31
  -8  14   6    2.58    0.29
  -8  14   6    2.58    0.28
  -8  14   6    3.03    0.34
   8  14  -6    2.76    0.29
  -8  14   6    2.18    0.33
  -7 -14   6    0.53    0.18
  -7  14   6    0.14    0.17
   7  14  -6    0.20    0.13
  -7  14   6   -0.09    0.22
  -7  14   6    0.17    0.16
  -7  14   6    0.03    0.18
  -7  14   6   -0.10    0.21
  -6  14   6    1.24    0.26
  -6  14   6    1.40    0.28
   6  14  -6    1.44    0.24
  -6  14   6    1.09    0.21
  -6  14   6    1.25    0.22
  -5 -14   6    0.16    0.17
  -5 -14   6    0.38    0.20
  -5 -14   6    0.34    0.19
   5  14  -6    0.69    0.14
  -5  14   6    0.42    0.22
  -5  14   6    0.31    0.20
  -5  14   6    0.70    0.18
  -5  14   6    0.78    0.25
  -5  14   6    0.45    0.21
  -4 -14   6   30.99    2.39
  -4 -14   6   32.62    2.61
  -4 -14   6   32.02    2.38
  -4 -14   6   29.42    2.82
  -4  14   6   36.17    2.46
  -4  14   6   34.68    2.39
  -4  14   6   37.75    2.39
   4  14  -6   34.89    2.22
  -4  14   6   39.28    2.52
  -4  14   6   37.64    2.25
  -3 -14   6    3.29    0.45
  -3 -14   6    2.99    0.39
  -3  14   6    3.91    0.47
  -3  14   6    4.56    0.40
   3  14  -6    4.21    0.32
  -3  14   6    4.07    0.42
  -3  14   6    3.90    0.44
  -2 -14   6   21.92    1.70
  -2 -14   6   21.27    1.61
  -2 -14   6   22.94    1.56
   2  14  -6   22.62    1.44
  -2  14   6   21.41    1.60
  -2  14   6   21.77    1.55
  -2  14   6   23.68    1.60
  -1 -14   6    1.34    0.29
   1 -14  -6    0.94    0.19
  -1  14   6    0.63    0.62
  -1  14   6    0.73    0.19
  -1  14   6    0.57    0.21
   0 -14   6    3.10    0.37
   0  14  -6    2.53    0.26
   0  14   6    2.81    0.72
   0  14   6    2.74    0.38
  -1 -14  -6    0.51    0.21
   1 -14   6    0.55    0.19
  -1  14  -6    0.58    0.17
   1  14   6    0.79    0.24
  -1  14  -6    0.76    0.19
  -1  14  -6    0.73    0.14
   1  14   6    1.21    0.67
  -2 -14  -6    3.67    0.49
   2 -14   6    3.17    0.39
  -2  14  -6    3.03    0.31
   2  14   6    2.40    0.82
  -2  14  -6    3.77    0.38
   2  14   6    2.81    0.46
  -2  14  -6    2.93    0.35
  -3 -14  -6   13.01    0.85
   3  14   6   10.79    1.48
  -3  14  -6   10.22    0.85
  -3  14  -6   10.02    0.83
  -3  14  -6   10.65    0.83
   3  14   6   10.70    0.91
   4  14   6   13.14    1.65
  -4  14  -6   10.20    0.81
  -4  14  -6   11.02    0.82
  -4  14  -6   10.18    0.80
  -4  14  -6   10.11    0.81
  -5 -14  -6    1.33    0.28
  -5 -14  -6    1.45    0.28
  -5 -14  -6    1.56    0.23
  -5  14  -6    0.85    0.20
  -5  14  -6    0.97    0.22
  -5  14  -6    1.14    0.21
  -5  14  -6    1.02    0.20
  -6 -14  -6   13.28    1.15
  -6 -14  -6   11.80    1.08
  -6 -14  -6   12.60    1.03
  -6  14  -6   14.81    1.04
  -6  14  -6   16.22    1.06
  -6  14  -6   14.67    1.05
  -6  14  -6   14.69    1.02
  -7  14  -6    1.45    0.30
  -7  14  -6    1.63    0.29
  -7  14  -6    1.33    0.30
  -7  14  -6    1.94    0.32
   8 -14   6   10.67    0.87
  -8 -14  -6   10.83    0.85
  -8 -14  -6   11.34    0.94
  -8 -14  -6   11.53    0.88
  -8  14  -6   11.64    0.85
  -8  14  -6   12.27    0.87
  -8  14  -6   12.52    0.87
  -8  14  -6   12.18    0.84
  -9  14  -6    0.99    0.18
  -9  14  -6    1.06    0.19
  -9 -15   6    0.36    0.12
  -9 -15   6    0.49    0.12
  -9 -15   6    0.40    0.12
  -9  15   6    0.24    0.13
   9  15  -6    0.30    0.11
  -9  15   6    0.30    0.11
  -9  15   6    0.29    0.15
  -8  15   6    8.53    0.62
  -8  15   6    7.38    0.58
  -8  15   6    7.34    0.59
  -8  15   6    7.75    0.62
  -7 -15   6    0.65    0.19
  -7 -15   6    0.63    0.17
  -7  15   6    0.07    0.20
  -7  15   6    0.02    0.20
  -7  15   6    0.16    0.15
   7  15  -6    0.40    0.14
  -7  15   6    0.21    0.17
  -6 -15   6    1.63    0.30
  -6  15   6    1.33    0.25
  -6  15   6    1.46    0.20
  -6  15   6    0.90    0.21
  -6  15   6    0.85    0.24
  -6  15   6    1.24    0.23
   6  15  -6    1.46    0.22
  -5 -15   6    0.41    0.21
  -5 -15   6    0.24    0.19
  -5  15   6    0.81    0.22
  -5  15   6    0.65    0.22
  -5  15   6    0.50    0.22
  -5  15   6    0.91    0.19
  -4 -15   6    4.28    0.48
  -4 -15   6    3.05    0.45
  -4  15   6    4.52    0.42
  -4  15   6    3.93    0.46
  -4  15   6    4.20    0.43
  -4  15   6    4.65    0.50
  -4  15   6    3.84    0.46
  -3 -15   6    6.77    0.71
  -3 -15   6    6.82    0.67
  -3  15   6    9.46    0.66
  -3  15   6    8.59    0.71
  -3  15   6    9.08    0.66
   3  15  -6    9.32    0.59
  -3  15   6    8.43    0.69
  -2 -15   6   13.79    1.09
  -2  15   6   15.02    1.15
  -2  15   6   15.29    1.08
   2  15  -6   16.02    0.99
  -2  15   6   14.82    1.12
  -1  15   6    6.57    0.62
   1  15  -6    7.41    0.51
   1  15  -6    7.61    0.59
  -1  15   6    7.05    0.59
   0  15  -6    2.75    0.28
   0  15   6    2.94    0.37
   0  15   6    1.88    0.78
   0  15  -6    2.24    0.34
   0  15   6    2.91    0.41
   1  15   6    0.83    0.75
  -1  15  -6    1.50    0.23
  -1  15  -6    1.47    0.29
   1  15   6    1.80    0.27
  -1  15  -6    1.83    0.34
   2 -15   6    8.60    0.74
  -2 -15  -6    8.99    0.78
  -2  15  -6    9.56    0.64
  -2  15  -6    8.97    0.72
   2  15   6    9.31    0.76
  -2  15  -6    9.80    0.74
   2  15   6   10.38    1.36
  -3 -15  -6    3.76    0.52
   3 -15   6    3.10    0.40
  -3 -15  -6    3.34    0.46
  -3  15  -6    2.99    0.37
   3  15   6    2.71    0.93
  -3  15  -6    4.35    0.44
   3  15   6    3.45    0.51
  -3  15  -6    4.14    0.39
   4 -15   6    8.77    0.68
  -4  15  -6    7.73    0.66
   4  15   6   10.02    1.57
  -4  15  -6    7.92    0.67
  -4  15  -6    8.38    0.66
  -5 -15  -6    0.13    0.20
  -5 -15  -6    0.28    0.25
  -5 -15  -6    0.21    0.26
  -5  15  -6    0.35    0.20
  -5  15  -6    0.51    0.22
  -5  15  -6    0.41    0.17
  -5  15  -6    0.40    0.18
  -6 -15  -6    2.30    0.43
  -6 -15  -6    2.50    0.38
  -6  15  -6    2.77    0.35
  -6  15  -6    2.98    0.36
  -6  15  -6    2.72    0.36
  -6  15  -6    3.62    0.39
  -7 -15  -6    2.57    0.39
  -7 -15  -6    2.38    0.35
  -7 -15  -6    2.27    0.42
  -7  15  -6    3.32    0.35
  -7  15  -6    3.47    0.34
  -7  15  -6    3.34    0.33
  -7  15  -6    3.62    0.36
  -8 -15  -6    2.32    0.32
  -8 -15  -6    2.02    0.34
   8 -15   6    2.10    0.29
  -8 -15  -6    1.82    0.29
  -8  15  -6    2.98    0.29
  -8  15  -6    2.65    0.27
  -8  15  -6    2.80    0.28
  -8  16   6    1.14    0.23
  -8  16   6    1.25    0.21
  -8  16   6    0.81    0.17
  -8  16   6    1.33    0.26
  -7 -16   6    1.02    0.20
  -7 -16   6    1.14    0.18
  -7  16   6    1.30    0.19
   7  16  -6    0.94    0.16
  -7  16   6    1.17    0.25
  -7  16   6    1.39    0.22
  -7  16   6    1.10    0.20
  -7  16   6    1.02    0.21
  -6 -16   6    1.14    0.20
  -6 -16   6    1.27    0.22
   6  16  -6    0.81    0.16
  -6  16   6    1.01    0.19
  -6  16   6    1.10    0.23
  -6  16   6    1.20    0.24
  -6  16   6    1.06    0.22
  -6  16   6    0.67    0.21
  -5  16   6    0.48    0.23
  -5  16   6    0.07    0.22
  -5  16   6    0.11    0.22
  -5  16   6    0.26    0.18
   5  16  -6    0.49    0.14
  -4 -16   6    9.52    0.85
  -4 -16   6   10.56    0.90
  -4 -16   6   10.11    0.92
  -4  16   6   10.99    0.88
  -4  16   6   12.04    0.83
  -4  16   6   12.12    0.85
   4  16  -6   12.48    0.78
  -4  16   6   12.09    0.89
  -4  16   6   12.93    0.93
  -3 -16   6    6.36    0.51
   3  16  -6    5.71    0.43
  -3  16   6    5.39    0.53
  -3  16   6    5.45    0.50
  -3  16   6    5.52    0.55
  -3  16   6    5.08    0.55
  -2 -16   6   16.47    1.26
  -2 -16   6   16.36    1.28
  -2  16   6   17.88    1.30
  -2  16   6   17.21    1.29
  -2  16   6   18.21    1.25
   2  16  -6   18.58    1.15
  -1 -16   6    3.70    0.43
   1 -16  -6    4.62    0.46
  -1 -16   6    4.28    0.48
   1  16  -6    5.24    0.38
   1  16  -6    4.77    0.43
  -1  16   6    4.72    0.51
  -1  16   6    4.92    0.46
   0 -16  -6    0.64    0.20
   0  16   6    0.20    0.24
   0  16  -6    0.31    0.14
   0  16   6    0.17    0.19
   0  16  -6    0.32    0.20
  -1 -16  -6    1.42    0.32
   1 -16   6    1.22    0.21
  -1  16  -6    1.01    0.21
   1  16   6    1.23    0.25
  -1  16  -6    1.22    0.24
   1  16   6    0.05    0.81
  -2 -16  -6    0.84    0.26
   2 -16   6    0.78    0.20
  -2  16  -6    0.76    0.20
  -2  16  -6    0.55    0.15
   2  16   6    0.73    0.84
  -2  16  -6    0.66    0.18
   2  16   6    0.67    0.25
  -3 -16  -6    8.35    0.66
   3 -16   6    8.66    0.64
  -3  16  -6    7.24    0.61
   3  16   6    7.35    0.69
  -3  16  -6    6.63    0.62
  -3  16  -6    7.47    0.64
   3  16   6    5.94    1.13
  -4 -16  -6    2.17    0.41
  -4 -16  -6    2.47    0.48
   4 -16   6    2.22    0.37
  -4  16  -6    3.00    0.35
  -4  16  -6    2.66    0.34
  -4  16  -6    2.62    0.38
   4  16   6    1.95    0.35
  -5 -16  -6    1.60    0.31
  -5 -16  -6    1.23    0.25
  -5 -16  -6    1.42    0.28
   5 -16   6    1.15    0.24
  -5  16  -6    2.21    0.36
  -5  16  -6    1.69    0.24
  -5  16  -6    1.93    0.32
  -5  16  -6    1.93    0.34
  -6 -16  -6    7.40    0.69
  -6 -16  -6    6.72    0.61
   6 -16   6    6.28    0.62
  -6 -16  -6    6.83    0.66
  -6  16  -6    8.61    0.61
  -6  16  -6    8.30    0.61
  -6  16  -6    7.88    0.60
   7 -16   6    7.22    0.56
  -7 -16  -6    6.98    0.55
  -7 -16  -6    7.19    0.61
  -7 -16  -6    7.40    0.58
  -7  16  -6    5.74    0.54
  -7  16  -6    5.88    0.55
   8 -16   6    5.28    0.50
  -8 -16  -6    5.62    0.53
  -8 -16  -6    5.42    0.54
  -8 -16  -6    5.21    0.49
  -8  16  -6    6.96    0.50
  -8  16  -6    7.20    0.48
  -8  16  -6    6.88    0.49
  -8  16  -6    6.86    0.50
  -8  17   6    2.01    0.23
  -8  17   6    2.12    0.25
   8  17  -6    2.10    0.24
  -8  17   6    2.07    0.26
  -8  17   6    2.39    0.29
  -7  17   6    6.52    0.54
   7  17  -6    5.61    0.46
  -7  17   6    7.21    0.53
  -7  17   6    6.32    0.51
  -7  17   6    6.11    0.49
  -7  17   6    6.12    0.48
  -6 -17   6    0.64    0.18
  -6 -17   6    0.69    0.21
  -6 -17   6    0.24    0.18
   6  17  -6    0.37    0.14
  -6  17   6    0.27    0.19
  -6  17   6    0.11    0.16
  -6  17   6    0.34    0.21
  -6  17   6    0.30    0.19
  -6  17   6    0.31    0.20
  -5 -17   6    0.29    0.21
  -5 -17   6    0.34    0.18
  -5 -17   6    0.07    0.19
  -5 -17   6    0.33    0.23
  -5  17   6    0.59    0.22
  -5  17   6    0.44    0.21
  -5  17   6    0.45    0.23
  -4 -17   6    2.88    0.49
  -4 -17   6    1.83    0.26
  -4 -17   6    1.89    0.37
  -4 -17   6    1.72    0.35
  -4  17   6    2.03    0.35
  -4  17   6    2.16    0.39
  -4  17   6    1.74    0.28
  -4  17   6    1.68    0.37
  -3  17   6    2.96    0.44
  -3  17   6    2.58    0.45
  -3  17   6    2.58    0.39
  -2  17   6    2.02    0.40
  -2  17   6    2.80    0.38
  -2  17   6    2.75    0.52
   2  17  -6    2.86    0.33
   2  17  -6    2.84    0.30
  -1  17   6    3.19    0.42
   1  17  -6    3.20    0.37
   1  17  -6    3.37    0.32
  -1  17   6    2.76    0.39
   0  17   6    1.54    0.25
   0  17  -6    1.76    0.26
   0  17   6    1.96    0.42
   0  17  -6    1.67    0.24
   1 -17   6    4.29    0.46
  -1 -17  -6    3.76    0.58
   1  17   6    5.43    1.04
  -1  17  -6    5.25    0.39
   1  17   6    4.97    0.50
  -1  17  -6    5.01    0.47
  -2  17  -6    1.53    0.30
  -2  17  -6    0.88    0.19
  -2  17  -6    1.08    0.17
   2  17   6    1.98    0.95
   2  17   6    1.13    0.26
  -3 -17  -6   10.40    0.88
   3 -17   6   10.15    0.87
  -3  17  -6   12.89    0.88
  -3  17  -6   10.76    0.85
   3  17   6   11.33    0.88
  -3  17  -6   11.82    0.87
  -4 -17  -6    2.50    0.50
  -4 -17  -6    2.29    0.42
   4 -17   6    2.15    0.37
  -4  17  -6    3.67    0.37
  -4  17  -6    3.06    0.37
  -4  17  -6    3.29    0.39
   4  17   6    3.38    0.50
   5 -17   6    1.01    0.20
  -5 -17  -6    1.22    0.26
  -5 -17  -6    1.00    0.23
  -5  17  -6    1.04    0.21
  -5  17  -6    0.84    0.23
  -5  17  -6    0.75    0.19
  -6 -17  -6    1.59    0.36
   6 -17   6    0.91    0.21
  -6 -17  -6    1.14    0.24
  -6 -17  -6    1.38    0.23
  -6  17  -6    1.86    0.28
  -6  17  -6    1.79    0.30
   7 -17   6    3.14    0.34
  -7 -17  -6    3.02    0.34
  -7 -17  -6    3.51    0.37
  -7 -17  -6    3.62    0.38
  -7  17  -6    2.90    0.32
  -7  17  -6    2.85    0.33
  -7  17  -6    2.86    0.32
  -7  17  -6    2.75    0.32
  -8 -17  -6    1.62    0.28
   8 -17   6    2.07    0.26
  -8 -17  -6    1.92    0.28
  -8  17  -6    2.68    0.25
  -8  17  -6    2.75    0.24
  -8 -18   6    1.56    0.22
   8  18  -6    1.58    0.19
  -8  18   6    1.51    0.23
  -8  18   6    1.71    0.22
  -8  18   6    1.15    0.19
  -7 -18   6    0.70    0.17
  -7 -18   6    1.17    0.25
  -7 -18   6    0.62    0.18
  -7  18   6    1.05    0.21
  -7  18   6    0.92    0.18
  -7  18   6    1.00    0.17
  -7  18   6    0.82    0.18
   7  18  -6    1.14    0.20
  -6 -18   6    0.30    0.17
  -6 -18   6    0.51    0.20
  -6  18   6    0.20    0.19
  -6  18   6    0.08    0.16
   6  18  -6    0.27    0.14
   6  18  -6   -0.13    0.13
  -6  18   6   -0.01    0.17
  -6  18   6   -0.07    0.19
  -6  18   6   -0.13    0.18
  -5 -18   6    0.88    0.25
  -5 -18   6    0.59    0.21
  -5 -18   6    1.01    0.22
  -5 -18   6    0.87    0.20
  -5  18   6    0.88    0.21
  -5  18   6    0.92    0.23
  -5  18   6    0.82    0.24
   5  18  -6    1.21    0.23
  -5  18   6    1.14    0.20
  -5  18   6    1.32    0.25
  -4 -18   6    0.34    0.21
  -4 -18   6    0.60    0.19
  -4 -18   6    0.19    0.20
  -4  18   6   -0.12    0.22
  -4  18   6    0.43    0.25
   4  18  -6    0.29    0.14
   4  18  -6    0.08    0.15
  -4  18   6    0.32    0.19
  -4  18   6   -0.09    0.20
  -3 -18   6   34.01    2.01
  -3  18   6   29.04    2.01
  -3  18   6   28.07    2.06
  -3  18   6   28.37    2.03
  -3  18   6   28.43    1.90
   3  18  -6   27.61    1.87
   3  18  -6   27.09    1.99
   2 -18  -6    0.47    0.19
  -2 -18   6    0.61    0.18
  -2 -18   6    0.56    0.22
  -2  18   6    1.09    0.22
  -2  18   6    0.89    0.24
   0 -18  -6    0.26    0.21
   0 -18   6    0.29    0.18
   0  18  -6    0.27    0.20
   0  18   6    0.26    0.22
   0  18  -6    0.24    0.15
   1 -18   6    3.46    0.40
  -1 -18  -6    3.44    0.52
  -1  18  -6    3.83    0.41
  -2 -18  -6    2.60    0.46
   2 -18   6    2.50    0.37
   2 -18   6    2.22    0.38
  -2  18  -6    2.63    0.34
  -2  18  -6    2.78    0.47
   2  18   6    3.25    0.42
  -2  18  -6    2.90    0.31
   3 -18   6    6.19    0.52
  -3 -18  -6    5.49    0.56
  -3  18  -6    5.42    0.56
  -3  18  -6    5.80    0.50
   3  18   6    5.53    0.54
  -3  18  -6    5.34    0.47
  -4 -18  -6    1.28    0.25
   4 -18   6    1.19    0.21
   4  18   6    0.62    0.26
  -4  18  -6    0.69    0.20
  -4  18  -6    1.13    0.23
  -4  18  -6    0.80    0.20
  -5 -18  -6    6.50    0.54
  -5 -18  -6    6.33    0.60
  -5  18  -6    5.10    0.53
   6 -18   6    0.55    0.18
  -6 -18  -6    0.65    0.21
  -6 -18  -6    0.36    0.19
  -6 -18  -6    0.67    0.22
  -6  18  -6    0.95    0.18
  -6  18  -6    1.03    0.18
   7 -18   6   12.34    0.92
  -7 -18  -6   12.28    0.98
  -7 -18  -6   12.85    0.93
  -7 -18  -6   12.18    0.90
  -7  19   6    4.68    0.40
  -7  19   6    5.39    0.43
  -7  19   6    4.75    0.41
   7  19  -6    5.12    0.39
  -7  19   6    5.39    0.43
  -6 -19   6    0.91    0.20
  -6 -19   6    1.08    0.22
  -6 -19   6    1.34    0.27
  -6  19   6    1.60    0.26
  -6  19   6    1.30    0.28
  -6  19   6    1.34    0.30
   6  19  -6    1.39    0.23
  -6  19   6    1.59    0.29
  -6  19   6    1.98    0.29
   6  19  -6    1.70    0.22
  -5 -19   6    1.28    0.26
  -5  19   6    1.69    0.37
  -5  19   6    1.75    0.25
   5  19  -6    2.25    0.24
  -5  19   6    1.89    0.35
   5  19  -6    1.80    0.28
  -5  19   6    1.67    0.33
  -5  19   6    1.96    0.31
   4  19  -6    2.46    0.27
  -4  19   6    2.02    0.40
  -4  19   6    2.26    0.33
  -4  19   6    1.62    0.25
  -4  19   6    1.41    0.27
   4  19  -6    1.88    0.30
  -3 -19   6    5.70    0.48
  -3 -19   6    5.58    0.52
  -3  19   6    4.04    0.54
   3  19  -6    5.51    0.41
  -3  19   6    5.12    0.48
   3  19  -6    5.49    0.46
  -3  19   6    4.37    0.51
   2 -19  -6    1.53    0.32
  -2 -19   6    1.95    0.31
  -2 -19   6    1.45    0.25
   2  19  -6    1.14    0.20
   2  19  -6    1.58    0.27
  -2  19   6    1.33    0.25
  -2  19   6    1.01    0.23
  -2  19   6    1.24    0.31
  -1  19   6    1.97    0.36
   1  19  -6    2.39    0.29
   1  19  -6    1.93    0.34
  -1  19   6    2.04    0.41
   0 -19   6    1.52    0.30
   0  19  -6    1.63    0.26
   0  19   6    1.23    0.25
   0  19  -6    1.05    0.23
  -1  19  -6    1.08    0.21
  -1  19  -6    1.42    0.26
   1  19   6    1.29    0.24
   2 -19   6    1.69    0.30
   2 -19   6    1.17    0.23
  -2 -19  -6    1.18    0.27
  -2  19  -6    0.80    0.27
   2  19   6    0.96    0.24
  -2  19  -6    0.97    0.18
  -2  19  -6    1.03    0.20
  -3 -19  -6   10.57    0.92
   3 -19   6   10.54    0.91
   3  19   6   13.58    0.92
  -3  19  -6   12.49    0.92
  -3  19  -6   12.34    0.83
  -3  19  -6   12.49    0.91
  -4 -19  -6    0.28    0.22
   4 -19   6    0.46    0.19
   4  19   6    0.30    0.24
  -4  19  -6    0.67    0.18
  -4  19  -6    0.53    0.21
  -5 -19  -6    2.18    0.34
   5 -19   6    1.97    0.30
  -5  19  -6    1.86    0.32
   5  19   6    1.89    0.41
  -5  19  -6    1.63    0.32
  -6 -19  -6    1.80    0.33
  -6 -19  -6    1.81    0.33
   6 -19   6    1.76    0.26
  -6 -19  -6    1.73    0.29
  -6  19  -6    1.25    0.27
  -6  19  -6    1.67    0.31
  -6  19  -6    1.70    0.27
   7 -19   6    3.16    0.29
  -7 -19  -6    2.54    0.28
  -7 -19  -6    2.58    0.32
  -7 -19  -6    3.00    0.32
  -7  19  -6    2.75    0.28
  -7  19  -6    2.29    0.28
  -7  19  -6    2.28    0.27
  -7 -20   6    0.64    0.13
  -7 -20   6    0.68    0.16
  -7 -20   6    0.97    0.20
  -7  20   6    0.85    0.18
  -6 -20   6    2.89    0.31
  -6 -20   6    2.81    0.29
  -6 -20   6    2.63    0.35
  -6  20   6    2.44    0.30
  -6  20   6    1.86    0.30
   6  20  -6    2.28    0.26
  -6  20   6    2.73    0.31
  -6  20   6    2.20    0.28
  -5 -20   6    1.21    0.23
  -5 -20   6    1.15    0.26
   5  20  -6    1.86    0.25
  -5  20   6    2.42    0.32
  -5  20   6    2.24    0.29
  -5  20   6    1.99    0.31
   5  20  -6    2.31    0.26
  -5  20   6    1.95    0.33
  -4 -20   6    7.47    0.54
  -4 -20   6    7.05    0.56
  -4  20   6    6.21    0.53
   4  20  -6    5.86    0.51
  -4  20   6    5.72    0.57
   4  20  -6    6.63    0.47
  -4  20   6    6.21    0.56
  -4  20   6    5.86    0.57
  -3 -20   6   16.99    1.31
   3 -20  -6   17.15    1.31
  -3 -20   6   17.90    1.34
   3  20  -6   18.82    1.28
  -3  20   6   19.16    1.32
   3  20  -6   19.07    1.21
  -3  20   6   18.56    1.34
  -3  20   6   18.97    1.30
   2 -20  -6    0.29    0.18
  -2 -20   6    0.30    0.18
   2  20  -6    0.76    0.17
  -2  20   6    0.66    0.23
  -2  20   6    0.44    0.21
  -2  20   6    0.57    0.27
   2  20  -6    0.64    0.17
   1  20  -6    2.46    0.36
  -1  20   6    2.75    0.44
  -1  20   6    2.23    0.37
   1  20  -6    2.96    0.31
   0 -20  -6    6.66    0.73
   0 -20   6    7.58    0.65
   0  20   6    8.69    0.66
   0  20  -6    8.64    0.58
   0  20  -6    7.92    0.64
  -1 -20  -6    1.10    0.29
   1 -20   6    1.69    0.31
   2  20   6    1.82    0.26
  -2  20  -6    1.75    0.28
  -2  20  -6    1.67    0.29
  -2  20  -6    1.64    0.33
   3 -20   6    2.54    0.32
  -3 -20  -6    1.76    0.39
   3 -20   6    2.00    0.31
  -3  20  -6    2.05    0.33
  -3  20  -6    1.67    0.38
   3  20   6    1.93    0.37
  -3  20  -6    2.25    0.32
   4 -20   6    1.00    0.19
   4 -20   6    1.36    0.29
  -4 -20  -6    1.03    0.23
  -5  20  -6    1.50    0.28
  -5  20  -6    1.29    0.21
   5  20   6    1.76    0.36
   6 -20   6    4.16    0.37
  -6 -20  -6    3.85    0.36
  -6 -20  -6    3.82    0.42
  -6  20  -6    3.83    0.35
  -6  20  -6    3.57    0.36
  -7 -20  -6   13.28    1.05
   7 -20   6   14.38    0.95
   7 -20   6   14.15    0.98
  -7 -20  -6   13.79    0.96
  -7  20  -6   12.86    0.99
  -7  20  -6   13.10    0.96
  -6 -21   6    1.26    0.24
  -6 -21   6    1.13    0.21
   6 -21  -6    1.58    0.21
   6  21  -6    1.25    0.20
  -6  21   6    1.15    0.25
  -6  21   6    1.04    0.21
   5  21  -6    1.16    0.23
  -5  21   6    1.82    0.28
   5  21  -6    1.80    0.23
  -5  21   6    1.30    0.22
  -5  21   6    1.76    0.27
  -4 -21   6    8.55    0.59
   4 -21  -6    8.49    0.57
  -4  21   6    6.70    0.59
  -4  21   6    6.58    0.57
  -4  21   6    6.44    0.60
   4  21  -6    6.35    0.51
   4  21  -6    6.80    0.55
  -3 -21   6    3.98    0.38
   3 -21  -6    3.79    0.37
   3  21  -6    3.60    0.36
  -3  21   6    3.32    0.42
  -3  21   6    2.94    0.44
   3  21  -6    3.60    0.33
  -3  21   6    3.26    0.38
  -2  21   6    4.31    0.53
   2  21  -6    4.51    0.40
   2  21  -6    4.84    0.43
  -2  21   6    4.55    0.45
  -2  21   6    4.74    0.50
  -1 -21   6   12.34    0.95
   1  21  -6   12.74    0.85
   1  21  -6   12.61    0.92
  -1  21   6   12.75    0.94
   0  21   6    1.45    0.25
   0  21  -6    1.59    0.32
   0  21  -6    1.92    0.27
   1 -21   6    3.97    0.41
  -1 -21  -6    3.19    0.48
  -2  21  -6    1.62    0.27
  -2  21  -6    1.34    0.22
  -2  21  -6    1.77    0.29
   2  21   6    1.37    0.24
   3 -21   6    7.10    0.58
   3 -21   6    7.99    0.59
  -3 -21  -6    8.21    0.62
  -3  21  -6    7.08    0.63
  -3  21  -6    6.74    0.59
  -3  21  -6    6.59    0.55
   3  21   6    7.02    0.60
   4 -21   6    5.59    0.47
   4 -21   6    5.35    0.46
  -4 -21  -6    5.46    0.49
   4  21   6    5.60    0.50
  -4  21  -6    5.53    0.46
  -4  21  -6    5.10    0.49
  -5 -21  -6    0.84    0.18
   5 -21   6    0.69    0.16
   5 -21   6    0.73    0.15
  -5  21  -6    0.57    0.15
   5  21   6    0.58    0.20
  -5  21  -6    0.82    0.18
  -6 -21  -6    1.31    0.23
   6 -21   6    1.17    0.21
   6 -21   6    1.08    0.19
  -6  21  -6    1.26    0.21
  -6  21  -6    1.45    0.22
   6 -22  -6    0.84    0.18
   6  22  -6    1.34    0.18
  -6  22   6    1.28    0.21
   6  22  -6    0.91    0.19
  -6  22   6    1.04    0.20
  -6  22   6    0.92    0.14
   5 -22  -6    1.58    0.26
  -5 -22   6    1.70    0.28
  -5  22   6    2.79    0.29
  -5  22   6    2.33    0.27
   5  22  -6    2.52    0.24
  -5  22   6    2.03    0.29
   4 -22  -6    7.65    0.62
  -4 -22   6    8.10    0.63
  -4  22   6    8.60    0.64
   4  22  -6    7.60    0.56
   4  22  -6    7.78    0.60
  -4  22   6    8.33    0.61
  -4  22   6    8.38    0.64
  -3 -22   6   11.16    0.87
   3 -22  -6   10.87    0.85
  -3  22   6   12.18    0.85
   3  22  -6   11.67    0.83
   3  22  -6   11.43    0.78
  -3  22   6   11.35    0.88
  -3  22   6   12.18    0.87
  -2 -22   6    5.96    0.56
   2  22  -6    6.54    0.53
  -2  22   6    7.22    0.61
   2  22  -6    6.65    0.50
  -2  22   6    7.04    0.60
  -2  22   6    6.84    0.56
  -1 -22   6    5.08    0.45
  -1  22   6    4.79    0.45
   1  22  -6    4.60    0.39
   1  22  -6    4.73    0.44
   0 -22   6    2.80    0.35
   0 -22  -6    2.60    0.42
   0  22   6    1.69    0.35
   0  22  -6    2.23    0.28
   0  22  -6    1.86    0.34
  -1 -22  -6    0.48    0.24
   1  22   6    0.28    0.19
  -1  22  -6    0.40    0.16
   2 -22   6    1.58    0.34
   2 -22   6    2.44    0.32
  -2 -22  -6    2.14    0.37
  -2  22  -6    2.06    0.29
   2  22   6    2.63    0.35
  -3 -22  -6    1.69    0.32
   3 -22   6    1.35    0.28
   3  22   6    0.85    0.20
  -3  22  -6    1.28    0.27
  -3  22  -6    1.00    0.23
  -3  22  -6    1.03    0.23
   4 -22   6    2.39    0.29
  -4 -22  -6    1.62    0.32
  -4  22  -6    2.17    0.33
  -4  22  -6    2.75    0.29
   4  22   6    2.46    0.33
  -5 -22  -6    0.99    0.18
   5 -22   6    1.45    0.23
   5 -22   6    1.02    0.21
  -5  22  -6    1.32    0.25
   6 -22   6    5.40    0.42
   6 -22   6    5.43    0.40
  -6 -22  -6    5.47    0.41
  -6  22  -6    4.77    0.41
  -6  22  -6    4.95    0.41
  -5 -23   6    1.25    0.22
   5 -23  -6    1.20    0.19
   5  23  -6    1.03    0.18
  -5  23   6    0.99    0.16
  -5  23   6    0.93    0.19
  -5  23   6    1.24    0.23
   4  23  -6    1.81    0.22
  -4  23   6    1.66    0.29
  -4  23   6    1.77    0.25
  -4  23   6    1.70    0.29
  -3 -23   6    1.84    0.28
   3 -23  -6    1.93    0.28
   3  23  -6    2.23    0.27
  -3  23   6    2.25    0.35
   3  23  -6    1.90    0.24
  -3  23   6    1.63    0.33
  -3  23   6    2.39    0.30
  -2 -23   6    3.48    0.37
   2  23  -6    3.53    0.32
   2  23  -6    3.82    0.35
  -2  23   6    3.34    0.41
  -2  23   6    3.40    0.37
  -1 -23   6    6.15    0.56
  -1  23   6    7.03    0.55
   1  23  -6    6.50    0.49
   1  23  -6    7.15    0.54
   0 -23   6    3.57    0.42
   0  23   6    4.50    0.43
   0  23  -6    4.98    0.42
   0  23  -6    4.72    0.37
   1 -23   6    2.82    0.35
  -1 -23  -6    2.00    0.38
  -1  23  -6    2.94    0.29
   1  23   6    2.93    0.33
   2 -23   6    3.56    0.36
   2 -23   6    3.01    0.38
  -2 -23  -6    3.63    0.39
  -2  23  -6    3.18    0.32
   2  23   6    3.36    0.37
   3 -23   6    1.34    0.26
   3 -23   6    1.72    0.27
  -3 -23  -6    1.44    0.22
  -4 -23  -6    6.79    0.54
   4 -23   6    6.15    0.51
   4 -23   6    6.79    0.54
   4  23   6    7.67    0.54
  -4  23  -6    6.66    0.53
   5 -23   6    0.51    0.14
   5  23   6    0.84    0.17
  -5  23  -6    0.74    0.13
  -5  23  -6    0.82    0.16
   4 -24  -6    7.00    0.62
   4  24  -6    8.71    0.60
  -4  24   6    9.01    0.65
  -4  24   6    8.72    0.61
  -4  24   6    8.67    0.62
  -3 -24   6    4.54    0.43
  -3  24   6    5.28    0.43
   3  24  -6    5.09    0.40
  -3  24   6    5.44    0.45
  -2 -24   6   15.13    0.98
  -2  24   6   12.80    0.95
  -2  24   6   12.40    0.96
   2  24  -6   12.76    0.94
  -1 -24   6    1.25    0.28
   1  24  -6    1.74    0.27
   1  24  -6    1.74    0.23
  -1  24   6    1.59    0.27
   0  24   6    3.61    0.36
   0  24  -6    3.18    0.31
   0  24  -6    3.57    0.35
  -1 -24  -6    1.07    0.22
   1 -24   6    1.36    0.26
  -2 -24  -6    1.10    0.21
   2  24   6    1.38    0.25
  -3 -24  -6    0.41    0.17
   3 -24   6    0.36    0.15
   3 -24   6    0.57    0.15
   3  24   6    0.63    0.15
   4 -24   6    3.55    0.29
  -4 -24  -6    3.14    0.31
   4 -24   6    2.87    0.28
   4  24   6    2.50    0.29
  -3 -25   6    1.37    0.22
  -3  25   6    1.62    0.25
   3  25  -6    1.61    0.20
  -3  25   6    1.18    0.22
  -2 -25   6    2.47    0.26
  -2  25   6    2.17    0.32
   2  25  -6    1.98    0.26
  -1 -25   6    0.82    0.17
  -1  25   6    1.15    0.25
   1  25  -6    1.38    0.23
   0 -25  -6    9.94    0.73
   0 -25   6    9.95    0.73
   0  25  -6    9.01    0.70
   0  25   6    9.55    0.70
  -1 -25  -6    0.52    0.18
   1 -25   6    0.55    0.15
  -2 -25  -6    6.62    0.51
   2 -25   6    6.64    0.51
   2  25   6    6.32    0.51
   3 -25   6    0.48    0.14
  -3 -25  -6    0.48    0.14
   3 -25   6    0.53    0.13
   3  25   6    0.34    0.14
  -2  26   6    5.87    0.44
   2  26  -6    5.67    0.43
  -1 -26   6    1.84    0.24
   1  26  -6    2.14    0.23
  -1  26   6    2.10    0.24
   0 -26   6    3.70    0.31
   0  26   6    3.01    0.30
   0  26  -6    2.83    0.31
  -1 -26  -6    2.35    0.29
   1 -26   6    2.53    0.26
   2 -26   6    2.85    0.27
  -2 -26  -6    2.15    0.27
   2  26   6    2.89    0.26
 -10   0   7    2.23    0.24
 -10   0   7    2.06    0.24
  -9   0   7    0.65    0.15
  -9   0   7    0.28    0.15
  -9   0   7    0.56    0.18
  -9   0   7    0.62    0.13
  -8   0   7    5.84    0.44
  -8   0   7    5.64    0.52
  -8   0   7    5.94    0.49
  -8   0   7    6.04    0.49
  -7   0   7    5.70    0.48
  -7   0   7    6.41    0.48
  -7   0   7    5.77    0.52
  -7   0   7    5.72    0.44
  -6   0   7   15.43    1.07
  -6   0   7   16.52    1.52
  -6   0   7   16.13    1.29
  -6   0   7   16.13    1.21
  -6   0   7   16.48    1.14
  -6   0   7   16.99    1.14
  -5   0   7    7.76    0.62
  -5   0   7    6.92    0.72
  -5   0   7    8.67    0.57
  -5   0   7    8.49    0.65
  -5   0   7    9.16    0.93
  -5   0   7    8.48    0.61
  -4   0   7   32.95    2.58
  -4   0   7   38.20    2.69
  -4   0   7   36.90    2.31
  -3   0   7    1.01    0.35
  -3   0   7    1.11    0.40
  -3   0   7    1.13    0.16
  -2   0   7   28.28    1.85
  -2   0   7   27.91    2.07
  -2   0   7   30.77    2.16
  -1   0   7    2.31    0.46
  -1   0   7    2.37    0.46
   0   0   7   38.68    2.63
   0   0   7   36.36    2.74
   1   0   7    1.22    0.36
   1   0   7    0.78    0.34
   1   0   7    1.37    0.49
   2   0   7    3.71    0.79
   2   0   7    4.35    0.63
   3   0   7    7.80    1.08
   3   0   7    7.73    0.90
   4   0   7   11.04    1.21
  -5   0  -7    1.42    0.30
  -5   0  -7    1.19    0.20
  -5   0  -7    1.24    0.20
  -6   0  -7    5.02    0.46
  -6   0  -7    5.51    0.49
  -6   0  -7    5.61    0.54
  -6   0  -7    5.21    0.45
  -7   0  -7    2.89    0.32
  -7   0  -7    2.99    0.46
  -7   0  -7    3.00    0.36
  -7   0  -7    3.04    0.37
  -8   0  -7    4.20    0.44
  -8   0  -7    4.45    0.42
  -8   0  -7    4.53    0.40
  -9   0  -7    0.69    0.17
  -9   0  -7    0.65    0.15
  -9   0  -7    0.67    0.19
 -10   0  -7    6.63    0.50
 -10   0  -7    6.18    0.48
 -10  -1   7    7.32    0.48
 -10  -1   7    6.87    0.48
 -10   1   7    5.80    0.48
 -10   1   7    5.65    0.48
  -9  -1   7    0.72    0.15
  -9  -1   7    1.19    0.25
  -9  -1   7    0.85    0.15
  -9   1   7    0.63    0.15
  -9   1   7    0.59    0.17
  -9   1   7    0.59    0.16
  -8   1   7    1.37    0.22
  -8   1   7    1.29    0.28
  -8   1   7    1.65    0.28
  -8   1   7    1.19    0.21
  -7  -1   7    3.10    0.31
  -7  -1   7    2.77    0.30
  -7  -1   7    2.36    0.43
  -7  -1   7    2.32    0.35
  -7  -1   7    2.55    0.27
  -7   1   7    2.52    0.29
  -7   1   7    2.07    0.27
  -7   1   7    2.37    0.35
  -7   1   7    2.53    0.31
  -6  -1   7   22.25    1.81
  -6  -1   7   20.32    1.60
  -6  -1   7   21.84    1.51
  -6  -1   7   21.62    1.44
  -6  -1   7   22.97    1.44
  -6   1   7   19.07    1.82
  -6   1   7   20.53    1.44
  -6   1   7   19.57    1.35
  -6   1   7   19.09    1.44
  -6   1   7   19.76    1.51
  -5  -1   7    8.76    0.72
  -5  -1   7    8.32    0.67
  -5  -1   7    8.74    0.66
  -5  -1   7    9.19    0.62
  -5  -1   7    8.28    0.76
  -5  -1   7   10.06    0.99
  -5   1   7    9.68    0.62
  -5   1   7    8.77    0.67
  -5   1   7    9.55    0.98
  -5   1   7    8.84    0.84
  -5   1   7    9.36    0.66
  -5   1   7    9.80    0.72
  -4  -1   7   14.59    1.13
  -4  -1   7   13.76    1.12
  -4   1   7   12.23    0.83
  -4   1   7   11.88    1.11
  -4   1   7   10.63    1.10
  -3  -1   7    2.35    0.42
  -3  -1   7    2.93    0.56
  -3  -1   7    2.34    0.21
  -3   1   7    1.50    0.43
  -3   1   7    1.56    0.38
  -2  -1   7    9.84    0.62
  -2  -1   7   10.08    0.84
  -2  -1   7   10.35    0.85
  -2   1   7    8.33    0.83
  -2   1   7    8.49    0.62
  -2   1   7    8.53    0.81
  -1  -1   7   11.60    0.84
  -1   1   7    8.87    0.86
  -1   1   7    8.45    0.84
   0  -1   7   25.28    1.93
   0  -1   7   25.20    1.85
   0   1   7   26.89    1.86
   1  -1   7    0.68    0.48
   1   1   7    1.00    0.36
   1   1   7    1.06    0.35
   2  -1   7   25.03    1.72
   2  -1   7   22.50    1.76
   2   1   7   19.25    1.74
   2   1   7   20.26    1.70
   3  -1   7    3.05    0.54
   3  -1   7    2.16    0.66
   3   1   7    1.86    0.69
   3   1   7    1.89    0.50
   4  -1   7   25.49    2.15
   4   1   7   26.20    2.10
   4   1   7   26.20    2.19
  -5  -1  -7    2.68    0.35
  -5  -1  -7    3.17    0.38
  -5  -1  -7    2.49    0.31
  -5  -1  -7    2.53    0.31
  -5   1  -7    2.07    0.33
  -5   1  -7    2.22    0.31
  -5   1  -7    2.07    0.33
  -5   1  -7    2.73    0.40
  -6  -1  -7    3.80    0.40
  -6  -1  -7    3.81    0.47
  -6  -1  -7    4.12    0.42
  -6  -1  -7    4.56    0.40
  -6   1  -7    4.25    0.38
  -6   1  -7    4.20    0.48
  -6   1  -7    4.40    0.42
  -6   1  -7    3.71    0.39
  -7  -1  -7    0.80    0.20
  -7  -1  -7    0.79    0.24
  -7  -1  -7    0.75    0.21
  -7  -1  -7    1.44    0.28
  -7   1  -7    1.56    0.29
  -7   1  -7    1.87    0.30
  -8  -1  -7    2.09    0.30
  -8  -1  -7    2.26    0.29
  -8  -1  -7    1.79    0.41
  -8  -1  -7    2.30    0.34
  -8   1  -7    1.62    0.34
  -8   1  -7    2.13    0.29
  -8   1  -7    1.69    0.29
  -9  -1  -7    1.56    0.24
  -9   1  -7    0.99    0.17
  -9   1  -7    1.37    0.28
  -9   1  -7    1.12    0.23
 -10   1  -7    1.86    0.22
 -10   1  -7    1.72    0.21
 -10   1  -7    1.93    0.27
 -10   2   7    2.08    0.23
 -10   2   7    2.00    0.23
  -9  -2   7    2.54    0.30
  -9  -2   7    2.12    0.31
  -9   2   7    2.57    0.33
  -9   2   7    3.15    0.31
  -9   2   7    2.85    0.26
   9   2  -7    2.73    0.30
  -9   2   7    3.08    0.30
  -8  -2   7    2.93    0.34
  -8  -2   7    2.22    0.43
  -8  -2   7    3.03    0.35
  -8  -2   7    2.97    0.39
  -8  -2   7    2.88    0.30
  -8   2   7    3.57    0.34
  -8   2   7    3.73    0.35
  -8   2   7    3.21    0.30
  -8   2   7    3.18    0.37
  -7  -2   7    1.16    0.22
  -7  -2   7    1.02    0.18
  -7  -2   7    1.23    0.20
  -7  -2   7    1.38    0.28
  -7  -2   7    0.99    0.24
  -6  -2   7    8.41    0.69
  -6  -2   7    8.71    0.64
  -6  -2   7    9.68    0.66
  -6  -2   7    8.46    0.74
  -6  -2   7    8.74    0.60
  -6  -2   7    8.59    1.15
  -6   2   7    8.18    0.60
  -6   2   7    8.81    0.66
  -6   2   7    8.89    0.65
  -6   2   7    8.24    1.17
  -6   2   7    8.28    0.69
  -5  -2   7    6.68    0.52
  -5  -2   7    6.41    0.65
  -5  -2   7    6.78    0.56
  -5  -2   7    6.65    0.57
  -5  -2   7    6.97    0.89
  -5  -2   7    6.69    0.60
  -5   2   7    8.54    0.58
  -5   2   7    8.04    0.57
  -5   2   7    8.66    0.53
  -5   2   7    8.66    0.62
  -5   2   7    8.03    0.94
  -4  -2   7   21.02    1.31
  -4  -2   7   19.89    1.58
  -4  -2   7   21.70    1.62
  -4   2   7   20.96    1.31
  -4   2   7   19.12    1.60
  -4   2   7   18.50    1.58
  -3  -2   7    9.28    0.87
  -3  -2   7    8.98    0.62
  -3  -2   7    9.62    0.87
  -3   2   7    9.51    0.63
  -3   2   7    9.40    0.89
  -3   2   7    9.03    0.87
  -2  -2   7    2.24    0.46
  -2  -2   7    2.47    0.50
  -2  -2   7    2.05    0.20
  -2   2   7    2.00    0.46
  -2   2   7    2.39    0.50
  -2   2   7    1.84    0.21
  -1  -2   7    3.00    0.27
  -1  -2   7    3.51    0.50
  -1  -2   7    3.65    0.53
  -1   2   7    3.88    0.55
  -1   2   7    3.35    0.48
   0  -2   7   37.29    2.74
   0  -2   7   37.93    2.87
   0   2   7   40.96    2.90
   0   2   7   41.81    2.78
   1  -2   7    3.53    0.73
   1  -2   7    3.41    0.53
   1   2   7    2.49    0.55
   1   2   7    3.28    0.54
   2  -2   7    2.76    0.61
   2  -2   7    2.49    0.57
   2   2   7    2.93    0.62
   2   2   7    1.85    0.61
   3  -2   7    2.06    0.49
   3  -2   7    1.96    0.65
   3   2   7    1.95    0.72
   3   2   7    1.95    0.55
   4  -2   7    3.22    0.82
   4   2   7    4.14    0.96
  -5  -2  -7   12.81    0.95
  -5  -2  -7   13.50    1.00
  -5  -2  -7   13.87    1.06
   5  -2   7   13.17    1.07
  -5  -2  -7   13.31    0.96
  -5   2  -7   13.85    0.96
  -5   2  -7   13.00    0.99
  -5   2  -7   12.63    1.07
  -5   2  -7   11.92    0.95
   5   2   7   13.78    1.55
  -6  -2  -7    7.96    0.72
  -6  -2  -7    7.37    0.62
  -6  -2  -7    7.50    0.66
  -6  -2  -7    7.47    0.65
  -6   2  -7   10.07    0.62
  -7  -2  -7    8.79    0.69
  -7  -2  -7    8.28    0.68
  -7  -2  -7    8.21    0.76
  -7  -2  -7    8.61    0.66
  -7   2  -7    8.81    0.65
  -7   2  -7    8.52    0.68
  -7   2  -7    8.27    0.67
  -8  -2  -7    0.65    0.17
  -8  -2  -7    0.51    0.21
  -8  -2  -7    0.48    0.18
  -8  -2  -7    0.81    0.23
  -8   2  -7    0.80    0.20
  -9  -2  -7    3.55    0.35
  -9  -2  -7    3.17    0.36
  -9  -2  -7    3.76    0.39
  -9   2  -7    4.02    0.35
  -9   2  -7    4.18    0.38
  -9   2  -7    4.11    0.34
 -10  -2  -7    4.38    0.40
 -10   2  -7    5.70    0.42
 -10   2  -7    5.56    0.40
 -10  -3   7    2.74    0.25
 -10  -3   7    2.49    0.25
 -10   3   7    2.38    0.25
 -10   3   7    2.63    0.25
 -10   3   7    2.26    0.28
  -9   3   7    1.70    0.26
   9   3  -7    2.00    0.26
  -9   3   7    1.90    0.29
  -9   3   7    1.68    0.22
  -9   3   7    2.41    0.28
  -8  -3   7    2.14    0.25
  -8  -3   7    2.40    0.29
  -8  -3   7    1.93    0.27
  -8  -3   7    2.05    0.30
  -8   3   7    1.66    0.33
  -8   3   7    2.07    0.29
  -8   3   7    1.49    0.25
  -8   3   7    1.96    0.30
  -7  -3   7    4.25    0.42
  -7  -3   7    4.59    0.35
  -7  -3   7    4.57    0.38
  -7  -3   7    4.34    0.46
  -7   3   7    3.20    0.43
  -7   3   7    3.50    0.38
  -7   3   7    3.26    0.37
  -6  -3   7   11.88    0.91
  -6  -3   7   12.06    1.29
  -6  -3   7   12.53    0.80
  -6  -3   7   11.64    0.85
  -6  -3   7   11.03    0.97
  -6  -3   7   12.37    0.86
  -6   3   7   11.95    0.80
  -6   3   7   11.90    0.86
  -6   3   7   11.86    0.92
  -6   3   7   12.24    0.86
  -6   3   7   10.93    1.30
  -5  -3   7   14.02    1.05
  -5  -3   7   15.62    1.34
  -5  -3   7   15.20    1.11
  -5  -3   7   15.32    1.06
  -5  -3   7   14.17    1.17
  -5  -3   7   15.44    0.98
  -5   3   7   14.64    1.36
  -5   3   7   14.79    0.98
  -5   3   7   15.51    1.12
  -5   3   7   15.35    1.06
  -5   3   7   14.35    1.05
  -4  -3   7    4.40    0.70
  -4  -3   7    5.06    0.37
  -4  -3   7    4.48    0.72
  -4   3   7    5.14    0.76
  -4   3   7    5.51    0.70
  -3  -3   7   10.05    0.67
  -3  -3   7    9.91    0.93
  -3  -3   7    9.36    0.92
  -3   3   7    9.65    0.94
  -3   3   7   11.44    0.68
  -3   3   7    9.84    0.92
  -2  -3   7    6.48    0.69
  -2  -3   7    6.54    0.46
  -2  -3   7    6.48    0.69
  -2   3   7    6.58    0.73
  -2   3   7    6.71    0.71
  -2   3   7    7.20    0.47
  -1  -3   7   12.10    0.92
  -1  -3   7   12.51    0.73
  -1  -3   7   13.13    0.95
  -1   3   7    9.76    0.95
   1   3  -7    9.29    0.73
  -1   3   7    9.28    0.95
   0  -3   7   10.23    0.92
   0   3   7    7.54    0.80
   0   3   7    7.31    0.79
   1   3   7    3.54    0.59
   2  -3   7    7.34    0.88
   2  -3   7    5.98    0.77
   2   3   7    7.40    0.80
   2   3   7    5.47    0.82
   3  -3   7    3.36    0.75
   3   3   7    5.62    1.13
   3   3   7    5.49    0.82
   4  -3   7   17.88    1.77
   4   3   7   18.64    1.93
   4   3   7   21.92    1.78
  -5  -3  -7   10.86    0.84
  -5  -3  -7   11.67    0.93
  -5  -3  -7   11.62    0.84
  -5  -3  -7   11.76    0.88
  -5   3  -7   10.98    0.84
  -5   3  -7   11.84    0.86
   5   3   7    8.94    1.47
  -5   3  -7   11.33    0.83
  -6  -3  -7    3.34    0.41
  -6  -3  -7    3.75    0.42
  -6  -3  -7    3.93    0.39
  -6  -3  -7    3.43    0.49
  -6   3  -7    4.36    0.37
  -6   3  -7    4.45    0.40
  -6   3  -7    3.71    0.39
  -7  -3  -7    3.48    0.48
  -7  -3  -7    4.17    0.42
  -7  -3  -7    3.24    0.40
  -7  -3  -7    4.46    0.38
  -7   3  -7    3.28    0.39
  -7   3  -7    3.78    0.40
  -7   3  -7    4.48    0.38
  -8  -3  -7    0.85    0.22
  -8  -3  -7    0.94    0.23
  -8  -3  -7    0.78    0.18
  -8  -3  -7    1.12    0.21
  -8   3  -7    1.39    0.26
  -8   3  -7    1.23    0.21
  -9  -3  -7    6.30    0.54
  -9  -3  -7    5.73    0.44
  -9  -3  -7    5.85    0.47
  -9   3  -7    5.35    0.47
  -9   3  -7    4.67    0.46
   9   3   7    5.30    0.55
 -10  -3  -7    1.53    0.20
 -10  -3  -7    1.52    0.21
 -10   3  -7    1.43    0.19
 -10   3  -7    1.90    0.24
 -10   3  -7    1.64    0.20
 -10  -4   7    1.61    0.20
 -10  -4   7    1.56    0.19
 -10   4   7    1.46    0.19
 -10   4   7    1.21    0.20
 -10   4   7    1.41    0.22
   9   4  -7    4.78    0.38
  -9   4   7    4.31    0.36
  -9   4   7    4.90    0.41
  -9   4   7    4.81    0.43
  -9   4   7    4.89    0.39
  -8   4   7    0.84    0.17
  -8   4   7    0.72    0.16
  -8   4   7    0.54    0.15
  -8   4   7    0.81    0.20
   8   4  -7    1.02    0.18
  -7  -4   7    5.39    0.60
  -7  -4   7    6.13    0.52
  -7  -4   7    5.75    0.52
  -7  -4   7    6.10    0.48
  -7   4   7    7.19    0.52
  -7   4   7    7.23    0.52
  -7   4   7    6.74    0.57
  -7   4   7    7.13    0.48
  -6  -4   7    3.34    0.29
  -6  -4   7    2.51    0.42
  -6  -4   7    3.22    0.38
  -6  -4   7    3.25    0.34
  -6  -4   7    3.00    0.69
  -6  -4   7    3.17    0.32
  -6   4   7    3.41    0.33
  -6   4   7    2.63    0.39
  -6   4   7    2.54    0.75
  -6   4   7    2.66    0.30
  -6   4   7    3.21    0.33
  -5  -4   7    8.91    0.64
  -5  -4   7    9.24    1.00
  -5  -4   7    8.84    0.69
  -5  -4   7    9.26    0.60
  -5  -4   7    9.28    0.65
  -5  -4   7    8.92    0.73
  -5   4   7    8.25    0.60
  -5   4   7    8.08    0.71
  -5   4   7    8.19    1.03
  -5   4   7    8.39    0.65
  -5   4   7    8.68    0.65
  -4  -4   7   10.96    1.07
  -4  -4   7   11.22    0.77
  -4  -4   7   11.48    1.09
  -4   4   7   12.61    0.78
  -4   4   7   11.81    1.08
  -4   4   7   11.12    1.10
  -3  -4   7   14.67    1.09
  -3  -4   7   13.89    0.83
  -3  -4   7   12.79    1.06
  -3   4   7   10.84    1.05
  -3   4   7   11.73    0.83
  -3   4   7   10.94    1.07
  -2  -4   7    0.63    0.32
  -2  -4   7    0.59    0.11
  -2  -4   7    0.68    0.35
  -2   4   7    0.87    0.33
  -2   4   7    1.00    0.36
   1   4  -7    2.21    0.22
  -1   4   7    2.00    0.43
  -1   4   7    2.10    0.40
   0  -4   7    2.04    0.52
   0  -4   7    1.84    0.37
   0   4   7    1.37    0.38
   1  -4   7    3.22    0.61
   1  -4   7    2.30    0.50
   1   4   7    3.07    0.60
   1   4   7    3.84    0.62
   2   4   7    1.56    0.46
   2   4   7    1.51    0.53
   3  -4   7    2.17    0.69
   3   4   7    3.58    0.77
   3   4   7    1.98    0.82
   4  -4   7    3.65    0.87
   4   4   7    1.47    1.02
   4   4   7    1.77    0.71
  -5  -4  -7   12.91    0.94
  -5  -4  -7   12.54    0.90
  -5  -4  -7   12.61    1.00
  -5  -4  -7   12.08    0.91
  -5   4  -7   12.12    0.92
   5   4   7   10.18    1.52
  -5   4  -7   12.39    0.90
  -5   4  -7   11.72    0.94
  -5   4  -7   12.05    0.89
  -6  -4  -7    7.53    0.73
  -6  -4  -7    7.89    0.67
  -6  -4  -7    8.07    0.63
  -6  -4  -7    7.81    0.64
  -6   4  -7    8.87    0.65
  -6   4  -7    8.16    0.62
  -6   4  -7    8.29    0.64
  -7  -4  -7   15.23    1.16
  -7  -4  -7   15.25    1.07
  -7  -4  -7   15.27    1.05
  -7  -4  -7   14.97    1.02
  -7   4  -7   12.60    1.05
  -7   4  -7   13.08    1.04
  -7   4  -7   12.91    1.01
  -8  -4  -7    0.58    0.17
  -8  -4  -7    0.25    0.18
  -8  -4  -7    0.57    0.21
  -8  -4  -7    0.26    0.22
  -9  -4  -7    4.32    0.36
  -9  -4  -7    4.68    0.45
  -9  -4  -7    4.32    0.38
  -9   4  -7    3.77    0.37
  -9   4  -7    3.51    0.39
  -9   4  -7    3.79    0.35
 -10  -4  -7    2.63    0.29
 -10  -4  -7    2.78    0.27
 -10   4  -7    3.56    0.28
 -10   4  -7    3.12    0.27
 -10   4  -7    3.30    0.30
 -10   5   7    0.76    0.12
 -10   5   7    0.66    0.12
 -10   5   7    0.72    0.14
  -9   5   7    3.55    0.35
  -9   5   7    3.68    0.33
  -9   5   7    3.82    0.33
  -9   5   7    2.87    0.29
   9   5  -7    3.74    0.33
  -8  -5   7    4.66    0.39
  -8  -5   7    4.02    0.34
  -8  -5   7    4.32    0.45
  -8  -5   7    4.56    0.39
  -8   5   7    3.50    0.42
  -8   5   7    3.68    0.38
  -8   5   7    3.35    0.34
  -8   5   7    3.94    0.38
   8   5  -7    3.34    0.36
  -7  -5   7   13.97    0.97
  -7  -5   7   13.76    1.04
  -7  -5   7   12.69    1.16
  -7  -5   7   13.79    1.04
   7   5  -7   15.09    0.99
  -7   5   7   15.76    1.05
  -7   5   7   15.36    1.12
  -7   5   7   16.11    1.05
  -7   5   7   15.49    0.98
  -6  -5   7    8.07    0.70
  -6  -5   7    8.35    0.61
  -6  -5   7    8.52    0.56
  -6  -5   7   10.26    1.11
  -6  -5   7    8.04    0.66
  -6  -5   7    8.84    0.61
  -6   5   7    6.72    0.56
  -6   5   7    7.75    0.61
  -6   5   7    7.15    0.61
  -6   5   7    7.28    0.67
  -6   5   7    7.78    1.26
  -5  -5   7   18.00    1.28
  -5  -5   7   19.09    1.20
  -5  -5   7   17.53    1.35
  -5  -5   7   17.43    1.41
  -5  -5   7   19.41    1.59
  -5  -5   7   16.88    1.27
  -5   5   7   17.71    1.56
  -5   5   7   17.20    1.27
  -5   5   7   18.52    1.28
  -5   5   7   19.67    1.37
  -5   5   7   19.15    1.36
  -5   5   7   19.13    1.20
  -4  -5   7    3.52    0.30
  -4  -5   7    4.05    0.73
  -4  -5   7    3.97    0.70
  -4   5   7    4.75    0.77
  -3   5   7    1.40    0.42
  -3   5   7    1.34    0.40
   3   5  -7    1.45    0.19
  -3   5   7    1.39    0.21
  -2  -5   7    2.37    0.22
  -2  -5   7    2.51    0.44
  -2  -5   7    2.36    0.51
  -2   5   7    2.54    0.49
   2   5  -7    2.57    0.23
  -2   5   7    2.83    0.48
  -2   5   7    2.61    0.26
  -1  -5   7    6.64    0.67
  -1  -5   7    6.57    0.45
  -1   5   7    6.40    0.72
  -1   5   7    5.87    0.73
   1   5  -7    6.49    0.45
   0  -5   7    2.28    0.49
   0  -5   7    2.41    0.58
   1  -5   7    2.14    0.40
   1  -5   7    1.08    0.53
   2  -5   7   -0.08    0.51
   2   5   7   -0.05    0.44
   2   5   7    0.14    0.54
   3  -5   7    8.98    1.18
   3   5   7   12.34    1.20
  -4  -5  -7    4.77    0.46
  -4   5  -7    4.49    0.38
   4   5   7    2.64    1.18
  -4   5  -7    3.38    0.42
   4   5   7    3.41    0.82
  -5  -5  -7   13.56    1.01
  -5  -5  -7   14.95    1.06
  -5  -5  -7   13.56    1.12
  -5  -5  -7   14.21    1.01
   5   5   7   13.19    1.74
  -5   5  -7   13.62    1.00
  -5   5  -7   14.43    1.03
  -5   5  -7   12.30    1.04
  -5   5  -7   13.88    0.99
  -6  -5  -7    2.16    0.46
  -6  -5  -7    2.85    0.34
  -6  -5  -7    3.20    0.38
  -6  -5  -7    2.62    0.37
   6   5   7    3.36    1.21
  -6   5  -7    3.66    0.39
  -7  -5  -7    4.68    0.43
  -7  -5  -7    3.67    0.51
  -7  -5  -7    4.72    0.39
  -7  -5  -7    4.29    0.43
  -7   5  -7    3.91    0.38
  -7   5  -7    3.40    0.39
  -7   5  -7    3.15    0.42
  -8  -5  -7    1.09    0.21
  -8  -5  -7    1.03    0.19
  -8  -5  -7    0.60    0.24
  -9  -5  -7    5.29    0.50
  -9  -5  -7    5.20    0.41
  -9  -5  -7    5.60    0.43
  -9   5  -7    4.60    0.42
  -9   5  -7    4.69    0.44
  -9   5  -7    4.19    0.41
 -10  -5  -7    0.93    0.17
 -10  -5  -7    1.00    0.19
 -10  -6   7    0.28    0.10
 -10  -6   7    0.16    0.11
 -10  -6   7    0.19    0.15
 -10   6   7    0.01    0.12
 -10   6   7    0.18    0.11
 -10   6   7    0.13    0.09
  -9  -6   7    3.27    0.33
  -9  -6   7    3.59    0.30
  -9  -6   7    3.62    0.38
  -9  -6   7    2.99    0.33
   9   6  -7    3.49    0.31
  -9   6   7    3.06    0.29
  -9   6   7    4.03    0.33
  -9   6   7    3.45    0.32
  -9   6   7    3.69    0.35
  -8   6   7    3.50    0.42
  -8   6   7    3.86    0.34
  -8   6   7    3.95    0.36
   8   6  -7    3.89    0.35
  -8   6   7    3.70    0.36
  -7  -6   7    2.57    0.32
  -7  -6   7    2.28    0.32
  -7  -6   7    2.22    0.38
  -7  -6   7    2.35    0.28
  -7   6   7    3.11    0.40
  -7   6   7    3.13    0.30
  -6  -6   7    5.41    0.47
  -6  -6   7    5.52    0.99
  -6   6   7    4.30    0.56
  -6   6   7    4.74    0.40
   6   6  -7    4.29    0.39
  -6   6   7    4.23    0.38
  -6   6   7    4.14    0.41
  -6   6   7    3.92    0.49
  -5  -6   7   17.43    1.28
  -5  -6   7   18.13    1.34
  -5  -6   7   17.87    1.22
  -5  -6   7   18.57    1.22
  -5  -6   7   19.52    1.56
  -5  -6   7   19.40    1.14
  -5   6   7   16.06    1.21
  -5   6   7   16.51    1.22
  -5   6   7   17.05    1.14
   5   6  -7   16.22    1.14
  -5   6   7   17.21    1.56
  -5   6   7   16.19    1.31
  -5   6   7   16.35    1.29
  -4  -6   7    3.56    0.74
   4   6  -7    4.40    0.34
  -4   6   7    4.13    0.37
  -4   6   7    4.75    0.45
  -4   6   7    4.15    0.35
  -3   6   7   10.02    0.66
  -3   6   7    9.54    0.94
   3   6  -7    9.69    0.65
  -3   6   7    8.99    0.98
  -2  -6   7    4.16    0.64
  -2  -6   7    4.33    0.34
  -2  -6   7    5.39    0.65
  -2   6   7    5.26    0.68
   2   6  -7    4.71    0.35
  -2   6   7    3.88    0.64
  -1   6   7    2.64    0.52
   0  -6   7    0.98    0.33
   0  -6   7    1.05    0.53
   0   6   7    0.40    0.40
   0   6   7    0.49    0.38
   1  -6   7    4.71    0.82
   1  -6   7    4.04    0.62
   1   6   7    5.39    0.70
   1   6   7    5.26    0.80
   2  -6   7   -0.19    0.56
   2   6   7    1.02    0.52
   2   6   7    0.63    0.59
   3  -6   7    2.71    0.73
   3   6   7    2.20    0.83
   3   6   7    2.26    0.65
   4   6   7    2.75    0.83
  -4   6  -7    2.34    0.31
  -4   6  -7    1.84    0.32
  -4   6  -7    2.55    0.29
  -5  -6  -7   10.65    0.83
  -5  -6  -7   10.50    0.78
  -5  -6  -7   10.35    0.79
  -5  -6  -7    9.62    0.89
  -5   6  -7   10.15    0.81
  -5   6  -7   10.59    0.77
  -5   6  -7   10.28    0.79
  -5   6  -7   11.07    0.77
   5   6   7    8.64    1.64
  -6  -6  -7    4.20    0.51
  -6  -6  -7    4.85    0.52
  -6  -6  -7    4.69    0.47
  -6   6  -7    6.32    0.48
  -6   6  -7    6.08    0.47
  -6   6  -7    5.69    0.48
   6   6   7    5.33    1.39
  -6   6  -7    5.58    0.51
  -7  -6  -7   10.84    0.95
  -7  -6  -7   11.12    0.86
  -7  -6  -7   11.05    0.83
  -7  -6  -7   11.57    0.87
  -8  -6  -7    2.73    0.32
  -8  -6  -7    2.38    0.36
  -8  -6  -7    2.16    0.44
  -8   6  -7    2.87    0.35
  -8   6  -7    3.13    0.32
  -8   6  -7    2.89    0.32
  -9   6  -7    0.83    0.15
  -9   6  -7    0.85    0.16
  -9   6  -7    0.66    0.17
 -10  -6  -7    1.05    0.17
 -10  -6  -7    1.39    0.22
 -10   6  -7    0.85    0.18
 -10   6  -7    1.29    0.19
 -10   6  -7    0.93    0.16
  10   6   7    1.43    0.27
 -10  -7   7    0.54    0.15
 -10  -7   7    0.66    0.12
 -10  -7   7    0.62    0.11
  -9  -7   7    2.06    0.27
  -9  -7   7    2.55    0.25
  -9  -7   7    2.72    0.26
  -9   7   7    2.64    0.28
   9   7  -7    2.16    0.26
  -9   7   7    1.94    0.31
  -9   7   7    1.82    0.23
  -9   7   7    2.06    0.25
  -8   7   7    1.14    0.18
  -8   7   7    0.78    0.17
  -8   7   7    1.42    0.25
  -8   7   7    0.71    0.21
   8   7  -7    1.20    0.24
   7   7  -7   13.05    0.88
  -7   7   7   13.13    0.94
  -7   7   7   12.87    0.88
  -7   7   7   12.23    1.01
  -7   7   7   13.78    0.94
  -6  -7   7    3.78    0.33
  -6  -7   7    5.07    0.97
  -6  -7   7    3.78    0.39
  -6   7   7    2.57    0.33
  -6   7   7    2.26    0.42
  -6   7   7    3.17    0.33
  -6   7   7    2.18    0.47
  -6   7   7    2.49    0.31
  -5  -7   7   10.58    1.15
  -5  -7   7   10.11    0.86
  -5  -7   7   11.24    0.78
  -5  -7   7   11.54    0.72
  -5  -7   7   10.70    0.78
  -5   7   7   10.36    0.85
  -5   7   7   10.97    0.73
  -5   7   7   10.71    0.86
  -5   7   7   10.54    0.78
  -5   7   7    9.67    1.19
  -5   7   7    9.88    0.77
   5   7  -7   10.13    0.72
  -4  -7   7   11.65    1.29
  -4   7   7   14.67    0.93
  -4   7   7   12.87    0.98
  -4   7   7   14.53    1.06
  -4   7   7   14.32    1.27
   4   7  -7   13.96    0.93
  -4   7   7   15.20    1.07
  -4   7   7   13.68    1.01
  -3  -7   7    3.66    0.66
  -3  -7   7    3.06    0.56
  -3  -7   7    3.35    0.29
  -3   7   7    3.50    0.32
  -3   7   7    3.28    0.61
  -3   7   7    3.36    0.65
   3   7  -7    3.56    0.29
  -2  -7   7    1.55    0.44
  -2   7   7    1.90    0.54
   2   7  -7    2.50    0.22
  -2   7   7    2.86    0.62
  -1  -7   7    0.72    0.56
  -1  -7   7    1.18    0.36
  -1   7   7    0.98    0.39
   1   7  -7    1.42    0.18
  -1   7   7    0.89    0.49
   0  -7   7    0.71    0.57
   0  -7   7    0.62    0.33
   0   7  -7    0.33    0.12
   0   7   7    0.22    0.40
   0   7   7    0.18    0.46
   1  -7   7    8.06    1.00
   1   7   7    7.94    1.01
   1   7   7    9.84    0.98
   2  -7   7    0.37    0.60
   2   7   7    1.50    0.66
   2   7   7    1.00    0.51
   3  -7   7   27.35    2.21
   3   7   7   29.64    2.33
   3   7   7   26.59    2.35
  -4  -7  -7    5.56    0.47
  -4  -7  -7    4.71    0.43
  -4  -7  -7    4.69    0.52
  -4   7  -7    4.27    0.41
   4   7   7    5.70    1.03
  -4   7  -7    4.22    0.43
  -4   7  -7    4.36    0.43
  -4   7  -7    4.72    0.46
  -5  -7  -7    8.49    0.79
  -5  -7  -7    9.62    0.85
  -5  -7  -7    9.27    0.77
  -5   7  -7   10.53    0.81
   5   7   7    8.99    1.69
  -5   7  -7   11.22    0.77
  -5   7  -7   11.77    0.79
  -5   7  -7   11.27    0.77
  -6  -7  -7    3.66    0.43
  -6  -7  -7    2.84    0.42
  -6  -7  -7    3.51    0.37
  -6   7  -7    3.65    0.37
  -6   7  -7    3.55    0.37
  -6   7  -7    3.44    0.35
  -6   7  -7    3.20    0.39
  -7  -7  -7    1.52    0.30
  -7  -7  -7    0.98    0.22
  -7  -7  -7    0.47    0.28
  -7   7  -7    1.49    0.27
  -7   7  -7    0.79    0.21
  -7   7  -7    0.79    0.22
  -7   7  -7    0.90    0.19
  -8  -7  -7    0.66    0.17
  -8  -7  -7    0.57    0.19
  -8  -7  -7    0.18    0.23
  -9  -7  -7    0.92    0.16
  -9  -7  -7    0.66    0.20
  -9  -7  -7    0.76    0.17
  -9   7  -7    1.15    0.20
  -9   7  -7    1.24    0.23
  -9   7  -7    1.32    0.21
 -10  -8   7    1.60    0.19
 -10  -8   7    1.55    0.23
 -10  -8   7    1.49    0.20
 -10   8   7    2.05    0.22
 -10   8   7    1.70    0.19
  -9  -8   7    0.33    0.15
  -9  -8   7    0.52    0.13
  -9  -8   7    0.68    0.16
  -9   8   7    0.74    0.14
  -9   8   7    0.68    0.13
  -9   8   7    0.56    0.17
  -8   8   7    3.28    0.31
  -8   8   7    2.30    0.37
   8   8  -7    2.76    0.29
  -8   8   7    2.63    0.29
  -8   8   7    2.88    0.33
  -7  -8   7    4.16    0.48
  -7  -8   7    4.06    0.40
  -7  -8   7    4.38    0.37
  -7  -8   7    4.04    0.40
  -7   8   7    4.38    0.55
  -7   8   7    5.13    0.42
  -7   8   7    3.99    0.48
  -7   8   7    4.84    0.41
   7   8  -7    4.64    0.38
  -7   8   7    4.23    0.39
  -6  -8   7    6.94    0.48
  -6  -8   7    6.87    0.55
  -6   8   7    5.51    0.57
  -6   8   7    5.77    0.46
   6   8  -7    5.34    0.45
  -6   8   7    5.11    0.63
  -6   8   7    5.47    0.50
  -6   8   7    5.32    0.48
   5   8  -7    7.54    0.53
  -5   8   7    7.65    0.65
  -5   8   7    6.92    0.67
  -5   8   7    7.61    0.58
  -5   8   7    7.04    0.56
  -5   8   7    6.99    0.54
  -4  -8   7   10.20    0.68
  -4  -8   7    9.91    0.74
  -4  -8   7   10.59    0.75
  -4  -8   7   10.24    0.69
  -4   8   7    8.73    0.70
  -4   8   7    7.72    0.75
  -4   8   7    8.92    0.75
   4   8  -7    8.19    0.73
  -4   8   7    8.62    0.64
  -4   8   7    8.35    0.67
  -4   8   7    8.05    1.01
   4   8  -7    8.75    0.62
  -3  -8   7    5.03    0.77
  -3  -8   7    4.28    0.38
  -3   8   7    4.77    0.86
  -3   8   7    6.10    0.78
   3   8  -7    5.50    0.39
  -3   8   7    5.50    0.42
  -2  -8   7    4.89    0.40
  -2  -8   7    4.86    0.70
   2   8  -7    6.33    0.41
  -2   8   7    6.65    0.81
  -2   8   7    5.11    0.84
   1   8  -7    6.56    0.45
  -1   8   7    6.94    0.83
  -1   8   7    5.27    0.86
   0  -8   7    2.53    0.66
   0   8   7    3.48    0.69
   0   8  -7    3.29    0.27
   0   8   7    2.76    0.59
   1  -8   7   10.58    1.16
   1   8   7   10.86    1.13
   1   8   7   10.64    1.18
   2  -8   7    5.80    0.89
   2   8   7    4.92    1.10
   2   8   7    7.23    1.00
  -3  -8  -7    7.72    0.67
   3   8   7    4.60    1.12
  -3   8  -7    6.59    0.55
   3   8   7    6.79    1.20
  -4  -8  -7    6.86    0.55
  -4  -8  -7    6.63    0.62
  -4   8  -7    6.04    0.52
  -4   8  -7    6.01    0.54
  -4   8  -7    6.26    0.50
   4   8   7    5.09    1.04
  -4   8  -7    5.89    0.52
  -5   8  -7    5.03    0.48
  -5   8  -7    5.24    0.46
  -5   8  -7    5.28    0.46
  -5   8  -7    5.10    0.44
  -6  -8  -7    5.43    0.52
  -6  -8  -7    4.76    0.46
  -6   8  -7    4.90    0.46
  -6   8  -7    4.94    0.45
  -6   8  -7    4.92    0.44
  -6   8  -7    4.77    0.47
  -7  -8  -7    0.67    0.29
  -7  -8  -7    0.91    0.23
  -7  -8  -7    1.27    0.21
  -7   8  -7    1.05    0.22
  -7   8  -7    1.04    0.21
  -7   8  -7    1.50    0.28
  -7   8  -7    1.55    0.27
  -8  -8  -7    0.20    0.16
  -8  -8  -7    0.05    0.23
  -8  -8  -7    0.15    0.19
  -8   8  -7   -0.03    0.17
  -8   8  -7    0.13    0.15
  -8   8  -7    0.21    0.19
  -8   8  -7    0.15    0.15
  -9  -8  -7    0.91    0.17
  -9   8  -7    1.22    0.20
  -9   8  -7    1.05    0.17
  -9   8  -7    1.23    0.20
  -9  -9   7    4.10    0.39
  -9  -9   7    3.59    0.36
  -9  -9   7    3.93    0.35
  -9   9   7    4.37    0.36
  -9   9   7    4.22    0.34
  -9   9   7    4.20    0.38
  -8   9   7    1.56    0.26
  -8   9   7    2.23    0.29
  -8   9   7    1.39    0.25
   8   9  -7    1.84    0.24
  -8   9   7    1.88    0.26
  -8   9   7    2.63    0.40
  -7  -9   7    6.71    0.55
  -7  -9   7    6.49    0.49
  -7  -9   7    6.22    0.49
  -7   9   7    5.47    0.49
   7   9  -7    5.49    0.44
  -7   9   7    5.34    0.60
  -7   9   7    5.39    0.48
  -7   9   7    5.23    0.45
  -7   9   7    4.53    0.55
  -6  -9   7   11.21    0.95
  -6  -9   7   11.47    0.87
  -6  -9   7   11.76    0.81
  -6  -9   7   11.13    0.87
  -6   9   7   12.21    0.87
   6   9  -7   12.30    0.81
  -6   9   7   11.97    0.86
  -6   9   7   12.53    0.82
  -6   9   7   12.47    0.96
  -6   9   7   12.07    0.96
  -5   9   7    6.03    0.60
  -5   9   7    6.78    0.50
  -5   9   7    6.55    0.51
  -5   9   7    5.63    0.62
   5   9  -7    6.44    0.48
  -5   9   7    6.72    0.54
  -4  -9   7    9.82    0.76
  -4  -9   7    9.84    0.82
  -4  -9   7    9.26    1.16
  -4   9   7   10.62    1.20
  -4   9   7   12.34    0.90
  -4   9   7   12.84    0.78
  -4   9   7   11.53    0.81
  -4   9   7   12.06    0.90
  -4   9   7   12.00    0.84
  -3  -9   7   11.44    0.91
  -3  -9   7   11.78    0.77
  -3  -9   7   13.45    1.18
   3   9  -7   11.09    0.77
  -3   9   7   11.69    0.79
  -3   9   7   10.93    0.89
  -3   9   7   11.57    1.15
  -3   9   7   10.69    0.83
   2   9  -7    3.77    0.30
  -2   9   7    3.89    0.73
  -2   9   7    2.67    0.63
  -1  -9   7    1.73    0.63
  -1  -9   7    1.58    0.42
  -1   9   7    1.01    0.55
   1   9  -7    1.13    0.19
  -1   9   7    0.70    0.46
   0  -9   7    1.52    0.65
   0   9   7    0.61    0.52
   0   9  -7    1.06    0.19
   0   9   7    0.43    0.53
   1  -9   7   20.03    1.67
   1   9   7   18.67    1.67
   2  -9   7    8.07    1.14
   2   9   7    9.38    1.13
   2   9   7    7.47    1.34
  -3  -9  -7   24.65    1.78
  -3  -9  -7   24.77    1.95
  -3   9  -7   24.40    1.78
   3   9   7   27.10    2.25
  -3   9  -7   25.60    1.82
  -3   9  -7   25.59    1.82
  -4  -9  -7   11.91    0.83
  -4  -9  -7   10.12    0.91
  -4  -9  -7   10.83    0.82
   4   9   7    9.39    1.66
  -4   9  -7   10.50    0.80
  -4   9  -7   10.64    0.82
  -4   9  -7   10.86    0.80
  -4   9  -7   10.74    0.82
  -5   9  -7    0.89    0.19
  -5   9  -7    1.15    0.19
  -5   9  -7    1.17    0.19
   5   9   7   -0.66    1.11
  -5   9  -7    0.65    0.19
  -6  -9  -7   13.14    1.05
  -6  -9  -7   12.68    0.99
  -6   9  -7   14.31    0.98
  -6   9  -7   13.68    0.99
  -6   9  -7   13.12    1.01
  -6   9  -7   14.03    1.01
  -7  -9  -7    2.97    0.39
  -7  -9  -7    3.44    0.45
  -7   9  -7    3.98    0.38
  -7   9  -7    4.19    0.38
  -7   9  -7    4.16    0.39
  -7   9  -7    3.92    0.42
  -8  -9  -7    1.76    0.27
  -8   9  -7    1.41    0.25
  -8   9  -7    1.14    0.26
  -8   9  -7    1.53    0.30
  -8   9  -7    1.40    0.26
  -9  -9  -7    0.57    0.19
  -9   9  -7    0.46    0.13
  -9   9  -7    0.87    0.19
  -9   9  -7    0.26    0.14
  -9 -10   7    0.30    0.13
  -9 -10   7    0.28    0.12
  -9 -10   7    0.50    0.14
  -8 -10   7    0.71    0.17
  -8 -10   7    0.58    0.16
  -8 -10   7    0.97    0.20
  -8  10   7    1.10    0.22
  -8  10   7    1.23    0.21
  -7 -10   7    2.05    0.33
  -7 -10   7    2.20    0.32
  -7 -10   7    2.49    0.39
  -7  10   7    2.69    0.31
  -7  10   7    2.96    0.32
  -7  10   7    1.98    0.46
  -7  10   7    1.82    0.41
   7  10  -7    2.64    0.28
  -7  10   7    2.96    0.32
  -6 -10   7    7.85    0.62
  -6 -10   7    8.03    0.62
  -6 -10   7    7.44    0.56
  -6 -10   7    7.38    0.68
  -6  10   7    6.89    0.70
  -6  10   7    7.67    0.72
  -6  10   7    8.24    0.63
  -6  10   7    7.97    0.59
   6  10  -7    8.46    0.56
  -6  10   7    8.55    0.61
  -5  10   7    3.34    0.37
  -5  10   7    2.81    0.45
  -5  10   7    3.50    0.35
  -5  10   7    2.74    0.47
  -5  10   7    3.47    0.34
   5  10  -7    3.43    0.32
  -4 -10   7   21.48    1.45
  -4 -10   7   22.37    1.44
  -4 -10   7   22.32    1.59
  -4 -10   7   23.34    1.80
  -4  10   7   19.75    1.54
  -4  10   7   20.36    1.45
  -4  10   7   19.43    1.44
  -4  10   7   18.23    1.52
  -4  10   7   20.15    1.36
   4  10  -7   20.15    1.35
  -3 -10   7    2.08    0.61
  -3  10   7    1.22    0.21
  -3  10   7    1.12    0.53
   3  10  -7    1.25    0.22
   3  10  -7    1.65    0.22
  -3  10   7    1.65    0.29
   2 -10  -7    8.74    0.79
  -2 -10   7   10.21    1.09
  -2  10   7   11.45    1.11
  -2  10   7   10.59    0.81
   2  10  -7   10.96    0.69
  -1 -10   7    6.85    1.13
   1  10  -7    9.06    0.61
  -1  10   7   10.06    1.10
  -1  10   7    9.14    1.06
   0 -10   7    5.94    1.10
   0  10   7    5.08    0.76
   0  10   7    5.06    0.82
   0  10  -7    4.27    0.35
   1 -10   7    2.31    0.75
   1  10   7    3.34    0.79
   1  10   7    3.94    0.88
  -2  10  -7    5.61    0.49
   2  10   7    7.33    1.09
  -3 -10  -7    3.64    0.40
  -3 -10  -7    3.44    0.49
  -3 -10  -7    4.12    0.48
  -3  10  -7    3.59    0.36
   3  10   7    2.52    0.91
  -3  10  -7    3.69    0.36
  -3  10  -7    4.09    0.39
  -4 -10  -7    6.05    0.59
  -4  10  -7    7.85    0.58
  -4  10  -7    6.94    0.55
  -4  10  -7    6.66    0.56
  -5 -10  -7    0.99    0.30
   5  10   7   -1.11    1.16
  -5  10  -7    1.47    0.30
  -5  10  -7    0.82    0.19
  -5  10  -7    1.12    0.19
  -6 -10  -7   11.89    0.78
  -6 -10  -7    9.58    0.92
  -6  10  -7    9.99    0.77
  -6  10  -7    9.47    0.78
  -6  10  -7    9.49    0.76
  -6  10  -7   10.53    0.79
  -7  10  -7    3.82    0.41
  -7  10  -7    3.99    0.39
  -7  10  -7    3.69    0.39
  -7  10  -7    4.15    0.41
  -8 -10  -7    6.63    0.58
  -8 -10  -7    6.16    0.63
  -8 -10  -7    6.29    0.55
  -8  10  -7    7.48    0.57
  -8  10  -7    7.10    0.55
  -8  10  -7    7.27    0.54
  -8  10  -7    7.26    0.56
  -9  10  -7    2.15    0.25
  -9  10  -7    2.76    0.27
  -9  10  -7    2.54    0.26
  -9 -11   7    0.52    0.12
  -9 -11   7    0.71    0.14
  -9 -11   7    0.38    0.14
  -9  11   7    0.60    0.12
  -9  11   7    0.84    0.17
  -8 -11   7    5.90    0.62
  -8  11   7    6.64    0.53
  -8  11   7    7.88    0.55
  -8  11   7    7.55    0.57
  -8  11   7    7.40    0.61
   8  11  -7    7.16    0.51
  -8  11   7    8.23    0.63
  -7 -11   7    3.08    0.37
  -7 -11   7    3.86    0.44
  -7 -11   7    3.44    0.37
  -7  11   7    3.82    0.36
  -7  11   7    4.13    0.37
  -7  11   7    2.63    0.44
   7  11  -7    3.78    0.33
  -7  11   7    3.51    0.49
  -7  11   7    3.67    0.38
  -6 -11   7   14.48    1.05
  -6 -11   7   15.21    1.15
  -6 -11   7   13.81    1.04
  -6  11   7   14.57    1.06
  -6  11   7   13.99    0.99
   6  11  -7   15.87    0.98
  -6  11   7   14.98    1.05
  -6  11   7   14.00    1.14
  -6  11   7   14.89    1.14
  -5 -11   7    0.44    0.19
  -5 -11   7    0.32    0.74
  -5  11   7    0.81    0.19
  -5  11   7    0.91    0.20
  -5  11   7    0.48    0.27
   5  11  -7    0.82    0.16
  -5  11   7    0.55    0.25
  -4 -11   7   10.74    0.89
  -4 -11   7   11.36    0.84
  -4 -11   7   11.01    0.82
  -4 -11   7   11.22    1.31
  -4  11   7   11.62    0.84
  -4  11   7   10.23    0.89
  -4  11   7   10.50    0.81
   4  11  -7   11.71    0.75
  -4  11   7   12.03    0.79
  -4  11   7   10.26    0.90
  -3 -11   7    3.65    0.39
  -3 -11   7    4.86    0.96
  -3 -11   7    3.67    0.41
  -3  11   7    3.98    0.48
  -3  11   7    4.00    0.50
  -3  11   7    3.64    0.40
  -3  11   7    3.56    0.39
  -3  11   7    3.24    0.44
  -3  11   7    4.38    0.89
   3  11  -7    3.70    0.32
   2 -11  -7    4.28    0.44
  -2 -11   7    5.19    0.44
  -2  11   7    3.61    0.45
  -2  11   7    4.39    0.92
  -2  11   7    4.81    0.43
   2  11  -7    3.72    0.41
   2  11  -7    4.36    0.34
  -1 -11   7    5.05    1.08
  -1  11   7    4.65    0.73
   1  11  -7    4.47    0.36
  -1  11   7    4.78    0.45
   0 -11   7    7.31    1.20
   0  11  -7    7.65    0.54
   0  11   7    7.81    1.08
  -1 -11  -7    9.50    0.85
   1  11   7   12.92    1.30
  -1  11  -7   12.51    0.86
   2  11   7    6.04    1.13
  -2  11  -7    4.27    0.42
  -2  11  -7    5.07    0.46
  -3  11  -7    3.17    0.35
  -3  11  -7    2.90    0.35
   3  11   7    3.22    1.02
  -3  11  -7    3.11    0.36
  -4 -11  -7   19.54    1.47
  -4 -11  -7   18.75    1.49
  -4 -11  -7   18.46    1.63
  -4  11  -7   21.82    1.48
  -4  11  -7   21.67    1.51
  -4  11  -7   21.46    1.47
   4  11   7   23.44    2.22
  -4  11  -7   21.53    1.50
  -5 -11  -7    2.36    0.52
  -5  11  -7    3.35    0.36
  -5  11  -7    3.40    0.34
  -5  11  -7    3.38    0.37
  -5  11  -7    2.78    0.35
  -6  11  -7    2.82    0.37
  -6  11  -7    3.55    0.36
  -6  11  -7    3.09    0.37
  -6  11  -7    3.39    0.37
  -7 -11  -7    0.82    0.24
  -7 -11  -7    0.99    0.21
  -7  11  -7    1.24    0.28
  -7  11  -7    1.36    0.20
  -7  11  -7    0.95    0.20
  -7  11  -7    1.38    0.27
  -8 -11  -7    2.72    0.35
  -8 -11  -7    2.49    0.41
  -8 -11  -7    2.62    0.31
  -8  11  -7    3.19    0.31
  -8  11  -7    2.84    0.30
  -8  11  -7    2.92    0.32
  -9 -11  -7    2.62    0.25
  -9 -11  -7    2.44    0.31
  -9 -11  -7    2.66    0.27
  -9  11  -7    1.75    0.24
  -9  11  -7    1.85    0.23
  -9  11  -7    2.01    0.23
  -9 -12   7    0.60    0.14
   9 -12  -7    0.52    0.16
  -9  12   7    0.66    0.15
  -9  12   7    0.82    0.17
  -9  12   7    0.80    0.12
  -8 -12   7    1.60    0.25
  -8 -12   7    1.67    0.27
  -8  12   7    2.14    0.36
  -8  12   7    1.63    0.30
  -8  12   7    1.36    0.23
   8  12  -7    1.53    0.22
  -8  12   7    1.62    0.25
  -8  12   7    1.88    0.23
   7  12  -7    1.89    0.24
  -7  12   7    1.94    0.29
  -7  12   7    1.50    0.31
  -7  12   7    1.73    0.29
  -7  12   7    2.16    0.29
  -6 -12   7    1.72    0.32
  -6 -12   7    2.22    0.38
  -6 -12   7    2.21    0.34
  -6  12   7    2.14    0.45
  -6  12   7    2.55    0.43
  -6  12   7    2.70    0.33
   5  12  -7    1.15    0.23
  -5  12   7    0.90    0.19
  -5  12   7    1.24    0.22
  -5  12   7    0.64    0.26
  -5  12   7    1.08    0.22
  -4 -12   7   16.72    1.48
   4  12  -7   13.22    0.88
  -4  12   7   13.55    0.99
  -4  12   7   12.23    1.03
  -4  12   7   12.19    0.95
  -4  12   7   12.69    0.92
  -4  12   7   13.84    1.05
  -3 -12   7    2.50    0.35
  -3 -12   7    3.32    0.76
  -3 -12   7    2.86    0.36
  -3  12   7    2.16    0.38
   3  12  -7    2.35    0.27
  -3  12   7    3.12    0.48
  -3  12   7    2.25    0.40
  -3  12   7    2.64    0.34
  -3  12   7    2.40    0.45
   2 -12  -7   11.75    0.78
   2  12  -7    9.81    0.68
  -2  12   7    9.47    0.76
  -2  12   7    9.94    1.23
  -2  12   7    8.99    0.79
  -1 -12   7    1.95    0.36
   1 -12  -7    2.31    0.31
  -1 -12   7    1.89    0.37
   1  12  -7    2.16    0.24
  -1  12   7    2.73    0.38
   1  12  -7    2.03    0.32
  -1  12   7    1.79    0.64
  -1  12   7    2.45    0.36
   0  12  -7    2.17    0.31
   0  12  -7    2.40    0.26
   0  12   7    2.84    0.37
   0  12   7    1.09    0.67
   0  12   7    3.36    0.41
   1 -12   7    3.19    0.40
  -1 -12  -7    3.47    0.36
  -1  12  -7    2.96    0.34
  -1  12  -7    3.13    0.39
   1  12   7    3.39    0.50
  -1  12  -7    2.83    0.31
   1  12   7    3.24    0.77
   2 -12   7    6.39    0.54
  -2 -12  -7    6.77    0.55
   2  12   7    5.95    1.20
  -2  12  -7    5.68    0.54
  -3 -12  -7    3.60    0.51
  -3 -12  -7    3.28    0.42
  -3 -12  -7    3.34    0.45
  -3  12  -7    3.90    0.39
   3  12   7    3.39    0.97
  -3  12  -7    3.59    0.37
  -4 -12  -7    3.56    0.44
  -4 -12  -7    2.85    0.54
  -4  12  -7    4.05    0.40
  -4  12  -7    4.35    0.43
   4  12   7    1.95    1.07
  -4  12  -7    3.74    0.39
  -4  12  -7    3.70    0.40
  -5 -12  -7    1.07    0.31
  -5 -12  -7    1.94    0.33
  -5  12  -7    1.73    0.30
  -5  12  -7    1.58    0.29
  -5  12  -7    1.30    0.30
  -5  12  -7    1.64    0.32
  -6  12  -7    5.28    0.47
  -6  12  -7    4.68    0.46
  -6  12  -7    4.67    0.45
  -6  12  -7    4.89    0.45
  -7 -12  -7    0.06    0.24
  -7 -12  -7    0.34    0.18
  -7 -12  -7    0.12    0.22
  -7  12  -7    0.75    0.18
  -7  12  -7    0.61    0.17
  -7  12  -7    0.39    0.18
  -8 -12  -7    6.67    0.53
  -8 -12  -7    6.59    0.50
  -8 -12  -7    6.75    0.58
  -8  12  -7    5.95    0.50
  -8  12  -7    6.38    0.51
  -8  12  -7    5.67    0.50
  -8  12  -7    5.71    0.49
  -9 -12  -7    0.34    0.13
  -9 -12  -7    0.15    0.15
   9 -12   7    0.44    0.12
  -9 -12  -7    0.40    0.14
  -9  12  -7    0.25    0.12
  -9  12  -7    0.26    0.11
  -9  12  -7    0.29    0.11
   9 -13  -7    0.70    0.15
  -9 -13   7    0.58    0.12
  -9 -13   7    0.48    0.13
  -9 -13   7    0.48    0.13
  -9  13   7    0.79    0.16
  -9  13   7    0.83    0.14
  -9  13   7    0.86    0.15
  -8 -13   7   10.21    0.73
  -8 -13   7    8.92    0.66
  -8 -13   7    9.20    0.66
  -8  13   7    7.74    0.66
  -8  13   7    8.72    0.70
  -8  13   7    8.64    0.65
  -8  13   7    9.46    0.72
  -7 -13   7    0.91    0.17
   7  13  -7    0.62    0.15
  -7  13   7    0.61    0.24
  -7  13   7    0.44    0.18
  -7  13   7    0.53    0.20
  -7  13   7    0.79    0.16
  -7  13   7    0.52    0.18
  -6 -13   7    6.37    0.55
  -6 -13   7    6.97    0.62
  -6 -13   7    6.27    0.57
  -6  13   7    7.06    0.56
  -6  13   7    6.97    0.55
  -6  13   7    6.72    0.64
  -6  13   7    6.81    0.64
  -6  13   7    6.86    0.57
   6  13  -7    7.15    0.50
  -5 -13   7    1.04    0.20
  -5 -13   7    1.32    0.23
  -5 -13   7    1.35    0.24
  -5  13   7    1.99    0.33
  -5  13   7    1.33    0.24
  -5  13   7    1.51    0.29
  -4 -13   7    4.07    0.39
  -4 -13   7    4.49    0.97
  -4 -13   7    3.55    0.42
   4  13  -7    3.29    0.32
  -4  13   7    3.03    0.36
  -4  13   7    2.93    0.48
  -4  13   7    3.44    0.42
  -4  13   7    3.31    0.41
  -3  13   7    6.59    0.66
  -3  13   7    7.35    0.57
   3  13  -7    6.12    0.47
  -3  13   7    6.76    0.63
  -3  13   7    6.19    0.54
  -3  13   7    5.55    0.60
  -2 -13   7    2.47    0.37
   2 -13  -7    2.53    0.37
  -2 -13   7    3.40    0.42
  -2  13   7    2.77    0.36
   2  13  -7    2.96    0.28
  -2  13   7    1.99    0.40
  -2  13   7    2.13    0.76
  -1 -13   7    5.73    0.48
  -1  13   7    3.95    0.82
   1  13  -7    4.12    0.47
  -1  13   7    5.09    0.48
   1  13  -7    4.95    0.39
  -1  13   7    4.94    0.49
   0 -13   7    7.12    0.58
   0 -13  -7    6.83    0.56
   0  13   7    6.70    0.59
   0  13  -7    6.12    0.54
   0  13   7    6.56    0.59
   0  13  -7    6.60    0.48
   0  13   7    6.64    1.14
   1 -13   7    2.84    0.40
  -1 -13  -7    3.25    0.39
  -1  13  -7    4.12    0.41
  -1  13  -7    3.81    0.33
  -1  13  -7    3.14    0.36
   1  13   7    4.23    0.52
  -2 -13  -7   23.49    1.83
   2 -13   7   22.42    1.70
  -2 -13  -7   21.72    1.67
   2  13   7   22.40    1.71
   2  13   7   27.23    2.17
  -2  13  -7   23.72    1.69
  -2  13  -7   24.20    1.70
  -3 -13  -7    0.69    0.27
  -3 -13  -7    0.49    0.23
  -3 -13  -7    0.77    0.27
  -3  13  -7    0.20    0.16
  -3  13  -7    0.45    0.18
   3  13   7   -0.06    0.86
  -4 -13  -7   10.71    0.86
  -4 -13  -7   10.50    0.97
  -4  13  -7   11.57    0.86
  -4  13  -7   11.42    0.86
  -4  13  -7   11.41    0.85
  -4  13  -7   11.17    0.84
  -5 -13  -7    0.76    0.22
  -5  13  -7    0.93    0.20
  -5  13  -7    0.85    0.20
  -5  13  -7    1.13    0.22
  -5  13  -7    1.09    0.20
  -6 -13  -7    0.73    0.29
  -6 -13  -7    1.21    0.23
  -6  13  -7    1.32    0.22
  -6  13  -7    1.73    0.32
  -6  13  -7    1.51    0.30
  -6  13  -7    1.87    0.31
  -7  13  -7    2.01    0.29
  -7  13  -7    1.55    0.29
  -7  13  -7    2.49    0.32
  -7  13  -7    1.80    0.29
  -8 -13  -7    0.50    0.19
  -8 -13  -7    0.68    0.19
  -8 -13  -7    0.83    0.16
  -8  13  -7    1.17    0.24
  -8  13  -7    0.86    0.15
  -8  13  -7    0.67    0.15
  -8  13  -7    1.07    0.22
  -8 -14   7    1.84    0.23
  -8 -14   7    1.83    0.26
  -8  14   7    1.09    0.26
  -8  14   7    1.31    0.24
  -8  14   7    1.39    0.22
  -8  14   7    1.78    0.31
  -7 -14   7    1.39    0.28
  -7  14   7    1.08    0.20
  -7  14   7    1.01    0.17
  -7  14   7    0.85    0.23
  -7  14   7    0.66    0.19
  -7  14   7    0.86    0.21
   7  14  -7    1.06    0.20
  -6  14   7    2.17    0.30
  -6  14   7    1.58    0.27
  -6  14   7    1.43    0.28
  -6  14   7    1.61    0.25
  -6  14   7    1.55    0.24
  -5 -14   7    1.04    0.22
  -5 -14   7    0.67    0.19
  -5 -14   7    0.84    0.21
   5  14  -7    0.73    0.15
  -5  14   7    0.32    0.21
  -5  14   7    0.34    0.18
  -5  14   7    0.38    0.24
  -5  14   7    0.46    0.23
  -5  14   7    0.22    0.24
  -4 -14   7    3.70    0.41
  -4  14   7    2.44    0.36
  -4  14   7    2.41    0.43
   4  14  -7    3.00    0.29
  -4  14   7    2.65    0.41
  -4  14   7    2.62    0.43
  -4  14   7    3.21    0.48
  -3 -14   7    2.46    0.37
  -3 -14   7    2.52    0.37
  -3  14   7    1.72    0.33
  -3  14   7    2.28    0.35
   3  14  -7    2.37    0.26
  -2 -14   7    4.99    0.50
   2 -14  -7    3.97    0.47
  -2 -14   7    4.10    0.51
  -2  14   7    4.63    0.50
   2  14  -7    5.53    0.39
  -2  14   7    5.37    0.48
   1 -14  -7    1.38    0.32
  -1  14   7    2.22    0.37
   1  14  -7    1.92    0.26
  -1  14   7    2.18    0.37
  -1  14   7    0.89    0.75
   1  14  -7    1.78    0.32
   0  14   7    6.15    0.56
   0  14  -7    5.20    0.50
   0  14   7    5.78    1.13
   0  14  -7    5.89    0.44
   1  14   7    2.58    0.47
   1  14   7    3.24    0.84
  -1  14  -7    2.48    0.36
  -1  14  -7    2.25    0.28
  -1  14  -7    2.22    0.31
   2 -14   7    7.74    0.62
  -2 -14  -7    8.61    0.62
  -2  14  -7    7.59    0.62
   2  14   7    5.66    1.11
   2  14   7    7.35    0.73
  -2  14  -7    6.25    0.60
  -3 -14  -7    3.87    0.50
   3 -14   7    3.26    0.40
  -3  14  -7    2.88    0.35
  -3  14  -7    3.34    0.39
   3  14   7    3.61    1.06
  -4 -14  -7    2.61    0.41
  -4 -14  -7    2.59    0.49
  -4  14  -7    1.99    0.32
  -4  14  -7    2.56    0.36
  -4  14  -7    1.93    0.34
  -4  14  -7    2.35    0.40
  -5 -14  -7    0.35    0.21
  -5 -14  -7   -0.12    0.25
  -5  14  -7    0.40    0.20
  -5  14  -7    0.50    0.20
  -5  14  -7    0.24    0.18
  -5  14  -7    0.61    0.19
  -6 -14  -7    0.88    0.25
  -6 -14  -7    1.27    0.28
  -6  14  -7    0.83    0.20
  -6  14  -7    0.81    0.20
  -6  14  -7    0.56    0.19
   7 -14   7    0.61    0.20
  -7 -14  -7    0.49    0.21
  -7 -14  -7    0.54    0.18
  -7 -14  -7    0.34    0.21
  -7  14  -7    0.22    0.16
  -7  14  -7    0.31    0.16
  -7  14  -7    0.47    0.17
  -7  14  -7    0.34    0.17
   8 -14   7    2.41    0.30
  -8 -14  -7    2.49    0.34
  -8 -14  -7    2.44    0.29
  -8 -14  -7    2.80    0.33
  -8  14  -7    3.54    0.28
  -8  14  -7    2.98    0.30
  -8  14  -7    3.18    0.28
   8 -15  -7    8.77    0.65
  -8 -15   7    8.97    0.69
  -8 -15   7    7.97    0.63
  -8 -15   7    8.14    0.64
  -8  15   7    8.59    0.63
  -8  15   7    9.38    0.67
  -8  15   7    8.79    0.62
  -7  15   7    0.53    0.19
  -7  15   7    0.63    0.15
  -7  15   7    0.51    0.17
   7  15  -7    0.65    0.14
  -7  15   7    0.34    0.17
  -7  15   7    0.64    0.20
  -6  15   7    4.26    0.39
  -6  15   7    4.17    0.45
  -6  15   7    3.31    0.39
  -6  15   7    4.04    0.45
   6  15  -7    4.60    0.35
  -6  15   7    3.23    0.42
  -5 -15   7    3.97    0.44
  -5 -15   7    4.76    0.46
  -5 -15   7    4.92    0.49
  -5  15   7    4.07    0.47
   5  15  -7    4.92    0.38
  -5  15   7    4.17    0.49
  -5  15   7    4.62    0.44
  -5  15   7    4.90    0.52
  -5  15   7    4.42    0.47
  -4  15   7    1.87    0.34
  -4  15   7    1.72    0.39
  -4  15   7    2.51    0.45
  -4  15   7    2.13    0.30
  -4  15   7    2.11    0.31
   4  15  -7    2.78    0.27
  -3  15   7    6.84    0.63
  -3  15   7    6.21    0.68
  -3  15   7    7.26    0.59
   3  15  -7    7.51    0.52
   2 -15  -7    1.06    0.22
  -2 -15   7    1.01    0.25
  -2 -15   7    0.87    0.22
  -2 -15   7    1.66    0.37
   2  15  -7    1.76    0.25
  -2  15   7    1.47    0.26
  -2  15   7    1.66    0.25
   1 -15  -7    1.58    0.30
  -1 -15   7    1.46    0.21
  -1  15   7    1.05    0.24
   1  15  -7    0.82    0.21
  -1  15   7    0.92    0.24
   1  15  -7    1.34    0.24
   0  15   7    2.44    0.90
   0  15  -7    2.72    0.34
   0  15   7    2.46    0.41
   0  15  -7    2.55    0.29
  -1 -15  -7    2.78    0.38
   1 -15   7    2.76    0.40
   1  15   7    4.11    0.96
   1  15   7    4.07    0.50
  -1  15  -7    3.76    0.38
  -1  15  -7    3.74    0.33
  -2 -15  -7   19.69    1.48
   2 -15   7   20.31    1.50
  -2 -15  -7   19.98    1.52
   2  15   7   21.29    2.08
  -2  15  -7   20.94    1.49
  -2  15  -7   21.07    1.50
   2  15   7   20.85    1.50
   3 -15   7   10.10    0.79
  -3 -15  -7   10.91    0.89
  -3 -15  -7   10.70    0.83
  -3  15  -7    9.26    0.78
  -3  15  -7    8.94    0.78
  -4 -15  -7    6.16    0.62
  -4 -15  -7    5.38    0.57
   4 -15   7    4.79    0.53
  -4  15  -7    6.30    0.57
  -4  15  -7    6.59    0.53
  -4  15  -7    6.22    0.53
  -5 -15  -7    0.67    0.23
  -5 -15  -7    0.75    0.27
  -5  15  -7    1.27    0.23
  -5  15  -7    1.09    0.20
  -5  15  -7    1.03    0.22
  -5  15  -7    1.38    0.22
  -6 -15  -7    0.18    0.26
  -6  15  -7    0.65    0.19
  -6  15  -7    0.94    0.18
  -6  15  -7    0.67    0.19
  -7 -15  -7    1.45    0.33
   7 -15   7    1.16    0.28
  -7 -15  -7    1.70    0.29
  -7 -15  -7    1.89    0.25
  -7  15  -7    1.51    0.26
  -7  15  -7    1.71    0.25
  -7  15  -7    1.53    0.26
  -7  15  -7    1.85    0.27
   8 -15   7    0.73    0.14
  -8 -15  -7    0.81    0.16
  -8 -15  -7    0.63    0.17
  -8 -15  -7    0.52    0.14
  -8  15  -7    0.43    0.13
  -8  15  -7    0.45    0.13
  -8  15  -7    0.70    0.14
  -8  15  -7    0.42    0.14
  -8 -16   7    2.52    0.26
  -8 -16   7    2.74    0.25
  -8 -16   7    2.23    0.23
   8  16  -7    2.13    0.22
  -8  16   7    1.93    0.24
  -8  16   7    2.05    0.26
  -8  16   7    1.91    0.22
  -8  16   7    2.62    0.28
  -7 -16   7    3.31    0.34
  -7 -16   7    2.44    0.29
  -7  16   7    2.75    0.34
  -7  16   7    2.51    0.30
  -7  16   7    2.81    0.33
  -7  16   7    2.83    0.29
  -6 -16   7    3.38    0.36
  -6 -16   7    2.52    0.32
  -6 -16   7    2.38    0.37
   6  16  -7    2.88    0.28
  -6  16   7    2.98    0.33
  -6  16   7    2.33    0.38
  -6  16   7    2.74    0.37
  -6  16   7    2.66    0.36
  -6  16   7    2.47    0.36
  -5 -16   7    0.92    0.19
  -5  16   7    0.24    0.21
  -5  16   7    0.38    0.18
   5  16  -7    0.58    0.15
  -5  16   7    0.41    0.25
  -5  16   7    0.06    0.21
  -5  16   7    0.47    0.23
  -4  16   7    2.69    0.41
  -4  16   7    3.13    0.38
   4  16  -7    3.19    0.31
  -4  16   7    3.01    0.45
  -4  16   7    3.02    0.47
  -4  16   7    2.19    0.44
  -3 -16   7    9.74    0.73
  -3 -16   7   10.11    0.80
   3 -16  -7    9.88    0.74
  -3 -16   7    9.22    0.75
  -3  16   7    9.22    0.73
  -3  16   7    7.88    0.79
   3  16  -7    9.60    0.65
  -3  16   7    8.17    0.77
   2  16  -7    2.39    0.28
   2  16  -7    2.44    0.35
  -2  16   7    1.70    0.38
  -2  16   7    2.19    0.38
   1  16  -7    3.25    0.42
  -1  16   7    3.39    0.43
   1  16  -7    3.93    0.34
  -1  16   7    3.24    0.44
   0  16  -7    1.52    0.32
   0  16  -7    1.71    0.26
   0  16   7    1.55    0.27
  -1 -16  -7    1.99    0.35
   1 -16   7    1.69    0.34
  -1  16  -7    2.33    0.33
  -1  16  -7    2.41    0.28
   1  16   7    0.62    0.99
   1  16   7    2.41    0.42
  -2 -16  -7    3.89    0.58
   2 -16   7    4.06    0.43
  -2  16  -7    4.07    0.42
   2  16   7    4.09    0.55
  -2  16  -7    4.45    0.45
   3 -16   7    7.99    0.61
  -3 -16  -7    6.87    0.67
  -3  16  -7    7.00    0.61
   3  16   7    6.54    0.72
  -3  16  -7    7.00    0.60
  -4 -16  -7    0.49    0.24
  -4 -16  -7    0.51    0.27
   4 -16   7    0.38    0.19
  -4  16  -7    0.38    0.18
  -4  16  -7    0.12    0.21
  -4  16  -7    0.02    0.17
  -5  16  -7    2.08    0.34
  -5  16  -7    1.80    0.34
  -5  16  -7    2.21    0.35
  -5  16  -7    1.38    0.30
  -6  16  -7    0.23    0.16
  -6  16  -7    0.42    0.17
  -6  16  -7    0.48    0.17
  -6  16  -7    0.14    0.18
  -7 -16  -7    1.75    0.30
   7 -16   7    1.63    0.26
  -7 -16  -7    1.65    0.27
  -7 -16  -7    1.63    0.33
  -7  16  -7    1.60    0.25
  -7  16  -7    2.11    0.26
  -7  16  -7    1.73    0.25
  -7  16  -7    1.48    0.25
  -8 -16  -7    0.54    0.15
   8 -16   7    0.50    0.12
  -8 -16  -7    0.61    0.13
  -8  16  -7    0.50    0.12
  -8  16  -7    0.38    0.13
  -8  16  -7    0.45    0.12
  -7 -17   7    9.51    0.72
  -7 -17   7   10.01    0.78
  -7 -17   7   10.08    0.73
   7 -17  -7   10.92    0.74
  -7  17   7    9.51    0.72
  -7  17   7   10.40    0.74
  -7  17   7    9.72    0.75
   7  17  -7    9.14    0.70
  -7  17   7    9.69    0.71
  -6  17   7    0.20    0.15
  -6  17   7    0.19    0.21
  -6  17   7    0.16    0.18
  -6  17   7    0.22    0.18
  -6  17   7    0.38    0.18
   6  17  -7    0.34    0.14
  -5 -17   7    3.80    0.46
  -5 -17   7    3.35    0.37
  -5 -17   7    2.50    0.36
  -5  17   7    3.14    0.40
  -5  17   7    2.66    0.41
  -5  17   7    2.35    0.39
   5  17  -7    2.99    0.29
  -5  17   7    2.38    0.39
  -5  17   7    2.76    0.34
  -4  17   7    2.46    0.33
  -4  17   7    2.59    0.41
  -4  17   7    2.99    0.36
  -4  17   7    2.79    0.48
   4  17  -7    3.31    0.31
   3 -17  -7    8.44    0.63
  -3 -17   7    6.34    0.68
  -3 -17   7    7.03    0.64
  -3 -17   7    7.54    0.63
  -3  17   7    6.48    0.70
   3  17  -7    8.11    0.60
  -3  17   7    7.59    0.63
   3  17  -7    8.14    0.55
  -3  17   7    7.39    0.64
  -2 -17   7    2.68    0.34
  -2 -17   7    2.57    0.42
   2 -17  -7    2.81    0.36
  -2  17   7    2.06    0.41
   2  17  -7    2.15    0.34
   2  17  -7    2.54    0.29
  -2  17   7    1.93    0.41
   1 -17  -7    4.48    0.43
  -1 -17   7    4.61    0.41
  -1 -17   7    4.50    0.51
   1  17  -7    3.86    0.36
   1  17  -7    3.49    0.43
  -1  17   7    3.24    0.47
  -1  17   7    3.08    0.47
   0  17  -7    1.05    0.21
   0  17   7    0.93    0.25
   0  17  -7    0.92    0.17
   1 -17   7    6.40    0.54
  -1 -17  -7    5.77    0.55
  -1  17  -7    6.29    0.54
  -1  17  -7    6.23    0.48
   1  17   7    6.48    0.61
   2 -17   7    7.55    0.65
  -2 -17  -7    7.06    0.74
   2  17   7    8.69    0.72
  -2  17  -7    8.30    0.65
   3 -17   7   16.42    1.30
  -3 -17  -7   16.39    1.31
  -3  17  -7   18.56    1.31
   3  17   7   18.89    1.32
  -3  17  -7   18.41    1.30
  -4 -17  -7    0.95    0.28
   4 -17   7    1.42    0.30
  -4 -17  -7    1.10    0.25
  -4  17  -7    0.74    0.24
  -4  17  -7    1.04    0.20
  -4  17  -7    0.70    0.20
  -5  17  -7    0.85    0.19
  -5  17  -7    0.71    0.20
  -5  17  -7    0.39    0.18
   6 -17   7    0.74    0.18
  -6 -17  -7    0.66    0.20
  -6 -17  -7    0.54    0.21
  -6  17  -7    1.13    0.25
  -6  17  -7    1.27    0.27
   7 -17   7    0.85    0.15
  -7 -17  -7    0.63    0.17
  -7 -17  -7    0.99    0.21
  -7 -17  -7    0.76    0.16
  -7  17  -7    0.60    0.15
  -7  17  -7    0.49    0.14
  -7  17  -7    0.39    0.14
  -7  17  -7    0.50    0.14
  -7 -18   7    2.92    0.26
  -7 -18   7    2.23    0.25
  -7  18   7    2.03    0.26
   7  18  -7    2.48    0.23
  -7  18   7    2.20    0.27
  -7  18   7    2.19    0.24
  -7  18   7    2.54    0.28
   6 -18  -7    1.42    0.27
  -6 -18   7    1.41    0.27
  -6 -18   7    0.92    0.19
  -6 -18   7    1.22    0.22
  -6  18   7    1.57    0.27
  -6  18   7    1.22    0.20
  -6  18   7    1.71    0.29
  -6  18   7    1.48    0.24
   6  18  -7    1.09    0.23
  -5 -18   7    0.49    0.18
   5 -18  -7    0.75    0.19
  -5 -18   7    0.41    0.19
   5  18  -7    1.10    0.20
  -5  18   7    0.67    0.20
  -5  18   7    0.99    0.18
   5  18  -7    0.62    0.16
  -5  18   7    0.68    0.21
  -5  18   7    0.70    0.26
  -5  18   7    0.91    0.21
  -4 -18   7    1.24    0.24
  -4 -18   7    1.42    0.23
   4 -18  -7    1.71    0.30
  -4 -18   7    1.59    0.23
   4  18  -7    1.29    0.25
   3  18  -7    6.01    0.49
  -3  18   7    5.18    0.60
  -3  18   7    5.51    0.52
   3  18  -7    6.50    0.45
  -3  18   7    5.29    0.54
  -2 -18   7    2.12    0.33
   2 -18  -7    2.08    0.33
   2  18  -7    2.41    0.34
  -2  18   7    2.44    0.38
   2  18  -7    2.51    0.29
  -2  18   7    2.27    0.38
   1  18  -7    1.80    0.28
  -1  18   7    2.00    0.28
  -1  18   7    1.76    0.39
   1  18  -7    1.68    0.34
   0 -18   7    2.27    0.32
   0 -18  -7    2.30    0.34
   0  18   7    2.06    0.41
   0  18  -7    2.12    0.29
   0  18  -7    1.77    0.35
   1  18   7    0.84    0.25
  -1  18  -7    0.90    0.17
  -1  18  -7    0.76    0.19
  -2 -18  -7    1.81    0.33
   2 -18   7    1.90    0.32
  -2  18  -7    1.36    0.21
   2  18   7    1.33    0.29
   3 -18   7    5.59    0.48
  -3 -18  -7    4.95    0.55
  -3  18  -7    5.22    0.47
   3  18   7    4.30    0.56
   4 -18   7    1.51    0.30
  -4 -18  -7    1.39    0.26
  -5 -18  -7    1.09    0.22
  -5 -18  -7    0.90    0.24
   5 -18   7    1.32    0.26
  -5  18  -7    1.40    0.29
   6 -18   7    2.14    0.26
  -6 -18  -7    1.49    0.30
  -6 -18  -7    1.55    0.29
  -6  18  -7    1.80    0.27
  -6  18  -7    2.12    0.27
  -7  18  -7    4.82    0.38
  -7  18  -7    4.28    0.38
  -7  18  -7    4.43    0.37
  -7 -19   7    9.21    0.68
  -7 -19   7    9.03    0.72
  -7 -19   7    8.97    0.66
   7 -19  -7    9.88    0.68
   7  19  -7    9.09    0.65
  -7  19   7    9.45    0.67
  -7  19   7    9.49    0.69
  -7  19   7    9.53    0.69
  -7  19   7    9.00    0.66
  -6 -19   7    2.03    0.32
   6 -19  -7    1.51    0.26
  -6 -19   7    1.44    0.25
  -6  19   7    2.12    0.24
  -6  19   7    1.57    0.27
  -6  19   7    1.85    0.26
   6  19  -7    1.99    0.22
  -6  19   7    1.75    0.28
  -5  19   7    1.20    0.20
   5  19  -7    1.31    0.22
  -5  19   7    1.03    0.21
   5  19  -7    1.15    0.24
  -5  19   7    1.43    0.28
   4 -19  -7    0.97    0.19
  -4 -19   7    0.74    0.20
  -4  19   7    1.24    0.21
   4  19  -7    1.21    0.26
  -4  19   7    1.07    0.20
  -4  19   7    1.31    0.25
  -3 -19   7    0.47    0.21
   3 -19  -7    0.29    0.17
  -3 -19   7    0.24    0.18
   3  19  -7    0.45    0.16
  -3  19   7    0.23    0.20
  -3  19   7    0.29    0.20
  -3  19   7    0.07    0.26
   3  19  -7    0.52    0.16
   2  19  -7    0.71    0.17
   2  19  -7    0.43    0.17
  -2  19   7    0.21    0.22
  -2  19   7    0.36    0.22
   0 -19  -7    4.56    0.41
   0  19  -7    3.18    0.34
   0  19   7    3.21    0.45
  -1  19  -7    3.24    0.38
  -1  19  -7    3.37    0.33
   1  19   7    3.08    0.45
   2 -19   7    1.58    0.29
  -2 -19  -7    1.15    0.30
  -2  19  -7    1.00    0.19
   2  19   7    1.19    0.26
   3 -19   7   20.54    1.41
  -3 -19  -7   20.28    1.40
   3  19   7   18.40    1.39
  -3  19  -7   18.07    1.41
  -4 -19  -7    2.56    0.41
   4 -19   7    3.01    0.36
  -4  19  -7    3.87    0.40
   4  19   7    3.49    0.47
   5  19   7    2.15    0.34
  -5  19  -7    1.65    0.29
  -5  19  -7    1.47    0.31
  -6 -19  -7    2.53    0.35
   6 -19   7    2.57    0.31
   6  19   7    3.40    0.34
  -6  19  -7    3.35    0.31
  -6  19  -7    3.28    0.31
   6 -20  -7    1.08    0.20
  -6  20   7    1.77    0.20
  -6  20   7    1.41    0.23
  -5 -20   7    0.63    0.16
   5 -20  -7    0.51    0.15
  -5 -20   7    0.62    0.17
  -5  20   7    0.72    0.17
  -5  20   7    0.50    0.18
   5  20  -7    0.62    0.14
  -5  20   7    0.69    0.16
  -4 -20   7    5.42    0.42
   4  20  -7    4.18    0.37
  -4  20   7    3.79    0.44
  -4  20   7    3.93    0.41
   4  20  -7    4.33    0.36
  -4  20   7    4.26    0.43
   3  20  -7    2.72    0.31
  -3  20   7    2.16    0.36
  -3  20   7    2.89    0.42
   3  20  -7    2.79    0.28
  -3  20   7    2.64    0.38
  -2 -20   7    0.07    0.17
   2 -20  -7    0.11    0.17
   2  20  -7    0.37    0.16
  -2  20   7    0.44    0.21
   2  20  -7    0.27    0.17
  -2  20   7    0.14    0.20
   0 -20   7    1.96    0.32
   0  20   7    2.00    0.38
   0  20  -7    1.81    0.27
   1 -20   7    4.70    0.44
  -1  20  -7    4.94    0.40
  -1  20  -7    4.40    0.45
   1  20   7    5.11    0.50
  -2 -20  -7    3.01    0.45
   2 -20   7    3.19    0.33
   2  20   7    1.91    0.40
  -2  20  -7    2.27    0.33
   3 -20   7    3.76    0.35
  -3 -20  -7    2.86    0.42
  -3  20  -7    3.09    0.35
   3  20   7    2.72    0.41
  -4 -20  -7    5.89    0.57
   4 -20   7    5.58    0.54
  -4  20  -7    7.78    0.56
  -4  20  -7    7.41    0.54
  -5 -20  -7    0.65    0.18
   5 -20   7    1.11    0.23
   5 -20   7    0.91    0.15
  -5  20  -7    0.52    0.15
  -5  20  -7    0.72    0.18
  -6 -20  -7    1.58    0.24
   6 -20   7    2.20    0.23
   6 -20   7    2.04    0.22
  -6  20  -7    1.68    0.23
  -6  20  -7    1.70    0.25
   6 -21  -7    3.75    0.31
  -6  21   7    3.61    0.30
  -6  21   7    3.67    0.32
   6  21  -7    4.00    0.30
  -5  21   7    0.60    0.16
  -5  21   7    0.69    0.16
  -5  21   7    0.50    0.14
   5  21  -7    0.53    0.12
  -4 -21   7    0.69    0.18
   4 -21  -7    0.74    0.16
  -4  21   7    0.88    0.18
  -4  21   7    0.72    0.20
  -4  21   7    1.05    0.17
   4  21  -7    0.79    0.14
   3 -21  -7    0.99    0.18
  -3 -21   7    0.80    0.19
  -3  21   7    1.61    0.30
   3  21  -7    1.43    0.23
  -3  21   7    1.34    0.20
  -3  21   7    1.31    0.25
   3  21  -7    1.10    0.17
  -2 -21   7    0.91    0.18
   2 -21  -7    0.98    0.18
   2  21  -7    0.63    0.17
   2  21  -7    0.72    0.16
  -2  21   7    0.53    0.19
   1  21  -7    2.05    0.26
  -1  21   7    1.79    0.35
   1  21  -7    1.79    0.32
   0  21  -7    0.93    0.17
   0  21   7    1.04    0.22
  -1  21  -7    1.41    0.27
   1  21   7    2.05    0.34
  -2 -21  -7    2.59    0.43
   2 -21   7    3.69    0.36
  -2  21  -7    2.97    0.35
   2  21   7    3.18    0.39
  -3 -21  -7   10.16    0.73
   3 -21   7   10.11    0.71
  -3  21  -7    8.18    0.71
   3  21   7    8.68    0.72
   4 -21   7    9.16    0.66
   4 -21   7    8.12    0.64
  -4 -21  -7    9.11    0.67
  -4  21  -7    7.59    0.67
  -4  21  -7    8.76    0.65
   4  21   7    8.76    0.68
   5 -21   7    0.63    0.14
  -5 -21  -7    0.60    0.16
   5 -21   7    0.58    0.14
  -5  21  -7    0.54    0.17
  -5  21  -7    0.88    0.19
   5 -22  -7    0.64    0.12
   5  22  -7    0.47    0.11
  -5  22   7    0.41    0.12
  -5  22   7    0.44    0.13
  -5  22   7    0.29    0.13
  -4 -22   7    3.68    0.34
   4 -22  -7    4.10    0.32
  -4  22   7    3.16    0.33
  -4  22   7    3.26    0.34
  -4  22   7    2.75    0.34
   4  22  -7    3.25    0.30
   3 -22  -7    1.08    0.24
  -3 -22   7    0.73    0.17
  -3  22   7    1.05    0.22
   3  22  -7    1.40    0.23
  -3  22   7    1.00    0.18
  -2  22   7    4.18    0.39
   2  22  -7    4.06    0.34
   2  22  -7    4.15    0.38
   1  22  -7    3.93    0.35
   1  22  -7    4.44    0.39
  -1  22   7    4.35    0.41
   0  22  -7    0.49    0.16
   0  22   7    0.50    0.19
  -2 -22  -7    1.89    0.36
   2 -22   7    2.46    0.30
   2  22   7    1.94    0.33
  -3 -22  -7    2.15    0.33
  -3  22  -7    2.23    0.28
   3  22   7    2.26    0.31
  -4 -22  -7    3.74    0.37
   4 -22   7    4.11    0.36
  -4  22  -7    3.95    0.34
  -5 -22  -7    0.83    0.15
   5 -22   7    0.66    0.13
   4 -23  -7    1.20    0.20
  -4  23   7    1.32    0.23
  -4  23   7    1.56    0.21
   4  23  -7    1.40    0.19
  -3  23   7    1.44    0.29
   3  23  -7    1.65    0.23
  -3  23   7    1.87    0.26
  -2 -23   7    0.46    0.16
   2  23  -7    1.21    0.23
  -2  23   7    0.85    0.17
  -1 -23   7    2.80    0.31
   1  23  -7    2.39    0.30
  -1  23   7    2.32    0.32
   0 -23   7    6.63    0.56
   0  23   7    7.37    0.56
   1 -23   7    1.67    0.28
   1  23   7    2.23    0.30
  -2 -23  -7    7.62    0.60
   2 -23   7    8.38    0.59
   2  23   7    6.53    0.58
  -3  23  -7    1.43    0.23
   3  23   7    1.70    0.27
  -4 -23  -7    7.21    0.53
   4 -23   7    7.67    0.54
   4  23   7    6.99    0.54
  -4  23  -7    6.38    0.53
   3 -24  -7    0.50    0.14
  -3 -24   7    0.43    0.14
  -3  24   7    0.62    0.17
  -3  24   7    0.44    0.13
  -2 -24   7    2.47    0.29
  -2  24   7    2.95    0.29
   2  24  -7    3.06    0.28
  -1 -24   7    0.42    0.14
   1  24  -7    0.27    0.15
  -1  24   7    0.18    0.14
   0 -24   7    3.64    0.37
   0  24   7    4.84    0.37
   1 -24   7    5.60    0.43
   1  24   7    4.76    0.43
   2 -24   7    2.49    0.27
  -2 -24  -7    2.14    0.31
   3 -24   7    2.08    0.23
  -3 -24  -7    1.68    0.26
   3  24   7    2.51    0.26
  -2 -25   7    1.48    0.20
   2  25  -7    1.28    0.20
  -2  25   7    1.39    0.19
  -1 -25   7    0.43    0.14
  -1  25   7    0.39    0.13
   1  25  -7    0.47    0.15
   0 -25   7    3.92    0.35
   0  25   7    4.10    0.34
   1  25   7    1.19    0.20
 -10   0   8    9.43    0.67
  -9   0   8    2.98    0.29
  -9   0   8    2.97    0.28
  -9   0   8    2.46    0.30
  -8   0   8    2.15    0.28
  -8   0   8    2.09    0.29
  -8   0   8    1.69    0.24
  -8   0   8    1.68    0.29
  -7   0   8    0.57    0.15
  -7   0   8    0.64    0.17
  -7   0   8    0.46    0.17
  -6   0   8    1.72    0.29
  -6   0   8    1.51    0.28
  -6   0   8    1.72    0.25
  -6   0   8    1.99    0.31
  -6   0   8    1.63    0.26
  -5   0   8    1.43    0.24
  -5   0   8    1.96    0.31
  -5   0   8    2.01    0.58
  -5   0   8    1.20    0.20
  -5   0   8    1.33    0.26
  -5   0   8    1.24    0.22
  -4   0   8    7.56    0.86
  -4   0   8    6.92    0.55
  -4   0   8    6.07    0.57
  -4   0   8    6.19    0.51
  -4   0   8    6.49    0.46
  -4   0   8    5.77    0.54
  -3   0   8    5.12    0.81
  -3   0   8    4.46    0.36
  -3   0   8    4.96    0.44
  -3   0   8    4.57    0.69
  -2   0   8    1.95    0.51
  -2   0   8    2.30    0.26
  -2   0   8    2.48    0.54
  -1   0   8    4.97    0.66
  -1   0   8    4.04    0.69
   0   0   8   65.51    4.72
   1   0   8    3.86    0.67
   2   0   8    1.38    0.51
   3   0   8    8.29    1.09
  -3   0  -8    8.36    0.63
   3   0   8    8.04    0.70
  -3   0  -8    8.25    0.70
  -4   0  -8    3.85    0.38
  -4   0  -8    4.51    0.46
  -4   0  -8    3.96    0.48
   4   0   8    3.78    0.47
  -5   0  -8    0.20    0.19
  -5   0  -8    0.31    0.18
  -5   0  -8    0.43    0.22
  -5   0  -8    0.42    0.20
   5   0   8    0.44    0.25
  -6   0  -8    0.89    0.20
  -6   0  -8    1.04    0.24
   6   0   8    0.93    0.28
  -6   0  -8    1.00    0.19
  -6   0  -8    0.98    0.21
  -7   0  -8    0.70    0.17
   7   0   8    0.56    0.27
  -7   0  -8    0.57    0.19
  -7   0  -8    0.67    0.22
  -7   0  -8    0.56    0.19
  -8   0  -8    2.29    0.33
  -8   0  -8    2.46    0.31
  -8   0  -8    2.63    0.30
  -9   0  -8    0.33    0.13
  -9   0  -8    0.61    0.15
  -9   0  -8    1.04    0.22
 -10  -1   8    5.91    0.47
 -10   1   8    7.11    0.48
  -9   1   8    1.06    0.23
  -9   1   8    0.94    0.15
  -9   1   8    1.37    0.23
  -8  -1   8    2.45    0.29
  -8  -1   8    1.89    0.29
  -8  -1   8    2.21    0.28
  -8  -1   8    2.06    0.24
  -8   1   8    1.98    0.28
  -8   1   8    1.50    0.28
  -8   1   8    1.72    0.29
  -8   1   8    1.42    0.24
  -7  -1   8    4.19    0.47
  -7  -1   8    4.49    0.38
  -7  -1   8    4.19    0.40
  -7  -1   8    4.21    0.34
  -7   1   8    3.20    0.40
  -7   1   8    3.41    0.37
  -7   1   8    3.17    0.38
  -6   1   8    1.08    0.27
  -6   1   8    0.86    0.17
  -6   1   8    1.07    0.18
  -6   1   8    1.03    0.20
  -6   1   8    1.07    0.22
  -5  -1   8    1.89    0.55
  -5  -1   8    1.85    0.26
  -5  -1   8    1.25    0.27
  -5  -1   8    1.62    0.29
  -5  -1   8    1.77    0.25
  -5  -1   8    1.83    0.23
  -5   1   8    0.97    0.52
  -5   1   8    1.08    0.23
  -5   1   8    1.53    0.30
  -5   1   8    1.19    0.25
  -5   1   8    0.88    0.27
  -4  -1   8    3.52    0.37
  -4  -1   8    4.25    0.73
  -4  -1   8    3.54    0.30
  -4  -1   8    3.11    0.34
  -4  -1   8    3.15    0.38
  -4  -1   8    2.80    0.39
  -4   1   8    3.32    0.39
  -4   1   8    3.82    0.30
  -4   1   8    2.60    0.41
  -4   1   8    3.34    0.71
  -4   1   8    3.38    0.33
  -3  -1   8    1.88    0.51
  -3  -1   8    1.80    0.46
  -3  -1   8    2.35    0.31
  -3  -1   8    2.24    0.24
  -2  -1   8    1.54    0.41
  -2  -1   8    1.86    0.49
  -2  -1   8    1.30    0.21
  -2   1   8    1.05    0.37
  -2   1   8    1.07    0.46
  -1  -1   8   22.30    1.75
  -1  -1   8   26.19    1.79
  -1   1   8   20.83    1.74
  -1   1   8   22.00    1.78
   0  -1   8   18.36    1.55
   0   1   8   21.19    1.57
   0   1   8   18.87    1.53
   1  -1   8   11.64    1.09
   1   1   8   12.34    1.12
   2   1   8    3.33    0.61
   3  -1   8    0.68    0.21
   3  -1   8    0.10    0.58
  -3  -1  -8    0.59    0.16
   3  -1   8    0.32    0.96
   3   1   8    1.49    0.57
  -4  -1  -8    9.53    0.81
  -4  -1  -8    9.57    0.81
   4  -1   8    8.99    0.81
  -4  -1  -8    9.63    0.73
   4   1   8    9.64    0.82
  -4   1  -8    9.80    0.78
  -4   1  -8    9.95    0.73
   4   1   8    8.80    1.30
  -4   1  -8   10.17    0.81
   5  -1   8    0.23    0.25
  -5  -1  -8    0.29    0.23
  -5  -1  -8    0.31    0.22
  -5  -1  -8    0.19    0.17
  -5  -1  -8    0.26    0.19
  -5   1  -8    0.63    0.20
  -5   1  -8    0.33    0.18
   5   1   8    0.68    0.28
  -6   1  -8    2.08    0.33
  -6   1  -8    2.16    0.30
  -6   1  -8    2.60    0.42
  -6   1  -8    2.17    0.33
   6   1   8    1.95    0.34
  -7  -1  -8    0.69    0.20
  -7  -1  -8    0.56    0.17
  -7  -1  -8    0.62    0.19
   7  -1   8    0.57    0.28
  -7  -1  -8    0.65    0.23
  -8  -1  -8    1.56    0.25
  -8  -1  -8    1.28    0.24
  -8  -1  -8    1.22    0.27
  -8  -1  -8    1.12    0.21
  -8   1  -8    1.39    0.25
  -8   1  -8    1.31    0.21
   8   1   8    1.56    0.28
  -8   1  -8    1.29    0.26
  -9  -1  -8    0.95    0.21
  -9  -1  -8    0.59    0.14
  -9   1  -8    0.77    0.14
  -9   1  -8    1.10    0.21
  -9  -2   8    3.88    0.34
  -9  -2   8    3.81    0.33
  -9   2   8    3.73    0.36
  -9   2   8    4.13    0.35
  -9   2   8    3.76    0.34
  -8  -2   8    2.19    0.30
  -8  -2   8    1.62    0.36
  -8  -2   8    1.65    0.30
  -8  -2   8    2.07    0.27
  -8  -2   8    1.77    0.23
  -7  -2   8    1.69    0.24
  -7  -2   8    1.85    0.28
  -7  -2   8    1.37    0.28
  -7  -2   8    1.47    0.26
  -7  -2   8    1.45    0.30
  -6  -2   8    1.18    0.22
  -6  -2   8    0.97    0.23
  -6  -2   8    1.21    0.25
  -6   2   8    0.70    0.16
  -6   2   8    0.68    0.15
  -6   2   8    0.54    0.17
  -6   2   8    0.63    0.20
  -5  -2   8    1.31    0.58
  -5  -2   8    1.11    0.22
  -5  -2   8    1.22    0.19
  -5  -2   8    1.08    0.23
  -5  -2   8    1.25    0.28
  -5  -2   8    1.12    0.22
  -4  -2   8    1.61    0.51
  -4  -2   8    1.49    0.23
  -4  -2   8    1.45    0.22
  -4  -2   8    1.65    0.22
  -4  -2   8    1.26    0.27
  -4  -2   8    1.87    0.29
  -3  -2   8    0.63    0.13
  -3  -2   8    0.71    0.18
  -3  -2   8    0.57    0.43
  -3  -2   8    0.21    0.49
  -3  -2   8    0.50    0.19
  -2  -2   8    1.22    0.42
  -2  -2   8    1.85    0.50
  -2  -2   8    1.29    0.21
  -1  -2   8   11.05    1.05
  -1  -2   8   11.39    1.10
  -1   2   8   13.31    1.10
  -1   2   8   11.85    1.07
   0  -2   8   45.75    3.55
   0   2   8   50.47    3.58
   0   2   8   50.17    3.44
   1  -2   8   10.55    0.93
   1   2   8    7.01    0.94
   2  -2   8    4.82    0.73
   2   2   8    3.34    0.77
  -3  -2  -8    0.79    0.22
   3  -2   8    0.96    0.90
  -3  -2  -8    0.80    0.17
   3  -2   8    0.77    0.23
   3   2   8    1.24    0.61
  -4  -2  -8    4.30    0.48
  -4  -2  -8    4.23    0.40
   4  -2   8    3.89    0.48
   4   2   8    3.88    0.50
  -4   2  -8    4.39    0.40
  -4   2  -8    5.17    0.49
  -4   2  -8    4.39    0.47
   4   2   8    3.64    0.88
   5  -2   8    0.53    0.25
  -5  -2  -8    0.44    0.23
  -5  -2  -8    0.57    0.23
  -5  -2  -8    0.45    0.18
  -5  -2  -8    0.48    0.19
   5   2   8    1.05    0.29
   6  -2   8    0.58    0.28
  -6  -2  -8    0.39    0.24
  -6  -2  -8    0.46    0.19
  -6  -2  -8    0.58    0.21
  -6  -2  -8    0.76    0.18
  -6   2  -8    0.68    0.19
  -6   2  -8    0.87    0.24
  -6   2  -8    0.74    0.19
   6   2   8    0.21    0.28
  -6   2  -8    0.72    0.18
  -7  -2  -8    0.85    0.20
  -7  -2  -8    0.82    0.24
  -7  -2  -8    0.84    0.21
  -7  -2  -8    0.86    0.18
  -8  -2  -8    2.06    0.29
  -8  -2  -8    1.93    0.27
  -8  -2  -8    2.08    0.37
  -8  -2  -8    1.79    0.30
  -8   2  -8    1.88    0.29
  -8   2  -8    1.90    0.27
   8   2   8    1.90    0.41
  -9  -2  -8    3.21    0.29
  -9  -2  -8    3.30    0.31
  -9   2  -8    2.72    0.29
  -9   2  -8    3.05    0.30
  -9   2  -8    3.44    0.32
  -9  -3   8    0.94    0.20
  -9  -3   8    0.70    0.14
  -9   3   8    1.22    0.23
  -9   3   8    1.10    0.20
  -8   3   8    2.67    0.29
  -8   3   8    2.45    0.26
  -8   3   8    2.66    0.30
  -8   3   8    2.42    0.32
   8   3  -8    1.92    0.29
  -7  -3   8    0.59    0.21
  -7  -3   8    0.47    0.17
  -7  -3   8    0.46    0.15
  -7  -3   8    0.70    0.17
  -7  -3   8    0.53    0.16
  -6  -3   8    7.62    0.60
  -6  -3   8    8.18    0.60
  -6  -3   8    7.84    0.70
  -6  -3   8    7.68    0.56
  -6  -3   8    7.70    0.64
  -5   3   8    1.51    0.61
  -5   3   8    2.20    0.26
  -5   3   8    2.35    0.28
  -5   3   8    2.14    0.32
  -5   3   8    1.91    0.35
  -4  -3   8    7.88    0.61
  -4  -3   8    9.07    0.94
  -4  -3   8    7.43    0.62
  -4  -3   8    8.14    0.65
  -4  -3   8    8.11    0.57
  -4  -3   8    8.47    0.69
  -3  -3   8    1.93    0.22
  -3  -3   8    2.25    0.51
  -3  -3   8    1.60    0.28
  -3  -3   8    1.46    0.32
  -3  -3   8    1.96    0.58
  -3   3   8    1.27    0.45
  -3   3   8    1.75    0.32
  -2  -3   8    3.47    0.74
  -2  -3   8    3.30    0.63
  -2  -3   8    3.39    0.29
  -2   3   8    2.86    0.63
  -2   3   8    2.83    0.59
  -1  -3   8    6.34    0.69
  -1   3   8    4.62    0.73
  -1   3   8    4.54    0.78
   0  -3   8    7.31    0.80
   1  -3   8    1.62    0.47
   1   3   8    2.48    0.54
   1   3   8    2.51    0.60
   2  -3   8    2.69    0.83
   2  -3   8    2.83    0.58
   3  -3   8    3.95    0.47
  -3  -3  -8    4.54    0.48
  -3  -3  -8    3.89    0.41
  -3   3  -8    5.10    0.41
  -3   3  -8    4.80    0.46
   3   3   8    4.94    0.51
   3   3   8    6.43    0.99
  -4  -3  -8    2.07    0.31
  -4  -3  -8    1.87    0.41
   4  -3   8    1.68    0.41
   4   3   8    2.09    0.44
  -4   3  -8    3.03    0.31
   4   3   8    3.99    0.88
  -4   3  -8    2.92    0.37
  -4   3  -8    2.80    0.36
  -5  -3  -8    2.23    0.42
  -5  -3  -8    1.87    0.31
   5  -3   8    1.92    0.44
  -5  -3  -8    2.06    0.34
  -5  -3  -8    2.03    0.42
  -5   3  -8    2.77    0.31
  -6  -3  -8    1.28    0.22
  -6  -3  -8    1.37    0.21
  -6  -3  -8    1.24    0.28
  -6  -3  -8    1.56    0.26
  -6   3  -8    1.25    0.21
  -6   3  -8    1.48    0.31
  -6   3  -8    1.78    0.29
  -7  -3  -8    3.53    0.39
  -7  -3  -8    2.83    0.48
  -7  -3  -8    3.10    0.38
  -7  -3  -8    3.47    0.36
  -7   3  -8    3.54    0.39
  -7   3  -8    3.37    0.37
   7   3   8    2.79    0.51
  -7   3  -8    3.87    0.36
  -8  -3  -8    2.27    0.31
  -8  -3  -8    1.90    0.28
  -8  -3  -8    2.14    0.38
  -8  -3  -8    1.73    0.31
  -8   3  -8    2.10    0.28
  -8   3  -8    2.30    0.31
   8   3   8    2.22    0.41
  -8   3  -8    2.40    0.29
  -9  -3  -8    2.55    0.33
  -9  -3  -8    2.40    0.26
  -9  -3  -8    2.25    0.24
  -9   3  -8    1.71    0.24
   9   3   8    2.07    0.35
  -9   3  -8    1.82    0.26
  -9   3  -8    1.68    0.23
  -9  -4   8    3.51    0.38
  -9  -4   8    3.42    0.32
  -9  -4   8    3.34    0.32
  -9   4   8    3.93    0.35
  -9   4   8    4.02    0.32
  -9   4   8    3.77    0.33
  -8   4   8    0.69    0.15
  -8   4   8    0.76    0.18
  -8   4   8    0.85    0.16
   8   4  -8    0.79    0.16
  -8   4   8    1.21    0.25
  -7  -4   8    1.43    0.25
  -7  -4   8    1.24    0.27
  -7  -4   8    1.56    0.29
  -7  -4   8    1.28    0.30
  -7   4   8    1.95    0.28
  -7   4   8    1.83    0.33
   7   4  -8    1.84    0.28
  -7   4   8    1.76    0.25
  -7   4   8    2.14    0.29
  -6  -4   8    2.58    0.43
  -6  -4   8    3.40    0.36
  -6  -4   8    3.46    0.30
  -6  -4   8    3.31    0.34
  -6  -4   8    3.38    0.32
  -6   4   8    2.75    0.39
  -6   4   8    2.40    0.31
  -6   4   8    2.37    0.35
  -6   4   8    3.02    0.32
  -5  -4   8    3.39    0.35
  -5  -4   8    4.53    0.91
  -5  -4   8    3.50    0.39
  -5  -4   8    3.66    0.31
  -5  -4   8    3.13    0.41
  -5  -4   8    3.44    0.36
  -5   4   8    5.20    0.97
   4  -4  -8    1.91    0.35
  -4  -4   8    2.05    0.29
  -4  -4   8    2.33    0.32
  -4  -4   8    2.16    0.25
  -4  -4   8    1.62    0.31
  -4  -4   8    1.74    0.53
  -4  -4   8    2.13    0.33
  -3   4   8    1.72    0.34
  -3   4   8    1.36    0.18
  -3   4   8    1.08    0.19
  -3   4   8    0.79    0.41
   3   4  -8    1.13    0.16
   3   4  -8    1.21    0.20
  -3   4   8    1.93    0.38
  -2  -4   8    0.48    0.53
  -2  -4   8    1.26    0.20
  -2  -4   8    0.70    0.41
  -1  -4   8   15.39    1.19
  -1   4   8   12.71    1.23
  -1   4   8   12.94    1.19
   0  -4   8    7.86    0.86
   0   4   8    7.71    0.94
   0   4   8    8.05    0.89
   1  -4   8    6.35    0.80
   1   4   8    7.66    0.88
   1   4   8    6.51    0.95
   2  -4   8    3.53    0.88
   2   4   8    1.64    0.59
   3  -4   8    1.67    0.39
  -3  -4  -8    2.15    0.29
  -3  -4  -8    2.37    0.38
  -3   4  -8    1.39    0.24
   3   4   8    3.20    0.74
  -3   4  -8    1.70    0.38
  -3   4  -8    2.11    0.27
   3   4   8    1.70    0.40
   4  -4   8    8.59    0.70
  -4  -4  -8    9.17    0.60
  -4   4  -8    6.56    0.63
  -4   4  -8    7.13    0.59
  -4   4  -8    6.48    0.64
   4   4   8    8.26    1.32
  -5  -4  -8    3.11    0.50
  -5  -4  -8    3.16    0.50
  -5   4  -8    4.43    0.41
   5   4   8    3.75    1.16
  -5   4  -8    4.44    0.41
  -5   4  -8    4.44    0.46
  -6  -4  -8    2.77    0.40
  -6  -4  -8    2.82    0.45
  -6  -4  -8    2.42    0.34
  -6  -4  -8    2.62    0.34
  -7  -4  -8    2.60    0.30
  -7  -4  -8    2.20    0.35
  -7  -4  -8    2.20    0.32
  -7  -4  -8    1.75    0.43
  -7   4  -8    1.56    0.32
  -7   4  -8    2.10    0.30
  -7   4  -8    1.79    0.30
  -8  -4  -8    0.72    0.23
  -8  -4  -8    0.87    0.20
  -8  -4  -8    0.63    0.19
  -8  -4  -8    0.66    0.16
  -8   4  -8    1.15    0.24
   8   4   8    1.04    0.27
  -8   4  -8    0.98    0.19
  -8   4  -8    1.27    0.24
  -9  -4  -8    6.59    0.49
  -9  -4  -8    7.07    0.58
  -9  -4  -8    6.47    0.52
  -9   4  -8    6.06    0.51
   9   4   8    6.79    0.59
  -9   4  -8    6.27    0.49
  -9   4  -8    6.72    0.52
  -9   5   8    2.55    0.26
  -9   5   8    2.35    0.27
  -9   5   8    2.34    0.26
  -8  -5   8    0.79    0.16
  -8  -5   8    1.07    0.21
  -8  -5   8    1.00    0.17
  -8  -5   8    1.17    0.20
  -8   5   8    0.66    0.15
  -8   5   8    1.34    0.24
  -8   5   8    0.70    0.19
  -8   5   8    0.79    0.16
   8   5  -8    0.99    0.17
  -7   5   8    3.41    0.33
  -7   5   8    2.93    0.39
  -7   5   8    3.22    0.34
   7   5  -8    2.55    0.32
  -7   5   8    2.71    0.31
  -6  -5   8    8.62    0.63
  -6  -5   8    8.59    0.59
  -6  -5   8    8.92    0.63
  -6  -5   8    7.72    0.72
  -6  -5   8    8.30    0.66
  -6   5   8    8.03    0.59
  -6   5   8    8.28    0.69
   6   5  -8    7.89    0.68
  -6   5   8    7.79    0.64
   6   5  -8    7.43    0.59
  -6   5   8    8.17    0.63
  -5  -5   8    2.24    0.30
  -5  -5   8    2.41    0.28
  -5  -5   8    1.95    0.37
  -5  -5   8    3.70    0.72
  -5  -5   8    2.24    0.35
   5  -5  -8    2.25    0.41
  -5  -5   8    2.37    0.33
  -5   5   8    3.16    0.69
  -5   5   8    3.18    0.39
  -5   5   8    2.70    0.32
   5   5  -8    3.03    0.37
   5   5  -8    2.35    0.29
  -5   5   8    2.70    0.46
  -5   5   8    2.97    0.31
  -5   5   8    2.60    0.30
  -4  -5   8    5.39    0.47
  -4  -5   8    4.91    0.44
  -4  -5   8    4.55    0.41
  -4  -5   8    5.00    0.37
  -4  -5   8    5.65    0.84
  -4  -5   8    4.70    0.44
   4  -5  -8    4.81    0.47
  -4   5   8    3.86    0.44
  -4   5   8    4.32    0.52
  -4   5   8    3.97    0.39
   4   5  -8    3.95    0.38
   4   5  -8    4.77    0.45
  -4   5   8    4.17    0.47
  -4   5   8    3.91    0.38
  -3  -5   8    0.43    0.46
   3  -5  -8    0.60    0.18
  -3  -5   8    0.68    0.14
  -3  -5   8    0.61    0.18
  -3  -5   8    0.65    0.18
   3   5  -8    1.15    0.21
  -3   5   8    0.96    0.17
  -3   5   8    0.61    0.41
  -2  -5   8    0.43    0.12
  -2  -5   8    0.57    0.40
   2   5  -8    0.37    0.13
  -2   5   8    0.52    0.51
  -2   5   8    0.45    0.40
  -1  -5   8    5.56    0.71
  -1   5   8    4.61    0.83
  -1   5   8    5.12    0.76
   0  -5   8    5.15    0.71
   0   5   8    3.46    0.74
   0   5   8    3.94    0.82
   1   5   8    2.52    0.57
   1   5   8    1.01    0.65
  -2  -5  -8    0.28    0.22
   2  -5   8   -0.06    0.81
  -2  -5  -8    0.28    0.16
  -2   5  -8    0.32    0.17
   2   5   8    0.70    0.24
   2   5   8    0.24    0.56
  -3  -5  -8    5.25    0.54
  -3  -5  -8    5.18    0.44
   3  -5   8    5.33    0.55
  -3   5  -8    5.23    0.45
   3   5   8    7.35    1.11
  -3   5  -8    4.88    0.50
  -3   5  -8    5.05    0.46
   3   5   8    4.15    0.52
  -4  -5  -8    3.52    0.37
  -4  -5  -8    4.58    0.50
  -4   5  -8    3.78    0.40
  -4   5  -8    3.05    0.39
  -4   5  -8    3.88    0.37
   4   5   8    2.82    0.95
  -5  -5  -8    4.96    0.57
  -5  -5  -8    5.04    0.57
  -5  -5  -8    5.17    0.48
  -5  -5  -8    4.69    0.45
  -5   5  -8    4.30    0.49
  -5   5  -8    5.38    0.45
   5   5   8    5.21    1.37
  -5   5  -8    5.15    0.47
  -5   5  -8    5.44    0.47
  -6  -5  -8    4.19    0.54
  -6  -5  -8    4.23    0.42
  -6  -5  -8    4.49    0.49
  -6  -5  -8    4.60    0.44
  -6   5  -8    4.39    0.41
  -6   5  -8    3.59    0.46
  -6   5  -8    4.29    0.42
  -6   5  -8    4.34    0.41
  -7  -5  -8    4.02    0.40
  -7  -5  -8    4.28    0.43
  -7  -5  -8    3.78    0.49
  -7  -5  -8    4.31    0.38
  -7   5  -8    3.26    0.37
  -7   5  -8    3.08    0.38
  -7   5  -8    3.18    0.37
  -8  -5  -8    2.21    0.39
  -8  -5  -8    2.17    0.26
  -8  -5  -8    1.94    0.30
  -8  -5  -8    2.12    0.31
  -8   5  -8    1.30    0.26
  -8   5  -8    1.72    0.27
  -8   5  -8    1.63    0.25
   8   5   8    1.65    0.31
  -9  -5  -8    3.53    0.37
  -9  -5  -8    3.31    0.32
  -9  -5  -8    3.40    0.29
  -9   5  -8    3.29    0.31
   9   5   8    3.58    0.39
  -9   5  -8    3.06    0.30
  -9   5  -8    3.06    0.29
  -9  -6   8    5.73    0.47
  -9  -6   8    5.18    0.42
  -9  -6   8    5.86    0.42
  -9   6   8    5.06    0.44
  -9   6   8    5.15    0.42
  -9   6   8    5.02    0.41
  -8  -6   8    1.73    0.25
  -8  -6   8    1.85    0.32
  -8  -6   8    1.92    0.22
  -8  -6   8    1.56    0.25
  -8   6   8    1.33    0.18
  -8   6   8    1.38    0.25
  -8   6   8    1.04    0.21
   8   6  -8    1.13    0.24
  -8   6   8    1.42    0.24
  -7   6   8    1.10    0.19
  -7   6   8    1.00    0.23
  -7   6   8    1.52    0.27
   7   6  -8    1.54    0.25
  -7   6   8    1.40    0.28
  -6  -6   8    4.65    0.45
  -6  -6   8    5.05    0.41
  -6  -6   8    4.62    0.41
   6  -6  -8    4.53    0.50
  -6  -6   8    3.81    0.48
  -6  -6   8    4.60    0.37
   6   6  -8    4.26    0.46
   6   6  -8    4.29    0.38
  -6   6   8    3.84    0.39
  -6   6   8    3.98    0.47
  -6   6   8    4.19    0.42
  -6   6   8    3.92    0.40
  -6   6   8    4.43    0.54
  -5  -6   8    1.83    0.34
  -5  -6   8    1.11    0.68
   5  -6  -8    1.34    0.27
  -5  -6   8    1.86    0.31
  -5  -6   8    1.85    0.31
  -5  -6   8    1.76    0.26
   5   6  -8    1.83    0.27
  -5   6   8    2.33    0.31
  -5   6   8    2.66    0.38
  -5   6   8    2.20    0.28
   5   6  -8    2.15    0.35
  -5   6   8    1.37    0.29
  -5   6   8    2.08    0.28
  -5   6   8    1.57    0.69
  -4  -6   8   11.47    1.22
  -4  -6   8    9.71    0.89
  -4  -6   8   10.03    0.93
  -4  -6   8    9.75    0.86
  -4   6   8   13.32    0.84
   4   6  -8   12.91    0.89
  -4   6   8   13.41    0.88
   4   6  -8   12.10    0.79
  -4   6   8   12.21    1.23
  -3  -6   8    3.98    0.32
  -3  -6   8    3.04    0.40
  -3  -6   8    5.01    0.80
   3  -6  -8    3.20    0.39
  -3  -6   8    3.80    0.40
  -3  -6   8    3.83    0.39
  -2  -6   8    0.85    0.18
  -2  -6   8    0.52    0.18
  -2  -6   8    0.72    0.14
  -2  -6   8    1.20    0.47
   2  -6  -8    0.70    0.18
   2   6  -8    0.71    0.17
  -2   6   8    0.83    0.45
   2   6  -8    0.97    0.15
  -1  -6   8    8.49    0.87
   1   6  -8    7.95    0.57
  -1   6   8    7.17    1.00
  -1   6   8    8.55    0.94
   0  -6   8    0.27    0.41
   0   6   8   -0.11    0.44
   0   6   8   -0.25    0.57
   1  -6   8    7.23    1.21
   1   6   8    7.09    1.16
   1   6   8    7.53    0.97
  -2  -6  -8    1.64    0.38
  -2   6  -8    1.93    0.29
   2   6   8    1.68    0.65
  -3  -6  -8    1.89    0.28
  -3  -6  -8    2.23    0.36
   3  -6   8    2.04    0.30
  -3   6  -8    1.48    0.21
   3   6   8    1.89    0.78
  -3   6  -8    1.65    0.25
   3   6   8    1.22    0.32
  -3   6  -8    1.35    0.22
  -4   6  -8    3.10    0.37
  -4   6  -8    2.81    0.36
   4   6   8    2.92    1.03
  -4   6  -8    3.05    0.33
  -5  -6  -8    1.64    0.33
  -5  -6  -8    1.76    0.31
  -5  -6  -8    1.47    0.31
  -5  -6  -8    0.96    0.30
   5   6   8    0.88    1.34
  -5   6  -8    0.96    0.20
  -5   6  -8    1.54    0.31
  -5   6  -8    1.45    0.26
  -6  -6  -8    1.60    0.33
  -6  -6  -8    1.78    0.31
  -6  -6  -8    1.84    0.41
  -6   6  -8    1.43    0.29
  -6   6  -8    1.29    0.29
  -6   6  -8    1.63    0.30
  -7  -6  -8    3.62    0.50
  -7  -6  -8    3.95    0.43
  -7  -6  -8    4.19    0.38
  -7  -6  -8    3.91    0.41
  -7   6  -8    3.53    0.37
  -7   6  -8    3.39    0.37
  -7   6  -8    3.41    0.38
  -8  -6  -8    0.36    0.15
  -8  -6  -8    0.38    0.20
  -8  -6  -8    0.15    0.21
  -8   6  -8    0.54    0.15
   8   6   8    0.44    0.26
  -8   6  -8    0.25    0.16
  -8   6  -8    0.55    0.16
  -9  -6  -8    5.36    0.57
   9   6   8    7.11    0.58
  -9   6  -8    6.87    0.50
  -9   6  -8    7.28    0.51
  -9   6  -8    6.63    0.52
  -9  -7   8    4.22    0.33
  -9  -7   8    4.38    0.37
  -9  -7   8    4.35    0.32
  -9   7   8    3.13    0.33
  -9   7   8    3.31    0.32
  -8   7   8    0.60    0.15
   8   7  -8    0.27    0.14
  -8   7   8    0.43    0.14
  -8   7   8    0.32    0.13
  -8   7   8    0.25    0.17
   7   7  -8    5.62    0.45
  -7   7   8    6.09    0.56
  -7   7   8    6.18    0.49
  -7   7   8    6.06    0.47
  -7   7   8    5.94    0.50
  -6  -7   8    4.00    0.34
  -6  -7   8    3.98    0.38
   6  -7  -8    2.96    0.48
  -6  -7   8    3.49    0.43
  -6  -7   8    3.83    0.38
  -6   7   8    3.92    0.52
  -6   7   8    3.72    0.37
   6   7  -8    3.53    0.35
  -6   7   8    3.35    0.48
  -6   7   8    4.15    0.39
  -6   7   8    4.06    0.37
  -5  -7   8    4.22    0.37
  -5  -7   8    3.60    0.41
  -5  -7   8    4.07    0.45
  -5  -7   8    4.17    0.80
   5  -7  -8    3.61    0.50
  -5  -7   8    3.79    0.40
   5   7  -8    5.13    0.45
  -5   7   8    5.55    1.18
  -5   7   8    5.37    0.50
  -5   7   8    5.15    0.40
  -4  -7   8    3.19    0.31
  -4  -7   8    3.10    0.37
  -4  -7   8    2.72    0.37
  -4  -7   8    3.63    0.71
   4  -7  -8    2.91    0.42
  -4  -7   8    3.25    0.38
  -4  -7   8    2.45    0.40
  -4   7   8    3.49    0.34
   4   7  -8    3.18    0.37
  -4   7   8    4.01    0.45
  -4   7   8    3.85    0.44
  -4   7   8    3.26    0.69
  -4   7   8    3.57    0.36
  -4   7   8    3.52    0.42
   4   7  -8    3.49    0.32
  -3  -7   8    0.72    0.18
  -3  -7   8    0.72    0.20
  -3  -7   8    0.52    0.14
  -3  -7   8    0.72    0.22
   3  -7  -8    0.35    0.19
  -3  -7   8    0.84    0.53
  -3   7   8    1.22    0.50
   3   7  -8    1.20    0.22
  -2   7   8    3.59    0.45
  -2   7   8    2.93    0.36
  -2   7   8    2.86    0.58
  -2   7   8    3.35    0.40
   2   7  -8    2.22    0.32
   2   7  -8    2.63    0.28
  -1  -7   8    3.79    0.41
   1  -7  -8    3.60    0.37
   1   7  -8    3.98    0.36
  -1   7   8    3.75    0.81
   1   7  -8    3.87    0.33
   0  -7  -8    2.21    0.29
   0   7   8    1.41    0.66
   0   7   8    2.74    0.62
   0   7  -8    2.26    0.28
   1  -7   8    3.94    0.92
   1   7   8    2.98    0.71
   1   7   8    3.47    0.46
  -1   7  -8    3.47    0.35
   1   7   8    3.88    0.84
  -2  -7  -8    2.42    0.45
   2   7   8    3.42    0.75
  -2   7  -8    2.56    0.33
  -2   7  -8    2.44    0.42
   2   7   8    2.85    0.45
  -2   7  -8    2.95    0.33
   3   7   8    0.34    0.80
  -3   7  -8    0.75    0.18
  -3   7  -8    0.74    0.18
  -3   7  -8    0.82    0.22
  -4  -7  -8    3.48    0.45
  -4  -7  -8    3.53    0.36
  -4  -7  -8    3.53    0.50
  -4   7  -8    3.61    0.35
   4   7   8    4.10    1.15
  -4   7  -8    3.09    0.38
  -4   7  -8    3.29    0.38
  -5  -7  -8    2.21    0.50
  -5   7  -8    2.62    0.32
  -5   7  -8    2.40    0.33
  -5   7  -8    2.48    0.35
  -5   7  -8    2.21    0.35
  -6  -7  -8    1.76    0.32
  -6  -7  -8    2.22    0.34
  -6   7  -8    1.08    0.23
  -6   7  -8    1.77    0.29
  -6   7  -8    1.74    0.30
  -6   7  -8    1.26    0.22
  -7  -7  -8    1.05    0.26
  -7   7  -8    0.31    0.18
  -7   7  -8    0.19    0.20
  -7   7  -8    0.57    0.17
  -7   7  -8    0.53    0.17
  -8  -7  -8    0.50    0.21
  -8   7  -8    0.09    0.15
   8   7   8    0.00    0.25
  -8   7  -8    0.06    0.15
  -8   7  -8    0.13    0.14
  -9  -7  -8    1.29    0.27
  -9  -7  -8    1.16    0.20
  -9   7  -8    1.64    0.22
   9   7   8    2.18    0.30
  -9   7  -8    1.84    0.20
  -9  -8   8    1.45    0.22
  -9  -8   8    1.87    0.24
  -9  -8   8    1.58    0.21
  -9   8   8    2.12    0.21
  -9   8   8    1.94    0.25
  -9   8   8    1.94    0.22
  -8  -8   8    0.64    0.16
  -8  -8   8    1.06    0.23
  -8  -8   8    0.80    0.19
  -8   8   8    1.43    0.22
   8   8  -8    1.22    0.20
  -8   8   8    0.86    0.19
  -8   8   8    1.10    0.16
  -7   8   8    1.02    0.19
  -7   8   8    1.11    0.19
  -7   8   8    0.72    0.26
   7   8  -8    1.13    0.22
  -7   8   8    0.77    0.23
  -6  -8   8    0.63    0.18
   6  -8  -8    0.80    0.26
  -6  -8   8    0.46    0.21
  -6  -8   8    0.73    0.16
  -6  -8   8    0.73    0.17
   6   8  -8    0.92    0.16
  -6   8   8    0.76    0.19
  -6   8   8    0.77    0.25
  -6   8   8    0.58    0.19
  -6   8   8    0.80    0.27
  -5  -8   8    1.55    0.35
  -5  -8   8    1.96    0.32
   5  -8  -8    1.11    0.28
  -5  -8   8    1.98    0.28
  -5  -8   8    1.74    0.37
  -5  -8   8    2.22    0.26
  -5   8   8    1.97    0.29
   5   8  -8    1.33    0.26
  -5   8   8    1.37    0.23
  -5   8   8    1.64    0.33
   5   8  -8    1.71    0.36
  -4  -8   8    1.55    0.69
  -4   8   8    3.02    0.34
  -4   8   8    3.26    0.36
  -4   8   8    2.84    0.46
  -4   8   8    3.71    0.41
   4   8  -8    2.66    0.37
  -4   8   8    3.23    0.45
   4   8  -8    2.95    0.31
  -4   8   8    1.89    0.68
  -3  -8   8    1.50    0.24
   3  -8  -8    1.39    0.24
  -3  -8   8    1.29    0.61
  -3  -8   8    1.50    0.24
   3   8  -8    2.08    0.25
  -3   8   8    2.01    0.57
   3   8  -8    1.94    0.29
  -2  -8   8    5.93    0.92
   2   8  -8    7.30    0.61
  -2   8   8    8.08    0.62
  -2   8   8    8.57    0.72
  -2   8   8    6.36    0.99
  -2   8   8    8.73    0.66
   2   8  -8    7.49    0.55
   1  -8  -8    6.65    0.58
  -1  -8   8    6.88    0.61
  -1  -8   8    8.29    0.94
  -1   8   8    7.23    0.95
   1   8  -8    7.36    0.51
   1   8  -8    7.43    0.58
   0  -8   8    6.58    0.62
   0   8  -8    7.93    0.58
   0   8   8    7.72    1.04
   1  -8   8    2.49    0.35
   1   8   8    1.88    0.41
   1   8   8    1.32    0.63
  -1   8  -8    1.91    0.29
  -2  -8  -8    2.98    0.46
  -2  -8  -8    2.42    0.33
  -2   8  -8    2.62    0.35
   2   8   8    3.53    0.48
   2   8   8    4.48    0.89
  -2   8  -8    2.87    0.41
  -3  -8  -8    1.72    0.32
  -3  -8  -8    1.47    0.30
  -3   8  -8    1.94    0.29
  -3   8  -8    2.09    0.34
  -3   8  -8    1.84    0.29
   3   8   8    2.52    0.89
  -4  -8  -8    1.15    0.25
  -4  -8  -8    0.71    0.18
  -4  -8  -8    0.53    0.28
  -4   8  -8    0.63    0.18
  -4   8  -8    0.59    0.16
  -4   8  -8    0.69    0.19
   4   8   8    0.47    1.08
  -5  -8  -8    1.74    0.34
  -5  -8  -8    0.74    0.30
  -5   8  -8    0.92    0.20
  -5   8  -8    0.75    0.20
  -5   8  -8    1.11    0.19
  -5   8  -8    1.25    0.22
  -6  -8  -8    0.79    0.22
  -6  -8  -8    0.92    0.21
  -6  -8  -8    0.82    0.28
  -7  -8  -8    2.27    0.44
  -7  -8  -8    2.51    0.39
  -7  -8  -8    2.93    0.32
  -7   8  -8    2.08    0.35
  -7   8  -8    2.36    0.31
  -7   8  -8    1.92    0.32
  -7   8  -8    2.63    0.31
  -8  -8  -8    1.50    0.33
  -8  -8  -8    1.65    0.30
  -8  -8  -8    1.67    0.24
   8   8   8    1.09    0.27
  -8   8  -8    1.32    0.23
  -8   8  -8    1.26    0.22
  -9  -8  -8    4.12    0.40
  -9  -8  -8    3.37    0.33
  -9  -8  -8    4.03    0.36
   9   8   8    4.34    0.40
  -9   8  -8    4.30    0.35
  -9   8  -8    4.14    0.33
  -9   8  -8    4.19    0.33
  -9  -9   8    1.75    0.21
  -9  -9   8    1.92    0.23
  -9  -9   8    1.76    0.20
  -9   9   8    1.59    0.19
  -9   9   8    1.52    0.19
  -9   9   8    1.29    0.24
  -8  -9   8    2.03    0.24
  -8   9   8    1.62    0.25
  -8   9   8    1.75    0.24
   8   9  -8    1.83    0.22
  -8   9   8    1.27    0.20
  -8   9   8    1.18    0.21
  -7  -9   8    0.78    0.18
  -7  -9   8    0.93    0.21
   7  -9  -8    0.72    0.24
  -7  -9   8    0.63    0.17
  -7   9   8    1.08    0.19
  -7   9   8    0.91    0.26
  -7   9   8    0.81    0.23
   7   9  -8    1.09    0.22
  -7   9   8    1.00    0.19
   6  -9  -8    0.84    0.26
  -6   9   8    0.38    0.18
  -6   9   8   -0.13    0.26
  -6   9   8   -0.14    0.23
   6   9  -8    0.23    0.14
  -6   9   8    0.28    0.19
  -6   9   8    0.64    0.17
  -5  -9   8    1.58    0.27
  -5   9   8    0.90    0.18
   5   9  -8    0.97    0.17
  -5   9   8    1.12    0.22
  -5   9   8    0.75    0.26
  -5   9   8    0.78    0.27
  -5   9   8    1.13    0.21
  -4  -9   8    2.74    0.70
  -4   9   8    1.19    0.23
  -4   9   8    0.05    0.66
  -4   9   8    1.36    0.27
  -4   9   8    1.28    0.24
   4   9  -8    1.19    0.20
   4   9  -8    1.10    0.17
  -4   9   8    0.83    0.27
  -4   9   8    0.96    0.26
  -3   9   8    2.62    0.40
  -3   9   8    2.48    0.33
  -3   9   8    2.22    0.62
   3   9  -8    2.41    0.34
   3   9  -8    2.40    0.28
  -2  -9   8    4.26    0.92
  -2  -9   8    2.59    0.33
   2  -9  -8    3.04    0.35
   2   9  -8    2.17    0.33
  -2   9   8    3.02    0.47
  -2   9   8    2.69    0.37
  -2   9   8    2.64    0.40
   2   9  -8    1.97    0.27
  -2   9   8    1.56    0.62
   1  -9  -8    1.60    0.29
  -1  -9   8    1.14    0.21
   1   9  -8    1.27    0.26
  -1   9   8    2.00    0.38
  -1   9   8    0.61    0.55
   1   9  -8    1.50    0.23
   0  -9  -8    7.79    0.66
   0   9   8    8.41    0.76
   0   9   8    8.29    1.11
   0   9  -8    9.29    0.67
   1  -9   8    8.11    0.64
  -1  -9  -8    7.19    0.56
   1  -9   8    6.68    0.63
  -1  -9  -8    7.66    0.67
  -1   9  -8    6.21    0.57
   1   9   8    6.90    0.67
   1   9   8    5.91    1.16
  -1   9  -8    6.74    0.65
  -2  -9  -8    1.68    0.31
  -2   9  -8    2.37    0.38
   2   9   8    2.88    0.86
  -2   9  -8    2.32    0.30
   2   9   8    2.58    0.46
  -3  -9  -8    1.95    0.33
  -3  -9  -8    2.18    0.37
  -3   9  -8    2.81    0.32
  -3   9  -8    2.91    0.30
   3   9   8    1.61    0.98
  -3   9  -8    3.47    0.37
  -4  -9  -8    3.30    0.45
  -4  -9  -8    2.53    0.38
  -4   9  -8    3.66    0.38
  -4   9  -8    3.53    0.35
  -4   9  -8    3.48    0.38
   4   9   8    3.59    1.24
  -5  -9  -8    2.01    0.47
  -5   9  -8    1.12    0.20
  -5   9  -8    1.62    0.33
  -5   9  -8    0.89    0.20
  -5   9  -8    1.34    0.27
  -6  -9  -8    0.93    0.21
  -6  -9  -8    0.81    0.23
  -6  -9  -8    0.99    0.29
  -7   9  -8    2.54    0.30
  -7   9  -8    2.39    0.30
  -7   9  -8    2.07    0.32
  -7   9  -8    2.05    0.31
  -8  -9  -8    1.02    0.20
  -8  -9  -8    1.12    0.17
  -8  -9  -8    0.86    0.22
  -8   9  -8    0.75    0.16
  -8   9  -8    0.93    0.16
   8   9   8    0.86    0.24
  -8   9  -8    1.06    0.22
  -9  -9  -8    0.37    0.11
  -9  -9  -8    0.60    0.14
  -9   9  -8    0.54    0.11
  -9   9  -8    0.59    0.12
   9   9   8    0.76    0.18
  -9  10   8    1.15    0.18
  -9  10   8    1.02    0.21
  -9  10   8    1.37    0.16
  -8 -10   8    2.34    0.28
   8 -10  -8    2.66    0.34
  -8 -10   8    2.26    0.26
  -8  10   8    2.00    0.26
  -8  10   8    1.78    0.26
  -8  10   8    2.49    0.39
  -7 -10   8    0.35    0.16
   7 -10  -8    0.58    0.22
  -7 -10   8    0.29    0.15
  -7  10   8    0.11    0.18
   7  10  -8    0.55    0.15
  -7  10   8    0.04    0.21
  -7  10   8    0.25    0.16
  -7  10   8    0.23    0.24
  -7  10   8    0.45    0.16
   6 -10  -8    1.10    0.27
  -6 -10   8    1.06    0.23
  -6 -10   8    1.45    0.29
  -6 -10   8    0.95    0.19
  -6  10   8    1.14    0.21
  -6  10   8    1.00    0.22
   6  10  -8    1.07    0.18
  -6  10   8    0.66    0.26
  -6  10   8    1.69    0.28
  -5 -10   8    1.34    0.24
   5 -10  -8    1.35    0.28
  -5 -10   8    1.75    0.33
  -5 -10   8    1.06    0.20
  -5  10   8    1.78    0.31
  -5  10   8    1.63    0.29
  -4  10   8    2.35    0.45
  -4  10   8    2.85    0.34
  -4  10   8    3.46    0.42
   4  10  -8    3.01    0.29
   4  10  -8    2.21    0.38
  -4  10   8    2.37    0.45
  -4  10   8    3.44    0.40
  -3 -10   8    0.81    0.21
   3 -10  -8    0.62    0.23
  -3 -10   8    0.41    0.72
  -3 -10   8    0.83    0.21
  -3  10   8    1.17    0.27
   3  10  -8    0.91    0.16
   3  10  -8    0.84    0.19
  -3  10   8    0.98    0.25
  -3  10   8    1.39    0.28
  -3  10   8    1.02    0.62
   2  10  -8    4.37    0.36
  -2  10   8    4.67    0.50
  -2  10   8    4.65    0.45
  -2  10   8    4.62    0.78
  -2  10   8    5.22    0.58
   2  10  -8    3.71    0.43
  -1  10   8    6.63    1.09
   1  10  -8    7.29    0.59
   1  10  -8    6.68    0.52
  -1  10   8    7.54    0.64
  -1  10   8    7.63    0.63
   0 -10  -8   13.35    0.99
   0 -10   8   13.11    1.06
   0  10   8   13.78    1.04
   0  10   8   13.38    1.42
   0  10  -8   13.58    1.00
  -1 -10  -8    1.45    0.29
  -1 -10  -8    2.04    0.46
   1 -10   8    1.90    0.36
   1  10   8    0.96    0.29
  -1  10  -8    0.94    0.25
   1  10   8    0.01    0.72
  -1  10  -8    1.39    0.27
  -2 -10  -8    7.69    0.68
  -2 -10  -8    7.40    0.55
  -2  10  -8    5.70    0.58
   2  10   8    7.58    1.31
   2  10   8    6.16    0.67
  -2  10  -8    5.76    0.54
  -3 -10  -8    3.32    0.36
  -3 -10  -8    3.18    0.53
   3  10   8    2.65    1.08
  -3  10  -8    3.21    0.38
  -3  10  -8    2.81    0.36
  -3  10  -8    3.24    0.35
  -4 -10  -8    2.36    0.55
  -4 -10  -8    3.52    0.47
  -4 -10  -8    3.03    0.39
  -4  10  -8    3.77    0.37
  -4  10  -8    3.90    0.38
  -4  10  -8    3.59    0.39
  -5  10  -8    2.18    0.32
  -5  10  -8    2.11    0.31
  -5  10  -8    2.02    0.36
  -5  10  -8    2.05    0.31
  -6 -10  -8    1.00    0.30
  -6 -10  -8    1.14    0.22
  -6  10  -8    0.75    0.19
  -6  10  -8    1.38    0.29
  -6  10  -8    1.06    0.19
  -6  10  -8    0.67    0.19
  -7 -10  -8    1.95    0.30
  -7 -10  -8    2.38    0.39
  -7  10  -8    2.24    0.29
  -7  10  -8    1.71    0.31
  -7  10  -8    1.82    0.29
  -7  10  -8    1.77    0.29
  -8  10  -8    5.98    0.48
   8  10   8    6.40    0.57
  -8  10  -8    6.29    0.50
  -8  10  -8    5.39    0.47
  -8  10  -8    6.21    0.49
  -8 -11   8    6.05    0.41
   8 -11  -8    5.42    0.45
  -8 -11   8    5.49    0.40
  -8  11   8    4.16    0.44
  -8  11   8    4.56    0.40
  -8  11   8    4.95    0.49
  -8  11   8    4.38    0.41
  -7 -11   8    1.50    0.32
  -7 -11   8    0.85    0.18
   7 -11  -8    0.89    0.23
  -7 -11   8    1.26    0.25
   7  11  -8    1.25    0.21
  -7  11   8    1.09    0.21
  -7  11   8    1.27    0.19
  -7  11   8    1.15    0.25
  -7  11   8    1.47    0.26
  -7  11   8    0.93    0.23
  -6  11   8    0.26    0.18
  -6  11   8    0.57    0.17
  -6  11   8    0.04    0.24
   6  11  -8    0.26    0.15
  -6  11   8    0.11    0.21
  -5  11   8    2.09    0.46
  -5  11   8    2.14    0.35
  -5  11   8    3.17    0.40
  -5  11   8    2.70    0.39
   5  11  -8    3.08    0.29
  -5  11   8    3.09    0.35
  -4  11   8    2.08    0.39
  -4  11   8    1.99    0.45
  -4  11   8    2.06    0.41
  -4  11   8    1.77    0.31
   4  11  -8    1.79    0.26
  -4  11   8    1.81    0.31
  -3  11   8    1.75    0.29
   3  11  -8    1.26    0.21
  -3  11   8    1.00    0.27
   3  11  -8    1.57    0.24
  -3  11   8    0.50    0.67
  -3  11   8    1.40    0.29
   2 -11  -8    1.09    0.22
  -2 -11   8    1.06    0.21
  -2  11   8    0.44    0.66
   1  11  -8    3.61    0.34
  -1  11   8    4.31    0.47
  -1  11   8    3.56    0.44
  -1  11   8    3.50    0.76
   1  11  -8    3.67    0.39
   0 -11   8    3.43    0.39
   0  11   8    2.24    0.73
   0  11   8    3.63    0.51
   0  11  -8    2.53    0.32
   0  11  -8    2.96    0.34
  -1 -11  -8    3.29    0.54
   1  11   8    4.36    0.94
  -1  11  -8    4.38    0.48
   1  11   8    4.72    0.55
  -1  11  -8    4.38    0.40
  -2 -11  -8    2.67    0.52
   2 -11   8    2.67    0.36
  -2 -11  -8    2.16    0.35
   2  11   8    1.75    0.93
  -3 -11  -8    6.44    0.52
  -3 -11  -8    6.25    0.66
  -3  11  -8    6.12    0.54
  -3  11  -8    5.88    0.53
   3  11   8    4.49    1.19
  -3  11  -8    6.20    0.52
  -4 -11  -8    1.15    0.31
  -4 -11  -8    1.13    0.26
  -4 -11  -8    1.02    0.21
  -4  11  -8    0.99    0.20
  -4  11  -8    1.03    0.21
  -4  11  -8    1.19    0.20
  -5  11  -8    1.74    0.31
  -5  11  -8    1.85    0.32
  -5  11  -8    2.06    0.35
  -5  11  -8    1.76    0.32
  -7 -11  -8    1.21    0.25
  -7  11  -8    0.87    0.18
  -7  11  -8    0.76    0.18
  -7  11  -8    0.65    0.17
  -7  11  -8    0.99    0.18
  -8  11  -8    4.64    0.39
  -8  11  -8    4.24    0.38
  -8  11  -8    5.03    0.39
  -8  11  -8    4.50    0.40
  -8 -12   8    2.82    0.28
  -8 -12   8    2.76    0.30
   8 -12  -8    3.29    0.34
  -8 -12   8    3.30    0.32
  -7  12   8    0.08    0.16
  -7  12   8    0.07    0.18
   7  12  -8    0.22    0.13
  -7  12   8    0.20    0.22
  -7  12   8    0.36    0.15
   6 -12  -8    0.73    0.24
  -6 -12   8    0.24    0.16
  -6 -12   8    0.36    0.19
  -6 -12   8    0.52    0.19
  -6  12   8    0.15    0.25
  -6  12   8    0.40    0.24
  -6  12   8    0.43    0.19
  -6  12   8    0.66    0.17
   6  12  -8    0.64    0.16
  -6  12   8    0.44    0.22
  -5 -12   8    4.35    0.53
  -5  12   8    6.40    0.50
  -5  12   8    5.13    0.60
  -5  12   8    5.68    0.59
  -5  12   8    6.29    0.52
  -5  12   8    6.38    0.53
  -4  12   8    1.66    0.31
  -4  12   8    2.14    0.41
  -4  12   8    2.23    0.45
   4  12  -8    2.43    0.28
  -4  12   8    2.47    0.42
  -4  12   8    2.13    0.34
  -3 -12   8    3.30    0.43
   3 -12  -8    2.77    0.43
  -3 -12   8    3.05    0.40
   3  12  -8    4.23    0.33
  -3  12   8    3.97    0.40
  -3  12   8    3.29    0.45
   3  12  -8    3.23    0.42
   2  12  -8   13.91    1.04
   2  12  -8   14.04    0.93
  -2  12   8   14.79    1.03
  -2  12   8   14.17    1.07
  -2  12   8   12.22    1.46
  -1 -12   8    1.02    0.23
   1 -12  -8    1.48    0.32
  -1  12   8    1.11    0.25
   1  12  -8    1.58    0.27
   1  12  -8    1.43    0.24
  -1  12   8    0.77    0.68
  -1  12   8    1.38    0.26
   0 -12  -8    9.99    0.75
   0 -12   8    8.74    0.79
   0  12   8    9.56    1.33
   0  12   8   10.56    0.82
   0  12  -8    9.80    0.75
   0  12  -8    9.49    0.68
  -1 -12  -8    0.92    0.20
  -1 -12  -8    1.52    0.33
   1 -12   8    0.90    0.23
  -1  12  -8    1.69    0.36
   1  12   8    0.11    0.82
  -1  12  -8    1.31    0.27
   1  12   8    1.36    0.31
   2 -12   8    3.33    0.40
  -2 -12  -8    3.87    0.53
  -2 -12  -8    3.53    0.37
   2  12   8    3.25    1.06
   2  12   8    2.22    0.51
  -3 -12  -8    0.82    0.21
  -3 -12  -8    0.83    0.30
  -3  12  -8    0.92    0.19
  -3  12  -8    0.87    0.21
   3  12   8    0.92    0.31
  -4  12  -8    1.30    0.29
  -4  12  -8    1.03    0.21
  -4  12  -8    1.36    0.29
  -5 -12  -8    1.01    0.29
  -5  12  -8    1.74    0.36
  -5  12  -8    1.03    0.21
  -5  12  -8    1.01    0.20
  -5  12  -8    0.83    0.20
  -6  12  -8    3.07    0.36
  -6  12  -8    2.84    0.34
  -6  12  -8    2.96    0.36
  -6  12  -8    2.61    0.34
  -7 -12  -8    0.94    0.19
  -7 -12  -8    0.84    0.23
  -7 -12  -8    0.80    0.24
  -7  12  -8    1.39    0.26
  -7  12  -8    1.13    0.25
  -7  12  -8    1.23    0.25
  -8 -12  -8    2.56    0.36
  -8 -12  -8    2.66    0.35
  -8  12  -8    3.28    0.31
  -8  12  -8    3.99    0.32
  -8  12  -8    3.90    0.30
  -8  12  -8    3.45    0.30
  -8 -13   8    5.08    0.39
  -8 -13   8    5.00    0.41
  -8 -13   8    4.59    0.37
   8 -13  -8    4.83    0.41
  -8  13   8    4.64    0.43
  -8  13   8    4.38    0.40
  -8  13   8    4.16    0.36
   7 -13  -8    1.48    0.31
  -7 -13   8    1.44    0.28
  -7  13   8    1.91    0.26
  -7  13   8    1.77    0.24
  -7  13   8    1.31    0.21
  -7  13   8    1.74    0.36
   7  13  -8    1.92    0.21
  -6  13   8    1.22    0.26
  -6  13   8    1.14    0.27
  -6  13   8    1.62    0.29
  -6  13   8    1.61    0.23
   6  13  -8    1.51    0.22
  -6  13   8    1.56    0.28
  -5 -13   8    3.83    0.44
   5 -13  -8    4.30    0.47
  -5 -13   8    3.84    0.39
  -5 -13   8    3.62    0.43
  -5  13   8    3.54    0.45
  -5  13   8    2.68    0.48
  -5  13   8    2.94    0.43
   5  13  -8    3.84    0.33
  -5  13   8    2.82    0.47
  -5  13   8    3.95    0.39
  -4  13   8    0.91    0.27
  -4  13   8    1.51    0.28
  -4  13   8    1.43    0.22
   4  13  -8    1.50    0.24
  -4  13   8    1.41    0.28
  -3 -13   8    1.17    0.23
  -3 -13   8    1.22    0.24
   3 -13  -8    1.47    0.25
   3  13  -8    1.40    0.24
  -3  13   8    1.11    0.22
  -3  13   8    0.69    0.27
  -3  13   8    1.02    0.28
   2 -13  -8    2.76    0.39
  -2 -13   8    2.33    0.38
   2  13  -8    2.76    0.30
  -2  13   8    2.45    0.43
   2  13  -8    2.74    0.36
  -2  13   8    3.18    0.39
  -1  13   8    2.23    0.84
  -1  13   8    3.41    0.43
   1  13  -8    2.61    0.35
   1  13  -8    2.84    0.31
   0 -13  -8    4.13    0.38
   0 -13   8    3.18    0.40
   0  13  -8    3.51    0.37
   0  13   8    3.56    0.49
   0  13   8    1.87    0.84
   0  13  -8    3.02    0.34
   1 -13   8    1.31    0.24
  -1 -13  -8    1.71    0.31
   1  13   8    2.72    0.94
  -1  13  -8    2.01    0.28
  -2 -13  -8    3.94    0.54
   2 -13   8    3.11    0.41
  -2 -13  -8    2.96    0.40
  -2  13  -8    3.98    0.38
  -2  13  -8    3.70    0.42
   2  13   8    4.23    0.56
   3 -13   8    2.50    0.38
  -3 -13  -8    2.76    0.51
  -3 -13  -8    2.75    0.37
  -3  13  -8    3.26    0.38
   3  13   8    3.15    0.49
  -3  13  -8    2.74    0.34
  -5 -13  -8    7.39    0.62
  -5 -13  -8    7.99    0.69
  -5  13  -8    7.69    0.60
  -5  13  -8    6.62    0.61
  -5  13  -8    6.47    0.58
  -5  13  -8    6.62    0.59
  -6 -13  -8    0.73    0.20
  -6 -13  -8    0.44    0.24
  -6  13  -8    0.48    0.18
  -6  13  -8    0.64    0.20
  -6  13  -8    0.30    0.16
  -6  13  -8    0.58    0.18
   7 -13   8    0.83    0.18
  -7 -13  -8    1.34    0.24
  -7  13  -8    0.75    0.16
  -7  13  -8    0.75    0.16
  -7  13  -8    1.00    0.18
  -8 -13  -8    2.59    0.31
   8 -13   8    2.24    0.27
  -8 -13  -8    2.53    0.31
   8  13   8    3.02    0.33
  -8  13  -8    2.97    0.26
  -8  13  -8    2.69    0.27
  -8  13  -8    2.63    0.25
  -8  13  -8    2.96    0.27
  -8 -14   8    0.35    0.13
  -8 -14   8    0.44    0.12
   8 -14  -8    0.51    0.14
  -8  14   8    0.73    0.16
  -8  14   8    0.76    0.13
  -8  14   8    0.57    0.14
  -7 -14   8    0.18    0.16
   7 -14  -8    0.20    0.17
  -7 -14   8    0.15    0.15
  -7  14   8    0.65    0.20
  -7  14   8    0.48    0.17
  -7  14   8    0.36    0.16
  -6 -14   8    0.35    0.16
  -6 -14   8    0.51    0.19
  -6 -14   8    0.65    0.19
  -6  14   8    0.59    0.25
  -6  14   8    0.42    0.20
  -6  14   8    0.24    0.19
  -6  14   8    0.36    0.22
  -5  14   8    5.72    0.53
  -5  14   8    4.59    0.54
  -5  14   8    5.43    0.46
  -5  14   8    4.91    0.50
  -5  14   8    4.82    0.51
   4 -14  -8    2.37    0.41
  -4 -14   8    2.39    0.38
  -4 -14   8    2.60    0.36
  -4  14   8    2.31    0.43
   4  14  -8    2.43    0.28
  -4  14   8    1.61    0.35
   3 -14  -8    2.12    0.39
  -3 -14   8    1.82    0.36
  -3 -14   8    2.08    0.38
  -2 -14   8    6.50    0.55
  -2  14   8    4.55    0.52
   2  14  -8    5.15    0.41
  -2  14   8    4.18    0.52
   2  14  -8    5.00    0.48
  -1 -14   8    0.74    0.21
   1 -14  -8    0.90    0.21
   1  14  -8    0.50    0.16
   1  14  -8    0.50    0.18
  -1  14   8    0.35    0.24
   0 -14  -8    3.06    0.39
   0  14  -8    3.74    0.39
   0  14   8    4.31    0.52
   0  14   8    2.84    1.03
   0  14  -8    3.82    0.36
  -1 -14  -8    2.44    0.35
   1 -14   8    2.59    0.36
   1  14   8    1.86    0.36
  -1  14  -8    2.01    0.33
  -2 -14  -8    1.42    0.32
   2 -14   8    0.90    0.21
   2  14   8    0.76    0.32
  -2  14  -8    0.79    0.22
  -2  14  -8    0.71    0.19
  -3  14  -8    2.77    0.36
   3  14   8    3.03    0.51
  -3  14  -8    2.72    0.37
   4 -14   8    0.72    0.21
  -4 -14  -8    0.78    0.28
  -4 -14  -8    1.01    0.26
  -4  14  -8    0.75    0.20
  -4  14  -8    0.65    0.19
  -5 -14  -8    1.91    0.39
  -5 -14  -8    2.18    0.45
  -5  14  -8    2.73    0.33
  -5  14  -8    2.80    0.38
  -5  14  -8    2.52    0.35
  -6  14  -8    0.96    0.20
  -6  14  -8    0.90    0.19
  -6  14  -8    0.66    0.18
  -6  14  -8    1.31    0.27
  -7 -14  -8    0.39    0.18
   7 -14   8    0.42    0.16
  -7 -14  -8    0.42    0.17
  -7  14  -8    0.57    0.15
  -7  14  -8    0.69    0.15
  -7  14  -8    0.78    0.16
  -7  14  -8    0.70    0.15
  -7 -15   8    0.06    0.13
  -7 -15   8    0.27    0.15
   7 -15  -8    0.35    0.16
  -7 -15   8    0.36    0.16
  -7  15   8    0.40    0.15
  -6  15   8    1.11    0.22
  -6  15   8    0.89    0.21
   6  15  -8    1.53    0.23
  -6  15   8    1.69    0.27
  -6  15   8    1.48    0.23
  -5 -15   8    4.20    0.42
  -5 -15   8    5.13    0.44
  -5  15   8    4.11    0.49
   5  15  -8    4.84    0.36
  -5  15   8    4.39    0.41
  -5  15   8    3.40    0.45
  -5  15   8    3.94    0.46
  -5  15   8    3.78    0.48
  -4  15   8    1.72    0.34
   4  15  -8    2.08    0.27
  -4  15   8    1.69    0.28
  -4  15   8    1.98    0.39
  -4  15   8    1.71    0.30
  -3 -15   8    2.59    0.41
  -3 -15   8    3.04    0.39
   3 -15  -8    2.79    0.40
   3  15  -8    2.93    0.31
  -3  15   8    1.97    0.43
  -3  15   8    2.20    0.38
  -2 -15   8    3.13    0.41
  -2 -15   8    3.26    0.48
   2  15  -8    2.45    0.30
  -2  15   8    2.47    0.40
  -2  15   8    1.92    0.31
   2  15  -8    2.56    0.40
   1  15  -8    1.44    0.26
  -1  15   8    0.89    0.26
   1  15  -8    1.01    0.20
   0  15   8    0.85    0.28
   0  15  -8    0.84    0.18
   0  15  -8    0.70    0.18
  -1 -15  -8    1.18    0.21
   1 -15   8    1.04    0.21
  -2 -15  -8    4.81    0.50
   2 -15   8    5.12    0.50
  -2  15  -8    6.06    0.50
   2  15   8    5.82    0.69
  -3 -15  -8    1.53    0.32
   3 -15   8    1.64    0.32
  -3 -15  -8    1.02    0.32
  -4 -15  -8    2.75    0.48
  -4 -15  -8    2.22    0.44
   4 -15   8    2.61    0.35
  -4  15  -8    2.79    0.34
  -4  15  -8    2.62    0.35
   4  15   8    3.10    0.46
  -5 -15  -8    6.91    0.65
   5 -15   8    7.66    0.64
  -5 -15  -8    8.12    0.73
  -5  15  -8    8.03    0.66
  -5  15  -8    8.98    0.65
  -5  15  -8    8.07    0.65
  -5  15  -8    7.86    0.64
  -6  15  -8    0.97    0.18
  -6  15  -8    1.17    0.20
   6  15   8    1.74    0.33
  -6  15  -8    1.54    0.29
  -6  15  -8    1.21    0.26
  -7 -15  -8    0.77    0.18
  -7 -15  -8    0.51    0.16
   7 -15   8    0.73    0.15
  -7  15  -8    0.48    0.14
  -7  15  -8    0.69    0.15
   7  15   8    0.95    0.20
  -7  15  -8    0.73    0.16
  -7  15  -8    1.08    0.20
  -7  16   8    2.63    0.28
   7  16  -8    2.13    0.23
  -7  16   8    2.72    0.29
  -7  16   8    2.25    0.23
  -7  16   8    1.79    0.25
   6 -16  -8    0.50    0.17
  -6 -16   8    0.15    0.15
  -6 -16   8    0.18    0.14
  -6 -16   8    0.44    0.20
  -6  16   8    0.48    0.14
  -6  16   8    0.30    0.18
  -6  16   8    0.39    0.17
   5 -16  -8    3.12    0.45
  -5  16   8    3.98    0.44
  -5  16   8    4.89    0.42
  -5  16   8    4.02    0.46
   5  16  -8    4.86    0.36
  -5  16   8    4.95    0.45
  -4 -16   8    2.55    0.37
   4 -16  -8    2.85    0.39
  -4 -16   8    2.57    0.38
  -4  16   8    2.23    0.44
  -4  16   8    3.01    0.36
  -4  16   8    2.57    0.40
   3  16  -8    4.67    0.38
  -3  16   8    4.05    0.49
   3  16  -8    4.62    0.43
  -3  16   8    4.22    0.46
   2 -16  -8    2.79    0.38
  -2 -16   8    2.32    0.38
  -2 -16   8    3.19    0.44
  -2  16   8    1.86    0.41
  -2  16   8    1.82    0.30
   2  16  -8    2.09    0.35
   2  16  -8    2.56    0.29
   1 -16  -8    1.64    0.24
  -1 -16   8    1.36    0.23
  -1  16   8    2.27    0.42
   0  16  -8    1.20    0.21
   0  16  -8    1.54    0.20
   0  16   8    1.49    0.29
   1  16   8    0.50    0.29
  -1  16  -8    0.30    0.18
   2 -16   8    2.11    0.34
  -2 -16  -8    2.08    0.35
   2  16   8    2.18    0.37
  -2  16  -8    2.30    0.34
  -3 -16  -8    4.69    0.56
  -3  16  -8    4.05    0.45
   3  16   8    4.21    0.56
  -3  16  -8    4.55    0.44
  -4 -16  -8    0.39    0.26
   4 -16   8    0.47    0.19
  -4  16  -8    0.75    0.19
   4  16   8    0.87    0.28
  -5 -16  -8    2.45    0.40
  -5 -16  -8    1.61    0.36
   5 -16   8    1.75    0.30
  -5  16  -8    2.56    0.37
   5  16   8    2.97    0.40
  -5  16  -8    2.28    0.31
   6 -16   8    0.85    0.18
  -6 -16  -8    0.77    0.21
  -6 -16  -8    0.73    0.19
  -6  16  -8    1.44    0.24
  -6  16  -8    1.32    0.25
  -6  16  -8    1.53    0.25
  -7 -16  -8    0.78    0.17
  -7 -16  -8    0.68    0.15
   7 -16   8    0.79    0.14
  -7  16  -8    1.07    0.19
   7  17  -8    2.12    0.21
  -7  17   8    1.76    0.21
  -7  17   8    2.36    0.26
  -7  17   8    1.88    0.23
  -7  17   8    2.26    0.25
  -6  17   8    0.42    0.15
  -6  17   8    0.63    0.14
  -6  17   8    0.61    0.17
  -6  17   8    0.83    0.17
   6  17  -8    0.68    0.13
  -5 -17   8    2.40    0.31
  -5  17   8    1.69    0.28
   5  17  -8    1.60    0.26
  -5  17   8    1.47    0.25
  -5  17   8    1.72    0.31
   5  17  -8    2.05    0.23
  -5  17   8    1.88    0.32
   4  17  -8    2.47    0.31
  -4  17   8    1.91    0.40
  -4  17   8    2.41    0.33
  -4  17   8    2.24    0.37
   4  17  -8    2.63    0.28
   3 -17  -8    3.82    0.40
  -3 -17   8    3.10    0.41
  -3 -17   8    3.46    0.42
   3  17  -8    3.05    0.35
  -3  17   8    2.52    0.38
  -3  17   8    2.31    0.41
   3  17  -8    3.52    0.32
   2 -17  -8    0.69    0.20
  -2 -17   8    0.57    0.24
  -2 -17   8    0.61    0.21
  -2  17   8    0.25    0.22
   2  17  -8    0.19    0.16
   2  17  -8    0.30    0.19
  -1 -17   8    0.19    0.18
   1 -17  -8    0.29    0.18
   1  17  -8    0.33    0.17
  -1  17   8    0.19    0.23
   1  17  -8    0.44    0.20
   0 -17   8    0.13    0.17
   0 -17  -8    0.15    0.17
   0  17  -8    0.23    0.17
   0  17  -8    0.26    0.18
   0  17   8    0.18    0.25
  -1  17  -8    1.97    0.32
   1  17   8    1.77    0.32
   2 -17   8    4.90    0.51
  -2  17  -8    6.58    0.52
   2  17   8    6.66    0.65
  -3 -17  -8    2.41    0.48
   3 -17   8    3.09    0.35
  -4 -17  -8    2.86    0.42
  -4 -17  -8    3.36    0.46
   4 -17   8    3.00    0.34
   4  17   8    2.81    0.46
  -4  17  -8    2.85    0.36
  -5 -17  -8    0.98    0.22
   5 -17   8    1.58    0.26
  -5 -17  -8    1.25    0.24
  -5  17  -8    1.35    0.21
  -5  17  -8    1.69    0.29
  -5  17  -8    1.80    0.34
   5  17   8    1.60    0.35
  -6 -17  -8    0.42    0.19
   6 -17   8    0.57    0.14
  -6 -17  -8    0.67    0.18
   6  17   8    0.77    0.19
  -6  17  -8    0.77    0.15
  -6  17  -8    0.85    0.18
   6  18  -8    0.68    0.12
  -6  18   8    0.50    0.16
  -6  18   8    0.47    0.16
  -6  18   8    0.64    0.16
  -6  18   8    0.67    0.13
   5 -18  -8    3.40    0.38
  -5  18   8    4.42    0.37
  -5  18   8    3.46    0.37
  -5  18   8    4.35    0.39
   5  18  -8    4.10    0.34
  -4 -18   8    1.11    0.22
  -4  18   8    1.52    0.26
   4  18  -8    1.84    0.24
  -4  18   8    1.76    0.30
   4  18  -8    1.75    0.25
  -4  18   8    1.47    0.31
  -3 -18   8    2.43    0.42
  -3  18   8    3.56    0.40
   3  18  -8    4.04    0.33
  -3  18   8    3.41    0.41
   3  18  -8    3.50    0.36
  -2 -18   8    0.99    0.22
   2 -18  -8    0.76    0.20
   2  18  -8    1.24    0.25
   2  18  -8    1.41    0.20
  -2  18   8    1.19    0.23
  -1  18   8    1.92    0.39
   0 -18   8    0.48    0.18
   0 -18  -8    0.43    0.18
   0  18   8    0.23    0.25
   0  18  -8    0.34    0.18
  -1 -18  -8    2.65    0.36
   1 -18   8    2.80    0.32
   1  18   8    2.41    0.33
  -1  18  -8    2.02    0.33
   2 -18   8    0.33    0.17
  -2  18  -8    0.55    0.17
   2  18   8    0.36    0.28
   3 -18   8    2.64    0.31
  -3 -18  -8    2.05    0.45
  -3  18  -8    2.18    0.31
   4 -18   8    1.93    0.28
   5 -18   8    0.64    0.16
  -5 -18  -8    0.68    0.20
  -5 -18  -8    0.49    0.19
   5 -18   8    0.42    0.16
   6 -18   8    1.01    0.20
   6 -18   8    0.58    0.14
  -6 -18  -8    0.72    0.17
  -6 -18  -8    0.57    0.16
  -6 -19   8    1.08    0.19
   6 -19  -8    1.41    0.19
  -6 -19   8    1.12    0.20
  -6  19   8    1.51    0.22
   6  19  -8    1.43    0.17
  -6  19   8    1.35    0.19
  -6  19   8    1.31    0.22
   4  19  -8    0.09    0.13
   4  19  -8    0.28    0.13
  -4  19   8    0.17    0.21
  -4  19   8    0.11    0.17
  -4  19   8    0.15    0.16
  -3 -19   8    0.53    0.21
  -3 -19   8    0.55    0.20
   3 -19  -8    0.83    0.18
   3  19  -8    0.81    0.16
   3  19  -8    0.81    0.16
  -2  19   8    0.04    0.19
   2  19  -8    0.18    0.15
   2  19  -8    0.25    0.17
  -1 -19   8    0.21    0.17
   1 -19  -8    0.24    0.16
   1  19  -8    0.31    0.16
  -1  19   8    0.19    0.21
   0 -19   8    0.08    0.17
   0 -19  -8    0.14    0.17
   0  19  -8    0.47    0.18
   0  19  -8    0.39    0.17
   0  19   8    0.45    0.23
  -1  19  -8    0.44    0.16
   1  19   8    0.40    0.24
   2 -19   8    1.15    0.26
  -2  19  -8    1.19    0.18
   2  19   8    0.67    0.26
  -3 -19  -8    5.31    0.57
   3 -19   8    6.27    0.49
  -3  19  -8    6.45    0.50
   3  19   8    5.48    0.57
   4 -19   8    3.25    0.32
  -4 -19  -8    2.68    0.38
  -4  19  -8    3.32    0.34
   5 -19   8    0.54    0.14
  -5 -19  -8    0.36    0.17
   5 -20  -8    0.98    0.20
  -5  20   8    0.89    0.16
   5  20  -8    1.12    0.18
  -5  20   8    0.94    0.17
  -5  20   8    0.89    0.15
  -4  20   8    0.00    0.14
   4  20  -8    0.12    0.12
  -4  20   8   -0.02    0.19
  -3  20   8    3.99    0.39
   3  20  -8    3.69    0.34
   3  20  -8    4.24    0.36
  -2 -20   8    0.44    0.17
   2  20  -8    0.77    0.16
   2  20  -8    0.67    0.17
  -2  20   8    0.70    0.19
  -1 -20   8    1.51    0.27
   1 -20  -8    1.36    0.26
   1  20  -8    1.05    0.17
  -1  20   8    0.99    0.22
   0 -20  -8    1.30    0.27
   0  20   8    0.89    0.22
   0  20  -8    0.57    0.18
   1 -20   8    2.24    0.29
  -1  20  -8    1.71    0.30
   1  20   8    2.03    0.37
  -2  20  -8    0.58    0.15
   2  20   8    0.56    0.23
  -3 -20  -8    3.09    0.39
  -3  20  -8    2.27    0.29
   3  20   8    2.47    0.40
   4 -20   8    1.85    0.24
  -4 -20  -8    1.37    0.30
  -5 -20  -8    0.43    0.15
   5 -20   8    0.50    0.13
  -5  20  -8    0.58    0.13
   4 -21  -8    0.38    0.13
   4  21  -8    0.59    0.12
  -4  21   8    0.26    0.17
  -4  21   8    0.70    0.14
   3 -21  -8    4.20    0.34
  -3 -21   8    3.51    0.36
   3  21  -8    3.62    0.33
  -3  21   8    3.61    0.34
   2 -21  -8    1.45    0.24
  -2 -21   8    1.38    0.26
  -2  21   8    1.14    0.20
   2  21  -8    1.58    0.26
   1 -21  -8    0.38    0.15
  -1 -21   8    0.43    0.17
  -1  21   8    0.63    0.18
   0 -21   8    0.69    0.17
   0  21   8    0.08    0.19
  -2  21  -8    2.01    0.27
   2  21   8    2.11    0.34
  -3 -21  -8    9.24    0.69
   3 -21   8    9.95    0.65
  -3  21  -8    7.44    0.65
   3  21   8    7.60    0.67
  -4 -21  -8    1.27    0.26
  -4  21  -8    0.81    0.19
   4 -22  -8    1.02    0.16
  -4  22   8    0.75    0.13
   4  22  -8    0.63    0.12
   3 -22  -8    5.90    0.49
  -3 -22   8    5.47    0.51
  -3  22   8    7.35    0.49
   3  22  -8    6.99    0.48
  -2  22   8    1.27    0.24
   2  22  -8    1.62    0.25
  -1 -22   8    2.85    0.31
   1  22   8    1.15    0.20
   2  22   8    0.34    0.17
  -2  22  -8    0.04    0.14
   3 -22   8    2.02    0.23
   3  22   8    1.87    0.28
  -3  22  -8    1.54    0.21
   3 -23  -8    4.73    0.34
   3  23  -8    3.52    0.33
   2 -23  -8    0.96    0.15
  -2 -23   8    0.99    0.20
  -2  23   8    0.80    0.15
  -1 -23   8    1.91    0.25
  -1  23   8    2.51    0.26
   0 -23   8    1.21    0.23
   0  23   8    1.84    0.24
   1 -23   8    1.38    0.22
   1  23   8    1.72    0.24
   2 -23   8    1.03    0.21
   2  23   8    1.57    0.23
   0 -24   8    2.42    0.26
   0  24   8    2.96    0.26
  -9   0   9    0.43    0.12
   9   0  -9    0.55    0.15
   8   0  -9    1.67    0.24
  -8   0   9    1.14    0.20
   8   0  -9    1.56    0.27
  -8   0   9    1.20    0.23
  -8   0   9    1.29    0.24
  -7   0   9    1.49    0.25
  -7   0   9    1.38    0.26
  -7   0   9    1.31    0.23
  -6   0   9    4.23    0.37
  -6   0   9    4.36    0.40
  -6   0   9    3.84    0.49
  -6   0   9    4.47    0.38
  -6   0   9    4.24    0.43
  -5   0   9    3.79    0.41
  -5   0   9    3.55    0.34
  -5   0   9    3.70    0.39
  -5   0   9    3.61    0.35
  -5   0   9    3.22    0.45
  -4   0   9    4.03    0.37
  -4   0   9    4.31    0.44
  -4   0   9    4.21    0.38
  -4   0   9    4.27    0.44
  -3   0   9   16.10    1.31
  -3   0   9   16.95    1.12
  -3   0   9   17.63    1.25
  -2   0   9    5.05    0.46
   2   0  -9    4.75    0.47
  -2   0   9    4.83    0.79
  -2   0   9    4.98    0.46
  -1   0   9    0.77    0.48
   1   0  -9    0.80    0.19
  -1   0   9    0.62    0.19
   1   0  -9    0.31    0.18
  -1   0   9    0.79    0.18
   0   0  -9   33.26    2.49
   0   0   9   35.09    2.55
   0   0   9   36.82    2.72
   0   0  -9   34.83    2.55
   0   0   9   38.10    2.68
  -1   0  -9    0.12    0.19
  -1   0  -9   -0.02    0.15
   1   0   9    0.37    0.20
   1   0   9    0.40    0.51
   2   0   9    6.84    1.04
   2   0   9    6.88    0.61
  -2   0  -9    6.98    0.54
  -2   0  -9    5.87    0.60
   3   0   9    4.50    0.50
  -3   0  -9    4.84    0.42
  -4   0  -9    6.03    0.57
   4   0   9    5.74    0.57
  -4   0  -9    5.50    0.49
  -5   0  -9    7.19    0.66
   5   0   9    7.18    0.70
  -5   0  -9    7.93    0.62
  -5   0  -9    7.94    0.68
  -6   0  -9    6.11    0.59
  -6   0  -9    6.32    0.51
  -6   0  -9    5.98    0.51
  -6   0  -9    5.88    0.55
   6   0   9    5.89    0.60
  -7   0  -9    1.58    0.30
   7   0   9    1.46    0.27
  -7   0  -9    1.36    0.20
  -7   0  -9    1.22    0.21
  -8   0  -9    0.48    0.16
  -8   0  -9    0.82    0.16
  -8   0  -9    0.90    0.17
  -9   1   9    1.80    0.20
  -9   1   9    1.25    0.21
  -9   1   9    1.65    0.20
  -8  -1   9    1.34    0.25
   8   1  -9    1.36    0.28
  -8   1   9    1.72    0.24
   8   1  -9    1.38    0.25
  -8   1   9    1.89    0.25
  -8   1   9    1.45    0.22
  -8   1   9    2.07    0.25
  -7  -1   9    2.14    0.38
  -7  -1   9    2.29    0.29
  -7  -1   9    2.65    0.29
  -7  -1   9    2.25    0.30
  -7  -1   9    2.35    0.26
  -7   1   9    1.79    0.32
  -7   1   9    2.35    0.28
  -7   1   9    2.05    0.27
  -7   1   9    2.20    0.28
  -6  -1   9   10.42    0.96
  -6  -1   9   10.17    0.89
  -6  -1   9   10.97    0.85
  -6  -1   9   10.56    0.85
  -6  -1   9   10.89    0.80
  -6   1   9   13.02    0.85
  -6   1   9   12.92    0.86
  -6   1   9   12.53    0.80
  -6   1   9   12.87    0.90
  -6   1   9   13.34    0.97
  -5  -1   9    1.44    0.30
  -5  -1   9    1.54    0.32
  -5  -1   9    1.61    0.25
  -5  -1   9    1.64    0.26
  -5  -1   9    1.05    0.25
  -5   1   9    1.63    0.31
  -5   1   9    2.09    0.26
  -5   1   9    1.18    0.26
  -5   1   9    1.91    0.26
  -4  -1   9   17.12    1.11
  -4  -1   9   16.65    1.09
  -4  -1   9   17.27    1.21
  -4  -1   9   17.62    1.46
  -4   1   9   12.65    1.41
  -4   1   9   12.61    1.02
  -4   1   9   13.86    1.16
  -3  -1   9    2.69    0.37
  -3  -1   9    2.01    0.57
  -3  -1   9    2.34    0.37
  -3   1   9    3.39    0.41
  -3   1   9    3.80    0.38
  -3   1   9    3.22    0.36
  -3   1   9    2.84    0.59
  -3   1   9    3.51    0.34
  -2  -1   9    4.34    0.47
  -2  -1   9    3.36    0.77
  -2  -1   9    4.27    0.45
  -2   1   9    5.86    0.48
  -2   1   9    5.44    0.78
  -1  -1   9    4.70    0.74
  -1   1   9    3.17    0.40
   1   1  -9    3.28    0.36
  -1   1   9    4.25    0.75
   1   1  -9    2.91    0.36
  -1   1   9    3.47    0.37
   0  -1  -9    7.32    0.56
   0  -1  -9    7.77    0.61
   0  -1   9    7.08    0.90
   0  -1   9    7.40    0.61
   0   1   9    5.01    0.92
   0   1  -9    6.61    0.57
   0   1   9    6.99    0.63
   0   1  -9    7.05    0.58
   1  -1   9    1.09    0.58
   1   1   9    0.99    0.55
   1   1   9    1.18    0.23
  -1   1  -9    0.71    0.19
  -1   1  -9    0.72    0.18
   2  -1   9    9.23    0.70
   2  -1   9    8.87    1.10
  -2  -1  -9    7.89    0.69
  -2  -1  -9    8.99    0.62
   2   1   9    7.80    0.70
  -2   1  -9    7.28    0.62
  -2   1  -9    6.68    0.67
   3  -1   9    3.29    0.41
  -3  -1  -9    3.60    0.35
  -3  -1  -9    3.79    0.45
   3   1   9    1.42    0.84
   3   1   9    2.93    0.43
  -3   1  -9    3.01    0.35
   4  -1   9   20.33    1.71
  -4  -1  -9   22.29    1.71
  -4  -1  -9   20.91    1.58
   4   1   9   23.74    1.72
  -4   1  -9   24.04    1.58
  -4   1  -9   21.89    1.65
  -5  -1  -9    1.05    0.25
  -5  -1  -9    1.28    0.27
   5  -1   9    1.13    0.26
  -5   1  -9    1.67    0.36
   5   1   9    1.42    0.28
  -6  -1  -9   14.89    1.03
   6  -1   9   14.52    1.09
  -6  -1  -9   14.82    1.00
  -6  -1  -9   14.69    1.09
  -6  -1  -9   13.79    0.99
   6   1   9   12.31    1.09
  -6   1  -9   12.24    0.99
  -6   1  -9   12.05    1.02
  -6   1  -9   12.09    0.98
   7   1   9    0.96    0.25
  -7   1  -9    0.78    0.18
  -7   1  -9    0.83    0.19
  -7   1  -9    0.87    0.19
   8   1   9    0.89    0.23
  -8   1  -9    0.81    0.17
  -8   1  -9    0.91    0.16
  -8   1  -9    0.79    0.17
   9  -2  -9    0.10    0.15
  -9   2   9    0.35    0.11
  -9   2   9    0.25    0.11
  -9   2   9    0.40    0.11
  -8  -2   9    0.77    0.14
  -8   2   9    0.45    0.14
  -8   2   9    0.39    0.15
  -8   2   9    0.32    0.13
   8   2  -9    0.50    0.18
  -8   2   9    0.53    0.14
   8   2  -9    0.31    0.15
  -7  -2   9    1.93    0.34
  -7   2   9    0.97    0.18
  -7   2   9    1.53    0.26
  -7   2   9    1.55    0.25
  -7   2   9    1.36    0.28
   7   2  -9    1.13    0.22
   7   2  -9    1.20    0.20
  -6  -2   9    5.89    0.48
  -6  -2   9    6.33    0.48
  -6  -2   9    6.22    0.45
  -6  -2   9    5.32    0.56
  -6  -2   9    6.16    0.51
  -6   2   9    5.50    0.46
  -6   2   9    5.99    0.49
  -6   2   9    5.81    0.50
   6   2  -9    5.78    0.47
  -6   2   9    5.59    0.53
  -5  -2   9    9.63    0.67
  -5  -2   9    9.05    0.72
  -5  -2   9    9.78    0.75
  -5  -2   9    9.57    0.80
  -5  -2   9    9.78    0.71
  -5   2   9    9.65    0.71
  -5   2   9    9.28    0.73
  -5   2   9    9.80    0.67
  -5   2   9    9.61    0.77
  -5   2   9    9.54    0.83
  -4  -2   9    6.62    0.58
  -4  -2   9    5.29    0.53
  -4  -2   9    6.09    0.55
  -4  -2   9    5.55    0.48
  -4  -2   9    5.26    0.92
  -4  -2   9    5.39    0.51
  -4   2   9    7.34    0.49
  -4   2   9    6.93    0.59
  -4   2   9    6.89    0.56
  -4   2   9    5.88    1.00
  -4   2   9    7.16    0.52
  -3  -2   9    2.98    0.35
  -3  -2   9    2.70    0.29
  -3  -2   9    3.71    0.76
   3  -2  -9    2.77    0.35
   3   2  -9    2.16    0.35
   3   2  -9    1.71    0.30
  -3   2   9    1.68    0.34
  -3   2   9    2.13    0.36
  -2  -2   9    4.66    0.80
   2  -2  -9    5.46    0.45
  -2  -2   9    5.95    0.45
   2   2  -9    4.46    0.45
  -2   2   9    4.31    0.49
  -2   2   9    4.85    0.47
  -2   2   9    3.32    0.80
  -1  -2   9    5.52    0.46
  -1  -2   9    4.73    0.81
  -1  -2   9    5.55    0.47
   1  -2  -9    4.87    0.44
   1  -2  -9    5.43    0.49
  -1   2   9    4.64    0.47
  -1   2   9    3.87    0.48
   1   2  -9    4.13    0.45
  -1   2   9    4.74    0.80
   0  -2  -9   21.70    1.56
   0  -2  -9   21.56    1.51
   0  -2   9   22.65    1.76
   0  -2   9   22.80    1.62
   0   2  -9   19.56    1.51
   0   2   9   20.32    1.56
   0   2  -9   20.54    1.54
   0   2   9   20.38    1.79
   0   2   9   22.10    1.64
   1  -2   9    1.20    0.57
  -1   2  -9    0.26    0.16
   1   2   9    0.52    0.52
  -1   2  -9    0.25    0.17
   1   2   9    0.66    0.21
  -2  -2  -9    3.62    0.36
   2  -2   9    3.24    0.42
   2   2   9    3.19    0.74
   2   2   9    3.70    0.44
  -2   2  -9    3.80    0.35
  -2   2  -9    3.37    0.40
   3   2   9    0.35    0.79
  -3   2  -9    0.73    0.23
   3   2   9    1.11    0.27
  -3   2  -9    1.45    0.26
   4  -2   9    7.11    0.61
  -4  -2  -9    7.39    0.55
  -4  -2  -9    7.45    0.66
  -4   2  -9    6.25    0.61
   4   2   9    6.14    0.64
  -4   2  -9    6.31    0.54
  -4   2  -9    5.55    0.63
  -5  -2  -9    4.56    0.54
  -5  -2  -9    4.61    0.54
  -5  -2  -9    4.64    0.45
   5  -2   9    4.33    0.51
   5   2   9    4.16    0.54
  -5   2  -9    4.83    0.47
  -5   2  -9    5.25    0.44
  -6  -2  -9    6.38    0.63
   6  -2   9    6.30    0.63
  -6  -2  -9    5.77    0.55
  -6  -2  -9    6.63    0.56
   6   2   9    6.64    0.66
  -6   2  -9    7.28    0.54
  -6   2  -9    6.74    0.55
  -6   2  -9    6.99    0.57
  -7   2  -9    3.82    0.39
   7   2   9    4.03    0.49
  -7   2  -9    3.77    0.38
  -7   2  -9    3.84    0.39
  -8  -2  -9    0.63    0.15
  -8  -2  -9    0.67    0.17
  -8  -2  -9    0.53    0.16
  -8   2  -9    0.54    0.16
  -8   2  -9    0.40    0.16
  -8   2  -9    0.46    0.14
   8   2   9    0.62    0.22
   9  -3  -9    0.31    0.14
  -9   3   9    0.53    0.11
  -9   3   9    0.65    0.12
  -9   3   9    0.43    0.12
  -8  -3   9    0.32    0.13
  -8  -3   9    0.02    0.14
  -8  -3   9    0.12    0.13
  -8  -3   9    0.14    0.18
   8   3  -9    0.68    0.15
  -8   3   9    0.59    0.15
  -7  -3   9    3.92    0.36
  -7  -3   9    3.52    0.37
  -7  -3   9    3.65    0.42
  -7  -3   9    4.12    0.36
  -7  -3   9    3.49    0.32
  -7   3   9    3.70    0.35
   7   3  -9    3.02    0.38
  -7   3   9    3.62    0.33
   7   3  -9    2.96    0.34
  -7   3   9    3.65    0.34
  -7   3   9    3.22    0.38
  -6  -3   9    9.12    0.63
  -6  -3   9    9.47    0.67
  -6  -3   9    8.86    0.76
  -6  -3   9    8.93    0.70
  -6  -3   9    9.09    0.67
  -6   3   9    9.14    0.67
   6   3  -9    8.30    0.64
   6   3  -9    8.44    0.72
  -6   3   9    8.89    0.63
  -6   3   9    9.17    0.68
  -6   3   9    8.54    0.72
  -5  -3   9   14.77    1.05
  -5  -3   9   14.44    0.89
  -5  -3   9   14.38    0.99
  -5  -3   9   13.93    0.95
  -5  -3   9   14.14    0.95
  -5   3   9   11.91    0.89
   5   3  -9   11.70    0.89
  -5   3   9   13.23    0.94
  -5   3   9   12.57    1.01
   5   3  -9   11.65    1.00
  -5   3   9   12.14    0.96
   4   3  -9   10.56    0.71
   4   3  -9   10.53    0.80
  -4   3   9    9.28    0.85
  -4   3   9   10.40    0.71
  -4   3   9   10.53    0.79
  -4   3   9    9.69    0.75
  -4   3   9    9.27    1.18
  -3   3   9    6.93    0.55
  -3   3   9    6.20    0.62
   3   3  -9    6.70    0.58
  -3   3   9    6.78    0.93
   3   3  -9    6.54    0.53
  -3   3   9    8.20    0.61
  -2  -3   9    3.65    0.35
  -2  -3   9    3.16    0.38
  -2  -3   9    2.93    0.57
   2  -3  -9    3.32    0.37
  -2   3   9    2.07    0.58
  -2   3   9    2.32    0.41
  -1  -3   9    1.57    0.52
  -1   3   9    0.50    0.49
  -1   3   9    1.00    0.23
   1   3  -9    1.55    0.28
  -1   3   9    1.56    0.33
   0  -3  -9    9.25    0.71
   0  -3   9    8.75    1.05
   0  -3   9    9.61    0.77
   0  -3  -9    9.56    0.77
   0   3  -9    8.59    0.73
   0   3   9   10.39    0.79
   0   3   9    8.91    0.76
   0   3  -9    9.49    0.72
   0   3   9   10.08    1.10
   1  -3   9    3.01    0.65
  -1  -3  -9    3.52    0.45
  -1  -3  -9    3.60    0.35
   1  -3   9    3.26    0.39
  -1   3  -9    3.27    0.37
  -1   3  -9    3.48    0.35
   1   3   9    4.46    0.73
   1   3   9    4.02    0.41
  -2   3  -9    0.65    0.20
   2   3   9    0.94    0.25
  -2   3  -9    0.70    0.17
   2   3   9   -0.37    0.67
   3  -3   9    6.45    0.57
  -3  -3  -9    6.85    0.59
  -3  -3  -9    6.35    0.48
   3   3   9    4.10    0.97
  -3   3  -9    5.42    0.49
   3   3   9    4.76    0.58
  -3   3  -9    4.82    0.53
   4  -3   9    5.86    0.61
  -4  -3  -9    6.46    0.54
  -4  -3  -9    6.51    0.64
  -4   3  -9    6.98    0.54
  -4   3  -9    6.18    0.59
   4   3   9    6.15    0.64
  -5  -3  -9    7.52    0.61
   5  -3   9    6.94    0.68
  -5  -3  -9    7.34    0.69
  -5  -3  -9    6.82    0.69
  -5   3  -9    7.53    0.63
   5   3   9    7.43    0.73
  -5   3  -9    8.19    0.59
  -6  -3  -9   12.74    0.92
  -6  -3  -9   11.62    0.86
  -6  -3  -9   12.54    0.87
  -6  -3  -9   12.28    0.97
  -6   3  -9   10.73    0.87
   6   3   9   10.54    0.98
  -6   3  -9   11.53    0.89
  -6   3  -9   11.05    0.87
  -7  -3  -9    2.29    0.31
  -7  -3  -9    2.57    0.36
  -7  -3  -9    2.50    0.32
  -7  -3  -9    2.59    0.41
   7   3   9    2.74    0.44
  -7   3  -9    2.52    0.31
  -7   3  -9    2.26    0.32
  -8  -3  -9    0.45    0.17
  -8   3  -9   -0.06    0.13
  -8   3  -9    0.15    0.13
  -8   3  -9   -0.01    0.14
   8   3   9    0.05    0.22
  -9   4   9    0.56    0.11
  -9   4   9    0.71    0.12
  -8  -4   9    0.32    0.16
  -8  -4   9    0.26    0.13
  -8  -4   9    0.17    0.13
  -8   4   9    0.42    0.15
  -7  -4   9    1.84    0.35
  -7  -4   9    1.74    0.24
  -7  -4   9    2.14    0.29
  -7  -4   9    2.16    0.28
  -7  -4   9    1.62    0.29
   7   4  -9    2.40    0.32
  -7   4   9    2.04    0.28
  -7   4   9    1.82    0.32
  -7   4   9    2.31    0.29
   7   4  -9    2.30    0.27
  -7   4   9    1.77    0.26
  -6  -4   9    1.63    0.39
  -6  -4   9    2.52    0.31
  -6  -4   9    2.43    0.32
  -6  -4   9    2.07    0.27
  -6  -4   9    1.86    0.32
  -6   4   9    2.84    0.30
   6   4  -9    2.25    0.29
   6   4  -9    2.63    0.36
  -6   4   9    1.88    0.29
  -6   4   9    2.52    0.37
  -6   4   9    2.64    0.32
  -5  -4   9    4.58    0.42
  -5  -4   9    4.80    0.40
  -5  -4   9    4.40    0.42
  -5  -4   9    4.20    0.45
  -5  -4   9    4.10    0.36
  -5   4   9    3.35    0.47
   5   4  -9    4.31    0.43
  -5   4   9    3.24    0.42
   5   4  -9    3.84    0.38
  -5   4   9    3.90    0.38
  -4  -4   9   11.61    0.98
   4  -4  -9   11.13    1.00
  -4  -4   9   11.69    0.90
  -4  -4   9   13.16    1.06
  -4  -4   9   12.15    1.35
  -4  -4   9   12.42    1.00
  -4  -4   9   12.06    0.97
  -4   4   9   14.53    1.08
  -4   4   9   14.58    0.99
  -4   4   9   15.51    1.04
  -4   4   9   14.25    0.96
  -4   4   9   14.20    0.92
  -4   4   9   13.40    1.38
   4   4  -9   15.01    1.01
   4   4  -9   14.72    0.91
  -3  -4   9    4.75    0.44
  -3  -4   9    4.26    0.38
  -3  -4   9    4.37    0.86
  -3  -4   9    4.59    0.47
   3  -4  -9    4.54    0.45
  -3   4   9    4.74    0.43
  -3   4   9    4.09    0.84
   3   4  -9    4.91    0.40
   3   4  -9    4.83    0.44
  -2  -4   9    1.74    0.56
  -2  -4   9    1.69    0.32
   2  -4  -9    1.25    0.30
  -2  -4   9    1.83    0.30
  -2   4   9    2.12    0.54
   2   4  -9    1.86    0.29
  -2   4   9    2.66    0.39
  -2   4   9    2.00    0.37
   1  -4  -9    2.55    0.42
  -1   4   9    3.57    0.64
  -1   4   9    3.10    0.41
   1   4  -9    3.16    0.33
  -1   4   9    3.35    0.41
   0  -4  -9    3.95    0.40
   0  -4  -9    3.88    0.51
   0  -4   9    3.24    0.67
   0  -4   9    4.12    0.44
   0   4  -9    4.80    0.41
   0   4   9    5.10    0.48
   0   4   9    4.60    0.48
   0   4   9    4.99    0.90
   1  -4   9    4.40    0.48
  -1  -4  -9    4.78    0.44
  -1   4  -9    5.73    0.46
  -1   4  -9    5.03    0.44
   1   4   9    5.24    1.01
  -2  -4  -9    1.01    0.28
  -2  -4  -9    1.30    0.28
  -2   4  -9    1.65    0.30
  -2   4  -9    1.91    0.26
   2   4   9    1.78    0.72
   3  -4   9    3.80    0.42
  -3  -4  -9    4.14    0.47
  -3   4  -9    3.00    0.34
  -3   4  -9    2.50    0.37
   3   4   9    2.62    0.48
   4  -4   9    7.98    0.63
  -4   4  -9    6.25    0.58
  -4   4  -9    5.71    0.58
  -4   4  -9    6.47    0.53
   4   4   9    5.71    0.66
   5  -4   9    3.90    0.47
  -5  -4  -9    3.56    0.46
  -5  -4  -9    3.51    0.50
  -5  -4  -9    3.99    0.40
  -5   4  -9    3.94    0.37
   5   4   9    2.48    0.55
  -5   4  -9    2.96    0.44
  -5   4  -9    3.72    0.40
  -6  -4  -9    2.02    0.35
  -6  -4  -9    2.14    0.43
  -6  -4  -9    2.45    0.33
   6   4   9    2.06    0.50
  -6   4  -9    3.02    0.36
  -6   4  -9    3.23    0.34
  -6   4  -9    2.89    0.34
  -7  -4  -9    0.64    0.18
  -7  -4  -9    0.59    0.23
  -7  -4  -9    0.63    0.22
  -7  -4  -9    0.59    0.18
   7   4   9    0.56    0.27
  -7   4  -9    0.83    0.18
  -7   4  -9    0.80    0.18
  -7   4  -9    1.21    0.26
  -8  -4  -9    0.04    0.15
  -8  -4  -9   -0.01    0.17
  -8  -4  -9    0.00    0.18
  -8  -4  -9    0.11    0.14
  -8   4  -9    0.54    0.15
   8   4   9    0.51    0.22
  -8   4  -9    0.58    0.14
  -8   4  -9    0.30    0.14
  -9  -5   9    1.25    0.23
  -9  -5   9    1.07    0.16
  -9  -5   9    0.91    0.18
  -9   5   9    1.40    0.18
  -9   5   9    1.28    0.17
  -9   5   9    1.64    0.18
  -8   5   9    0.64    0.16
  -8   5   9    0.70    0.14
  -8   5   9    0.66    0.14
  -7  -5   9    7.51    0.50
  -7   5   9    5.88    0.48
  -7   5   9    5.65    0.51
  -7   5   9    5.77    0.48
   7   5  -9    5.15    0.45
   7   5  -9    5.55    0.51
  -7   5   9    5.40    0.45
  -6  -5   9    0.91    0.18
  -6  -5   9    0.81    0.22
  -6  -5   9    0.75    0.16
  -6  -5   9    1.05    0.18
  -6  -5   9    0.90    0.18
  -6   5   9    1.34    0.20
  -5  -5   9   10.39    0.73
  -5  -5   9    9.89    0.78
  -5  -5   9   10.35    0.70
  -5  -5   9   10.27    0.65
  -5  -5   9   10.10    0.70
   5  -5  -9    9.21    0.75
  -5   5   9    8.85    0.77
   5   5  -9    8.26    0.65
   5   5  -9    7.84    0.73
  -5   5   9    8.64    0.71
  -5   5   9    8.15    0.66
  -5   5   9    8.19    0.68
  -4  -5   9    4.38    0.46
  -4  -5   9    4.94    0.49
   4  -5  -9    4.78    0.49
  -4  -5   9    4.03    0.86
  -4  -5   9    4.98    0.39
  -4  -5   9    5.33    0.46
  -4   5   9    4.73    0.43
  -4   5   9    3.30    0.79
  -4   5   9    5.05    0.53
  -4   5   9    4.60    0.42
   4   5  -9    5.24    0.40
   4   5  -9    4.88    0.46
  -4   5   9    4.57    0.51
  -3  -5   9    4.10    0.38
  -3  -5   9    4.51    0.93
   3  -5  -9    4.27    0.45
  -3  -5   9    4.36    0.45
  -3  -5   9    5.07    0.44
  -3   5   9    4.04    0.87
   3   5  -9    4.64    0.39
  -3   5   9    4.98    0.49
   3   5  -9    4.20    0.43
  -3   5   9    4.35    0.42
   2  -5  -9    2.13    0.33
  -2  -5   9    2.63    0.62
  -2  -5   9    2.52    0.34
  -2  -5   9    2.28    0.35
  -2   5   9    2.87    0.60
   2   5  -9    2.89    0.31
  -2   5   9    2.30    0.40
  -1  -5   9    1.72    0.59
  -1   5   9    1.35    0.58
  -1   5   9    1.23    0.25
  -1   5   9    1.41    0.25
   1   5  -9    1.42    0.26
   0  -5  -9    2.10    0.32
   0  -5   9    2.26    0.33
   0  -5   9    1.97    0.60
   0  -5  -9    2.11    0.30
   0   5  -9    2.01    0.29
   0   5   9    1.50    0.57
   0   5   9    2.43    0.38
   0   5   9    2.44    0.38
   1   5   9    3.92    0.45
  -1   5  -9    3.12    0.38
   1   5   9    2.29    0.72
  -1   5  -9    3.95    0.38
  -2  -5  -9    0.68    0.18
  -2  -5  -9    0.92    0.27
  -2   5  -9    0.75    0.18
   2   5   9    1.01    0.27
   2   5   9    0.70    0.74
  -2   5  -9    0.86    0.20
   3  -5   9   17.01    1.37
  -3  -5  -9   17.58    1.40
  -3  -5  -9   17.77    1.27
  -3   5  -9   17.29    1.33
   3   5   9   18.73    1.40
   3   5   9   15.33    1.90
  -3   5  -9   18.16    1.26
  -3   5  -9   18.26    1.30
  -4  -5  -9    1.17    0.28
  -4   5  -9    1.37    0.27
  -4   5  -9    0.99    0.23
  -4   5  -9    0.80    0.21
  -5  -5  -9   12.29    0.92
  -5  -5  -9   11.58    0.93
  -5  -5  -9   11.24    1.04
  -5   5  -9   12.90    0.94
  -5   5  -9   13.09    0.91
   5   5   9   12.41    1.07
  -5   5  -9   12.69    0.95
  -6  -5  -9    1.80    0.32
  -6  -5  -9    1.37    0.30
  -6  -5  -9    1.68    0.32
  -6   5  -9    2.27    0.31
   6   5   9    1.49    0.35
  -6   5  -9    1.84    0.31
  -6   5  -9    2.30    0.33
  -7  -5  -9    2.98    0.44
  -7  -5  -9    3.22    0.41
  -7  -5  -9    3.35    0.34
  -7  -5  -9    3.30    0.34
  -7   5  -9    2.90    0.34
   7   5   9    2.81    0.48
  -7   5  -9    3.25    0.34
  -7   5  -9    3.31    0.34
  -8  -5  -9    0.40    0.16
  -8  -5  -9    0.08    0.17
  -8  -5  -9    0.13    0.18
  -8  -5  -9    0.15    0.13
  -8   5  -9    0.41    0.14
  -8   5  -9    0.29    0.14
  -8   5  -9    0.21    0.14
   8   5   9    0.48    0.22
  -8  -6   9    0.56    0.13
  -8  -6   9    0.61    0.14
  -8  -6   9    0.75    0.17
  -7  -6   9    2.50    0.30
  -7  -6   9    2.26    0.36
  -7  -6   9    2.09    0.26
  -7  -6   9    2.23    0.29
   7   6  -9    3.09    0.27
  -7   6   9    2.56    0.29
  -6  -6   9    2.39    0.34
  -6  -6   9    2.47    0.30
  -6  -6   9    2.66    0.31
  -6  -6   9    2.03    0.37
  -6  -6   9    2.41    0.27
   6   6  -9    2.17    0.34
  -6   6   9    1.71    0.38
   6   6  -9    1.88    0.29
  -6   6   9    2.31    0.33
  -6   6   9    1.62    0.30
  -6   6   9    2.56    0.30
  -5  -6   9    2.42    0.32
  -5  -6   9    2.31    0.33
  -5  -6   9    1.72    0.36
  -5  -6   9    2.09    0.27
   5  -6  -9    2.09    0.40
  -5  -6   9    2.50    0.32
  -5   6   9    1.42    0.25
  -5   6   9    2.17    0.30
   5   6  -9    1.60    0.28
   5   6  -9    1.89    0.32
  -5   6   9    1.94    0.35
  -4  -6   9    5.75    0.57
  -4  -6   9    5.99    0.50
  -4  -6   9    5.76    0.61
  -4  -6   9    6.09    0.58
   4   6  -9    7.61    0.51
  -4   6   9    7.94    0.55
  -4   6   9    7.59    0.54
   4   6  -9    7.41    0.57
  -3  -6   9    2.74    0.37
  -3  -6   9    3.07    0.38
   3  -6  -9    2.36    0.38
  -3  -6   9    2.44    0.69
   3   6  -9    3.15    0.32
  -3   6   9    2.26    0.63
  -3   6   9    3.43    0.44
  -3   6   9    3.28    0.34
   3   6  -9    3.69    0.36
  -2  -6   9    0.95    0.20
  -2  -6   9    1.45    0.61
   2   6  -9    0.79    0.17
  -2   6   9    1.12    0.55
  -2   6   9    0.36    0.25
  -2   6   9    0.95    0.24
  -2   6   9    0.74    0.21
   2   6  -9    0.71    0.17
  -1  -6   9    5.78    0.97
   1  -6  -9    5.76    0.52
  -1  -6   9    5.85    0.54
  -1   6   9    5.56    1.00
  -1   6   9    6.42    0.61
   1   6  -9    6.76    0.51
  -1   6   9    5.77    0.61
   0  -6  -9    0.59    0.18
   0  -6   9    0.29    0.18
   0   6   9    0.53    0.22
   0   6  -9    0.34    0.15
   0   6   9   -0.01    0.57
  -1  -6  -9    4.55    0.45
   1  -6   9    4.80    0.49
   1   6   9    6.18    0.54
   1   6   9    4.41    0.85
  -2  -6  -9    1.86    0.43
   2   6   9    1.32    0.80
   2   6   9    2.14    0.45
  -2   6  -9    2.46    0.33
  -2   6  -9    2.08    0.30
  -3  -6  -9    7.30    0.76
  -3  -6  -9    7.63    0.64
   3   6   9    7.18    1.56
  -3   6  -9    7.68    0.65
  -3   6  -9    8.50    0.62
   3   6   9    9.02    0.76
  -3   6  -9    8.11    0.69
  -4   6  -9    4.70    0.46
  -4   6  -9    4.57    0.41
  -4   6  -9    4.48    0.45
   4   6   9    3.74    0.59
  -5  -6  -9    6.76    0.51
  -5  -6  -9    4.94    0.64
  -5  -6  -9    5.43    0.53
  -5   6  -9    6.40    0.49
   5   6   9    4.80    0.67
  -5   6  -9    5.42    0.51
  -5   6  -9    5.44    0.52
  -6  -6  -9    3.89    0.53
  -6  -6  -9    3.87    0.42
  -6  -6  -9    3.18    0.52
  -6  -6  -9    4.22    0.42
   6   6   9    3.62    0.58
  -6   6  -9    5.01    0.44
  -6   6  -9    4.49    0.41
  -6   6  -9    4.64    0.41
  -6   6  -9    4.55    0.45
  -7  -6  -9    3.68    0.47
  -7  -6  -9    4.22    0.37
  -7  -6  -9    4.31    0.44
  -7  -6  -9    4.31    0.36
   7   6   9    2.75    0.50
  -7   6  -9    3.21    0.36
  -7   6  -9    3.32    0.36
  -8  -6  -9    0.04    0.18
  -8  -6  -9   -0.04    0.18
  -8   6  -9    0.35    0.14
   8   6   9    0.55    0.22
  -8   6  -9    0.56    0.13
  -8   6  -9    0.26    0.13
  -8  -7   9    1.28    0.20
  -8   7   9    1.23    0.21
  -8   7   9    0.71    0.17
  -8   7   9    0.91    0.14
  -7  -7   9    3.26    0.35
  -7  -7   9    3.74    0.43
  -7  -7   9    3.51    0.35
   7   7  -9    4.09    0.33
  -7   7   9    4.65    0.38
  -7   7   9    4.70    0.36
  -7   7   9    3.46    0.35
   6  -7  -9    3.61    0.46
  -6  -7   9    3.43    0.33
  -6  -7   9    3.38    0.36
  -6  -7   9    3.28    0.42
  -6  -7   9    3.75    0.38
  -6   7   9    3.91    0.40
   6   7  -9    4.06    0.39
   6   7  -9    4.07    0.33
  -6   7   9    3.54    0.44
  -6   7   9    3.65    0.37
   5  -7  -9    6.95    0.67
  -5  -7   9    7.52    0.60
  -5  -7   9    7.59    0.55
  -5  -7   9    7.16    0.69
  -5  -7   9    7.65    0.62
  -5   7   9    7.86    0.63
  -5   7   9    7.48    0.69
  -5   7   9    8.48    0.71
   5   7  -9    7.56    0.55
  -5   7   9    8.23    0.59
  -5   7   9    7.23    0.59
   5   7  -9    7.56    0.63
  -4  -7   9    2.25    0.38
  -4  -7   9    2.41    0.37
   4  -7  -9    1.98    0.40
  -4  -7   9    2.10    0.29
  -4   7   9    3.11    0.43
  -4   7   9    2.58    0.48
   4   7  -9    2.50    0.35
   4   7  -9    2.50    0.29
  -4   7   9    2.98    0.44
  -4   7   9    2.71    0.32
  -3  -7   9    8.43    1.17
   3   7  -9    5.89    0.52
  -3   7   9    5.68    1.03
  -3   7   9    6.89    0.62
   3   7  -9    5.54    0.47
  -3   7   9    5.96    0.51
  -2   7   9    0.66    0.27
  -2   7   9    0.69    0.24
  -2   7   9    0.67    0.21
   2   7  -9    0.62    0.17
  -2   7   9    1.24    0.58
   2   7  -9    0.46    0.16
   1  -7  -9    3.51    0.35
  -1  -7   9    2.69    0.34
  -1  -7   9    2.99    0.72
   1   7  -9    2.81    0.32
  -1   7   9    1.80    0.46
  -1   7   9    2.37    0.44
   0  -7   9    0.40    0.18
   0  -7  -9    0.42    0.18
   0   7   9   -0.32    0.61
   0   7  -9    0.47    0.16
   0   7   9    0.41    0.23
   1  -7   9    2.34    0.34
   1   7   9    1.81    0.40
  -1   7  -9    1.84    0.33
   2  -7   9    1.54    0.34
  -2  -7  -9    2.50    0.44
  -2  -7  -9    2.28    0.32
  -2   7  -9    1.62    0.30
   2   7   9    1.60    0.31
  -2   7  -9    1.39    0.31
   2   7   9   -0.03    0.81
  -3  -7  -9   10.38    0.78
  -3  -7  -9    9.74    0.90
   3  -7   9    9.68    0.86
   3   7   9    9.90    0.92
  -3   7  -9   10.49    0.79
  -3   7  -9   10.28    0.82
  -3   7  -9   10.71    0.76
  -4  -7  -9    3.23    0.53
  -4   7  -9    3.45    0.35
   4   7   9    2.56    0.55
  -4   7  -9    3.02    0.39
  -4   7  -9    3.24    0.37
  -5  -7  -9   21.66    1.45
  -5  -7  -9   20.63    1.44
  -5  -7  -9   18.86    1.60
  -5   7  -9   20.41    1.47
  -5   7  -9   20.37    1.47
   5   7   9   18.49    1.62
  -5   7  -9   20.53    1.44
  -6  -7  -9    3.04    0.35
  -6  -7  -9    2.63    0.35
  -6   7  -9    2.82    0.37
  -6   7  -9    2.86    0.37
  -6   7  -9    3.05    0.34
  -6   7  -9    2.74    0.34
  -7  -7  -9    6.72    0.57
  -7  -7  -9    6.97    0.51
  -7  -7  -9    6.08    0.60
  -7  -7  -9    6.59    0.51
  -7   7  -9    5.11    0.50
  -7   7  -9    6.20    0.51
  -7   7  -9    6.54    0.51
   7   7   9    5.58    0.64
  -8  -7  -9    0.84    0.16
  -8  -7  -9    1.01    0.21
  -8  -7  -9    0.83    0.20
  -8   7  -9    1.24    0.20
   8   7   9    1.53    0.32
  -8   7  -9    1.40    0.21
  -8   7  -9    1.19    0.20
  -8  -8   9    1.32    0.21
  -8  -8   9    1.39    0.25
  -8  -8   9    1.11    0.20
  -7  -8   9    6.02    0.51
  -7  -8   9    5.88    0.50
  -7  -8   9    6.19    0.56
  -7   8   9    7.34    0.51
  -7   8   9    6.80    0.56
   7   8  -9    6.77    0.48
  -7   8   9    6.99    0.52
  -7   8   9    5.60    0.49
  -6  -8   9    2.51    0.38
  -6  -8   9    2.76    0.31
  -6  -8   9    2.87    0.33
   6  -8  -9    2.73    0.41
  -6   8   9    2.01    0.35
   6   8  -9    2.22    0.28
  -6   8   9    2.97    0.33
  -6   8   9    1.99    0.45
  -5  -8   9    1.71    0.28
   5  -8  -9    1.86    0.29
  -5  -8   9    2.06    0.34
  -5  -8   9    2.01    0.31
   5   8  -9    2.12    0.32
  -5   8   9    1.58    0.27
  -5   8   9    2.08    0.36
   5   8  -9    1.74    0.27
  -5   8   9    2.16    0.46
  -5   8   9    2.40    0.31
   4  -8  -9    2.59    0.42
  -4  -8   9    2.76    0.37
  -4  -8   9    3.10    0.39
  -4   8   9    2.25    0.47
  -4   8   9    2.79    0.33
   4   8  -9    2.65    0.35
   4   8  -9    2.46    0.30
  -4   8   9    3.06    0.45
  -4   8   9    2.52    0.49
  -3  -8   9    5.97    0.57
  -3  -8   9    6.54    1.30
  -3   8   9    6.14    1.15
  -3   8   9    6.01    0.53
   3   8  -9    6.26    0.54
  -3   8   9    7.04    0.62
   3   8  -9    6.54    0.49
  -2  -8   9    2.90    0.76
   2   8  -9    1.25    0.26
  -2   8   9    1.67    0.24
  -2   8   9    1.73    0.65
  -2   8   9    1.90    0.43
   2   8  -9    1.50    0.28
  -1  -8   9    6.34    0.57
   1  -8  -9    6.12    0.56
   1   8  -9    6.46    0.54
  -1   8   9    6.87    0.65
  -1   8   9    6.57    1.11
   0  -8  -9    2.51    0.36
   0   8   9    3.16    0.43
   0   8   9    3.05    0.80
   1   8   9    4.88    0.97
  -1   8  -9    4.26    0.44
   1   8   9    4.47    0.51
  -2  -8  -9    4.98    0.58
  -2  -8  -9    5.18    0.45
  -2   8  -9    4.72    0.54
  -2   8  -9    4.33    0.46
   2   8   9    4.94    0.56
  -2   8  -9    5.06    0.45
   2   8   9    5.08    1.10
  -3  -8  -9    3.05    0.39
  -3   8  -9    3.77    0.38
   3   8   9    3.97    0.53
  -3   8  -9    3.76    0.38
  -3   8  -9    4.17    0.44
  -4  -8  -9    1.47    0.34
  -4   8  -9    1.31    0.28
  -4   8  -9    1.44    0.32
   4   8   9    0.91    0.36
  -4   8  -9    1.42    0.31
  -5  -8  -9    6.28    0.56
  -5  -8  -9    7.03    0.54
  -5   8  -9    6.02    0.54
  -5   8  -9    6.20    0.54
  -5   8  -9    6.45    0.51
   5   8   9    4.66    0.71
  -6  -8  -9    4.40    0.48
  -6  -8  -9    4.91    0.47
  -6   8  -9    5.74    0.47
   6   8   9    4.38    0.66
  -6   8  -9    6.04    0.48
  -6   8  -9    5.79    0.47
  -6   8  -9    5.52    0.48
  -7  -8  -9    9.94    0.81
  -7  -8  -9   10.53    0.88
  -7  -8  -9    9.70    0.92
  -7   8  -9   11.45    0.82
  -7   8  -9   12.49    0.85
   7   8   9   11.75    0.94
  -7   8  -9   11.77    0.82
  -7   8  -9   11.69    0.84
  -8   8  -9    1.17    0.21
   8   8   9    0.99    0.22
  -8   8  -9    0.86    0.20
  -8   8  -9    1.16    0.20
  -8  -9   9    2.18    0.24
  -8  -9   9    2.39    0.24
  -8   9   9    2.21    0.24
  -8   9   9    1.94    0.24
  -8   9   9    1.89    0.27
  -7  -9   9    1.46    0.30
  -7  -9   9    1.55    0.26
   7  -9  -9    1.97    0.35
  -7  -9   9    1.30    0.24
  -7   9   9    1.65    0.27
   7   9  -9    1.29    0.23
  -7   9   9    1.80    0.25
  -6  -9   9    8.77    0.68
  -6  -9   9    8.53    0.66
  -6  -9   9    8.28    0.74
   6  -9  -9    8.21    0.73
   6   9  -9    9.49    0.63
  -6   9   9    9.85    0.67
  -6   9   9    9.33    0.69
  -6   9   9    7.94    0.75
  -6   9   9    8.39    0.66
  -6   9   9    9.92    0.77
   5   9  -9    5.07    0.49
  -5   9   9    5.91    0.47
  -5   9   9    5.07    0.59
  -5   9   9    4.42    0.57
   5   9  -9    5.74    0.43
  -5   9   9    6.01    0.51
  -5   9   9    5.29    0.52
   4  -9  -9    5.16    0.52
  -4  -9   9    5.35    0.51
  -4  -9   9    5.08    0.48
  -4   9   9    4.51    0.58
   4   9  -9    4.83    0.47
  -4   9   9    5.54    0.55
  -4   9   9    5.24    0.57
  -4   9   9    4.85    0.45
   4   9  -9    5.25    0.42
  -3  -9   9    8.74    0.76
   3  -9  -9    8.61    0.74
   3   9  -9    9.34    0.71
  -3   9   9    8.99    0.70
  -3   9   9    9.23    0.79
   3   9  -9    8.82    0.64
  -3   9   9    9.77    0.78
  -2  -9   9    0.75    0.20
   2  -9  -9    0.69    0.21
  -2   9   9    0.65    0.21
   2   9  -9    0.64    0.17
  -2   9   9    0.68    0.25
   2   9  -9    0.71    0.18
  -2   9   9    1.14    0.66
  -1  -9   9    2.31    0.35
   1  -9  -9    3.04    0.38
  -1   9   9    3.31    0.45
   1   9  -9    3.11    0.35
  -1   9   9    2.43    0.76
   0  -9   9    1.43    0.33
   0  -9  -9    2.01    0.33
   0   9   9    2.35    0.44
   0   9   9    1.57    0.75
   0   9  -9    2.41    0.31
   1  -9   9    3.33    0.36
  -1   9  -9    2.66    0.35
   1   9   9    2.83    0.45
   1   9   9    1.69    0.85
   2   9   9    0.74    0.95
  -2   9  -9    3.03    0.43
   2   9   9    2.93    0.47
  -2   9  -9    2.62    0.34
  -3   9  -9    1.06    0.23
   3   9   9    0.73    0.31
  -3   9  -9    0.80    0.18
  -3   9  -9    0.65    0.18
  -4  -9  -9    7.70    0.76
   4   9   9    7.34    0.77
  -4   9  -9    7.38    0.63
  -4   9  -9    7.72    0.61
  -4   9  -9    7.31    0.59
  -5  -9  -9    6.19    0.54
  -5   9  -9    5.73    0.50
  -5   9  -9    6.01    0.49
  -5   9  -9    5.54    0.50
   5   9   9    4.44    0.68
  -6  -9  -9    3.80    0.40
  -6  -9  -9    3.72    0.41
   6   9   9    3.15    0.59
  -6   9  -9    4.03    0.40
  -6   9  -9    4.01    0.39
  -6   9  -9    4.22    0.42
  -6   9  -9    4.69    0.40
  -7  -9  -9    6.43    0.50
  -7  -9  -9    6.07    0.57
  -7  -9  -9    6.37    0.59
  -7   9  -9    5.78    0.48
  -7   9  -9    6.88    0.51
  -7   9  -9    5.41    0.52
  -7   9  -9    6.38    0.50
   7   9   9    6.17    0.61
  -8  -9  -9    1.93    0.25
  -8  -9  -9    2.30    0.32
  -8  -9  -9    2.50    0.32
  -8   9  -9    2.48    0.24
  -8   9  -9    2.64    0.26
  -8   9  -9    2.48    0.26
   8   9   9    2.69    0.33
  -8 -10   9    1.41    0.21
  -8 -10   9    1.54    0.23
  -8  10   9    1.56    0.20
  -8  10   9    1.63    0.24
  -8  10   9    1.58    0.21
  -7 -10   9    4.12    0.38
   7 -10  -9    3.63    0.41
  -7 -10   9    3.53    0.33
  -7 -10   9    3.79    0.36
  -7  10   9    3.09    0.39
  -7  10   9    3.35    0.34
  -7  10   9    3.60    0.33
  -6 -10   9    3.18    0.35
  -6 -10   9    2.75    0.32
  -6 -10   9    2.84    0.37
   6 -10  -9    2.52    0.41
  -6  10   9    2.51    0.35
  -6  10   9    2.42    0.46
  -6  10   9    2.74    0.33
   6  10  -9    2.63    0.29
  -5 -10   9    3.27    0.34
  -5 -10   9    2.57    0.39
   5 -10  -9    2.61    0.44
  -5  10   9    2.04    0.45
   5  10  -9    2.95    0.30
  -5  10   9    3.17    0.40
  -5  10   9    2.82    0.43
  -5  10   9    2.30    0.35
  -5  10   9    3.26    0.34
   4 -10  -9    6.07    0.58
  -4 -10   9    6.99    0.52
  -4  10   9    5.80    0.50
  -4  10   9    5.40    0.58
   4  10  -9    5.93    0.45
  -4  10   9    5.05    0.61
  -4  10   9    4.67    0.59
   4  10  -9    5.52    0.51
  -3 -10   9    8.78    0.75
   3 -10  -9    7.59    0.75
   3  10  -9    9.04    0.63
  -3  10   9    9.29    0.69
  -3  10   9    9.28    0.79
   3  10  -9    9.38    0.70
  -3  10   9    8.72    0.78
  -2 -10   9    5.81    0.61
  -2  10   9    7.46    0.68
   2  10  -9    7.52    0.58
  -2  10   9    7.96    0.60
   2  10  -9    7.03    0.53
  -1 -10   9   10.12    0.82
   1 -10  -9    9.61    0.79
   1  10  -9   10.79    0.78
  -1  10   9   10.45    0.82
  -1  10   9    8.46    1.39
   0 -10   9    7.93    0.62
   0 -10  -9    8.14    0.61
   0  10   9    7.40    0.70
   0  10   9    5.13    1.02
   0  10  -9    6.41    0.60
  -1  10  -9    0.32    0.17
   1  10   9   -0.46    0.83
   1  10   9    0.46    0.26
   2 -10   9    6.61    0.66
  -2 -10  -9    7.16    0.63
  -2 -10  -9    6.78    0.74
  -2  10  -9    8.65    0.63
  -2  10  -9    8.72    0.68
   2  10   9    8.61    0.73
  -3 -10  -9    2.29    0.53
  -3 -10  -9    2.73    0.34
   3  10   9    2.41    0.52
  -3  10  -9    2.18    0.34
  -3  10  -9    2.31    0.37
  -3  10  -9    2.73    0.35
  -4 -10  -9    3.34    0.53
  -4  10  -9    2.99    0.37
   4  10   9    2.69    0.56
  -4  10  -9    2.89    0.35
  -4  10  -9    3.19    0.37
  -5 -10  -9    2.84    0.43
  -5 -10  -9    3.46    0.38
  -5  10  -9    3.34    0.37
  -5  10  -9    3.40    0.37
   5  10   9    2.35    0.58
  -5  10  -9    3.40    0.35
  -6 -10  -9    0.84    0.20
  -6 -10  -9    0.37    0.26
  -6  10  -9    0.75    0.20
  -6  10  -9    0.84    0.18
  -6  10  -9    0.47    0.16
  -6  10  -9    0.74    0.18
   6  10   9    0.32    0.30
  -7 -10  -9    3.78    0.48
  -7 -10  -9    3.88    0.41
  -7  10  -9    4.78    0.40
  -7  10  -9    4.94    0.39
  -7  10  -9    4.91    0.39
  -7  10  -9    4.88    0.41
   7  10   9    4.72    0.52
  -8  10  -9    3.82    0.33
   8  10   9    4.02    0.40
  -8  10  -9    3.75    0.32
  -8 -11   9    2.87    0.24
  -8  11   9    2.15    0.24
  -8  11   9    2.32    0.23
  -8  11   9    2.22    0.27
  -7 -11   9    1.04    0.22
  -7  11   9    0.74    0.17
  -7  11   9    1.02    0.22
   6 -11  -9    5.28    0.50
  -6 -11   9    5.25    0.42
  -6 -11   9    5.98    0.46
  -6  11   9    4.30    0.44
  -6  11   9    5.12    0.54
   6  11  -9    4.59    0.38
  -6  11   9    4.98    0.41
  -6  11   9    4.10    0.48
  -6  11   9    4.11    0.49
  -5 -11   9    1.00    0.21
   5 -11  -9    0.52    0.25
  -5 -11   9    1.41    0.28
  -5  11   9    0.91    0.28
   4 -11  -9    8.12    0.76
  -4 -11   9    8.84    0.70
  -4 -11   9    8.59    0.76
  -4  11   9    9.35    0.78
   4  11  -9    9.07    0.71
  -4  11   9    9.31    0.70
  -4  11   9    9.86    0.77
  -4  11   9    8.17    0.79
   4  11  -9    9.83    0.64
   3 -11  -9    7.01    0.68
  -3 -11   9    8.38    0.67
  -3  11   9    6.31    0.70
   3  11  -9    8.14    0.62
   3  11  -9    7.89    0.56
  -3  11   9    7.41    0.70
  -3  11   9    7.65    0.62
  -2 -11   9    7.45    0.59
   2 -11  -9    7.36    0.61
  -2  11   9    6.44    0.57
   2  11  -9    5.84    0.51
   2  11  -9    6.37    0.56
   1 -11  -9    5.16    0.54
  -1 -11   9    5.77    0.53
  -1  11   9    6.13    0.57
   1  11  -9    5.84    0.50
   0 -11   9    0.96    0.22
   0 -11  -9    0.91    0.21
   0  11  -9    1.33    0.30
  -1 -11  -9    2.54    0.37
   1 -11   9    2.71    0.42
   1  11   9    2.50    0.45
  -1  11  -9    2.67    0.34
   2 -11   9    3.87    0.44
  -2 -11  -9    3.93    0.55
  -2 -11  -9    3.95    0.41
  -2  11  -9    3.44    0.40
   2  11   9    3.63    0.53
  -2  11  -9    3.18    0.45
  -3  11  -9    4.46    0.45
   3  11   9    4.33    0.58
  -3  11  -9    4.53    0.47
  -4 -11  -9   10.98    1.03
  -4 -11  -9   12.53    0.89
  -4  11  -9   11.81    0.88
  -4  11  -9   12.30    0.91
   4  11   9   12.05    1.03
  -4  11  -9   11.56    0.91
  -5 -11  -9    0.35    0.19
  -5 -11  -9    0.40    0.24
   5  11   9    0.60    0.31
  -5  11  -9    0.76    0.18
  -6  11  -9    3.34    0.36
  -6  11  -9    4.11    0.40
  -6  11  -9    3.54    0.37
   6  11   9    3.62    0.50
  -6  11  -9    4.28    0.39
  -7 -11  -9    2.27    0.33
  -7 -11  -9    2.19    0.27
   7 -11   9    1.84    0.26
  -7  11  -9    1.57    0.24
  -7  11  -9    1.89    0.25
   7  11   9    1.80    0.36
  -7  11  -9    2.25    0.28
  -7  11  -9    1.64    0.25
  -7 -12   9    0.58    0.14
  -7 -12   9    0.55    0.16
   7 -12  -9    0.81    0.19
  -7  12   9    0.91    0.20
  -7  12   9    0.38    0.17
  -7  12   9    0.48    0.16
  -6 -12   9    0.96    0.20
  -6 -12   9    0.74    0.17
   6 -12  -9    0.75    0.23
  -6 -12   9    0.73    0.19
  -6  12   9    1.27    0.20
  -6  12   9    1.15    0.22
  -6  12   9    1.22    0.25
  -5 -12   9    2.37    0.32
  -5 -12   9    2.18    0.36
   5 -12  -9    2.07    0.41
  -5  12   9    1.77    0.37
  -5  12   9    2.08    0.30
  -5  12   9    2.03    0.30
   5  12  -9    2.17    0.26
  -4 -12   9    5.93    0.48
   4 -12  -9    5.09    0.54
  -4 -12   9    5.69    0.52
  -4  12   9    5.16    0.46
  -4  12   9    4.19    0.54
  -4  12   9    3.85    0.57
  -4  12   9    3.92    0.55
   4  12  -9    5.30    0.40
   3 -12  -9    8.13    0.74
  -3 -12   9    8.01    0.74
  -3 -12   9    8.56    0.73
   3  12  -9    9.29    0.70
   3  12  -9    9.39    0.62
  -3  12   9    8.86    0.68
  -3  12   9    8.18    0.75
  -3  12   9    8.73    0.76
  -2 -12   9   13.05    0.95
   2 -12  -9   11.11    0.92
   2  12  -9   11.92    0.89
   2  12  -9   11.01    0.80
  -2  12   9   11.82    0.89
   1 -12  -9    2.80    0.37
  -1 -12   9    2.07    0.33
   1  12  -9    2.18    0.33
  -1  12   9    2.58    0.44
   1  12  -9    2.00    0.32
   0 -12   9    3.52    0.43
   0 -12  -9    3.55    0.42
   0  12  -9    4.16    0.40
   0  12   9    4.12    0.55
   1 -12   9    1.03    0.25
  -1 -12  -9    1.40    0.31
   1  12   9    2.07    0.45
   2 -12   9    2.36    0.38
  -2 -12  -9    2.85    0.53
  -2 -12  -9    2.56    0.37
  -2  12  -9    2.90    0.41
   2  12   9    2.62    0.50
  -2  12  -9    2.80    0.34
  -3 -12  -9    3.47    0.55
   3 -12   9    3.50    0.41
  -3 -12  -9    3.79    0.41
  -3  12  -9    3.60    0.42
  -3  12  -9    3.54    0.39
   3  12   9    3.57    0.54
  -4  12  -9    3.95    0.41
  -4  12  -9    3.67    0.42
  -4  12  -9    3.83    0.40
   4  12   9    3.39    0.55
  -5 -12  -9    0.94    0.27
   5  12   9    0.31    0.29
  -5  12  -9    0.72    0.18
  -6 -12  -9    1.24    0.23
  -6 -12  -9    1.15    0.26
   6 -12   9    1.23    0.27
  -6  12  -9    1.89    0.25
   6  12   9    2.01    0.41
  -6  12  -9    1.98    0.27
  -7  12  -9    3.25    0.32
   7  12   9    3.04    0.37
  -7  12  -9    2.59    0.30
  -7  12  -9    3.17    0.30
  -7  12  -9    2.83    0.29
  -7 -13   9    2.97    0.30
   7 -13  -9    3.30    0.32
  -7 -13   9    2.51    0.27
  -7 -13   9    2.95    0.29
  -7  13   9    2.07    0.26
  -6  13   9    2.96    0.39
  -6  13   9    2.41    0.35
   6  13  -9    3.11    0.27
  -6  13   9    2.96    0.31
  -6  13   9    2.14    0.33
  -5 -13   9    0.70    0.19
  -5 -13   9    0.56    0.18
   5 -13  -9    0.57    0.23
  -5  13   9    0.30    0.21
  -5  13   9    0.20    0.23
   5  13  -9    0.72    0.15
  -5  13   9    0.37    0.17
  -5  13   9    0.17    0.23
  -4 -13   9   17.24    1.08
  -4 -13   9   16.52    1.16
  -4  13   9   13.67    1.06
   4  13  -9   14.06    0.98
  -4  13   9   14.11    1.13
  -4  13   9   12.92    1.13
   3 -13  -9    5.50    0.53
  -3 -13   9    5.88    0.54
  -3 -13   9    5.58    0.51
   3  13  -9    4.75    0.48
   3  13  -9    4.63    0.42
  -3  13   9    4.59    0.48
  -2 -13   9    8.18    0.67
  -2  13   9    7.69    0.65
   2  13  -9    7.25    0.56
   2  13  -9    7.54    0.62
  -1 -13   9    6.41    0.57
   1 -13  -9    6.19    0.55
  -1  13   9    5.91    0.59
   1  13  -9    6.15    0.52
   1  13  -9    5.47    0.49
   0 -13  -9    0.81    0.21
   0  13  -9    0.71    0.18
   0  13   9    0.49    0.30
  -1 -13  -9    3.39    0.39
   1 -13   9    2.86    0.40
  -2 -13  -9    2.21    0.35
   2 -13   9    2.15    0.36
   2  13   9    2.87    0.49
  -2  13  -9    2.97    0.36
  -2  13  -9    2.69    0.39
  -3 -13  -9    8.68    0.75
  -3 -13  -9    8.78    0.63
   3 -13   9    8.28    0.64
  -3  13  -9    6.99    0.64
   3  13   9    7.01    0.74
  -3  13  -9    6.27    0.64
  -4 -13  -9    5.10    0.59
  -4 -13  -9    4.95    0.47
   4 -13   9    5.09    0.47
  -5 -13  -9    0.46    0.24
   5 -13   9    0.31    0.18
  -5 -13  -9    0.19    0.23
  -5  13  -9    0.48    0.18
  -5  13  -9    0.38    0.17
  -5  13  -9    0.28    0.17
   5  13   9    0.04    0.26
  -6 -13  -9    6.14    0.56
  -6 -13  -9    6.64    0.62
   6 -13   9    7.01    0.55
  -6  13  -9    7.41    0.56
  -6  13  -9    6.83    0.55
  -6  13  -9    7.09    0.55
  -6  13  -9    6.80    0.54
   6  13   9    7.19    0.64
  -7  13  -9    0.87    0.19
  -7  13  -9    0.97    0.20
  -7  13  -9    0.80    0.18
   7  13   9    0.80    0.20
  -7  13  -9    1.35    0.24
  -7 -14   9    0.68    0.17
   7 -14  -9    0.79    0.17
  -7 -14   9    0.49    0.14
  -7  14   9    0.99    0.17
  -7  14   9    0.76    0.15
  -7  14   9    0.94    0.21
  -6 -14   9    2.29    0.28
  -6 -14   9    1.57    0.27
   6 -14  -9    1.86    0.32
  -6  14   9    2.16    0.26
  -6  14   9    1.34    0.29
  -6  14   9    1.95    0.29
  -6  14   9    1.89    0.35
  -5 -14   9    1.25    0.30
  -5 -14   9    1.13    0.20
   5 -14  -9    1.39    0.25
   5  14  -9    1.81    0.24
  -5  14   9    1.24    0.25
  -5  14   9    1.31    0.25
  -5  14   9    1.65    0.24
  -5  14   9    1.62    0.29
  -4 -14   9    4.83    0.45
  -4 -14   9    4.90    0.47
   4 -14  -9    4.21    0.47
  -4  14   9    4.24    0.46
  -4  14   9    3.84    0.44
   4  14  -9    4.86    0.38
   3 -14  -9    3.82    0.46
  -3 -14   9    3.15    0.43
  -3 -14   9    3.28    0.47
  -3  14   9    4.21    0.40
   2 -14  -9    8.40    0.72
  -2 -14   9    8.94    0.74
   2  14  -9    8.86    0.63
  -2  14   9    8.46    0.71
   2  14  -9    9.04    0.69
  -1 -14   9    1.96    0.38
   1 -14  -9    2.20    0.37
   1  14  -9    2.09    0.32
  -1  14   9    2.01    0.43
   1  14  -9    2.12    0.31
   0 -14  -9    3.97    0.45
   0 -14   9    3.36    0.45
   0  14  -9    5.18    0.43
   0  14   9    4.83    0.56
   1 -14   9    2.83    0.39
  -1 -14  -9    3.11    0.38
  -1  14  -9    3.94    0.38
  -2 -14  -9    2.18    0.33
   2 -14   9    2.28    0.34
  -3 -14  -9    3.14    0.47
  -3 -14  -9    2.41    0.35
   3 -14   9    2.79    0.34
  -3  14  -9    2.41    0.36
  -3  14  -9    1.77    0.35
   4 -14   9    3.58    0.42
  -4 -14  -9    4.08    0.53
  -4  14  -9    4.66    0.42
  -4  14  -9    4.80    0.43
   4  14   9    5.10    0.54
  -5 -14  -9    2.66    0.38
  -5  14  -9    2.76    0.31
  -5  14  -9    2.41    0.32
   5  14   9    2.15    0.42
  -5  14  -9    2.01    0.31
  -6 -14  -9    3.60    0.43
   6 -14   9    3.88    0.38
   6  14   9    4.54    0.45
  -6  14  -9    4.25    0.38
  -6  14  -9    4.84    0.38
  -6  14  -9    4.33    0.38
  -6 -15   9    1.26    0.23
  -6 -15   9    1.19    0.23
  -5  15   9    0.58    0.23
  -5  15   9    0.57    0.21
  -5  15   9    0.78    0.18
   5  15  -9    1.12    0.17
  -5  15   9    0.88    0.17
  -4 -15   9    5.12    0.46
  -4 -15   9    4.40    0.47
   4 -15  -9    5.10    0.49
  -4  15   9    4.69    0.45
  -4  15   9    4.15    0.48
   4  15  -9    5.00    0.39
  -3 -15   9    4.42    0.49
  -3 -15   9    4.93    0.46
   3 -15  -9    4.74    0.48
   3  15  -9    4.48    0.44
  -3  15   9    3.49    0.44
   3  15  -9    4.23    0.38
   2  15  -9    3.80    0.34
  -2  15   9    3.34    0.43
   2  15  -9    3.26    0.38
   1  15  -9    1.49    0.30
   1  15  -9    1.24    0.21
  -1  15   9    1.36    0.27
   0 -15   9    0.80    0.21
   0 -15  -9    1.24    0.21
   0  15   9    0.66    0.29
   0  15  -9    0.81    0.19
  -1 -15  -9    0.67    0.19
   1 -15   9    0.50    0.18
  -1  15  -9    0.70    0.19
   1  15   9    0.88    0.33
  -3 -15  -9    6.34    0.55
   3 -15   9    6.74    0.55
  -3 -15  -9    6.54    0.65
  -3  15  -9    6.80    0.56
   3  15   9    6.34    0.65
   4  15   9    5.76    0.58
  -4  15  -9    5.05    0.50
  -4  15  -9    6.34    0.51
   5 -15   9    0.84    0.18
  -5 -15  -9    1.01    0.22
  -5 -15  -9    0.67    0.23
  -5  15  -9    1.43    0.26
   6 -15   9    5.37    0.49
  -6 -15  -9    5.88    0.54
  -6  15  -9    6.77    0.49
  -6  15  -9    6.04    0.49
   6  15   9    7.05    0.55
  -6  15  -9    6.35    0.50
  -5 -16   9    0.87    0.18
  -5  16   9    0.48    0.16
   5  16  -9    0.48    0.14
  -5  16   9    0.46    0.15
  -5  16   9    0.31    0.20
  -4 -16   9    1.85    0.34
   4 -16  -9    1.80    0.32
  -4 -16   9    1.62    0.31
   4  16  -9    2.10    0.24
   4  16  -9    1.91    0.27
  -4  16   9    1.99    0.31
  -3 -16   9    6.54    0.61
  -3 -16   9    7.05    0.63
   3 -16  -9    7.22    0.61
   3  16  -9    7.24    0.56
   3  16  -9    7.38    0.52
  -3  16   9    7.05    0.58
   2 -16  -9    8.99    0.71
  -2  16   9    8.73    0.71
   2  16  -9    8.79    0.63
   1  16  -9    2.85    0.33
   1  16  -9    3.04    0.36
  -1  16   9    2.57    0.43
   0 -16   9    0.74    0.20
   0  16   9   -0.17    0.27
  -1 -16  -9    2.50    0.33
   1 -16   9    2.43    0.32
   2 -16   9    0.72    0.18
  -2 -16  -9    0.60    0.18
  -2  16  -9    1.04    0.19
   3 -16   9    1.20    0.27
   3  16   9    1.22    0.27
   4 -16   9    1.93    0.28
  -4 -16  -9    1.59    0.38
   4  16   9    1.83    0.38
  -4  16  -9    2.22    0.28
  -5 -16  -9    2.81    0.36
  -5 -16  -9    2.63    0.36
   5 -16   9    2.95    0.29
  -5  16  -9    2.66    0.30
   5  16   9    1.99    0.36
  -6 -16  -9    2.26    0.28
  -6 -16  -9    1.93    0.28
   6 -16   9    2.55    0.24
  -6 -17   9    1.13    0.20
  -6 -17   9    1.17    0.19
   6 -17  -9    1.50    0.21
   6  17  -9    1.01    0.16
  -6  17   9    1.25    0.21
  -6  17   9    1.06    0.18
  -6  17   9    1.03    0.17
  -5  17   9    1.55    0.26
  -4 -17   9    2.46    0.33
  -4 -17   9    2.49    0.35
   4 -17  -9    3.06    0.33
  -4  17   9    2.93    0.32
   4  17  -9    2.76    0.29
  -3 -17   9    8.67    0.69
  -3 -17   9    8.26    0.70
   3 -17  -9    9.63    0.66
   3  17  -9    7.38    0.59
  -3  17   9    8.25    0.66
   3  17  -9    8.58    0.64
  -2  17   9    0.81    0.21
   2  17  -9    0.63    0.17
   1 -17  -9    0.72    0.19
  -1 -17   9    0.78    0.21
  -1  17   9    0.91    0.24
   1  17  -9    1.35    0.27
   1  17  -9    0.92    0.19
   0 -17   9    0.17    0.18
   0 -17  -9    0.35    0.18
   0  17  -9    0.53    0.17
   0  17   9    0.38    0.25
  -1 -17  -9    1.45    0.28
   1 -17   9    1.42    0.27
  -1  17  -9    0.93    0.19
   1  17   9    0.74    0.29
  -2 -17  -9    1.90    0.29
   2 -17   9    1.82    0.28
   3 -17   9    4.81    0.45
  -3  17  -9    5.93    0.47
   4 -17   9    0.64    0.16
   4  17   9    0.83    0.22
  -5  17  -9    2.03    0.24
   5  17   9    1.82    0.29
   5 -18  -9    0.74    0.14
  -5 -18   9    0.74    0.14
  -5 -18   9    0.82    0.16
  -5  18   9    0.56    0.14
  -5  18   9    0.54    0.18
   5  18  -9    1.00    0.17
   4 -18  -9    1.16    0.23
  -4 -18   9    0.97    0.19
  -4 -18   9    0.88    0.16
  -4  18   9    0.48    0.16
   4  18  -9    0.70    0.14
   3 -18  -9    9.44    0.66
  -3  18   9    8.16    0.65
   3  18  -9    8.17    0.64
   2 -18  -9    0.66    0.18
  -2  18   9    0.84    0.20
   2  18  -9    0.75    0.17
  -1 -18   9    5.44    0.48
   1 -18  -9    6.10    0.48
  -1  18   9    4.72    0.51
   0 -18   9    1.70    0.28
   0 -18  -9    1.97    0.28
   0  18   9    1.56    0.26
   0  18  -9    1.40    0.27
   1 -18   9    1.65    0.27
  -1 -18  -9    1.75    0.28
  -1  18  -9    1.24    0.26
   2 -18   9    1.02    0.24
  -2  18  -9    1.55    0.24
   3 -18   9    1.00    0.23
   4 -18   9    3.36    0.29
  -4  18  -9    2.16    0.29
   5 -18   9    1.65    0.21
  -5  18  -9    1.73    0.22
   4  19  -9    2.37    0.25
  -4  19   9    2.41    0.26
   3 -19  -9    6.74    0.55
   3  19  -9    6.83    0.53
  -3  19   9    7.56    0.55
   2 -19  -9    1.30    0.27
  -2  19   9    1.92    0.29
   1 -19  -9    2.72    0.31
  -1 -19   9    2.57    0.33
   0 -19  -9    0.63    0.16
   0 -19   9    0.66    0.17
   1  19   9    0.48    0.23
  -1  19  -9    0.54    0.15
  -2  19  -9    0.89    0.16
   3 -19   9    4.26    0.36
  -3  19  -9    3.80    0.36
   4 -19   9    2.07    0.22
  -4  19  -9    1.45    0.22
   4  20  -9    3.70    0.31
  -4  20   9    3.87    0.32
   3 -20  -9    4.38    0.39
  -3  20   9    5.07    0.39
   2 -20  -9    0.98    0.21
  -2  20   9    1.35    0.26
  -1 -20   9    3.95    0.38
   1 -20  -9    4.14    0.36
   0 -20   9    1.77    0.26
   0 -20  -9    1.49    0.26
  -1  20  -9    1.04    0.23
   1  20   9    1.48    0.31
   3 -20   9    1.68    0.22
  -3  20  -9    1.38    0.21
   3 -21  -9   10.89    0.79
  -3  21   9   11.19    0.78
   2 -21  -9    4.45    0.36
  -2  21   9    4.37    0.37
  -1 -21   9    0.39    0.14
   1 -21  -9    0.28    0.13
  -1  21   9    0.29    0.16
   0 -21   9    0.82    0.16
   1 -21   9    0.63    0.14
   1  21   9    0.00    0.17
   2 -21   9    1.10    0.20
  -2  21  -9    0.91    0.18
  -1 -22   9    2.07    0.24
  -1  22   9    1.81    0.22
   0 -22   9    2.60    0.26
   0  22   9    2.38    0.27
   1 -22   9    0.54    0.13
   1  22   9    0.44    0.15
  -8   0  10    0.87    0.18
  -8   0  10    0.92    0.18
   8   0 -10    1.00    0.21
  -7   0  10    0.52    0.15
  -7   0  10    0.61    0.14
   7   0 -10    0.27    0.18
  -7   0  10    0.71    0.15
  -6   0  10    3.76    0.37
   6   0 -10    4.09    0.43
   6   0 -10    4.49    0.40
  -6   0  10    4.01    0.40
  -6   0  10    4.23    0.38
  -6   0  10    3.69    0.46
  -6   0  10    4.19    0.37
  -5   0  10    8.07    0.59
  -5   0  10    8.13    0.63
   5   0 -10    7.37    0.60
  -5   0  10    7.26    0.61
  -5   0  10    7.32    0.57
   5   0 -10    7.24    0.65
  -5   0  10    7.74    0.67
   4   0 -10    3.83    0.44
  -4   0  10    4.26    0.43
  -4   0  10    3.97    0.45
  -4   0  10    4.17    0.39
  -3   0  10    3.16    0.42
  -3   0  10    3.76    0.39
   3   0 -10    2.85    0.40
   2   0 -10    4.70    0.49
  -2   0  10    5.72    0.51
  -2   0  10    3.70    0.75
  -2   0  10    5.70    0.48
   1   0 -10    2.30    0.34
  -1   0  10    3.34    0.39
  -1   0  10    2.98    0.39
  -1   0  10    1.92    0.62
   1   0 -10    2.50    0.37
   0   0  10   24.96    1.76
   0   0 -10   22.63    1.63
   0   0 -10   23.51    1.68
   0   0  10   20.47    1.93
   1   0  10    0.83    0.23
   1   0  10    0.45    0.67
  -1   0 -10    0.43    0.16
  -1   0 -10    0.55    0.20
  -2   0 -10    8.15    0.62
  -2   0 -10    7.29    0.68
   2   0  10    8.23    0.72
  -3   0 -10    0.83    0.19
   3   0  10    0.51    0.24
   4   0  10   11.39    0.94
  -4   0 -10   11.56    0.87
  -5   0 -10    2.38    0.34
   5   0  10    1.71    0.41
   6   0  10    1.84    0.37
  -6   0 -10    1.96    0.28
  -7   0 -10    1.03    0.21
  -7   0 -10    0.87    0.17
   7   0  10    0.49    0.22
  -7   0 -10    0.92    0.19
  -8   0 -10    1.75    0.21
  -8   0 -10    1.60    0.25
  -8   0 -10    1.60    0.23
  -8  -1  10    0.65    0.12
   8  -1 -10    0.68    0.15
  -8  -1  10    0.67    0.13
  -8  -1  10    0.50    0.12
  -7  -1  10    2.10    0.25
  -7  -1  10    1.55    0.25
  -7  -1  10    1.88    0.33
   7  -1 -10    1.72    0.23
  -7  -1  10    1.65    0.25
   7   1 -10    1.72    0.29
  -7   1  10    1.82    0.26
  -7   1  10    2.09    0.25
  -7   1  10    1.57    0.24
  -6  -1  10   11.94    0.84
  -6  -1  10   12.20    0.89
  -6  -1  10   12.31    0.89
  -6  -1  10   12.54    0.93
  -6  -1  10   12.75    0.99
   6  -1 -10   12.34    0.86
   6  -1 -10   11.51    0.95
  -6   1  10   12.58    0.93
  -6   1  10   12.87    0.89
  -6   1  10   13.24    0.99
  -6   1  10   12.17    0.85
  -6   1  10   12.72    0.89
   6   1 -10   12.12    0.94
   6   1 -10   12.13    0.85
  -5  -1  10    4.01    0.40
  -5  -1  10    4.11    0.43
  -5  -1  10    4.90    0.47
  -5  -1  10    5.01    0.43
  -5   1  10    4.51    0.39
   5   1 -10    4.30    0.45
  -5   1  10    3.95    0.41
  -5   1  10    3.97    0.42
   5   1 -10    3.74    0.42
  -5   1  10    4.33    0.44
  -5   1  10    3.97    0.47
   4  -1 -10   18.50    1.38
  -4  -1  10   19.31    1.23
  -4  -1  10   20.12    1.36
  -4  -1  10   19.36    1.31
  -4  -1  10   20.12    1.43
  -4   1  10   18.20    1.37
  -4   1  10   17.63    1.42
   4   1 -10   17.67    1.24
  -4   1  10   17.08    1.30
   4   1 -10   16.81    1.36
   3  -1 -10    3.74    0.46
  -3  -1  10    4.07    0.42
  -3  -1  10    4.31    0.45
  -3   1  10    4.20    0.44
  -3   1  10    3.65    0.42
   3   1 -10    3.17    0.42
   2  -1 -10    6.83    0.57
  -2  -1  10    7.70    0.60
   2  -1 -10    6.94    0.55
  -2  -1  10    6.85    1.00
  -2   1  10    4.39    0.99
  -2   1  10    5.65    0.58
  -2   1  10    5.71    0.56
  -1  -1  10    7.46    1.04
   1  -1 -10    6.70    0.50
   1  -1 -10    6.83    0.56
  -1   1  10    5.33    0.55
   1   1 -10    4.96    0.52
  -1   1  10    6.09    0.57
   0  -1 -10    9.78    0.67
   0  -1  10    9.86    0.74
   0  -1 -10    9.71    0.71
   0  -1  10    6.57    1.12
   0   1  10    7.98    0.74
   0   1 -10    7.76    0.68
   0   1  10    8.30    1.13
   0   1 -10    8.14    0.70
   1  -1  10    0.95    0.22
  -1  -1 -10    0.77    0.22
   1  -1  10    1.40    0.72
  -1  -1 -10    0.75    0.18
   1   1  10    0.47    0.24
   1   1  10   -0.14    0.70
  -2  -1 -10    6.21    0.48
   2  -1  10    6.26    0.55
  -2  -1 -10    5.41    0.56
  -2   1 -10    4.76    0.47
   2   1  10    5.17    0.56
  -3   1 -10    1.88    0.32
   3   1  10    2.32    0.40
   4  -1  10   12.52    1.10
  -4  -1 -10   12.49    1.01
  -4   1 -10   15.52    1.02
   4   1  10   14.67    1.12
  -5  -1 -10    3.49    0.36
   5  -1  10    2.66    0.43
  -5   1 -10    2.93    0.45
   5   1  10    2.89    0.44
  -5   1 -10    3.25    0.36
  -6  -1 -10    7.00    0.56
   6  -1  10    6.59    0.62
  -6  -1 -10    7.09    0.61
  -6   1 -10    6.69    0.55
  -6   1 -10    6.86    0.60
   6   1  10    6.50    0.63
  -7  -1 -10    0.51    0.21
  -7   1 -10    1.02    0.19
   7   1  10    0.89    0.22
  -7   1 -10    1.29    0.28
  -7   1 -10    0.93    0.17
  -8   1 -10    0.50    0.14
  -8   1 -10    0.24    0.12
  -8   1 -10    0.33    0.15
  -8   2  10    1.12    0.20
  -8   2  10    0.81    0.17
  -8   2  10    0.83    0.19
   8   2 -10    1.04    0.22
  -7  -2  10    2.22    0.26
  -7  -2  10    2.06    0.26
  -7  -2  10    2.35    0.32
   7  -2 -10    1.60    0.25
  -7  -2  10    1.75    0.25
  -7   2  10    1.51    0.24
   7   2 -10    1.86    0.27
  -7   2  10    1.57    0.28
  -7   2  10    1.93    0.25
  -6  -2  10    5.28    0.44
  -6  -2  10    5.02    0.46
  -6  -2  10    4.67    0.42
  -6  -2  10    5.54    0.45
  -6  -2  10    4.81    0.51
  -6   2  10    5.44    0.48
   6   2 -10    5.53    0.48
   6   2 -10    5.68    0.44
  -6   2  10    5.02    0.44
  -6   2  10    4.85    0.44
  -6   2  10    5.50    0.45
  -5  -2  10   10.30    0.75
  -5  -2  10   10.33    0.81
  -5  -2  10   11.14    0.83
  -5  -2  10   11.00    0.80
  -5  -2  10   10.37    0.88
  -5   2  10   11.49    0.84
  -5   2  10   10.89    0.79
  -5   2  10   10.58    0.81
  -5   2  10   11.30    0.89
   5   2 -10   10.44    0.76
  -5   2  10   11.25    0.77
   5   2 -10   10.52    0.84
  -4  -2  10    5.78    0.54
   4   2 -10    4.83    0.47
  -4   2  10    5.34    0.53
  -4   2  10    5.77    0.52
  -4   2  10    5.53    0.47
  -3  -2  10    3.30    0.38
   3  -2 -10    2.73    0.40
  -3  -2  10    2.87    0.39
   3   2 -10    3.19    0.38
  -3   2  10    2.85    0.38
  -3   2  10    3.46    0.40
   2  -2 -10    4.11    0.46
  -2  -2  10    5.71    0.48
  -2  -2  10    3.60    0.81
   2  -2 -10    4.70    0.50
  -2  -2  10    4.91    0.49
   1  -2 -10    1.65    0.26
  -1  -2  10    1.70    0.33
   1   2 -10    1.81    0.31
  -1   2  10    2.02    0.35
  -1   2  10    0.86    0.62
  -1   2  10    2.26    0.35
   0  -2 -10   16.30    1.10
   0  -2 -10   16.58    1.14
   0  -2  10   14.26    1.50
   0   2  10   15.04    1.19
   0   2 -10   14.64    1.12
   0   2 -10   14.33    1.10
   0   2  10   14.02    1.47
  -1  -2 -10    0.46    0.23
   1  -2  10   -0.09    0.71
  -1  -2 -10    1.19    0.26
   1  -2  10    0.49    0.20
   1   2  10    0.77    0.23
  -1   2 -10    0.66    0.18
  -1   2 -10    0.68    0.19
   1   2  10   -0.24    0.71
   2  -2  10    6.56    0.66
  -2  -2 -10    7.33    0.60
   2   2  10    8.25    0.69
  -2   2 -10    8.08    0.59
  -2   2 -10    7.47    0.64
  -3  -2 -10    2.57    0.32
   3  -2  10    2.40    0.40
   3   2  10    1.81    0.41
  -3   2 -10    1.69    0.32
   4  -2  10   15.81    1.36
  -4  -2 -10   16.60    1.27
  -4   2 -10   19.16    1.26
   4   2  10   18.30    1.38
   5  -2  10    4.10    0.47
  -5  -2 -10    4.76    0.42
   5   2  10    3.72    0.50
  -5   2 -10    3.43    0.48
  -5   2 -10    3.87    0.41
   6  -2  10    1.79    0.37
  -6  -2 -10    1.86    0.42
  -6  -2 -10    2.23    0.32
   6   2  10    2.50    0.40
  -6   2 -10    2.03    0.31
  -6   2 -10    2.77    0.36
  -7  -2 -10    1.21    0.24
  -7  -2 -10    1.03    0.21
  -7  -2 -10    0.99    0.23
  -7   2 -10    1.85    0.27
  -7   2 -10    1.57    0.29
  -7   2 -10    1.44    0.23
   7   2  10    1.36    0.24
  -8   2 -10    0.37    0.15
  -8   2 -10    0.35    0.14
  -8   2 -10    0.22    0.12
   8   3 -10    1.51    0.25
  -8   3  10    1.98    0.21
  -8   3  10    1.55    0.22
  -8   3  10    1.97    0.22
  -7  -3  10    1.94    0.26
  -7  -3  10    2.25    0.32
  -7  -3  10    1.83    0.26
  -7  -3  10    1.68    0.26
  -7   3  10    2.22    0.29
  -7   3  10    2.34    0.27
  -7   3  10    2.47    0.25
   7   3 -10    2.31    0.29
  -6  -3  10    7.11    0.63
  -6  -3  10    6.83    0.52
  -6  -3  10    7.44    0.56
  -6  -3  10    6.63    0.58
  -6  -3  10    7.30    0.56
  -6   3  10    7.20    0.55
  -6   3  10    8.00    0.57
   6   3 -10    7.19    0.59
  -6   3  10    7.52    0.60
   6   3 -10    7.39    0.54
  -6   3  10    7.06    0.55
  -5  -3  10    7.83    0.64
  -5  -3  10    7.22    0.53
  -5  -3  10    7.94    0.57
  -5  -3  10    7.59    0.59
  -5  -3  10    7.35    0.58
  -5   3  10    7.32    0.62
  -5   3  10    6.41    0.56
   5   3 -10    6.61    0.54
  -5   3  10    6.80    0.59
  -5   3  10    7.16    0.68
   5   3 -10    6.27    0.59
  -5   3  10    6.91    0.56
  -4   3  10    8.38    0.67
   4   3 -10    7.83    0.59
  -4   3  10    7.54    0.60
  -4   3  10    7.26    0.68
   4   3 -10    7.70    0.64
   3  -3 -10    2.03    0.40
  -3   3  10    1.84    0.37
   1  -3 -10    3.66    0.35
   1  -3 -10    3.73    0.43
  -1  -3  10    3.31    0.74
   1   3 -10    2.46    0.36
  -1   3  10    1.77    0.65
  -1   3  10    2.85    0.40
  -1   3  10    2.46    0.40
   0  -3 -10    4.69    0.41
   0  -3  10    5.27    0.46
   0  -3 -10    4.77    0.48
   0  -3  10    4.12    0.83
   0   3 -10    3.77    0.44
   0   3  10    4.78    0.49
   0   3 -10    3.71    0.43
  -1  -3 -10    5.22    0.43
   1  -3  10    5.27    0.47
  -1  -3 -10    4.09    0.52
   1   3  10    3.11    0.87
  -1   3 -10    4.09    0.42
  -1   3 -10    4.26    0.44
   1   3  10    4.85    0.52
   2  -3  10    3.27    0.41
  -2  -3 -10    3.54    0.37
  -2   3 -10    3.04    0.40
  -2   3 -10    3.46    0.35
   2   3  10    3.86    0.48
   3  -3  10    8.77    0.76
  -3  -3 -10    9.50    0.69
   3   3  10    9.12    0.80
  -3   3 -10    8.48    0.68
  -3   3 -10    8.38    0.72
  -4  -3 -10    8.51    0.69
   4  -3  10    7.72    0.74
   4   3  10    8.33    0.78
  -4   3 -10    9.68    0.68
  -4   3 -10    8.76    0.72
  -5  -3 -10   11.84    0.86
   5  -3  10   11.07    0.92
   5   3  10   11.62    0.95
  -5   3 -10   10.85    0.89
  -5   3 -10   11.10    0.85
  -6  -3 -10    5.92    0.50
  -6   3 -10    5.68    0.49
  -6   3 -10    5.71    0.53
   6   3  10    6.07    0.59
  -7  -3 -10    3.28    0.38
  -7  -3 -10    4.14    0.36
  -7  -3 -10    3.69    0.43
  -7   3 -10    4.14    0.36
  -7   3 -10    4.33    0.39
   7   3  10    4.15    0.45
  -8  -3 -10    0.45    0.14
  -8  -3 -10    0.55    0.18
  -8   3 -10    0.45    0.15
  -8   3 -10    0.35    0.14
  -8  -4  10    0.58    0.15
  -8  -4  10    0.78    0.16
  -8  -4  10    0.64    0.13
   8  -4 -10    0.35    0.16
  -8   4  10    1.06    0.18
  -8   4  10    0.75    0.12
  -8   4  10    0.69    0.13
  -7   4  10    3.09    0.30
  -7   4  10    2.86    0.29
  -7   4  10    2.83    0.32
   7   4 -10    2.96    0.32
  -6  -4  10    7.63    0.66
  -6  -4  10    7.71    0.61
  -6  -4  10    7.75    0.59
  -6  -4  10    7.55    0.55
  -6  -4  10    8.65    0.59
  -6   4  10    7.25    0.58
  -6   4  10    7.52    0.60
   6   4 -10    7.65    0.62
  -6   4  10    7.67    0.58
   6   4 -10    7.19    0.56
  -6   4  10    7.57    0.64
  -5  -4  10    5.31    0.45
  -5  -4  10    4.75    0.46
  -5  -4  10    4.30    0.41
  -5  -4  10    4.44    0.51
  -5  -4  10    5.28    0.45
  -5   4  10    4.46    0.48
  -5   4  10    5.26    0.43
  -5   4  10    4.80    0.50
   5   4 -10    5.49    0.46
   5   4 -10    4.86    0.43
  -5   4  10    4.47    0.46
  -4  -4  10    5.81    0.52
   4  -4 -10    5.50    0.59
  -4  -4  10    6.82    0.57
  -4  -4  10    7.07    0.64
  -4   4  10    7.55    0.62
   4   4 -10    6.76    0.56
  -4   4  10    7.39    0.55
   4   4 -10    6.55    0.53
  -4   4  10    7.26    0.62
   3  -4 -10    0.59    0.21
  -3  -4  10    0.83    0.21
  -3  -4  10    0.88    0.20
  -3   4  10    0.96    0.23
  -3   4  10    0.72    0.19
   3   4 -10    0.84    0.19
   2  -4 -10    1.20    0.22
  -2  -4  10    1.84    0.33
   2  -4 -10    1.20    0.28
   1  -4 -10    1.27    0.22
  -1  -4  10    1.94    0.32
   1  -4 -10    1.29    0.27
  -1  -4  10    0.69    0.71
  -1   4  10    2.58    0.68
   0  -4 -10    1.58    0.31
   0  -4  10    1.91    0.33
   0  -4 -10    1.31    0.26
   0   4  10    0.28    0.68
   0   4  10    1.97    0.37
   0   4 -10    1.50    0.31
  -1   4 -10    3.23    0.38
   1   4  10    4.25    0.48
  -1   4 -10    3.83    0.41
  -2   4 -10    5.22    0.50
  -2   4 -10    5.01    0.46
   2   4  10    5.50    0.58
  -3   4 -10    3.56    0.43
  -3   4 -10    4.71    0.41
   3   4  10    4.31    0.54
   4  -4  10    8.92    0.78
  -4  -4 -10   10.23    0.73
   4   4  10    8.44    0.83
  -4   4 -10    8.71    0.75
  -4   4 -10    9.39    0.71
   5  -4  10    5.99    0.57
  -5  -4 -10    6.72    0.51
   5   4  10    5.98    0.63
  -5   4 -10    5.42    0.55
  -5   4 -10    5.65    0.50
  -6  -4 -10    3.11    0.35
  -6   4 -10    3.15    0.34
  -6   4 -10    3.57    0.38
   6   4  10    3.32    0.47
  -7  -4 -10    1.64    0.36
  -7  -4 -10    1.48    0.27
  -7   4 -10    1.62    0.27
   7   4  10    1.21    0.25
  -7   4 -10    1.11    0.22
  -8  -5  10    0.91    0.15
   8  -5 -10    0.91    0.17
  -8  -5  10    0.81    0.17
  -8  -5  10    1.00    0.17
  -8   5  10    0.58    0.12
  -8   5  10    0.65    0.13
  -8   5  10    0.81    0.18
  -7  -5  10    3.87    0.31
  -7   5  10    2.92    0.33
   7   5 -10    2.82    0.32
  -7   5  10    3.01    0.30
  -7   5  10    3.12    0.31
  -6  -5  10    4.02    0.36
  -6  -5  10    3.00    0.41
  -6  -5  10    3.11    0.35
  -6  -5  10    3.28    0.32
   6   5 -10    3.43    0.33
   6   5 -10    3.77    0.36
  -6   5  10    3.58    0.37
  -6   5  10    3.01    0.39
  -6   5  10    4.24    0.34
  -6   5  10    4.00    0.40
  -5  -5  10   16.17    1.08
  -5  -5  10   17.08    1.16
  -5  -5  10   17.35    1.28
  -5  -5  10   16.86    1.15
  -5   5  10   15.70    1.17
   5   5 -10   15.70    1.20
   5   5 -10   15.39    1.08
  -5   5  10   15.87    1.14
  -5   5  10   16.16    1.22
  -4  -5  10    1.20    0.25
   4  -5 -10    1.52    0.24
  -4   5  10    1.39    0.28
   4   5 -10    1.55    0.31
  -4   5  10    0.99    0.25
   4   5 -10    1.40    0.28
  -3  -5  10    6.72    0.72
  -3   5  10    8.65    0.66
   3   5 -10    9.19    0.67
  -3   5  10    8.17    0.73
  -3   5  10    9.72    0.73
  -2   5  10    1.81    0.38
   2   5 -10    2.02    0.31
  -2   5  10    1.51    0.27
  -1  -5  10    1.95    0.33
   1  -5 -10    1.70    0.32
   1  -5 -10    1.63    0.29
   0  -5 -10    0.98    0.26
   0  -5 -10    1.34    0.29
   0  -5  10    1.06    0.22
  -1  -5 -10    2.54    0.35
   1  -5  10    2.30    0.36
  -1   5 -10    2.80    0.35
  -1   5 -10    2.80    0.35
   2   5  10    3.00    0.45
  -2   5 -10    2.84    0.37
  -2   5 -10    2.30    0.33
  -3  -5 -10    8.68    0.69
   3  -5  10    7.92    0.74
  -3   5 -10    8.87    0.67
   3   5  10    9.68    0.79
  -3   5 -10    8.52    0.70
   4  -5  10    2.25    0.39
  -4   5 -10    2.17    0.36
   4   5  10    2.42    0.48
  -4   5 -10    2.62    0.32
  -4   5 -10    2.05    0.41
  -5  -5 -10   16.97    1.38
  -5  -5 -10   18.67    1.26
   5   5  10   17.91    1.40
  -5   5 -10   17.58    1.28
  -5   5 -10   16.53    1.24
  -5   5 -10   16.88    1.29
  -6  -5 -10    2.36    0.31
   6   5  10    2.52    0.43
  -6   5 -10    2.30    0.30
  -6   5 -10    2.82    0.34
  -7   5 -10    1.93    0.25
   7   5  10    2.26    0.37
  -7   5 -10    2.32    0.29
  -8  -6  10    1.89    0.20
  -8  -6  10    1.42    0.21
  -8  -6  10    1.46    0.19
   8  -6 -10    1.31    0.25
  -7  -6  10    2.91    0.31
  -7  -6  10    3.22    0.29
  -7  -6  10    2.97    0.33
  -7   6  10    2.77    0.28
  -7   6  10    2.83    0.33
  -7   6  10    2.94    0.29
  -6   6  10    2.63    0.40
  -6   6  10    3.55    0.33
   6   6 -10    3.20    0.32
  -6   6  10    3.30    0.40
   6   6 -10    3.30    0.34
  -6   6  10    3.48    0.36
  -5  -6  10    2.64    0.39
   5  -6 -10    2.68    0.40
  -5  -6  10    2.58    0.35
   5   6 -10    3.32    0.34
  -5   6  10    3.15    0.32
  -5   6  10    2.47    0.40
   5   6 -10    2.71    0.32
  -4  -6  10    3.18    0.46
   4  -6 -10    2.95    0.44
  -4   6  10    4.04    0.47
  -4   6  10    3.81    0.38
   4   6 -10    4.23    0.38
   4   6 -10    3.95    0.38
   3  -6 -10    1.86    0.36
  -3  -6  10    2.51    0.37
  -3   6  10    1.91    0.40
  -3   6  10    2.76    0.34
  -3   6  10    2.58    0.42
   2  -6 -10    1.28    0.28
   2  -6 -10    1.00    0.21
  -2   6  10    0.22    0.24
   2   6 -10    0.57    0.18
  -2   6  10    0.30    0.22
   1  -6 -10    2.97    0.37
   1  -6 -10    2.56    0.48
  -1  -6  10    2.73    0.38
   0  -6 -10    0.76    0.20
   0  -6  10    0.65    0.19
   0   6  10    1.04    0.26
  -1  -6 -10    4.84    0.45
   1  -6  10    4.28    0.45
  -2  -6 -10    0.94    0.21
  -2   6 -10    1.42    0.29
   2   6  10    1.01    0.27
   3  -6  10   10.96    0.88
  -3  -6 -10   12.42    0.83
   3   6  10   11.02    0.94
  -3   6 -10    9.92    0.84
  -3   6 -10    9.82    0.80
   4  -6  10    4.63    0.49
  -4  -6 -10    4.26    0.55
  -4   6 -10    4.31    0.44
  -4   6 -10    4.37    0.40
   4   6  10    4.28    0.58
  -4   6 -10    3.80    0.48
  -5   6 -10    4.61    0.44
   5   6  10    3.80    0.57
  -5   6 -10    3.84    0.43
  -5   6 -10    4.75    0.40
  -6   6 -10    4.47    0.41
  -6   6 -10    5.18    0.44
   6   6  10    4.54    0.55
   7   6  10    0.84    0.23
  -7   6 -10    0.68    0.14
  -7   6 -10    1.25    0.24
  -7  -7  10    3.91    0.37
  -7  -7  10    4.01    0.41
  -7  -7  10    4.08    0.36
  -7   7  10    4.84    0.37
  -7   7  10    4.55    0.41
  -7   7  10    4.86    0.37
  -6  -7  10    5.06    0.41
  -6  -7  10    4.91    0.45
  -6  -7  10    4.89    0.39
  -6   7  10    3.71    0.45
   6   7 -10    4.36    0.37
  -6   7  10    4.16    0.42
  -6   7  10    4.38    0.38
   6   7 -10    3.99    0.40
   5  -7 -10   10.57    0.80
  -5  -7  10   11.23    0.76
  -5  -7  10   11.10    0.84
  -5   7  10    8.48    0.82
  -5   7  10    9.75    0.78
   5   7 -10    9.85    0.77
   5   7 -10   10.07    0.71
  -5   7  10    9.97    0.75
   4  -7 -10    4.74    0.48
   4   7 -10    3.81    0.39
  -4   7  10    4.04    0.50
  -4   7  10    4.16    0.40
   4   7 -10    4.61    0.42
   3   7 -10    4.89    0.44
  -3   7  10    4.92    0.47
  -3   7  10    5.38    0.55
   3   7 -10    5.73    0.48
  -2  -7  10    1.60    0.32
   2  -7 -10    1.13    0.23
   2  -7 -10    1.82    0.31
  -2   7  10    1.32    0.26
   2   7 -10    1.47    0.30
  -2   7  10    1.11    0.27
  -1  -7  10    2.47    0.35
   1  -7 -10    2.74    0.37
   1  -7 -10    2.39    0.36
  -1   7  10    2.58    0.44
   1   7 -10    3.21    0.34
  -1   7  10    2.14    0.41
   0   7 -10    3.01    0.37
   0   7  10    2.43    0.44
  -1   7 -10    2.22    0.34
   1   7  10    2.45    0.45
  -2  -7 -10    2.03    0.37
   2   7  10    3.07    0.47
  -2   7 -10    3.38    0.36
  -2   7 -10    2.69    0.34
   3  -7  10    7.74    0.70
  -3  -7 -10    8.78    0.65
  -3   7 -10    7.73    0.66
  -3   7 -10    7.94    0.63
   3   7  10    8.36    0.77
  -4  -7 -10    1.41    0.33
  -4   7 -10    1.96    0.32
  -4   7 -10    1.69    0.37
  -4   7 -10    1.67    0.29
   4   7  10    1.59    0.34
  -5  -7 -10   10.30    0.85
  -5   7 -10   11.89    0.88
  -5   7 -10   12.50    0.86
  -5   7 -10   11.24    0.84
   5   7  10   10.68    0.98
  -6  -7 -10    1.45    0.26
  -6   7 -10    1.38    0.31
   6   7  10    1.09    0.27
  -6   7 -10    1.79    0.29
  -6   7 -10    1.23    0.24
  -7  -7 -10    1.95    0.24
  -7  -7 -10    1.54    0.28
   7   7  10    1.59    0.34
  -7   7 -10    1.43    0.22
  -7   7 -10    1.93    0.26
  -7  -8  10    4.47    0.41
  -7  -8  10    4.55    0.37
  -7  -8  10    4.33    0.36
  -7   8  10    4.75    0.36
  -7   8  10    3.96    0.37
  -7   8  10    4.45    0.41
   6  -8 -10    3.96    0.41
  -6  -8  10    4.04    0.34
  -6   8  10    3.14    0.32
   6   8 -10    2.95    0.34
  -6   8  10    2.78    0.37
  -5  -8  10    2.92    0.36
  -5  -8  10    2.52    0.41
   5  -8 -10    2.60    0.41
   5   8 -10    3.30    0.32
  -5   8  10    2.29    0.42
  -5   8  10    3.73    0.34
   5   8 -10    3.83    0.34
  -5   8  10    3.33    0.43
   4  -8 -10    3.32    0.45
  -4  -8  10    3.63    0.45
  -4   8  10    3.82    0.37
   4   8 -10    3.51    0.35
   4   8 -10    3.88    0.38
  -4   8  10    2.79    0.46
   3  -8 -10    3.49    0.42
   3   8 -10    2.53    0.34
  -3   8  10    3.09    0.36
  -3   8  10    2.60    0.44
   3   8 -10    3.21    0.36
   2  -8 -10    3.64    0.54
  -2  -8  10    3.65    0.42
   2  -8 -10    3.02    0.44
  -1  -8  10    3.66    0.42
   1  -8 -10    3.87    0.43
   1   8 -10    3.73    0.41
   0  -8  10    0.68    0.20
   0  -8 -10    0.68    0.21
   0   8  10    0.89    0.26
   1  -8  10   16.93    1.25
  -1  -8 -10   18.66    1.18
  -1   8 -10   14.48    1.19
   1   8  10   14.12    1.28
  -2  -8 -10    1.84    0.32
   2  -8  10    1.33    0.24
  -2   8 -10    2.12    0.31
   2   8  10    2.51    0.43
   3  -8  10   10.30    0.77
  -3   8 -10    9.28    0.78
  -3   8 -10    9.15    0.71
  -3   8 -10    9.20    0.75
   3   8  10    8.90    0.84
  -4  -8 -10    1.92    0.35
  -4   8 -10    2.81    0.36
   4   8  10    2.14    0.51
  -4   8 -10    2.80    0.32
  -4   8 -10    3.20    0.39
  -5  -8 -10    4.25    0.40
  -5   8 -10    4.44    0.41
  -5   8 -10    4.18    0.43
   5   8  10    3.24    0.54
  -5   8 -10    4.10    0.38
  -6  -8 -10    1.61    0.27
  -6   8 -10    2.37    0.31
   6   8  10    1.78    0.43
  -6   8 -10    1.99    0.25
  -6   8 -10    2.19    0.29
  -7   8 -10    1.67    0.25
  -7   8 -10    1.50    0.21
   7   8  10    1.50    0.26
  -7  -9  10    3.08    0.31
  -7  -9  10    3.44    0.31
  -7  -9  10    2.57    0.28
  -7   9  10    2.47    0.30
  -7   9  10    3.43    0.28
  -7   9  10    3.05    0.33
  -6  -9  10    5.44    0.45
   6  -9 -10    5.29    0.50
  -6  -9  10    5.89    0.50
  -6   9  10    5.68    0.44
  -6   9  10    4.37    0.50
  -6   9  10    5.57    0.47
  -5  -9  10    3.51    0.37
   5  -9 -10    3.09    0.43
  -5  -9  10    2.83    0.41
  -5   9  10    4.00    0.35
  -5   9  10    3.81    0.45
   5   9 -10    3.62    0.35
   5   9 -10    3.63    0.32
  -5   9  10    2.63    0.43
   4  -9 -10    8.96    0.70
   4   9 -10    8.55    0.65
  -4   9  10    7.10    0.71
   4   9 -10    7.85    0.59
  -4   9  10    8.50    0.63
   3  -9 -10    5.01    0.50
   3   9 -10    4.59    0.42
  -3   9  10    4.49    0.43
   3   9 -10    3.97    0.40
  -3   9  10    3.87    0.49
  -2   9  10    1.10    0.26
   2   9 -10    1.41    0.28
  -2   9  10    1.32    0.23
   1  -9 -10    5.85    0.54
  -1  -9  10    5.76    0.52
   1   9 -10    5.08    0.50
   0  -9  10    0.56    0.19
   0  -9 -10    0.94    0.22
   0   9  10    0.35    0.27
   0   9 -10    0.64    0.19
   1  -9  10    5.06    0.48
  -1   9 -10    4.59    0.46
   1   9  10    4.52    0.55
  -2  -9 -10    0.77    0.21
  -2   9 -10    0.91    0.19
   2   9  10    1.05    0.28
  -3  -9 -10    8.36    0.62
   3  -9  10    7.64    0.65
  -3   9 -10    6.75    0.66
  -3   9 -10    7.29    0.61
  -3   9 -10    7.81    0.63
   3   9  10    7.19    0.72
   4  -9  10    8.37    0.68
  -4  -9 -10    6.83    0.79
  -4  -9 -10    9.71    0.67
  -4   9 -10    8.81    0.67
  -4   9 -10    8.38    0.69
  -4   9 -10    8.30    0.64
   4   9  10    7.99    0.78
  -5  -9 -10    3.61    0.47
  -5   9 -10    2.92    0.35
  -5   9 -10    2.65    0.31
  -5   9 -10    3.47    0.36
   5   9  10    2.33    0.48
  -6  -9 -10    5.23    0.43
  -6   9 -10    5.33    0.45
  -6   9 -10    4.62    0.42
   6   9  10    4.72    0.53
  -6   9 -10    5.51    0.45
  -7   9 -10    1.05    0.18
  -7   9 -10    0.80    0.16
   7   9  10    1.04    0.23
  -7 -10  10    3.65    0.33
  -7 -10  10    4.18    0.36
  -7 -10  10    4.07    0.36
  -7  10  10    3.23    0.33
  -7  10  10    3.75    0.36
  -7  10  10    4.29    0.32
  -6 -10  10    1.74    0.29
  -6 -10  10    1.70    0.26
   6 -10 -10    1.49    0.33
  -6  10  10    1.92    0.31
  -6  10  10    1.81    0.30
   5 -10 -10    3.11    0.43
  -5 -10  10    3.30    0.39
  -5 -10  10    3.47    0.37
   5  10 -10    3.46    0.31
   5  10 -10    3.45    0.35
  -5  10  10    3.96    0.35
  -5  10  10    2.79    0.41
  -4 -10  10    2.06    0.39
   4 -10 -10    1.84    0.41
  -4  10  10    2.48    0.32
   4  10 -10    2.73    0.30
   4  10 -10    2.84    0.32
   3  10 -10    2.22    0.31
   3  10 -10    2.33    0.31
  -3  10  10    1.75    0.40
  -3  10  10    2.57    0.34
   2 -10 -10    3.95    0.56
  -2 -10  10    3.08    0.41
   2 -10 -10    3.30    0.43
  -2  10  10    2.99    0.41
  -2  10  10    2.60    0.44
   2  10 -10    3.42    0.36
  -1 -10  10    4.35    0.43
   1 -10 -10    4.00    0.47
   1  10 -10    4.00    0.42
   0 -10  10    1.60    0.31
   0 -10 -10    1.59    0.34
   0  10 -10    1.00    0.21
   0  10  10    0.53    0.28
  -1 -10 -10    8.46    0.62
   1 -10  10    6.89    0.63
  -1  10 -10    6.58    0.61
   1  10  10    6.81    0.69
   2  10  10    4.22    0.53
  -2  10 -10    3.66    0.40
   3 -10  10    7.81    0.69
  -3 -10 -10    8.66    0.66
  -3  10 -10    8.37    0.67
  -3  10 -10    7.82    0.66
  -3  10 -10    8.01    0.70
   3  10  10    8.62    0.78
   4 -10  10    4.82    0.51
  -4 -10 -10    5.97    0.50
  -4  10 -10    5.35    0.48
   4  10  10    5.62    0.63
  -4  10 -10    6.28    0.50
  -4  10 -10    5.73    0.52
  -5 -10 -10    2.16    0.30
   5 -10  10    2.17    0.31
  -5  10 -10    2.52    0.33
  -5  10 -10    2.41    0.28
   5  10  10    2.26    0.46
  -6 -10 -10    1.04    0.22
   6 -10  10    1.11    0.24
  -6  10 -10    0.94    0.18
  -6  10 -10    1.19    0.20
   6  10  10    0.96    0.26
  -6  10 -10    1.39    0.26
   7 -10  10    0.96    0.20
   7 -11 -10    0.72    0.18
  -7 -11  10    1.38    0.19
  -7 -11  10    1.24    0.20
  -7  11  10    0.94    0.22
  -7  11  10    1.17    0.17
  -7  11  10    0.72    0.15
   6 -11 -10    4.10    0.45
  -6 -11  10    5.12    0.41
  -6 -11  10    5.37    0.44
  -6  11  10    4.58    0.44
  -6  11  10    4.91    0.40
  -5 -11  10    1.55    0.30
   5 -11 -10    1.30    0.25
  -5 -11  10    1.60    0.29
   5  11 -10    1.24    0.23
   4 -11 -10   13.13    0.98
  -4 -11  10   14.65    1.01
   4  11 -10   12.29    0.94
   4  11 -10   11.94    0.85
  -4  11  10   12.31    0.98
  -4  11  10   11.74    0.92
   3  11 -10    0.81    0.17
   3  11 -10    0.54    0.19
  -3  11  10    0.67    0.19
  -3  11  10    0.48    0.23
  -2 -11  10    1.77    0.34
   2 -11 -10    1.83    0.39
   2  11 -10    1.78    0.29
  -2  11  10    1.44    0.26
   1 -11 -10    2.02    0.39
  -1 -11  10    2.51    0.34
  -1  11  10    1.63    0.30
   1  11 -10    2.10    0.33
   0 -11  10    3.41    0.39
   0 -11 -10    3.39    0.40
   0  11 -10    3.00    0.38
  -1 -11 -10    3.27    0.42
  -1  11 -10    4.00    0.39
   2 -11  10    3.09    0.44
  -2 -11 -10    3.90    0.42
  -2  11 -10    4.34    0.42
   2  11  10    4.07    0.52
   3 -11  10    5.95    0.55
  -3 -11 -10    6.81    0.54
   3  11  10    6.33    0.64
  -3  11 -10    6.07    0.56
  -3  11 -10    5.67    0.54
   4 -11  10    8.64    0.72
  -4 -11 -10    9.03    0.70
  -4  11 -10   10.25    0.72
  -4  11 -10    9.00    0.73
  -4  11 -10    8.28    0.69
   4  11  10    9.50    0.82
   5 -11  10    0.54    0.19
  -5 -11 -10    0.53    0.17
   5  11  10    0.98    0.26
  -5  11 -10    0.93    0.20
  -5  11 -10    1.32    0.25
  -5  11 -10    0.89    0.17
  -6  11 -10    3.17    0.31
  -6  11 -10    3.26    0.32
  -6  11 -10    3.08    0.31
   6  11  10    3.10    0.40
   6 -12 -10    3.86    0.38
  -6 -12  10    3.66    0.35
  -6 -12  10    3.50    0.33
  -6  12  10    3.60    0.36
  -6  12  10    3.48    0.32
   5 -12 -10    3.47    0.40
  -5 -12  10    3.71    0.37
  -5 -12  10    4.08    0.38
  -5  12  10    3.31    0.38
  -5  12  10    3.55    0.35
   4 -12 -10    1.93    0.36
  -4 -12  10    2.00    0.31
   4  12 -10    1.41    0.27
  -4  12  10    1.95    0.30
   4  12 -10    1.86    0.28
   3 -12 -10    4.56    0.49
  -3 -12  10    4.78    0.46
   3  12 -10    3.70    0.39
  -3  12  10    4.33    0.43
   3  12 -10    4.08    0.41
  -3  12  10    3.83    0.46
   2 -12 -10    2.94    0.42
  -2 -12  10    3.36    0.40
   1 -12 -10    1.19    0.24
  -1 -12  10    0.86    0.21
   1  12 -10    1.08    0.19
  -1  12  10    0.90    0.26
   0 -12 -10    1.92    0.36
   0 -12  10    1.85    0.34
  -1 -12 -10    2.56    0.37
   1  12  10    2.38    0.45
  -1  12 -10    2.54    0.35
   2 -12  10    7.06    0.60
  -2 -12 -10    8.04    0.58
  -2  12 -10    6.11    0.58
   2  12  10    6.20    0.67
  -3 -12 -10    5.84    0.51
   3 -12  10    5.29    0.52
  -3  12 -10    6.87    0.53
  -3  12 -10    5.77    0.55
   3  12  10    5.96    0.61
   4 -12  10    3.75    0.43
  -4 -12 -10    3.99    0.41
  -4  12 -10    5.08    0.42
   4  12  10    4.60    0.53
  -4  12 -10    5.12    0.44
   5 -12  10    0.81    0.19
  -5  12 -10    1.19    0.27
   5  12  10    1.05    0.23
   6 -12  10    0.94    0.20
  -6  12 -10    1.07    0.19
  -6  12 -10    0.63    0.15
  -6  12 -10    0.68    0.16
   6  12  10    0.55    0.20
  -6 -13  10    4.58    0.37
  -6 -13  10    4.60    0.38
   6 -13 -10    3.78    0.38
  -6  13  10    3.91    0.34
  -6  13  10    3.76    0.37
   5 -13 -10    0.71    0.20
  -5  13  10    0.72    0.15
  -5  13  10    0.56    0.18
   4 -13 -10    5.80    0.53
  -4 -13  10    5.95    0.50
  -4  13  10    5.37    0.50
  -4  13  10    5.62    0.48
   4  13 -10    5.27    0.43
   3 -13 -10    0.81    0.24
  -3 -13  10    0.97    0.21
  -3  13  10    1.66    0.32
   3  13 -10    1.42    0.27
   3  13 -10    1.54    0.27
   2 -13 -10    1.20    0.25
  -2 -13  10    1.13    0.22
   1  13 -10    1.03    0.18
  -1  13  10    0.49    0.25
   0 -13 -10    0.55    0.21
   0  13 -10    0.95    0.18
  -1 -13 -10    3.66    0.44
  -1  13 -10    5.21    0.44
   2 -13  10    5.12    0.52
  -2 -13 -10    6.17    0.52
  -2  13 -10    6.60    0.52
   2  13  10    5.92    0.60
  -3 -13 -10    2.45    0.32
   3 -13  10    2.34    0.33
   3  13  10    2.06    0.43
  -3  13 -10    3.04    0.33
  -4 -13 -10    5.51    0.49
   4 -13  10    5.73    0.49
  -4  13 -10    5.70    0.51
   4  13  10    5.72    0.58
  -4  13 -10    6.85    0.51
   5 -13  10    0.60    0.16
   5  13  10    0.54    0.22
  -5  13 -10    1.04    0.22
  -5  13 -10    1.14    0.24
  -5  13 -10    0.59    0.17
   6 -13  10    3.11    0.29
   6  13  10    3.05    0.35
  -6  13 -10    3.02    0.29
  -6  13 -10    2.97    0.28
  -6  13 -10    3.04    0.30
   6 -14 -10    2.29    0.25
  -6 -14  10    2.16    0.23
   6  14 -10    1.66    0.21
  -6  14  10    1.56    0.21
  -6  14  10    1.88    0.24
   5 -14 -10    2.87    0.34
  -5 -14  10    3.19    0.34
  -5 -14  10    2.84    0.31
  -5  14  10    2.77    0.32
   5  14 -10    2.78    0.27
  -5  14  10    2.48    0.29
   4 -14 -10    0.90    0.21
  -4 -14  10    1.31    0.26
  -4  14  10    1.42    0.26
   3 -14 -10    2.00    0.37
  -3  14  10    2.06    0.33
   3  14 -10    2.16    0.30
   3  14 -10    2.57    0.29
  -2 -14  10    1.39    0.30
   2 -14 -10    0.97    0.23
  -2  14  10    1.31    0.23
  -1 -14  10    1.26    0.22
  -1  14  10    0.93    0.25
   1  14 -10    0.86    0.18
   0  14 -10    4.58    0.43
  -1 -14 -10    0.66    0.18
   1 -14  10    0.51    0.21
  -1  14 -10    0.65    0.18
   2 -14  10   10.02    0.74
  -2  14 -10    9.01    0.73
  -3 -14 -10    3.46    0.35
   3 -14  10    3.49    0.35
   3  14  10    2.87    0.43
  -4 -14 -10    3.82    0.36
   4 -14  10    4.10    0.36
   4  14  10    3.44    0.43
  -4  14 -10    3.92    0.37
   5  14  10    0.82    0.19
  -5 -15  10    1.60    0.24
   5 -15 -10    1.44    0.26
  -5 -15  10    1.63    0.28
   5  15 -10    1.06    0.21
  -4 -15  10    4.10    0.39
   4 -15 -10    4.34    0.39
  -4  15  10    3.41    0.37
  -3 -15  10    7.66    0.64
   3 -15 -10    8.34    0.63
  -3  15  10    7.01    0.60
  -2 -15  10    1.51    0.33
   2 -15 -10    1.99    0.34
  -2  15  10    2.01    0.34
   2  15 -10    2.40    0.29
   1 -15 -10    0.57    0.19
   1  15 -10    0.51    0.16
  -1  15  10    0.61    0.24
   0  15  10    1.14    0.29
   0  15 -10    1.39    0.27
   1 -15  10    1.12    0.21
  -2 -15 -10    3.49    0.35
   2 -15  10    2.83    0.34
  -2  15 -10    3.41    0.34
   3 -15  10    4.59    0.38
  -3 -15 -10    3.97    0.39
   3  15  10    3.94    0.45
   4 -15  10    2.84    0.30
   4  15  10    3.22    0.37
   5 -15  10    1.17    0.21
   5  15  10    1.23    0.25
  -5 -16  10    1.27    0.25
  -5 -16  10    0.97    0.19
   5 -16 -10    1.00    0.21
   4 -16 -10    1.46    0.26
  -4 -16  10    1.57    0.25
   3 -16 -10    2.54    0.33
  -3 -16  10    2.51    0.33
   2 -16 -10    2.12    0.31
   2  16 -10    2.54    0.29
  -2  16  10    2.60    0.35
   1  16 -10    1.60    0.26
  -1  16  10    1.57    0.25
   0  16  10    1.61    0.28
   0  16 -10    2.06    0.28
   1 -16  10    2.11    0.30
  -1 -16 -10    2.43    0.30
  -2 -16 -10    8.52    0.64
   2 -16  10    7.51    0.64
  -2  16 -10    9.18    0.65
   3 -16  10    4.66    0.39
  -3 -16 -10    4.60    0.40
   4 -16  10    3.26    0.28
  -4  16 -10    2.46    0.29
   4 -17 -10    1.30    0.22
  -4 -17  10    0.84    0.20
   3 -17 -10    6.84    0.50
  -3  17  10    5.70    0.50
   2 -17 -10    0.71    0.17
  -2  17  10    0.68    0.19
   1 -17 -10    0.61    0.16
  -1  17  10    0.43    0.20
   1  17 -10    0.51    0.15
   0  17 -10    0.76    0.15
   0  17  10    0.72    0.23
  -1 -17 -10    1.56    0.25
   1 -17  10    1.29    0.27
  -1  17 -10    1.98    0.25
  -2 -17 -10    3.01    0.30
   2 -17  10    2.93    0.30
  -2  17 -10    2.37    0.30
   3 -17  10    7.48    0.62
  -3  17 -10    8.88    0.62
   4 -17  10    0.56    0.12
  -3  18  10    0.65    0.15
   2 -18 -10    0.84    0.15
   1 -18 -10    1.95    0.25
   0  18  10    0.48    0.21
   0  18 -10    0.54    0.14
  -1 -18 -10    3.86    0.36
   1 -18  10    3.56    0.37
  -1  18 -10    4.61    0.35
   2 -18  10    3.18    0.30
  -2  18 -10    2.74    0.29
   3 -18  10    6.10    0.49
  -3  18 -10    6.47    0.49
  -2  19  10    0.57    0.15
   1 -19 -10    0.54    0.13
  -1  19  10    0.24    0.16
   0  19  10    0.97    0.20
   0  19 -10    0.81    0.15
   1 -19  10    0.64    0.15
  -1 -19 -10    0.75    0.15
  -1  19 -10    0.80    0.17
   2 -19  10    1.23    0.21
  -2  19 -10    1.53    0.20
  -1  20  10    0.61    0.15
   0 -20 -10   -0.02    0.11
   0  20  10    0.37    0.16
  -7   0  11    1.56    0.23
  -7   0  11    1.97    0.21
   7   0 -11    1.74    0.25
  -7   0  11    1.67    0.22
  -6   0  11    2.05    0.27
   6   0 -11    2.09    0.29
  -6   0  11    2.03    0.31
  -6   0  11    2.04    0.30
  -6   0  11    1.89    0.26
   5   0 -11    1.80    0.32
  -5   0  11    1.54    0.29
  -5   0  11    1.75    0.32
  -5   0  11    1.60    0.30
   4   0 -11    1.45    0.32
  -4   0  11    2.11    0.32
  -4   0  11    1.46    0.35
  -3   0  11    4.58    0.48
  -3   0  11    4.88    0.47
   3   0 -11    3.95    0.46
  -2   0  11    2.09    0.35
   2   0 -11    1.60    0.35
   1   0 -11    8.12    0.65
  -1   0  11    8.09    0.68
   1   0 -11    7.16    0.62
   0   0 -11   28.21    2.04
   0   0  11   29.63    2.15
   0   0 -11   26.73    1.98
   1   0  11    4.95    0.51
  -1   0 -11    4.43    0.49
  -1   0 -11    4.97    0.44
   2   0  11    4.48    0.48
  -2   0 -11    3.53    0.47
  -2   0 -11    4.08    0.41
  -3   0 -11    0.50    0.18
   3   0  11    0.40    0.23
  -4   0 -11    3.40    0.37
   4   0  11    3.83    0.46
  -5   0 -11    0.46    0.17
   5   0  11    0.43    0.22
  -6   0 -11    1.15    0.22
   6   0  11    0.96    0.21
  -7  -1  11    2.05    0.23
  -7  -1  11    1.70    0.23
   7  -1 -11    2.28    0.26
   7   1 -11    2.01    0.24
  -7   1  11    1.96    0.24
  -7   1  11    1.86    0.25
  -7   1  11    2.33    0.22
  -6  -1  11    3.29    0.35
   6  -1 -11    3.24    0.37
  -6  -1  11    3.23    0.33
  -6  -1  11    3.33    0.37
  -6  -1  11    3.37    0.34
   6   1 -11    3.84    0.35
  -6   1  11    3.34    0.32
  -6   1  11    3.48    0.34
  -6   1  11    3.69    0.36
  -5  -1  11    0.54    0.18
  -5  -1  11    0.41    0.19
  -5  -1  11    0.61    0.17
   5  -1 -11    0.65    0.20
  -4   1  11    3.74    0.41
   4   1 -11    3.19    0.40
  -4   1  11    3.68    0.41
   3  -1 -11    2.05    0.38
  -3  -1  11    2.58    0.39
  -3   1  11    2.38    0.36
   3   1 -11    2.22    0.36
  -3   1  11    2.95    0.38
  -2  -1  11    5.42    0.48
   2  -1 -11    4.41    0.48
   2  -1 -11    4.03    0.44
   2   1 -11    4.06    0.45
  -2   1  11    4.60    0.47
   1  -1 -11   10.45    0.79
   1  -1 -11    9.24    0.76
  -1  -1  11   11.54    0.83
   1   1 -11    8.55    0.76
  -1   1  11   10.35    0.83
   1   1 -11    9.48    0.79
   0  -1 -11   10.25    0.78
   0  -1 -11    9.75    0.74
   0  -1  11   10.14    0.81
   0   1 -11    9.18    0.77
   0   1 -11    8.66    0.74
   0   1  11    9.72    0.82
   1  -1  11    8.42    0.77
  -1  -1 -11    8.27    0.69
  -1  -1 -11    7.55    0.74
  -1   1 -11    9.87    0.69
  -1   1 -11    9.26    0.73
   1   1  11   10.07    0.77
   2  -1  11    6.09    0.60
  -2  -1 -11    4.95    0.60
  -2  -1 -11    5.95    0.52
  -2   1 -11    6.81    0.53
  -2   1 -11    6.38    0.57
   2   1  11    7.34    0.63
  -3  -1 -11    1.79    0.32
   3  -1  11    1.22    0.26
   3   1  11    1.73    0.39
  -3   1 -11    1.57    0.28
  -4  -1 -11    3.16    0.37
   4  -1  11    2.49    0.41
  -4   1 -11    3.61    0.37
   4   1  11    3.19    0.45
  -5  -1 -11    0.83    0.18
   5  -1  11    0.53    0.22
  -5   1 -11    1.13    0.18
   5   1  11    0.93    0.24
   6  -1  11    5.52    0.53
  -6  -1 -11    5.96    0.48
   6   1  11    6.40    0.55
  -6   1 -11    6.24    0.48
  -7  -2  11    2.40    0.27
  -7   2  11    1.52    0.26
  -7   2  11    1.80    0.23
  -7   2  11    1.96    0.21
   7   2 -11    1.76    0.23
  -6  -2  11    5.06    0.37
  -6  -2  11    4.57    0.39
  -6  -2  11    5.22    0.42
  -6   2  11    3.67    0.39
  -6   2  11    3.62    0.36
  -6   2  11    3.96    0.40
   6   2 -11    3.67    0.39
   5  -2 -11    3.09    0.42
  -5  -2  11    3.50    0.41
  -5  -2  11    3.86    0.38
  -5   2  11    3.57    0.36
  -5   2  11    4.20    0.41
   5   2 -11    3.86    0.38
  -5   2  11    4.35    0.43
   4  -2 -11    1.00    0.23
  -4   2  11    0.53    0.19
   4   2 -11    0.66    0.19
  -4   2  11    0.62    0.21
   3  -2 -11    4.72    0.48
  -3   2  11    4.16    0.46
  -3   2  11    4.43    0.45
   3   2 -11    3.69    0.43
  -2   2  11    0.70    0.21
   2   2 -11    0.94    0.20
  -2   2  11    0.81    0.22
   1  -2 -11   12.57    0.96
  -1  -2  11   13.21    1.00
   1  -2 -11   11.86    0.92
   1   2 -11   12.12    0.95
  -1   2  11   12.06    1.00
   0  -2  11   17.94    1.37
   0  -2 -11   16.57    1.31
   0  -2 -11   15.65    1.26
   0   2  11   19.52    1.38
   0   2 -11   18.23    1.30
   0   2 -11   17.58    1.26
   1  -2  11    7.33    0.64
  -1  -2 -11    6.05    0.63
  -1  -2 -11    7.07    0.57
  -1   2 -11    6.98    0.61
  -1   2 -11    6.65    0.56
   1   2  11    7.63    0.65
   2  -2  11    6.22    0.65
  -2  -2 -11    7.00    0.60
   2   2  11    8.44    0.70
  -2   2 -11    7.56    0.58
  -2   2 -11    7.52    0.63
  -3  -2 -11    1.50    0.32
  -3   2 -11    1.27    0.26
  -3   2 -11    0.68    0.22
   3   2  11    1.03    0.27
   4  -2  11    2.48    0.38
  -4  -2 -11    2.60    0.33
   5  -2  11    0.85    0.22
  -5  -2 -11    0.75    0.18
  -5   2 -11    1.33    0.23
   5   2  11    1.03    0.24
  -6  -2 -11    1.41    0.23
  -6   2 -11    1.16    0.22
   6   2  11    1.50    0.30
  -7  -3  11    2.31    0.25
  -7  -3  11    1.71    0.23
   7  -3 -11    2.06    0.27
  -7   3  11    2.01    0.22
  -7   3  11    1.94    0.24
  -7   3  11    2.26    0.26
   7   3 -11    1.93    0.24
  -6  -3  11    3.25    0.34
  -6  -3  11    3.24    0.32
   6  -3 -11    2.83    0.36
  -6  -3  11    3.42    0.32
  -6   3  11    2.57    0.28
  -6   3  11    2.24    0.32
   6   3 -11    2.44    0.30
  -5  -3  11    3.00    0.39
   5   3 -11    3.40    0.34
  -5   3  11    3.19    0.34
  -5   3  11    3.58    0.39
   4   3 -11    3.22    0.35
  -4   3  11    2.93    0.40
  -4   3  11    2.95    0.39
  -4   3  11    2.72    0.35
   3  -3 -11    6.75    0.61
   3  -3 -11    7.12    0.65
  -3  -3  11    8.43    0.65
  -3   3  11    7.20    0.63
  -3   3  11    7.15    0.64
   3   3 -11    7.01    0.60
   2  -3 -11    2.72    0.35
   2  -3 -11    2.72    0.42
  -2   3  11    2.41    0.38
  -2   3  11    2.82    0.39
   2   3 -11    2.91    0.36
  -1  -3  11   11.09    0.89
   1  -3 -11   10.51    0.82
   1  -3 -11   11.10    0.86
  -1   3  11   10.90    0.90
   1   3 -11   10.86    0.84
   0  -3 -11   12.01    0.91
   0  -3 -11   12.30    0.96
   0  -3  11   12.91    0.98
   0   3 -11   11.17    0.91
   0   3  11   12.75    1.01
   0   3 -11   12.51    0.94
  -1  -3 -11    6.61    0.71
   1  -3  11    7.66    0.71
  -1  -3 -11    7.66    0.64
  -1   3 -11    9.05    0.68
   1   3  11    8.94    0.73
  -1   3 -11    8.77    0.64
   2  -3  11    1.75    0.35
  -2  -3 -11    2.32    0.34
  -2   3 -11    1.68    0.29
  -3   3 -11    3.00    0.41
   3   3  11    3.89    0.50
  -3   3 -11    3.80    0.37
   4  -3  11    1.46    0.33
  -4  -3 -11    1.38    0.30
  -4   3 -11    1.83    0.36
  -5  -3 -11    1.09    0.19
   5  -3  11    1.07    0.21
  -6  -3 -11    4.80    0.38
   6   3  11    4.16    0.46
  -6   3 -11    4.17    0.37
   7   4 -11    3.73    0.32
  -7   4  11    3.58    0.34
   6  -4 -11    3.07    0.35
  -6   4  11    2.34    0.26
   6   4 -11    2.27    0.28
  -6   4  11    1.99    0.31
   5  -4 -11    0.98    0.26
  -5  -4  11    1.33    0.22
   5   4 -11    1.78    0.26
  -5   4  11    1.44    0.32
  -5   4  11    1.61    0.26
  -4  -4  11    1.46    0.36
  -4   4  11    2.09    0.33
  -4   4  11    1.92    0.37
  -4   4  11    2.27    0.36
   4   4 -11    2.67    0.31
   3  -4 -11    1.65    0.34
   3  -4 -11    1.29    0.28
  -3   4  11    1.51    0.34
  -3   4  11    2.02    0.35
   2  -4 -11    1.45    0.32
   2  -4 -11    1.52    0.27
  -2   4  11    0.83    0.23
  -2   4  11    1.17    0.23
   2   4 -11    1.90    0.31
   1  -4 -11   20.10    1.46
   1  -4 -11   19.72    1.41
  -1  -4  11   21.62    1.52
  -1   4  11   18.86    1.52
   1   4 -11   18.11    1.44
   0  -4 -11    6.40    0.55
   0  -4  11    6.79    0.59
   0  -4 -11    6.36    0.62
   0   4  11    6.71    0.63
   0   4 -11    6.89    0.58
   1  -4  11    8.14    0.68
  -1  -4 -11    8.14    0.64
   1   4  11    8.22    0.73
  -1   4 -11    7.79    0.65
  -1   4 -11    6.78    0.61
   2  -4  11    2.66    0.38
  -2  -4 -11    3.00    0.38
   2   4  11    3.28    0.49
  -2   4 -11    2.60    0.32
  -2   4 -11    3.00    0.38
   3  -4  11    2.86    0.39
  -3  -4 -11    3.97    0.40
   3   4  11    3.85    0.47
  -3   4 -11    3.10    0.35
  -3   4 -11    2.67    0.39
  -4  -4 -11    6.78    0.51
   4  -4  11    5.83    0.53
   4   4  11    5.47    0.61
  -4   4 -11    5.62    0.48
  -4   4 -11    5.62    0.53
   5  -4  11    3.07    0.36
  -5   4 -11    3.07    0.31
   5   4  11    3.49    0.44
  -6  -4 -11    2.99    0.29
  -6   4 -11    3.14    0.40
  -6   4 -11    3.00    0.28
   6   4  11    2.77    0.39
  -7  -5  11    1.91    0.23
  -7  -5  11    2.43    0.24
   7  -5 -11    2.18    0.27
  -7   5  11    2.02    0.27
  -7   5  11    1.75    0.24
  -7   5  11    1.75    0.21
   7   5 -11    1.47    0.24
   6  -5 -11    0.93    0.23
  -6  -5  11    1.41    0.26
  -6   5  11    0.93    0.20
  -6   5  11    0.79    0.19
   6   5 -11    1.28    0.22
   5  -5 -11    1.59    0.37
  -5   5  11    1.35    0.32
  -5   5  11    1.77    0.26
   5   5 -11    2.00    0.28
   4  -5 -11    2.62    0.40
  -4  -5  11    3.12    0.40
   4  -5 -11    2.11    0.34
   4   5 -11    3.17    0.34
  -4   5  11    2.88    0.39
  -4   5  11    3.00    0.35
   3  -5 -11    4.02    0.48
  -3  -5  11    4.87    0.50
   3  -5 -11    3.99    0.53
  -3   5  11    5.18    0.50
   3   5 -11    5.63    0.46
  -3   5  11    5.09    0.49
   2  -5 -11    1.41    0.23
   2  -5 -11    1.24    0.28
  -2   5  11    1.05    0.24
  -2   5  11    0.96    0.23
   2   5 -11    1.41    0.31
  -1  -5  11    7.32    0.66
   1  -5 -11    6.92    0.60
   1  -5 -11    7.24    0.66
  -1   5  11    8.12    0.67
   0  -5  11    5.90    0.53
   0  -5 -11    6.22    0.51
   0  -5 -11    5.65    0.58
   0   5  11    4.89    0.58
   0   5 -11    5.35    0.52
   1  -5  11    3.59    0.41
  -1  -5 -11    3.93    0.40
  -1   5 -11    3.69    0.41
   1   5  11    3.74    0.50
  -1   5 -11    2.80    0.37
   2   5  11    2.91    0.45
  -2   5 -11    2.09    0.30
  -2   5 -11    2.30    0.35
  -3  -5 -11    1.75    0.35
  -3   5 -11    1.57    0.33
  -3   5 -11    1.85    0.28
  -4   5 -11    1.47    0.25
  -4   5 -11    1.19    0.22
   4   5  11    1.10    0.28
  -5  -5 -11    2.90    0.33
  -5   5 -11    3.49    0.31
   5   5  11    3.26    0.46
  -6  -5 -11    2.39    0.27
   6   5  11    2.52    0.36
  -6   5 -11    2.71    0.26
   6  -6 -11    1.41    0.31
  -6   6  11    0.93    0.19
   6   6 -11    1.27    0.22
  -6   6  11    1.16    0.21
  -5  -6  11    0.94    0.20
  -5   6  11    1.11    0.17
   5   6 -11    1.35    0.24
   4  -6 -11    1.55    0.31
   4  -6 -11    2.12    0.37
  -4  -6  11    2.10    0.34
   3  -6 -11    1.35    0.29
   3  -6 -11    1.88    0.35
  -3   6  11    1.47    0.25
  -3   6  11    0.98    0.23
   2  -6 -11    1.15    0.28
   2  -6 -11    1.37    0.23
  -2   6  11    0.61    0.22
   2   6 -11    0.96    0.20
  -1  -6  11   11.55    0.84
   1  -6 -11   10.14    0.84
   1  -6 -11   10.32    0.80
  -1   6  11    9.11    0.85
   1   6 -11   10.10    0.80
   0  -6 -11    2.99    0.39
   0  -6  11    3.09    0.39
   0   6 -11    3.20    0.39
   0   6  11    3.14    0.46
   1  -6  11    8.12    0.65
  -1  -6 -11    8.76    0.64
  -1   6 -11    7.46    0.65
   1   6  11    6.70    0.73
   2  -6  11    0.70    0.19
  -2   6 -11    0.56    0.18
  -2   6 -11    0.45    0.18
   2   6  11    0.54    0.27
  -3   6 -11    1.62    0.33
   3   6  11    2.19    0.44
  -3   6 -11    1.50    0.28
  -4   6 -11    1.21    0.24
  -4   6 -11    1.42    0.30
   4   6  11    1.22    0.28
   5  -6  11    1.26    0.27
  -5  -6 -11    0.78    0.18
   5   6  11    1.03    0.26
  -5   6 -11    1.05    0.22
  -5   6 -11    1.10    0.21
  -5   6 -11    1.86    0.38
  -6  -6 -11    3.78    0.34
   6  -6  11    4.24    0.41
  -6   6 -11    4.19    0.43
  -6   6 -11    4.00    0.34
   6   6  11    3.89    0.44
   6  -7 -11    1.57    0.30
  -6   7  11    0.80    0.19
  -6   7  11    1.43    0.20
   6   7 -11    0.91    0.19
  -5  -7  11    2.97    0.35
   5  -7 -11    3.07    0.39
  -5   7  11    2.96    0.32
   5   7 -11    3.02    0.31
   4  -7 -11    0.44    0.22
   4  -7 -11    0.02    0.26
  -4  -7  11    0.34    0.19
  -4   7  11    0.35    0.20
   4   7 -11    0.62    0.16
  -4   7  11    0.33    0.17
   3  -7 -11    4.40    0.50
  -3  -7  11    4.91    0.51
   3  -7 -11    4.14    0.56
  -3   7  11    6.16    0.47
  -3   7  11    5.06    0.50
  -2  -7  11    2.53    0.35
   2  -7 -11    1.81    0.35
   2  -7 -11    1.82    0.32
   2   7 -11    1.80    0.32
   1  -7 -11    4.22    0.44
  -1  -7  11    4.34    0.44
   1  -7 -11    4.13    0.51
   0  -7 -11    3.81    0.42
   0  -7  11    3.91    0.41
   0   7 -11    4.19    0.42
   0   7  11    3.76    0.49
   1  -7  11    2.67    0.36
  -1   7 -11    3.01    0.36
   1   7  11    2.43    0.47
  -2  -7 -11    1.89    0.33
  -2   7 -11    1.71    0.32
  -2   7 -11    1.63    0.31
   2   7  11    1.98    0.45
  -3  -7 -11    4.87    0.45
   3   7  11    4.47    0.55
  -3   7 -11    4.33    0.43
  -3   7 -11    4.08    0.40
  -4   7 -11    2.02    0.29
   4   7  11    1.73    0.31
  -4   7 -11    1.63    0.25
  -5  -7 -11    3.57    0.35
   5  -7  11    4.19    0.43
  -5   7 -11    3.78    0.44
   5   7  11    3.11    0.47
  -5   7 -11    3.44    0.33
  -5   7 -11    3.85    0.38
   6  -7  11    1.31    0.29
  -6   7 -11    0.74    0.21
  -6   7 -11    0.68    0.13
   6   7  11    0.59    0.20
  -6  -8  11    1.76    0.27
  -6  -8  11    1.58    0.23
   6  -8 -11    1.12    0.23
   5  -8 -11    0.61    0.21
   5  -8 -11    0.18    0.24
  -5  -8  11    0.49    0.17
  -5   8  11    0.64    0.19
   4  -8 -11    1.19    0.28
  -4  -8  11    1.10    0.22
   4  -8 -11    1.08    0.24
  -4   8  11    0.99    0.22
   4   8 -11    1.41    0.25
  -4   8  11    1.25    0.26
   3  -8 -11    2.40    0.45
  -3  -8  11    2.12    0.36
   3  -8 -11    2.48    0.38
   3   8 -11    1.68    0.30
  -3   8  11    1.53    0.32
   2  -8 -11    3.27    0.43
   2  -8 -11    3.58    0.49
  -2  -8  11    3.31    0.41
   2   8 -11    3.11    0.37
   1  -8 -11    3.28    0.43
  -1  -8  11    3.59    0.41
   1   8 -11    3.83    0.39
  -1   8  11    3.00    0.44
   0  -8 -11    5.80    0.52
   0  -8  11    5.64    0.52
   0   8 -11    5.30    0.51
   1  -8  11    9.76    0.73
  -1   8 -11    8.31    0.71
   1   8  11    8.30    0.79
  -2  -8 -11    3.29    0.38
   2  -8  11    1.82    0.34
  -2   8 -11    2.51    0.33
   2   8  11    2.83    0.47
  -3  -8 -11    6.46    0.50
   3   8  11    5.43    0.61
  -3   8 -11    5.43    0.50
  -3   8 -11    5.40    0.48
   4   8  11    1.80    0.30
  -4   8 -11    2.07    0.29
  -4   8 -11    1.57    0.25
   5  -8  11    1.56    0.32
  -5  -8 -11    0.99    0.18
  -5   8 -11    1.35    0.26
   5   8  11    0.95    0.25
  -5   8 -11    1.37    0.22
   6  -8  11    2.23    0.29
  -6  -8 -11    1.82    0.22
   6   8  11    1.80    0.32
  -6   8 -11    2.46    0.31
  -6   8 -11    1.67    0.21
   6  -9 -11    2.97    0.35
  -6  -9  11    3.05    0.31
  -6  -9  11    2.73    0.28
  -6   9  11    2.06    0.25
  -5   9  11    0.42    0.18
  -5   9  11    0.76    0.15
   5   9 -11    0.74    0.15
   4  -9 -11    2.53    0.42
  -4  -9  11    2.57    0.32
   4  -9 -11    2.37    0.36
  -4   9  11    1.78    0.29
  -4   9  11    1.66    0.34
   4   9 -11    2.42    0.28
  -3  -9  11    2.07    0.34
   3  -9 -11    2.62    0.40
   3  -9 -11    2.72    0.44
   2  -9 -11    6.14    0.59
  -2  -9  11    5.66    0.53
   2  -9 -11    5.27    0.53
   2   9 -11    5.03    0.47
  -1  -9  11    2.87    0.38
   1  -9 -11    2.88    0.42
  -1   9  11    2.99    0.42
   1   9 -11    3.89    0.38
   0  -9  11    7.86    0.72
   0  -9 -11    8.58    0.69
   0   9  11    8.39    0.76
   0   9 -11    9.86    0.70
  -1  -9 -11    4.34    0.46
   1  -9  11    3.68    0.44
  -1   9 -11    5.14    0.44
   1   9  11    4.71    0.51
  -2  -9 -11    2.85    0.40
   2   9  11    3.39    0.47
  -2   9 -11    3.65    0.38
  -3  -9 -11    6.58    0.60
   3   9  11    7.80    0.69
  -3   9 -11    8.56    0.62
  -3   9 -11    7.48    0.61
  -4  -9 -11    2.10    0.29
   4   9  11    1.32    0.29
  -4   9 -11    2.37    0.27
  -4   9 -11    2.03    0.38
  -4   9 -11    1.48    0.26
  -5   9 -11    2.49    0.30
  -5   9 -11    2.41    0.26
  -5   9 -11    3.10    0.38
   5   9  11    2.16    0.37
  -6 -10  11    1.25    0.20
   6 -10 -11    1.03    0.19
   6 -10 -11    1.65    0.27
  -6  10  11    1.00    0.22
  -6  10  11    1.19    0.19
   5 -10 -11    0.44    0.20
   5 -10 -11    0.76    0.22
  -5 -10  11    0.72    0.16
   5  10 -11    0.77    0.16
  -5  10  11    0.68    0.18
  -5  10  11    0.72    0.15
  -4 -10  11    1.77    0.30
   4 -10 -11    1.62    0.36
   4  10 -11    2.46    0.26
  -4  10  11    1.72    0.31
  -4  10  11    2.12    0.28
   3  10 -11    1.50    0.25
  -3  10  11    1.04    0.20
   2 -10 -11    6.51    0.62
  -2 -10  11    7.24    0.61
   2  10 -11    7.10    0.57
   1 -10 -11    4.18    0.45
  -1 -10  11    3.67    0.41
   0 -10  11   11.77    0.91
   0 -10 -11   12.08    0.88
   0  10  11   10.42    0.94
   0  10 -11   11.71    0.87
   1 -10  11    2.86    0.37
  -1 -10 -11    3.92    0.41
   1  10  11    3.38    0.44
  -1  10 -11    3.15    0.37
  -2 -10 -11    7.74    0.61
  -2  10 -11    6.91    0.59
   2  10  11    7.27    0.68
  -3 -10 -11    3.60    0.37
  -3  10 -11    3.72    0.36
   3  10  11    3.11    0.46
   4 -10  11    4.59    0.43
  -4 -10 -11    4.91    0.38
  -4  10 -11    3.93    0.46
  -4  10 -11    4.56    0.39
  -4  10 -11    3.58    0.38
   4  10  11    3.54    0.48
  -5 -10 -11    0.91    0.16
   5 -10  11    0.87    0.19
   5  10  11    0.95    0.22
  -5  10 -11    1.41    0.31
  -5  10 -11    1.24    0.21
  -5 -11  11    1.26    0.22
   5 -11 -11    0.83    0.20
  -4 -11  11    5.21    0.43
   4 -11 -11    4.11    0.47
  -4  11  11    4.70    0.41
  -4  11  11    4.76    0.43
   4  11 -11    4.91    0.40
  -3 -11  11    1.43    0.29
   3 -11 -11    1.25    0.24
   3  11 -11    1.11    0.25
   2 -11 -11   10.04    0.80
  -2 -11  11    9.15    0.82
  -2  11  11   11.46    0.80
  -1 -11  11    3.97    0.40
   1 -11 -11    3.72    0.44
   1  11 -11    3.76    0.39
   0 -11 -11    6.68    0.56
   0 -11  11    5.87    0.54
   0  11 -11    6.98    0.53
   0  11  11    5.38    0.59
  -1 -11 -11    3.22    0.41
  -1  11 -11    4.17    0.38
   1  11  11    3.88    0.46
  -2 -11 -11    4.98    0.45
   2  11  11    4.13    0.50
  -2  11 -11    4.74    0.43
  -3 -11 -11    5.12    0.47
   3  11  11    5.22    0.54
  -3  11 -11    6.07    0.47
  -4 -11 -11    0.75    0.16
   4 -11  11    0.86    0.19
   4  11  11    0.52    0.21
  -5 -11 -11    0.40    0.13
   5 -11  11    0.53    0.16
  -5  11 -11    0.48    0.14
   5  11  11    0.07    0.18
  -5 -12  11    0.45    0.14
   5 -12 -11    0.33    0.17
  -5  12  11    0.59    0.14
  -5  12  11    0.52    0.15
   4 -12 -11    1.38    0.30
  -4 -12  11    1.78    0.27
  -4  12  11    1.27    0.27
   4  12 -11    1.85    0.24
  -4  12  11    1.72    0.25
   3 -12 -11    5.01    0.46
  -3 -12  11    4.88    0.43
   3  12 -11    3.97    0.39
  -2 -12  11    7.21    0.58
   2 -12 -11    6.97    0.59
  -2  12  11    5.59    0.57
   2  12 -11    6.97    0.54
  -1 -12  11    3.42    0.36
   1  12 -11    2.71    0.33
   0 -12 -11    9.84    0.75
   0 -12  11    9.51    0.79
   0  12 -11    9.87    0.75
  -1 -12 -11    1.49    0.30
   1  12  11    1.34    0.25
  -1  12 -11    1.70    0.29
   2  12  11    5.86    0.57
  -2  12 -11    6.45    0.52
  -3 -12 -11    1.99    0.29
  -3  12 -11    2.83    0.30
  -4 -12 -11    1.75    0.23
   4 -12  11    1.48    0.28
   4  12  11    2.19    0.30
  -5 -12 -11    0.27    0.14
   5 -12  11    0.28    0.14
  -5  12 -11    0.47    0.13
   5  12  11   -0.05    0.16
   5 -13 -11    0.88    0.16
   4 -13 -11   10.91    0.78
  -4 -13  11   10.86    0.81
  -4  13  11    9.27    0.74
  -3 -13  11    0.85    0.17
  -3  13  11    0.62    0.18
  -2 -13  11    7.23    0.69
   2 -13 -11    9.12    0.68
  -2  13  11    8.26    0.68
   2  13 -11    9.71    0.66
   1 -13 -11    4.51    0.44
  -1 -13  11    4.26    0.42
   0 -13 -11    3.61    0.41
   0  13 -11    4.19    0.38
  -1 -13 -11    2.41    0.32
  -1  13 -11    3.19    0.33
  -2 -13 -11    0.94    0.18
   2  13  11    0.50    0.20
  -3 -13 -11    2.52    0.28
  -3  13 -11    2.34    0.28
   4  13  11    0.80    0.17
   4 -14 -11    1.42    0.25
  -4 -14  11    1.46    0.23
   3 -14 -11    4.07    0.38
  -3 -14  11    3.67    0.37
   3  14 -11    4.38    0.35
  -3  14  11    3.17    0.36
  -2 -14  11    4.09    0.41
   2 -14 -11    4.69    0.41
   2  14 -11    4.52    0.39
  -1 -14  11    3.21    0.37
   1 -14 -11    3.56    0.37
   0 -14 -11    5.77    0.48
   0  14 -11    5.27    0.46
  -1 -14 -11    2.34    0.28
  -1  14 -11    1.65    0.26
  -2 -14 -11    3.36    0.36
  -2  14 -11    4.65    0.37
  -3 -14 -11    0.90    0.16
   3 -14  11    0.61    0.17
   4 -14  11    1.78    0.24
   4  14  11    1.87    0.25
   3 -15 -11    3.46    0.34
  -3 -15  11    3.59    0.34
  -2 -15  11    3.23    0.36
   2 -15 -11    3.48    0.35
  -2  15  11    3.57    0.37
   2  15 -11    4.05    0.32
   1 -15 -11    1.52    0.26
   1  15 -11    1.69    0.22
   0  15 -11    4.54    0.39
  -1 -15 -11    2.19    0.26
  -1  15 -11    1.99    0.26
  -2  15 -11    2.25    0.26
   3 -15  11    5.18    0.44
  -3 -15 -11    5.25    0.40
  -3  15 -11    4.94    0.41
   3 -16 -11    2.26    0.25
  -3  16  11    2.15    0.25
   1 -16 -11    2.81    0.28
   1  16 -11    2.35    0.26
   0 -16 -11    0.41    0.14
   0  16 -11    0.44    0.13
  -1 -16 -11    3.51    0.35
  -1  16 -11    4.74    0.35
  -2 -16 -11    2.23    0.23
   1  17 -11    2.34    0.24
   0 -17 -11    0.31    0.12
  -1 -17 -11    1.27    0.20
  -1  17 -11    1.71    0.20
   5   0 -12    1.64    0.27
  -5   0  12    1.59    0.26
  -4   0  12    0.91    0.20
   4   0 -12    1.50    0.30
   3   0 -12    2.16    0.35
  -3   0  12    2.53    0.33
   2   0 -12    0.56    0.21
  -2   0  12    0.57    0.20
   1   0 -12    1.51    0.33
   1   0 -12    0.84    0.20
   0   0 -12    5.24    0.48
   0   0 -12    6.20    0.53
  -1   0 -12    1.17    0.24
  -1   0 -12    1.45    0.27
  -2   0 -12    3.17    0.34
  -2   0 -12    2.72    0.41
   2   0  12    3.57    0.41
  -3   0 -12    1.28    0.27
   3   0  12    1.59    0.32
   4   0  12    2.92    0.37
  -4   0 -12    2.56    0.30
   5   0  12    0.42    0.17
  -5  -1  12    2.67    0.33
   5  -1 -12    2.60    0.34
  -5   1  12    3.54    0.35
   5   1 -12    3.82    0.33
   4  -1 -12    5.87    0.50
  -4  -1  12    6.17    0.50
   4   1 -12    5.20    0.48
  -4   1  12    4.74    0.50
  -3  -1  12    2.00    0.35
   3  -1 -12    2.03    0.34
  -3   1  12    2.46    0.34
   3   1 -12    2.64    0.34
   2  -1 -12    1.56    0.36
  -2  -1  12    2.04    0.36
   2   1 -12    2.67    0.34
  -2   1  12    2.36    0.36
   1  -1 -12    1.57    0.34
   1  -1 -12    1.03    0.21
   1   1 -12    1.74    0.33
   0  -1 -12    6.42    0.55
   0  -1  12    7.78    0.61
   0  -1 -12    7.22    0.60
   0   1  12    7.28    0.63
   0   1 -12    5.78    0.55
   0   1 -12    6.75    0.59
  -1  -1 -12    2.53    0.31
  -1  -1 -12    2.21    0.38
  -1   1 -12    1.70    0.29
  -1   1 -12    2.08    0.36
  -2  -1 -12    1.22    0.26
  -2   1 -12    1.53    0.26
  -2   1 -12    1.17    0.23
  -3  -1 -12    2.90    0.31
   3  -1  12    3.10    0.38
   3   1  12    3.04    0.42
  -3   1 -12    2.24    0.31
  -4  -1 -12    1.15    0.24
   4   1  12    1.90    0.31
  -4   1 -12    1.67    0.24
  -5  -1 -12    1.99    0.24
  -5   1 -12    2.20    0.23
   5   1  12    2.05    0.29
  -5  -2  12    4.18    0.40
   5  -2 -12    4.19    0.41
  -5   2  12    4.37    0.44
   5   2 -12    4.01    0.38
  -4  -2  12    1.74    0.29
   4  -2 -12    2.14    0.32
   4   2 -12    1.49    0.29
   3  -2 -12    0.71    0.22
  -3  -2  12    0.63    0.20
   2  -2 -12    1.74    0.32
   2  -2 -12    2.13    0.36
   2   2 -12    2.54    0.34
  -2   2  12    1.81    0.32
   1  -2 -12    4.95    0.46
   1  -2 -12    4.27    0.41
  -1   2  12    4.04    0.45
   1   2 -12    3.72    0.43
   0  -2 -12    6.23    0.57
   0  -2  12    7.14    0.59
   0  -2 -12    5.74    0.52
   0   2  12    6.40    0.58
   0   2 -12    5.76    0.55
  -1  -2 -12    2.07    0.41
  -1  -2 -12    3.00    0.34
   1  -2  12    3.00    0.39
   1   2  12    3.11    0.44
  -1   2 -12    2.18    0.37
  -2  -2 -12    2.75    0.33
   2  -2  12    2.25    0.35
   2   2  12    2.37    0.43
  -3  -2 -12    2.26    0.30
   3  -2  12    1.81    0.33
   3   2  12    1.87    0.40
   4  -2  12    3.27    0.38
  -4  -2 -12    3.74    0.34
  -4   2 -12    3.42    0.32
   4   2  12    3.94    0.43
   5  -2  12    0.78    0.16
   5   2  12    0.43    0.19
  -5   2 -12    0.55    0.13
   5  -3 -12    1.04    0.21
  -5  -3  12    1.40    0.24
  -4  -3  12    1.82    0.29
   4  -3 -12    1.78    0.34
   3  -3 -12    2.82    0.39
  -3  -3  12    3.26    0.36
   3   3 -12    2.51    0.35
   2  -3 -12    2.08    0.40
  -2  -3  12    2.63    0.40
   2   3 -12    3.13    0.35
  -2   3  12    3.13    0.37
   1  -3 -12    3.64    0.40
  -1  -3  12    4.06    0.45
   1  -3 -12    3.86    0.45
   1   3 -12    4.35    0.43
  -1   3  12    3.92    0.45
   0  -3 -12    5.31    0.55
   0  -3  12    5.76    0.53
   0  -3 -12    5.80    0.50
   0   3 -12    6.03    0.51
   0   3  12    6.06    0.57
   1  -3  12    4.43    0.47
  -1  -3 -12    4.57    0.44
   1   3  12    5.55    0.50
  -1   3 -12    3.97    0.40
  -1   3 -12    4.62    0.45
   2  -3  12    0.68    0.19
  -2   3 -12    0.46    0.19
  -3   3 -12    1.35    0.31
  -3   3 -12    1.36    0.23
  -4  -3 -12    0.80    0.16
   4  -3  12    0.60    0.18
  -4   3 -12    0.67    0.15
   4   3  12    0.92    0.23
  -5  -3 -12    1.67    0.23
   5   3  12    1.95    0.30
  -5   3 -12    1.63    0.20
   5  -4 -12    2.29    0.33
  -5  -4  12    2.27    0.27
   5   4 -12    2.09    0.26
  -4  -4  12    1.86    0.28
   4  -4 -12    1.52    0.34
   3  -4 -12    2.55    0.34
  -3  -4  12    3.01    0.36
   3  -4 -12    3.47    0.40
   3   4 -12    3.01    0.35
  -3   4  12    2.22    0.35
   2  -4 -12    1.74    0.30
  -2  -4  12    2.34    0.35
   2  -4 -12    2.04    0.38
   2   4 -12    1.85    0.33
  -1  -4  12    3.46    0.39
   1  -4 -12    3.05    0.36
   1  -4 -12    3.24    0.42
   1   4 -12    3.39    0.38
  -1   4  12    3.17    0.41
   0  -4 -12    3.41    0.47
   0  -4 -12    4.16    0.41
   0  -4  12    4.86    0.45
   0   4 -12    4.55    0.44
   0   4  12    3.99    0.48
   1  -4  12    3.05    0.37
  -1  -4 -12    2.42    0.33
  -1   4 -12    2.68    0.31
   2  -4  12    1.31    0.28
  -2  -4 -12    1.76    0.31
  -2   4 -12    1.09    0.24
  -2   4 -12    1.05    0.21
  -3  -4 -12    2.88    0.36
  -3   4 -12    3.19    0.32
  -3   4 -12    3.75    0.37
  -4  -4 -12    1.47    0.24
   4  -4  12    1.12    0.19
  -4   4 -12    1.52    0.22
  -5  -4 -12    2.39    0.24
   5   4  12    2.24    0.32
  -5   4 -12    1.97    0.23
   5   5 -12    1.16    0.21
  -5   5  12    0.80    0.18
   4  -5 -12    2.34    0.38
  -4  -5  12    2.09    0.31
   3  -5 -12    3.40    0.43
  -3  -5  12    3.84    0.40
   3  -5 -12    3.03    0.37
   2  -5 -12    0.56    0.19
   2  -5 -12    0.42    0.24
  -2   5  12    0.79    0.20
  -1  -5  12    3.31    0.38
   1  -5 -12    3.39    0.43
   1  -5 -12    3.19    0.38
   1   5 -12    3.41    0.38
  -1   5  12    2.79    0.39
   0  -5 -12    4.03    0.39
   0  -5  12    4.15    0.42
   0   5 -12    2.86    0.39
  -1  -5 -12    2.84    0.35
   1  -5  12    2.51    0.37
   1   5  12    3.66    0.42
  -1   5 -12    3.54    0.37
   2  -5  12    0.95    0.19
  -2   5 -12    0.59    0.17
  -2   5 -12    0.71    0.19
  -3  -5 -12    1.53    0.28
  -3   5 -12    1.06    0.22
  -3   5 -12    0.90    0.19
   4  -5  12    0.55    0.16
  -4   5 -12    0.33    0.13
   4   5  12    0.42    0.22
  -4   5 -12    0.44    0.18
  -5  -5 -12    1.42    0.21
  -5   5 -12    1.41    0.19
   5   5  12    1.16    0.28
  -5   6  12    0.89    0.18
   5   6 -12    1.51    0.20
  -5   6  12    1.17    0.23
  -4  -6  12    0.47    0.15
   4  -6 -12    0.37    0.22
   4  -6 -12    0.25    0.18
  -4   6  12    0.80    0.19
   3  -6 -12    0.90    0.20
   3  -6 -12    0.71    0.23
  -3  -6  12    1.29    0.29
   3   6 -12    0.61    0.17
  -2  -6  12    1.84    0.31
   2  -6 -12    1.63    0.32
   2  -6 -12    1.62    0.28
   1  -6 -12    3.04    0.38
  -1  -6  12    2.99    0.37
   1  -6 -12    2.83    0.44
  -1   6  12    3.29    0.39
   1   6 -12    3.89    0.37
   0  -6  12    1.34    0.29
   0  -6 -12    1.89    0.30
   0   6  12    1.19    0.24
  -1  -6 -12    1.74    0.31
   1  -6  12    1.89    0.30
   1   6  12    2.18    0.36
  -2  -6 -12    0.68    0.18
   2  -6  12    0.37    0.17
  -2   6 -12    0.32    0.17
   2   6  12    0.48    0.24
  -2   6 -12    0.40    0.17
  -3   6 -12    5.09    0.44
   3   6  12    5.35    0.51
  -3   6 -12    4.35    0.40
  -4   6 -12    0.49    0.13
   4   6  12    0.55    0.22
  -4   6 -12    0.70    0.17
  -5   7  12    0.51    0.16
   5   7 -12    1.07    0.18
  -5   7  12    0.71    0.15
   4  -7 -12    0.46    0.22
   4  -7 -12    0.44    0.19
  -4  -7  12    0.57    0.16
   4   7 -12    0.63    0.14
  -3  -7  12    3.72    0.38
   3  -7 -12    3.29    0.38
   3  -7 -12    3.48    0.42
   2  -7 -12    0.27    0.19
   2  -7 -12   -0.01    0.23
  -2  -7  12    0.45    0.18
   2   7 -12    0.38    0.16
  -1  -7  12    2.08    0.32
   1  -7 -12    2.19    0.34
  -1   7  12    1.77    0.33
   0  -7 -12    0.52    0.19
   0  -7  12    0.60    0.18
   0   7  12    0.37    0.20
   0   7 -12    0.30    0.18
  -1  -7 -12    0.95    0.20
   1  -7  12    0.62    0.18
   1   7  12    0.33    0.22
  -1   7 -12    0.60    0.18
  -2  -7 -12    1.53    0.31
   2   7  12    2.01    0.38
  -2   7 -12    1.59    0.30
  -3  -7 -12    2.12    0.30
   3   7  12    2.48    0.37
  -3   7 -12    2.25    0.29
  -3   7 -12    1.75    0.25
  -4   7 -12    2.43    0.29
   4   7  12    1.59    0.35
  -4   7 -12    2.34    0.24
  -4  -8  12    0.50    0.15
   4  -8 -12    0.58    0.21
   4  -8 -12    0.32    0.18
  -3  -8  12    0.77    0.18
   3  -8 -12    1.12    0.23
   3  -8 -12    0.52    0.20
   3   8 -12    1.01    0.22
   2  -8 -12    0.47    0.20
  -2  -8  12    0.91    0.18
   2  -8 -12    0.31    0.24
   2   8 -12    0.68    0.17
   1  -8 -12    1.40    0.31
  -1  -8  12    1.47    0.29
  -1   8  12    1.56    0.31
   0  -8  12    0.66    0.17
   0   8  12    0.27    0.20
   0   8 -12    0.55    0.17
   1   8  12    1.30    0.24
  -1   8 -12    1.80    0.29
   2  -8  12    1.81    0.26
  -2   8 -12    1.36    0.27
   3   8  12    2.97    0.39
  -3   8 -12    2.78    0.31
  -4  -8 -12    1.75    0.23
  -4   8 -12    1.72    0.26
   4   8  12    1.42    0.32
  -4   8 -12    1.61    0.22
   4  -9 -12    0.73    0.21
  -4  -9  12    0.88    0.21
   4   9 -12    0.91    0.19
   3  -9 -12    1.36    0.23
   3  -9 -12    1.66    0.33
  -3  -9  12    1.61    0.25
   2  -9 -12    0.38    0.19
   1  -9 -12    1.43    0.30
  -1  -9  12    1.70    0.27
  -1   9  12    1.29    0.25
   1   9 -12    1.85    0.28
   0  -9 -12    4.21    0.42
   0  -9  12    3.74    0.39
   0   9 -12    4.85    0.39
   0   9  12    3.85    0.42
   1  -9  12    0.78    0.17
  -1  -9 -12    1.35    0.28
   1   9  12    0.84    0.21
  -2  -9 -12    1.76    0.30
   2   9  12    2.34    0.35
  -2   9 -12    2.49    0.28
  -3  -9 -12    0.82    0.17
   3   9  12    1.38    0.29
   4   9  12    1.69    0.29
  -4   9 -12    2.03    0.25
   4 -10 -12    0.63    0.19
  -4 -10  12    0.69    0.14
   4  10 -12    0.88    0.18
   3 -10 -12    1.95    0.31
  -3 -10  12    2.64    0.29
   3  10 -12    2.61    0.26
  -2 -10  12    1.10    0.24
   2 -10 -12    1.07    0.21
   2  10 -12    1.14    0.22
  -1 -10  12    2.01    0.28
   1 -10 -12    2.04    0.33
   1  10 -12    1.81    0.26
   0 -10  12    2.08    0.27
   0 -10 -12    2.18    0.31
   0  10 -12    1.54    0.28
  -1 -10 -12    4.64    0.38
   1 -10  12    3.73    0.37
  -1  10 -12    3.78    0.36
   1  10  12    3.20    0.39
  -2 -10 -12    3.99    0.36
  -2  10 -12    3.39    0.35
  -3 -10 -12    1.97    0.24
  -3  10 -12    1.56    0.23
   3  10  12    1.19    0.28
   3 -11 -12    1.24    0.20
  -3 -11  12    1.47    0.23
   3  11 -12    1.51    0.21
   2 -11 -12    4.28    0.42
  -2 -11  12    4.48    0.40
   2  11 -12    5.03    0.39
  -1 -11  12    2.27    0.28
   1 -11 -12    2.36    0.32
   1  11 -12    3.12    0.29
   0 -11  12    3.44    0.37
   0 -11 -12    4.44    0.40
   0  11 -12    4.24    0.37
  -1 -11 -12    0.67    0.17
   1  11  12    0.57    0.17
  -2 -11 -12    3.10    0.30
  -2  11 -12    2.68    0.29
  -3  11 -12    3.56    0.31
   3  11  12    2.89    0.35
   3 -12 -12    5.05    0.43
  -3 -12  12    4.97    0.42
   3  12 -12    5.05    0.40
   2 -12 -12    1.63    0.27
  -2 -12  12    1.54    0.23
   2  12 -12    1.85    0.23
  -1 -12  12    4.86    0.40
   1  12 -12    4.25    0.39
   0 -12 -12    1.93    0.28
   0 -12  12    1.80    0.28
   0  12 -12    2.18    0.25
  -1 -12 -12    2.01    0.27
  -1  12 -12    2.37    0.26
  -2 -12 -12    3.31    0.30
  -2  12 -12    3.00    0.30
   2 -13 -12    5.47    0.42
  -2 -13  12    4.67    0.42
   2  13 -12    4.76    0.40
   1 -13 -12    2.10    0.27
  -1 -13  12    2.29    0.27
   0 -13 -12    2.24    0.26
   0  13 -12    1.83    0.24
  -1  13 -12    2.22    0.25
   0 -14 -12    1.51    0.23
   0  14 -12    2.25    0.22
   3   0 -13    1.18    0.27
  -3   0  13    0.96    0.23
   2   0 -13    0.81    0.20
  -2   0  13    0.63    0.17
   1   0 -13    2.19    0.32
  -1   0  13    2.37    0.33
   0   0 -13    2.08    0.27
   0   0 -13    3.01    0.34
  -1   0 -13    1.20    0.23
  -1   0 -13    1.65    0.32
  -2   0 -13    0.50    0.14
   3   0  13    0.09    0.15
  -3   0 -13    0.18    0.12
   3  -1 -13    1.02    0.20
  -3  -1  13    0.65    0.17
  -3   1  13    1.04    0.22
   2  -1 -13    0.94    0.22
  -2  -1  13    1.38    0.26
  -2   1  13    1.41    0.27
   2   1 -13    1.63    0.29
   1  -1 -13    0.77    0.20
  -1   1  13    0.47    0.18
   1   1 -13    0.67    0.19
   0  -1 -13   10.02    0.73
   0  -1  13    9.81    0.74
   0  -1 -13    8.50    0.68
   0   1 -13    8.67    0.71
   0   1  13    8.71    0.74
  -1  -1 -13    0.44    0.15
  -1  -1 -13    0.40    0.22
  -1   1 -13    0.41    0.19
  -2  -1 -13    0.16    0.14
  -2   1 -13    0.21    0.13
   3  -1  13    0.59    0.15
  -3  -1 -13    0.46    0.13
  -3  -2  13    0.31    0.15
   3  -2 -13    0.13    0.18
   3   2 -13    0.60    0.17
  -3   2  13    0.31    0.15
   2  -2 -13    0.59    0.20
  -2   2  13    0.16    0.15
   2   2 -13    0.38    0.17
   1  -2 -13    3.03    0.36
   1  -2 -13    2.30    0.32
  -1  -2  13    3.73    0.34
  -1   2  13    2.81    0.35
   1   2 -13    3.27    0.35
   0  -2 -13    1.59    0.35
   0  -2 -13    1.75    0.27
   0  -2  13    2.65    0.32
   0   2 -13    1.99    0.31
   0   2  13    2.55    0.33
  -1  -2 -13    0.76    0.15
  -1   2 -13    0.39    0.15
  -1   2 -13    0.68    0.19
  -2  -2 -13    0.41    0.15
   2  -2  13    0.37    0.16
  -2   2 -13    0.44    0.14
   2   2  13    0.78    0.19
  -2   2 -13    0.64    0.19
  -3  -2 -13    0.47    0.13
   3   2  13    0.70    0.18
  -3   2 -13    0.63    0.13
  -3  -3  13    0.61    0.15
   3  -3 -13    0.29    0.19
  -3   3  13    0.60    0.16
   2  -3 -13    0.43    0.20
  -2  -3  13    0.53    0.16
  -2   3  13    0.26    0.16
   2   3 -13    0.45    0.17
   1  -3 -13    0.37    0.21
  -1   3  13    0.65    0.17
   0  -3 -13    3.01    0.42
   0  -3  13    3.29    0.36
   0  -3 -13    3.12    0.34
   0   3  13    3.96    0.38
   0   3 -13    4.08    0.37
  -1  -3 -13    1.11    0.23
  -1   3 -13    0.77    0.19
   1   3  13    1.18    0.28
   2  -3  13    0.27    0.15
  -2  -3 -13    0.24    0.14
  -2   3 -13    0.44    0.13
   2   3  13    0.52    0.18
  -2   3 -13    0.50    0.18
   3  -3  13    1.56    0.23
  -3  -3 -13    1.87    0.23
   3  -4 -13    0.40    0.19
  -3  -4  13    0.59    0.15
  -3   4  13    0.46    0.16
   2  -4 -13    0.53    0.17
   2  -4 -13    0.90    0.21
   2   4 -13    0.55    0.17
   1  -4 -13    0.93    0.18
   1  -4 -13    1.22    0.23
   1   4 -13    1.21    0.27
   0  -4  13    1.92    0.26
   0  -4 -13    1.45    0.26
   0   4 -13    1.94    0.27
   0   4  13    1.36    0.30
  -1   4 -13    1.99    0.28
   1   4  13    1.72    0.29
  -2   4 -13    0.76    0.15
   2   4  13    0.86    0.19
  -3  -5  13    0.34    0.14
   3  -5 -13   -0.06    0.18
   2  -5 -13    0.22    0.16
   2  -5 -13    0.49    0.21
  -2   5  13    0.39    0.16
  -1  -5  13    1.14    0.23
  -1   5  13    1.21    0.25
   0  -5  13    0.50    0.15
   0  -5 -13    0.40    0.16
   0   5  13    0.40    0.16
  -1   5 -13    1.57    0.26
   1   5  13    1.07    0.20
   2  -5  13   -0.06    0.13
  -2  -5 -13    0.21    0.14
   2  -6 -13    0.20    0.20
   2  -6 -13   -0.02    0.16
  -2   6  13   -0.06    0.16
   2   6 -13    0.42    0.15
   1  -6 -13    0.40    0.16
  -1   6  13    0.54    0.16
   0   6  13    1.39    0.26
  -1  -6 -13    0.66    0.16
   1  -6  13    0.50    0.14
  -1   6 -13    0.27    0.16
  -2  -6 -13    0.29    0.14
   2   6  13    0.58    0.17
   2  -7 -13   -0.16    0.15
  -2  -7  13    0.26    0.13
   2   7 -13    0.10    0.13
  -1  -7  13    1.81    0.23
   1  -7 -13    1.25    0.20
  -1   7  13    1.71    0.27
   0   7  13    0.75    0.17
   1  -7  13    2.60    0.28
  -1  -7 -13    3.17    0.30
   1  -8 -13    0.26    0.15
  -1  -8  13    0.32    0.12
   0   8  13    0.75    0.16
  -1   8 -13    0.54    0.14
   1   8  13    0.24    0.15
   0   0   0    0.00    0.00
;
_shelx_hkl_checksum              37867
loop_
_space_group_symop_operation_xyz
'x, y, z'
'-x, y+1/2, -z'
loop_
_atom_site_label
_atom_site_type_symbol
_atom_site_fract_x
_atom_site_fract_y
_atom_site_fract_z
_atom_site_U_iso_or_equiv
_atom_site_adp_type
_atom_site_occupancy
_atom_site_site_symmetry_order
_atom_site_calc_flag
_atom_site_refinement_flags_posn
_atom_site_refinement_flags_adp
_atom_site_refinement_flags_occupancy
_atom_site_disorder_assembly
_atom_site_disorder_group
Co1 Co -0.45087(16) 0.86145(6) -0.54756(14) 0.0140(4) Uani 1 1 d . . . . .
Co2 Co -0.95016(16) 0.94129(6) -0.56426(15) 0.0149(4) Uani 1 1 d D . . . .
O1 O -0.2636(8) 0.8937(3) -0.5525(7) 0.0195(18) Uani 1 1 d . . . . .
O2 O -0.7638(7) 0.9088(3) -0.5590(7) 0.0188(17) Uani 1 1 d . . . . .
N3 N -0.4621(9) 0.8530(4) -0.7375(9) 0.021(2) Uani 1 1 d . U . . .
N4 N -0.4532(10) 0.8574(4) -1.3583(7) 0.0168(19) Uani 1 1 d . . . . .
O5 O -0.1395(8) 0.9666(3) -0.5687(7) 0.0186(17) Uani 1 1 d . . . . .
N6 N -0.9500(9) 0.9448(5) -0.3774(7) 0.0169(19) Uani 1 1 d . . . . .
O7 O -0.6393(8) 0.8357(3) -0.5484(7) 0.0173(17) Uani 1 1 d . . . . .
C8 C -0.7475(10) 0.8595(5) -0.5562(8) 0.013(2) Uani 1 1 d . . . . .
C9 C -1.0559(12) 0.9609(6) -0.3154(12) 0.031(3) Uani 1 1 d . . . . .
H9 H -1.1327 0.9711 -0.3577 0.037 Uiso 1 1 calc R . . . .
C10 C -0.5696(11) 0.8551(5) -0.7993(9) 0.019(2) Uani 1 1 d . U . . .
H10 H -0.6501 0.8577 -0.7599 0.022 Uiso 1 1 calc R . . . .
N11 N -0.9511(9) 0.9469(4) 0.2460(8) 0.019(2) Uani 1 1 d . . . . .
C12 C -0.8405(12) 0.9349(5) -0.3042(13) 0.029(3) Uani 1 1 d . . . . .
H12 H -0.7618 0.9252 -0.3415 0.035 Uiso 1 1 calc R . . . .
C13 C -0.3497(13) 0.8709(6) -1.2863(11) 0.028(3) Uani 1 1 d . . . . .
H13 H -0.2728 0.8832 -1.3230 0.033 Uiso 1 1 calc R . . . .
O14 O -0.9824(8) 0.8548(3) -0.5777(8) 0.0258(19) Uani 1 1 d D . . . .
H14 H -1.040(5) 0.8350(13) -0.618(8) 0.039 Uiso 1 1 d DR . . . .
N15 N -0.1262(9) 0.5207(4) -0.4395(9) 0.020(2) Uani 1 1 d . . . . .
O16 O -0.4820(8) 0.9479(3) -0.5489(7) 0.0217(17) Uani 1 1 d D . . . .
H16 H -0.533(7) 0.957(4) -0.490(8) 0.033 Uiso 1 1 d DR . . . .
C17 C -0.4531(11) 0.8497(5) -1.1088(11) 0.022(3) Uani 1 1 d . . . . .
N18 N -0.3690(9) 0.7827(4) -0.5344(8) 0.0154(19) Uani 1 1 d . . . . .
C19 C -0.9481(12) 0.9511(5) 0.0029(10) 0.019(2) Uani 1 1 d . . . . .
C20 C -0.8364(11) 0.9376(6) -0.1860(10) 0.023(2) Uani 1 1 d . . . . .
H20 H -0.7576 0.9303 -0.1438 0.027 Uiso 1 1 calc R . . . .
C21 C -0.4557(11) 0.8486(5) -0.9825(9) 0.017(2) Uani 1 1 d . . . . .
C22 C -0.3466(13) 0.8686(7) -1.1699(10) 0.034(3) Uani 1 1 d . . . . .
H22 H -0.2705 0.8800 -1.1282 0.041 Uiso 1 1 calc R . . . .
C23 C -0.2493(11) 0.9427(5) -0.5621(8) 0.017(2) Uani 1 1 d . . . . .
C24 C -0.5719(11) 0.8538(5) -0.9192(9) 0.017(2) Uani 1 1 d . U . . .
H24 H -0.6531 0.8565 -0.9603 0.021 Uiso 1 1 calc R . . . .
C25 C -0.8670(11) 0.8230(5) -0.5620(11) 0.021(3) Uani 1 1 d D . . . .
H25 H -0.8589 0.7990 -0.6315 0.025 Uiso 1 1 calc R . . . .
C26 C -1.0576(13) 0.9634(6) -0.1945(12) 0.033(3) Uani 1 1 d . . . . .
H26 H -1.1354 0.9737 -0.1566 0.040 Uiso 1 1 calc R . . . .
C27 C -0.3479(12) 0.8461(5) -0.7940(10) 0.020(3) Uani 1 1 d . . . . .
H27 H -0.2693 0.8430 -0.7492 0.024 Uiso 1 1 calc R . . . .
C28 C -0.2502(13) 0.5308(5) -0.4552(16) 0.041(4) Uani 1 1 d . . . . .
H28 H -0.3085 0.5012 -0.4551 0.049 Uiso 1 1 calc R . . . .
C29 C -0.9471(13) 0.9511(5) -0.1287(11) 0.027(3) Uani 1 1 d . . . . .
C30 C -0.8414(12) 0.9545(5) 0.1879(10) 0.021(3) Uani 1 1 d . . . . .
H30 H -0.7622 0.9580 0.2319 0.025 Uiso 1 1 calc R . . . .
C31 C -0.0500(15) 0.5633(7) -0.431(2) 0.074(7) Uani 1 1 d . . . . .
H31 H 0.0393 0.5583 -0.4093 0.089 Uiso 1 1 calc R . . . .
C32 C -1.0603(12) 0.9421(6) 0.1842(9) 0.021(2) Uani 1 1 d . . . . .
H32 H -1.1394 0.9367 0.2245 0.025 Uiso 1 1 calc R . . . .
C33 C -0.8358(12) 0.9577(5) 0.0712(10) 0.022(3) Uani 1 1 d . . . . .
H33 H -0.7547 0.9644 0.0351 0.026 Uiso 1 1 calc R . . . .
C34 C -0.3422(12) 0.8435(5) -0.9116(12) 0.027(3) Uani 1 1 d . . . . .
H34 H -0.2602 0.8380 -0.9472 0.033 Uiso 1 1 calc R . . . .
C35 C -0.5544(13) 0.8367(5) -1.2984(11) 0.024(3) Uani 1 1 d . . . . .
H35 H -0.6266 0.8234 -1.3430 0.029 Uiso 1 1 calc R . . . .
C37 C -0.2238(11) 0.6245(5) -0.4698(11) 0.021(2) Uani 1 1 d . . . . .
C39 C -0.2750(12) 0.6796(5) -0.4917(10) 0.021(2) Uani 1 1 d . . . . .
C42 C -1.0655(11) 0.9444(6) 0.0653(11) 0.024(3) Uani 1 1 d . . . . .
H42 H -1.1469 0.9415 0.0246 0.029 Uiso 1 1 calc R . . . .
C46 C -0.5618(12) 0.8332(5) -1.1782(11) 0.025(3) Uani 1 1 d . . . . .
H46 H -0.6385 0.8200 -1.1428 0.030 Uiso 1 1 calc R . . . .
C47 C -0.3688(11) 0.9797(5) -0.5691(10) 0.017(2) Uani 1 1 d . . . . .
H47 H -0.3608 1.0081 -0.5078 0.020 Uiso 1 1 calc DR . . . .
C54 C -0.0943(16) 0.6144(7) -0.451(2) 0.078(7) Uani 1 1 d . . . . .
H54 H -0.0338 0.6432 -0.4516 0.093 Uiso 1 1 calc R . . . .
C58 C -0.1946(12) 0.7234(5) -0.4782(11) 0.023(3) Uani 1 1 d . . . . .
H58 H -0.1059 0.7190 -0.4543 0.028 Uiso 1 1 calc R . . . .
C60 C -0.3029(13) 0.5804(5) -0.4718(16) 0.041(4) Uani 1 1 d . . . . .
H60 H -0.3943 0.5843 -0.4846 0.050 Uiso 1 1 calc R . . . .
C61 C -0.4009(14) 0.6880(5) -0.5291(17) 0.044(4) Uani 1 1 d . . . . .
H61 H -0.4589 0.6586 -0.5393 0.053 Uiso 1 1 calc R . . . .
O3 O -1.0617(8) 0.8137(4) -0.7820(8) 0.032(2) Uani 1 1 d . . . . .
O4 O -0.5604(9) 0.9804(4) -0.3428(8) 0.035(2) Uani 1 1 d . . . . .
N1 N -0.9839(12) 0.8162(4) -0.8665(10) 0.034(3) Uani 1 1 d . . . . .
O6 O -1.0272(9) 0.8086(5) -0.9694(9) 0.050(3) Uani 1 1 d . . . . .
O8 O -0.8669(9) 0.8256(4) -0.8472(10) 0.043(2) Uani 1 1 d . . . . .
O9 O -0.3621(10) 0.9949(4) -0.2873(10) 0.049(3) Uani 1 1 d . . . . .
O10 O -0.5127(13) 0.9881(8) -0.1618(11) 0.086(5) Uani 1 1 d . . . . .
N20 N -0.4775(11) 0.9888(5) -0.2617(10) 0.036(3) Uani 1 1 d . . . . .
C1 C -0.4489(14) 0.9840(5) -0.7827(12) 0.036(3) Uani 1 1 d . . . . .
H1 H -0.5057 0.9547 -0.7689 0.043 Uiso 1 1 calc R . . . .
C2 C -0.3751(11) 1.0056(5) -0.6899(10) 0.022(2) Uani 1 1 d . . . . .
C4 C -0.9354(15) 0.8059(6) -0.3527(11) 0.040(3) Uani 1 1 d . . . . .
H4 H -0.9859 0.8379 -0.3527 0.048 Uiso 1 1 calc R . . . .
C5 C -0.8046(15) 0.7386(6) -0.4549(18) 0.057(5) Uani 1 1 d . . . . .
H5 H -0.7665 0.7247 -0.5236 0.068 Uiso 1 1 calc R . . . .
C6 C -0.8717(11) 0.7881(4) -0.4537(11) 0.024(3) Uani 1 1 d . . . . .
C3 C -0.798(2) 0.7110(9) -0.346(2) 0.088(8) Uani 1 1 d . . . . .
H3 H -0.7516 0.6780 -0.3429 0.106 Uiso 1 1 calc R . . . .
C14 C -0.2949(13) 1.0497(5) -0.7127(14) 0.037(3) Uani 1 1 d . . . . .
H14A H -0.2454 1.0658 -0.6510 0.044 Uiso 1 1 calc R . . . .
C18 C -0.2878(15) 1.0695(7) -0.8230(15) 0.052(4) Uani 1 1 d . . . . .
H18 H -0.2343 1.0999 -0.8367 0.062 Uiso 1 1 calc R . . . .
C7 C -0.3562(18) 1.0467(8) -0.9162(14) 0.060(5) Uani 1 1 d . . . . .
H7 H -0.3456 1.0595 -0.9936 0.072 Uiso 1 1 calc R . . . .
C11 C -0.4404(18) 1.0047(6) -0.8932(13) 0.047(4) Uani 1 1 d . . . . .
H11 H -0.4928 0.9900 -0.9547 0.056 Uiso 1 1 calc R . . . .
C15 C -0.921(2) 0.7741(9) -0.2518(16) 0.073(6) Uani 1 1 d . . . . .
H15 H -0.9616 0.7861 -0.1828 0.087 Uiso 1 1 calc R . . . .
C16 C -0.2461(11) 0.7748(5) -0.5004(11) 0.022(3) Uani 1 1 d . . . . .
H16A H -0.1905 0.8050 -0.4906 0.026 Uiso 1 1 calc R . . . .
C1A C -0.4437(14) 0.7404(6) -0.5523(16) 0.040(4) Uani 1 1 d . . . . .
H1A H -0.5299 0.7455 -0.5822 0.048 Uiso 1 1 calc R . . . .
C1B C -0.855(2) 0.7292(10) -0.246(2) 0.087(8) Uani 1 1 d . . . . .
H1B H -0.8460 0.7100 -0.1745 0.104 Uiso 1 1 calc R . . . .
N2 N -0.054(3) 0.6214(9) -0.059(2) 0.110(7) Uani 1 1 d . . . . .
O11 O 0.028(2) 0.6520(9) -0.022(2) 0.129(7) Uani 1 1 d . . . . .
C1F C -0.1719(13) 0.6445(5) -0.1024(13) 0.089(5) Uani 1 1 d . . . . .
C1E C -0.2671(17) 0.6097(4) -0.1454(14) 0.085(6) Uani 1 1 d G . . . .
H1E H -0.2546 0.5720 -0.1394 0.102 Uiso 1 1 calc R . . . .
C1H C -0.3806(14) 0.6299(6) -0.1974(13) 0.103(7) Uani 1 1 d G . . . .
H1H H -0.4457 0.6061 -0.2269 0.124 Uiso 1 1 calc R . . . .
C1D C -0.3988(13) 0.6849(6) -0.2063(13) 0.088(6) Uani 1 1 d G . . . .
H1D H -0.4764 0.6987 -0.2418 0.106 Uiso 1 1 calc R . . . .
C1G C -0.3036(16) 0.7198(4) -0.1632(14) 0.111(8) Uani 1 1 d G . . . .
H1G H -0.3161 0.7574 -0.1692 0.133 Uiso 1 1 calc R . . . .
C1C C -0.1901(14) 0.6996(5) -0.1112(13) 0.075(5) Uani 1 1 d G . . . .
H1C H -0.1250 0.7234 -0.0818 0.090 Uiso 1 1 calc R . . . .
O15 O -0.038(3) 0.5731(9) -0.062(4) 0.237(19) Uani 1 1 d . . . . .
C1N C -0.674(2) 0.6473(9) -0.7590(18) 0.032(8) Uiso 0.398(15) 1 d D . P A 2
C1P C -0.7551(19) 0.6842(10) -0.816(2) 0.051(10) Uiso 0.398(15) 1 d G . P A 2
H1P H -0.8428 0.6886 -0.7918 0.061 Uiso 0.398(15) 1 calc R . P A 2
C1M C -0.708(3) 0.7146(11) -0.907(3) 0.060(12) Uiso 0.398(15) 1 d G . P A 2
H1M H -0.7628 0.7398 -0.9461 0.072 Uiso 0.398(15) 1 calc R . P A 2
C1J C -0.579(3) 0.7081(12) -0.942(2) 0.09(2) Uiso 0.398(15) 1 d G . P A 2
H1J H -0.5469 0.7289 -1.0049 0.114 Uiso 0.398(15) 1 calc R . P A 2
C1I C -0.499(2) 0.6712(11) -0.886(2) 0.027(7) Uiso 0.398(15) 1 d G . P A 2
H1I H -0.4109 0.6668 -0.9095 0.033 Uiso 0.398(15) 1 calc R . P A 2
C1O C -0.546(2) 0.6408(9) -0.794(2) 0.042(9) Uiso 0.398(15) 1 d G . P A 2
H1O H -0.4909 0.6156 -0.7552 0.050 Uiso 0.398(15) 1 calc R . P A 2
O12 O -0.633(2) 0.5995(8) -0.5850(18) 0.024(5) Uiso 0.398(15) 1 d . . P A 2
N5B N -0.712(5) 0.618(2) -0.654(3) 0.073(7) Uiso 0.398(15) 1 d D . P A 2
O13 O -0.834(4) 0.6096(14) -0.643(3) 0.071(10) Uiso 0.398(15) 1 d . . P A 2
C1U C -0.8929(16) 0.6436(9) -0.705(2) 0.062(9) Uiso 0.535(17) 1 d . . P B 1
C1W C -0.9373(18) 0.5910(8) -0.706(2) 0.074(11) Uiso 0.535(17) 1 d G . P B 1
H1W H -0.8793 0.5626 -0.6859 0.089 Uiso 0.535(17) 1 calc R . P B 1
C1L C -1.0665(19) 0.5799(6) -0.7366(19) 0.046(7) Uiso 0.535(17) 1 d G . P B 1
H1L H -1.0968 0.5439 -0.7375 0.055 Uiso 0.535(17) 1 calc R . P B 1
C1K C -1.1513(15) 0.6215(8) -0.7659(19) 0.046(7) Uiso 0.535(17) 1 d G . P B 1
H1K H -1.2396 0.6139 -0.7868 0.056 Uiso 0.535(17) 1 calc R . P B 1
C1T C -1.107(2) 0.6741(7) -0.765(2) 0.069(10) Uiso 0.535(17) 1 d G . P B 1
H1T H -1.1649 0.7025 -0.7845 0.083 Uiso 0.535(17) 1 calc R . P B 1
C1R C -0.978(2) 0.6852(7) -0.734(2) 0.067(10) Uiso 0.535(17) 1 d G . P B 1
H1R H -0.9474 0.7212 -0.7330 0.080 Uiso 0.535(17) 1 calc R . P B 1
N10 N -0.753(4) 0.6496(18) -0.662(4) 0.109(14) Uiso 0.535(17) 1 d D . P B 1
O17 O -0.715(4) 0.6982(16) -0.700(3) 0.118(13) Uiso 0.535(17) 1 d . . P B 1
O18 O -0.696(3) 0.6126(13) -0.609(3) 0.073(7) Uiso 0.535(17) 1 d D . P B 1
C1X C -0.468(2) 0.6615(16) -0.876(3) 0.11(2) Uiso 0.473(16) 1 d D . P C 3
C1S C -0.379(3) 0.7030(11) -0.863(3) 0.074(12) Uiso 0.473(16) 1 d G . P C 3
H1S H -0.4030 0.7385 -0.8841 0.088 Uiso 0.473(16) 1 calc R . P C 3
C1Q C -0.253(3) 0.6925(11) -0.821(3) 0.063(11) Uiso 0.473(16) 1 d G . P C 3
H1Q H -0.1918 0.7208 -0.8123 0.075 Uiso 0.473(16) 1 calc R . P C 3
C62 C -0.217(3) 0.6405(13) -0.791(3) 0.13(2) Uiso 0.473(16) 1 d G . P C 3
H62 H -0.1317 0.6333 -0.7616 0.150 Uiso 0.473(16) 1 calc R . P C 3
C1Y C -0.307(4) 0.5990(10) -0.803(3) 0.082(14) Uiso 0.473(16) 1 d DG . P C 3
H1Y H -0.2828 0.5634 -0.7825 0.099 Uiso 0.473(16) 1 calc R . P C 3
C1V C -0.433(3) 0.6095(13) -0.846(3) 0.12(2) Uiso 0.473(16) 1 d DG . P C 3
H1V H -0.4939 0.5811 -0.8542 0.150 Uiso 0.473(16) 1 calc R . P C 3
N21 N -0.593(4) 0.675(2) -0.928(4) 0.108(16) Uiso 0.473(16) 1 d D . P C 3
O19 O -0.610(6) 0.719(2) -0.972(5) 0.17(2) Uiso 0.473(16) 1 d D . P C 3
O21 O -0.692(5) 0.648(2) -0.923(5) 0.16(2) Uiso 0.473(16) 1 d D . P C 3
loop_
_atom_site_aniso_label
_atom_site_aniso_U_11
_atom_site_aniso_U_22
_atom_site_aniso_U_33
_atom_site_aniso_U_23
_atom_site_aniso_U_13
_atom_site_aniso_U_12
Co1 0.0126(9) 0.0144(9) 0.0150(8) 0.0028(7) 0.0002(6) 0.0012(7)
Co2 0.0104(9) 0.0123(9) 0.0221(9) -0.0001(7) 0.0002(6) 0.0011(7)
O1 0.016(4) 0.017(5) 0.026(4) 0.005(3) -0.001(3) 0.003(3)
O2 0.009(4) 0.015(4) 0.033(5) 0.005(3) 0.000(3) 0.001(3)
N3 0.014(5) 0.019(5) 0.031(5) 0.003(4) -0.003(3) 0.000(4)
N4 0.028(5) 0.011(4) 0.011(4) 0.003(4) 0.003(4) 0.005(4)
O5 0.009(4) 0.017(4) 0.030(4) 0.008(3) 0.002(3) 0.000(3)
N6 0.015(5) 0.030(5) 0.006(4) 0.001(4) 0.001(3) 0.002(4)
O7 0.020(4) 0.012(4) 0.020(4) -0.001(3) 0.001(3) 0.002(3)
C8 0.014(6) 0.013(5) 0.012(5) 0.004(4) 0.001(4) 0.000(5)
C9 0.007(6) 0.046(8) 0.040(8) 0.001(6) -0.001(5) 0.006(5)
C10 0.019(5) 0.029(6) 0.007(4) 0.006(5) 0.000(4) -0.002(5)
N11 0.012(5) 0.017(5) 0.028(5) 0.002(4) -0.003(4) 0.001(4)
C12 0.009(6) 0.024(7) 0.055(9) 0.004(6) 0.005(5) 0.000(5)
C13 0.016(6) 0.044(8) 0.023(6) -0.008(6) 0.006(5) -0.012(6)
O14 0.007(4) 0.013(4) 0.057(6) 0.005(4) 0.000(3) -0.001(3)
N15 0.014(5) 0.013(5) 0.031(5) -0.001(4) -0.003(4) 0.000(4)
O16 0.012(4) 0.015(4) 0.038(5) 0.002(4) 0.005(3) -0.002(3)
C17 0.013(6) 0.018(6) 0.036(7) -0.001(5) -0.002(5) 0.001(4)
N18 0.012(5) 0.018(5) 0.016(4) 0.002(4) 0.002(3) 0.004(4)
C19 0.019(6) 0.020(6) 0.018(6) 0.001(5) 0.006(4) 0.001(5)
C20 0.010(5) 0.031(6) 0.027(6) -0.006(6) -0.008(4) -0.001(5)
C21 0.014(6) 0.023(6) 0.015(5) 0.004(4) 0.001(4) -0.002(4)
C22 0.023(7) 0.064(10) 0.016(6) -0.022(6) -0.002(5) -0.009(6)
C23 0.025(6) 0.020(6) 0.005(4) -0.006(4) 0.002(4) 0.002(5)
C24 0.010(5) 0.026(6) 0.015(4) 0.008(5) 0.010(4) 0.003(5)
C25 0.008(6) 0.022(6) 0.033(7) 0.001(5) -0.002(5) 0.001(5)
C26 0.017(7) 0.055(9) 0.028(7) -0.005(6) 0.007(5) 0.007(6)
C27 0.018(6) 0.028(7) 0.014(5) -0.001(4) 0.001(4) 0.001(5)
C28 0.017(7) 0.012(6) 0.093(12) 0.016(7) -0.013(7) -0.005(5)
C29 0.028(7) 0.025(7) 0.027(6) -0.006(5) 0.003(5) -0.004(5)
C30 0.015(6) 0.024(7) 0.024(6) -0.003(5) -0.005(4) 0.001(5)
C31 0.013(8) 0.018(8) 0.19(2) -0.001(10) -0.015(10) 0.000(6)
C32 0.022(6) 0.027(6) 0.014(5) 0.001(5) 0.003(4) -0.002(5)
C33 0.020(6) 0.026(6) 0.019(6) 0.004(5) 0.003(4) -0.001(5)
C34 0.011(6) 0.028(7) 0.044(8) 0.002(6) 0.003(5) 0.002(5)
C35 0.023(7) 0.021(6) 0.029(7) -0.006(5) 0.009(5) -0.007(5)
C37 0.010(6) 0.014(5) 0.038(7) -0.007(5) 0.006(5) -0.002(4)
C39 0.018(6) 0.015(6) 0.029(6) 0.005(5) 0.008(5) 0.000(4)
C42 0.012(6) 0.028(6) 0.034(6) -0.007(6) 0.011(4) -0.001(5)
C46 0.020(7) 0.030(7) 0.024(6) 0.006(5) 0.000(5) -0.006(5)
C47 0.016(6) 0.013(5) 0.023(6) 0.004(4) 0.001(4) -0.002(4)
C54 0.015(9) 0.026(8) 0.19(2) 0.007(11) -0.023(10) 0.000(6)
C58 0.021(6) 0.013(5) 0.035(7) 0.003(5) -0.013(5) 0.004(4)
C60 0.012(6) 0.019(6) 0.092(12) 0.011(7) -0.018(7) -0.006(5)
C61 0.020(8) 0.009(6) 0.104(14) -0.004(7) 0.001(8) -0.003(5)
O3 0.019(5) 0.043(5) 0.033(5) -0.009(4) 0.003(4) -0.001(4)
O4 0.029(5) 0.044(5) 0.031(5) -0.007(4) -0.004(4) 0.002(4)
N1 0.039(7) 0.020(5) 0.041(7) -0.015(5) -0.006(5) -0.001(5)
O6 0.031(6) 0.078(8) 0.040(6) -0.024(5) 0.005(4) 0.001(5)
O8 0.014(5) 0.049(6) 0.065(7) -0.013(5) -0.003(4) -0.003(4)
O9 0.032(6) 0.053(7) 0.061(7) 0.007(5) -0.007(5) -0.012(5)
O10 0.065(9) 0.158(16) 0.034(7) 0.004(8) 0.008(6) -0.011(9)
N20 0.034(7) 0.044(7) 0.029(6) -0.006(5) -0.008(5) -0.001(5)
C1 0.040(8) 0.029(7) 0.039(8) 0.013(6) -0.014(6) 0.002(6)
C2 0.024(6) 0.022(6) 0.020(6) 0.001(5) 0.000(4) 0.000(5)
C4 0.049(9) 0.049(8) 0.021(6) -0.007(6) -0.002(6) -0.030(7)
C5 0.031(8) 0.044(8) 0.096(13) 0.045(9) 0.020(8) 0.006(6)
C6 0.016(6) 0.023(6) 0.032(6) 0.015(5) -0.010(5) -0.014(4)
C3 0.049(11) 0.077(14) 0.14(2) 0.083(14) 0.012(12) 0.004(10)
C14 0.026(7) 0.031(7) 0.054(9) 0.011(6) -0.004(6) -0.010(5)
C18 0.040(9) 0.064(11) 0.052(10) 0.029(8) 0.008(7) -0.010(8)
C7 0.064(12) 0.085(13) 0.032(8) 0.033(9) 0.016(8) 0.026(10)
C11 0.075(12) 0.031(8) 0.034(8) 0.008(6) -0.011(7) 0.011(8)
C15 0.092(15) 0.078(13) 0.047(10) 0.039(10) -0.013(10) -0.041(12)
C16 0.011(6) 0.018(6) 0.037(7) -0.006(5) -0.001(5) 0.000(4)
C1A 0.014(7) 0.021(7) 0.086(12) -0.010(7) -0.009(7) 0.003(5)
C1B 0.058(12) 0.112(17) 0.091(15) 0.077(14) -0.018(11) -0.044(12)
N2 0.128(12) 0.069(9) 0.135(17) 0.020(10) 0.013(11) -0.005(7)
O11 0.147(14) 0.103(12) 0.139(16) 0.016(11) 0.016(12) -0.030(10)
C1F 0.126(11) 0.051(8) 0.090(13) -0.007(8) 0.029(9) -0.004(7)
C1E 0.136(13) 0.039(8) 0.082(13) -0.007(8) 0.024(10) -0.007(7)
C1H 0.139(14) 0.078(10) 0.094(16) -0.002(10) 0.029(11) -0.002(9)
C1D 0.103(12) 0.075(10) 0.088(13) 0.001(9) 0.051(10) -0.003(8)
C1G 0.122(13) 0.069(10) 0.142(19) 0.006(10) 0.030(12) 0.001(8)
C1C 0.101(11) 0.043(7) 0.083(12) -0.002(7) 0.056(9) -0.010(6)
O15 0.17(2) 0.069(9) 0.47(5) -0.011(13) -0.10(3) -0.004(9)
loop_
_atom_type_symbol
_atom_type_description
_atom_type_scat_dispersion_real
_atom_type_scat_dispersion_imag
_atom_type_scat_source
C C 0.0181 0.0091 'International Tables Vol C Tables 4.2.6.8 and 6.1.1.4'
H H 0.0000 0.0000 'International Tables Vol C Tables 4.2.6.8 and 6.1.1.4'
Co Co -2.3653 3.6143 'International Tables Vol C Tables 4.2.6.8 and 6.1.1.4'
N N 0.0311 0.0180 'International Tables Vol C Tables 4.2.6.8 and 6.1.1.4'
O O 0.0492 0.0322 'International Tables Vol C Tables 4.2.6.8 and 6.1.1.4'
loop_
_geom_angle_atom_site_label_1
_geom_angle_atom_site_label_2
_geom_angle_atom_site_label_3
_geom_angle
_geom_angle_site_symmetry_1
_geom_angle_site_symmetry_3
O1 Co1 N3 92.3(3) . .
O1 Co1 N4 94.2(4) . 1_556
O1 Co1 O16 75.7(3) . .
O1 Co1 N18 89.8(3) . .
N4 Co1 N3 171.0(4) 1_556 .
N4 Co1 O16 92.8(3) 1_556 .
O7 Co1 O1 175.3(3) . .
O7 Co1 N3 86.2(3) . .
O7 Co1 N4 87.8(4) . 1_556
O7 Co1 O16 100.1(3) . .
O7 Co1 N18 94.6(3) . .
O16 Co1 N3 94.8(4) . .
N18 Co1 N3 89.7(4) . .
N18 Co1 N4 84.2(4) . 1_556
N18 Co1 O16 164.9(3) . .
O2 Co2 N6 90.2(3) . .
O2 Co2 N11 92.3(3) . 1_554
O2 Co2 O14 75.7(3) . .
O2 Co2 N15 91.5(3) . 2_454
O5 Co2 O2 175.0(3) 1_455 .
O5 Co2 N6 89.7(3) 1_455 .
O5 Co2 N11 88.2(3) 1_455 1_554
O5 Co2 O14 99.3(3) 1_455 .
O5 Co2 N15 93.5(3) 1_455 2_454
N6 Co2 N11 173.9(4) . 1_554
N6 Co2 O14 96.2(4) . .
N11 Co2 O14 89.8(4) 1_554 .
N15 Co2 N6 87.0(4) 2_454 .
N15 Co2 N11 87.4(4) 2_454 1_554
N15 Co2 O14 166.8(3) 2_454 .
C23 O1 Co1 119.6(7) . .
C8 O2 Co2 120.7(7) . .
C10 N3 Co1 124.5(8) . .
C10 N3 C27 118.3(10) . .
C27 N3 Co1 117.2(8) . .
C13 N4 Co1 124.4(8) . 1_554
C35 N4 Co1 123.1(8) . 1_554
C35 N4 C13 112.3(10) . .
C23 O5 Co2 133.8(8) . 1_655
C9 N6 Co2 123.1(8) . .
C9 N6 C12 111.9(10) . .
C12 N6 Co2 124.9(8) . .
C8 O7 Co1 133.2(7) . .
O2 C8 O7 126.0(10) . .
O2 C8 C25 118.9(10) . .
O7 C8 C25 115.1(10) . .
N6 C9 H9 118.1 . .
N6 C9 C26 123.9(12) . .
C26 C9 H9 118.1 . .
N3 C10 H10 118.6 . .
N3 C10 C24 122.8(11) . .
C24 C10 H10 118.6 . .
C30 N11 Co2 121.3(8) . 1_556
C32 N11 Co2 121.2(7) . 1_556
C32 N11 C30 117.5(10) . .
N6 C12 H12 116.8 . .
C20 C12 N6 126.4(11) . .
C20 C12 H12 116.8 . .
N4 C13 H13 116.8 . .
C22 C13 N4 126.3(11) . .
C22 C13 H13 116.8 . .
Co2 O14 H14 133(3) . .
C25 O14 Co2 114.5(7) . .
C25 O14 H14 107(3) . .
C28 N15 Co2 122.6(8) . 2_444
C28 N15 C31 115.4(12) . .
C31 N15 Co2 122.0(9) . 2_444
Co1 O16 H16 109(7) . .
C47 O16 Co1 115.6(7) . .
C47 O16 H16 118(2) . .
C22 C17 C21 122.6(11) . .
C22 C17 C46 115.7(11) . .
C46 C17 C21 121.7(11) . .
C16 N18 Co1 121.7(8) . .
C1A N18 Co1 120.0(9) . .
C1A N18 C16 118.1(11) . .
C33 C19 C29 122.8(11) . .
C33 C19 C42 115.5(10) . .
C42 C19 C29 121.7(11) . .
C12 C20 H20 120.6 . .
C12 C20 C29 118.9(11) . .
C29 C20 H20 120.6 . .
C24 C21 C17 122.9(10) . .
C34 C21 C17 123.1(11) . .
C34 C21 C24 114.0(10) . .
C13 C22 C17 120.9(12) . .
C13 C22 H22 119.5 . .
C17 C22 H22 119.5 . .
O1 C23 O5 124.9(11) . .
O1 C23 C47 120.3(10) . .
O5 C23 C47 114.8(11) . .
C10 C24 C21 121.1(11) . .
C10 C24 H24 119.4 . .
C21 C24 H24 119.4 . .
C8 C25 H25 108.2 . .
O14 C25 C8 109.5(10) . .
O14 C25 H25 108.2 . .
O14 C25 C6 112.4(10) . .
C6 C25 C8 110.2(9) . .
C6 C25 H25 108.2 . .
C9 C26 H26 119.7 . .
C29 C26 C9 120.5(12) . .
C29 C26 H26 119.7 . .
N3 C27 H27 118.8 . .
C34 C27 N3 122.4(11) . .
C34 C27 H27 118.8 . .
N15 C28 H28 117.4 . .
N15 C28 C60 125.3(12) . .
C60 C28 H28 117.4 . .
C20 C29 C19 120.2(12) . .
C20 C29 C26 118.2(11) . .
C26 C29 C19 121.5(11) . .
N11 C30 H30 118.0 . .
N11 C30 C33 124.0(11) . .
C33 C30 H30 118.0 . .
N15 C31 H31 118.6 . .
N15 C31 C54 122.7(15) . .
C54 C31 H31 118.6 . .
N11 C32 H32 118.3 . .
N11 C32 C42 123.3(11) . .
C42 C32 H32 118.3 . .
C19 C33 H33 119.9 . .
C30 C33 C19 120.2(11) . .
C30 C33 H33 119.9 . .
C21 C34 H34 119.4 . .
C27 C34 C21 121.2(11) . .
C27 C34 H34 119.4 . .
N4 C35 H35 117.1 . .
N4 C35 C46 125.8(12) . .
C46 C35 H35 117.1 . .
C54 C37 C39 122.3(11) . .
C54 C37 C60 115.4(12) . .
C60 C37 C39 122.2(10) . .
C58 C39 C37 120.4(10) . .
C61 C39 C37 121.3(10) . .
C61 C39 C58 118.2(11) . .
C19 C42 H42 120.3 . .
C32 C42 C19 119.4(11) . .
C32 C42 H42 120.3 . .
C17 C46 H46 120.6 . .
C35 C46 C17 118.8(11) . .
C35 C46 H46 120.6 . .
O16 C47 C23 107.9(9) . .
O16 C47 H47 109.6 . .
O16 C47 C2 111.2(9) . .
C23 C47 H47 109.6 . .
C2 C47 C23 108.8(9) . .
C2 C47 H47 109.6 . .
C31 C54 H54 119.5 . .
C37 C54 C31 121.1(16) . .
C37 C54 H54 119.5 . .
C39 C58 H58 120.6 . .
C39 C58 C16 118.9(11) . .
C16 C58 H58 120.6 . .
C28 C60 C37 119.7(12) . .
C28 C60 H60 120.1 . .
C37 C60 H60 120.1 . .
C39 C61 H61 120.3 . .
C39 C61 C1A 119.5(13) . .
C1A C61 H61 120.3 . .
O6 N1 O3 119.3(11) . .
O8 N1 O3 119.6(11) . .
O8 N1 O6 121.1(12) . .
O9 N20 O4 118.7(11) . .
O10 N20 O4 119.0(13) . .
O10 N20 O9 122.2(13) . .
C2 C1 H1 119.6 . .
C11 C1 H1 119.6 . .
C11 C1 C2 120.8(14) . .
C1 C2 C47 122.4(11) . .
C1 C2 C14 118.1(12) . .
C14 C2 C47 119.2(11) . .
C6 C4 H4 121.6 . .
C15 C4 H4 121.6 . .
C15 C4 C6 116.8(17) . .
C6 C5 H5 122.2 . .
C6 C5 C3 115.5(18) . .
C3 C5 H5 122.2 . .
C4 C6 C25 120.8(12) . .
C4 C6 C5 121.0(13) . .
C5 C6 C25 118.1(12) . .
C5 C3 H3 118.1 . .
C1B C3 C5 124(2) . .
C1B C3 H3 118.1 . .
C2 C14 H14A 120.0 . .
C18 C14 C2 120.1(14) . .
C18 C14 H14A 120.0 . .
C14 C18 H18 119.0 . .
C14 C18 C7 122.0(15) . .
C7 C18 H18 119.0 . .
C18 C7 H7 120.9 . .
C11 C7 C18 118.1(14) . .
C11 C7 H7 120.9 . .
C1 C11 C7 120.7(15) . .
C1 C11 H11 119.6 . .
C7 C11 H11 119.6 . .
C4 C15 H15 117.5 . .
C1B C15 C4 125(2) . .
C1B C15 H15 117.5 . .
N18 C16 C58 122.6(11) . .
N18 C16 H16A 118.7 . .
C58 C16 H16A 118.7 . .
N18 C1A C61 122.7(13) . .
N18 C1A H1A 118.7 . .
C61 C1A H1A 118.7 . .
C3 C1B H1B 121.1 . .
C15 C1B C3 117.7(18) . .
C15 C1B H1B 121.1 . .
O11 N2 C1F 116(2) . .
O11 N2 O15 123(3) . .
O15 N2 C1F 120(3) . .
C1E C1F N2 117.1(14) . .
C1E C1F C1C 120.0 . .
C1C C1F N2 122.7(14) . .
C1F C1E H1E 120.0 . .
C1F C1E C1H 120.0 . .
C1H C1E H1E 120.0 . .
C1E C1H H1H 120.0 . .
C1D C1H C1E 120.0 . .
C1D C1H H1H 120.0 . .
C1H C1D H1D 120.0 . .
C1G C1D C1H 120.0 . .
C1G C1D H1D 120.0 . .
C1D C1G H1G 120.0 . .
C1D C1G C1C 120.0 . .
C1C C1G H1G 120.0 . .
C1F C1C H1C 120.0 . .
C1G C1C C1F 120.0 . .
C1G C1C H1C 120.0 . .
C1P C1N C1O 120.0 . .
C1P C1N N5B 123(3) . .
C1O C1N N5B 116(3) . .
C1N C1P H1P 120.0 . .
C1N C1P C1M 120.0 . .
C1M C1P H1P 120.0 . .
C1P C1M H1M 120.0 . .
C1P C1M C1J 120.0 . .
C1J C1M H1M 120.0 . .
C1M C1J H1J 120.0 . .
C1I C1J C1M 120.0 . .
C1I C1J H1J 120.0 . .
C1J C1I H1I 120.0 . .
C1J C1I C1O 120.0 . .
C1O C1I H1I 120.0 . .
C1N C1O H1O 120.0 . .
C1I C1O C1N 120.0 . .
C1I C1O H1O 120.0 . .
O12 N5B C1N 123(4) . .
O12 N5B O13 121(3) . .
O13 N5B C1N 116(4) . .
C1W C1U C1R 120.0 . .
C1W C1U N10 114(2) . .
C1R C1U N10 126(2) . .
C1U C1W H1W 120.0 . .
C1L C1W C1U 120.0 . .
C1L C1W H1W 120.0 . .
C1W C1L H1L 120.0 . .
C1W C1L C1K 120.0 . .
C1K C1L H1L 120.0 . .
C1L C1K H1K 120.0 . .
C1T C1K C1L 120.0 . .
C1T C1K H1K 120.0 . .
C1K C1T H1T 120.0 . .
C1K C1T C1R 120.0 . .
C1R C1T H1T 120.0 . .
C1U C1R H1R 120.0 . .
C1T C1R C1U 120.0 . .
C1T C1R H1R 120.0 . .
O17 N10 C1U 105(3) . .
O18 N10 C1U 121(4) . .
O18 N10 O17 133(5) . .
C1S C1X C1V 120.0 . .
C1S C1X N21 117(3) . .
C1V C1X N21 123(3) . .
C1X C1S H1S 120.0 . .
C1X C1S C1Q 120.0 . .
C1Q C1S H1S 120.0 . .
C1S C1Q H1Q 120.0 . .
C62 C1Q C1S 120.0 . .
C62 C1Q H1Q 120.0 . .
C1Q C62 H62 120.0 . .
C1Q C62 C1Y 120.0 . .
C1Y C62 H62 120.0 . .
C62 C1Y H1Y 120.0 . .
C1V C1Y C62 120.0 . .
C1V C1Y H1Y 120.0 . .
C1X C1V H1V 120.0 . .
C1Y C1V C1X 120.0 . .
C1Y C1V H1V 120.0 . .
O19 N21 C1X 120(5) . .
O21 N21 C1X 126(5) . .
O21 N21 O19 113(5) . .
loop_
_geom_bond_atom_site_label_1
_geom_bond_atom_site_label_2
_geom_bond_distance
_geom_bond_site_symmetry_2
Co1 O1 2.082(8) .
Co1 N3 2.185(10) .
Co1 N4 2.169(8) 1_556
Co1 O7 2.035(8) .
Co1 O16 2.181(9) .
Co1 N18 2.141(9) .
Co2 O2 2.074(8) .
Co2 O5 2.040(8) 1_455
Co2 N6 2.140(8) .
Co2 N11 2.176(10) 1_554
Co2 O14 2.190(9) .
Co2 N15 2.132(10) 2_454
O1 C23 1.237(16) .
O2 C8 1.241(15) .
N3 C10 1.298(15) .
N3 C27 1.358(16) .
N4 Co1 2.169(8) 1_554
N4 C13 1.372(16) .
N4 C35 1.356(15) .
O5 Co2 2.040(8) 1_655
O5 C23 1.276(15) .
N6 C9 1.368(16) .
N6 C12 1.409(16) .
O7 C8 1.260(14) .
C8 C25 1.527(16) .
C9 H9 0.9500 .
C9 C26 1.385(19) .
C10 H10 0.9500 .
C10 C24 1.373(15) .
N11 Co2 2.176(10) 1_556
N11 C30 1.330(16) .
N11 C32 1.317(15) .
C12 H12 0.9500 .
C12 C20 1.355(19) .
C13 H13 0.9500 .
C13 C22 1.334(18) .
O14 H14 0.888(13) .
O14 C25 1.432(14) .
N15 Co2 2.132(10) 2_444
N15 C28 1.304(17) .
N15 C31 1.321(19) .
O16 H16 0.88(3) .
O16 C47 1.427(14) .
C17 C21 1.447(17) .
C17 C22 1.390(18) .
C17 C46 1.416(17) .
N18 C16 1.325(15) .
N18 C1A 1.318(18) .
C19 C29 1.506(17) .
C19 C33 1.388(17) .
C19 C42 1.420(16) .
C20 H20 0.9500 .
C20 C29 1.362(17) .
C21 C24 1.411(15) .
C21 C34 1.411(17) .
C22 H22 0.9500 .
C23 C47 1.533(16) .
C24 H24 0.9500 .
C25 H25 1.0000 .
C25 C6 1.515(16) .
C26 H26 0.9500 .
C26 C29 1.382(19) .
C27 H27 0.9500 .
C27 C34 1.350(18) .
C28 H28 0.9500 .
C28 C60 1.361(19) .
C30 H30 0.9500 .
C30 C33 1.341(17) .
C31 H31 0.9500 .
C31 C54 1.37(2) .
C32 H32 0.9500 .
C32 C42 1.361(17) .
C33 H33 0.9500 .
C34 H34 0.9500 .
C35 H35 0.9500 .
C35 C46 1.382(18) .
C37 C39 1.492(13) .
C37 C54 1.36(2) .
C37 C60 1.366(17) .
C39 C58 1.375(17) .
C39 C61 1.37(2) .
C42 H42 0.9500 .
C46 H46 0.9500 .
C47 H47 1.0000 .
C47 C2 1.527(15) .
C54 H54 0.9500 .
C58 H58 0.9500 .
C58 C16 1.409(17) .
C60 H60 0.9500 .
C61 H61 0.9500 .
C61 C1A 1.40(2) .
O3 N1 1.266(15) .
O4 N20 1.263(14) .
N1 O6 1.264(15) .
N1 O8 1.237(15) .
O9 N20 1.232(15) .
O10 N20 1.207(16) .
C1 H1 0.9500 .
C1 C2 1.400(18) .
C1 C11 1.37(2) .
C2 C14 1.401(17) .
C4 H4 0.9500 .
C4 C6 1.410(19) .
C4 C15 1.41(2) .
C5 H5 0.9500 .
C5 C6 1.416(19) .
C5 C3 1.42(3) .
C3 H3 0.9500 .
C3 C1B 1.38(4) .
C14 H14A 0.9500 .
C14 C18 1.36(2) .
C18 H18 0.9500 .
C18 C7 1.39(3) .
C7 H7 0.9500 .
C7 C11 1.39(3) .
C11 H11 0.9500 .
C15 H15 0.9500 .
C15 C1B 1.31(3) .
C16 H16A 0.9500 .
C1A H1A 0.9500 .
C1B H1B 0.9500 .
N2 O11 1.20(3) .
N2 C1F 1.42(3) .
N2 O15 1.22(3) .
C1F C1E 1.3900 .
C1F C1C 1.3900 .
C1E H1E 0.9500 .
C1E C1H 1.3900 .
C1H H1H 0.9500 .
C1H C1D 1.3900 .
C1D H1D 0.9500 .
C1D C1G 1.3900 .
C1G H1G 0.9500 .
C1G C1C 1.3900 .
C1C H1C 0.9500 .
C1N C1P 1.3900 .
C1N C1O 1.3900 .
C1N N5B 1.46(3) .
C1P H1P 0.9500 .
C1P C1M 1.3900 .
C1M H1M 0.9500 .
C1M C1J 1.3900 .
C1J H1J 0.9500 .
C1J C1I 1.3900 .
C1I H1I 0.9500 .
C1I C1O 1.3900 .
C1O H1O 0.9500 .
O12 N5B 1.21(6) .
N5B O13 1.27(6) .
C1U C1W 1.3900 .
C1U C1R 1.3900 .
C1U N10 1.51(5) .
C1W H1W 0.9500 .
C1W C1L 1.3900 .
C1L H1L 0.9500 .
C1L C1K 1.3900 .
C1K H1K 0.9500 .
C1K C1T 1.3900 .
C1T H1T 0.9500 .
C1T C1R 1.3900 .
C1R H1R 0.9500 .
N10 O17 1.35(5) .
N10 O18 1.24(3) .
C1X C1S 1.3900 .
C1X C1V 1.3900 .
C1X N21 1.44(3) .
C1S H1S 0.9500 .
C1S C1Q 1.3900 .
C1Q H1Q 0.9500 .
C1Q C62 1.3900 .
C62 H62 0.9500 .
C62 C1Y 1.3900 .
C1Y H1Y 0.9500 .
C1Y C1V 1.3900 .
C1V H1V 0.9500 .
N21 O19 1.22(3) .
N21 O21 1.22(3) .
loop_
_geom_torsion_atom_site_label_1
_geom_torsion_atom_site_label_2
_geom_torsion_atom_site_label_3
_geom_torsion_atom_site_label_4
_geom_torsion
_geom_torsion_site_symmetry_1
Co1 O1 C23 O5 -178.3(7) .
Co1 O1 C23 C47 0.6(12) .
Co1 N3 C10 C24 174.8(9) .
Co1 N3 C27 C34 -176.2(10) .
Co1 N4 C13 C22 -179.4(13) 1_554
Co1 N4 C35 C46 -179.7(10) 1_554
Co1 O7 C8 O2 -4.5(16) .
Co1 O7 C8 C25 175.7(7) .
Co1 O16 C47 C23 -10.3(10) .
Co1 O16 C47 C2 109.0(9) .
Co1 N18 C16 C58 172.5(9) .
Co1 N18 C1A C61 -170.8(14) .
Co2 O2 C8 O7 -177.1(8) .
Co2 O2 C8 C25 2.7(13) .
Co2 O5 C23 O1 -1.4(16) 1_655
Co2 O5 C23 C47 179.6(7) 1_655
Co2 N6 C9 C26 179.9(12) .
Co2 N6 C12 C20 178.7(11) .
Co2 N11 C30 C33 179.1(10) 1_556
Co2 N11 C32 C42 -178.9(11) 1_556
Co2 O14 C25 C8 -7.6(11) .
Co2 O14 C25 C6 115.2(9) .
Co2 N15 C28 C60 -172.1(14) 2_444
Co2 N15 C31 C54 170(2) 2_444
O1 C23 C47 O16 6.6(13) .
O1 C23 C47 C2 -114.1(11) .
O2 C8 C25 O14 3.6(14) .
O2 C8 C25 C6 -120.5(11) .
N3 C10 C24 C21 2(2) .
N3 C27 C34 C21 1(2) .
N4 C13 C22 C17 2(3) .
N4 C35 C46 C17 -4(2) .
O5 C23 C47 O16 -174.3(9) .
O5 C23 C47 C2 64.9(12) .
N6 C9 C26 C29 2(2) .
N6 C12 C20 C29 0(2) .
O7 C8 C25 O14 -176.5(9) .
O7 C8 C25 C6 59.3(13) .
C8 C25 C6 C4 88.7(13) .
C8 C25 C6 C5 -88.0(14) .
C9 N6 C12 C20 3(2) .
C9 C26 C29 C19 -177.3(13) .
C9 C26 C29 C20 1(2) .
C10 N3 C27 C34 2.6(19) .
N11 C30 C33 C19 -2(2) .
N11 C32 C42 C19 2(2) .
C12 N6 C9 C26 -4(2) .
C12 C20 C29 C19 176.1(12) .
C12 C20 C29 C26 -3(2) .
C13 N4 C35 C46 5.4(19) .
O14 C25 C6 C4 -33.7(15) .
O14 C25 C6 C5 149.6(12) .
N15 C28 C60 C37 -2(3) .
N15 C31 C54 C37 7(4) .
O16 C47 C2 C1 -24.9(16) .
O16 C47 C2 C14 161.4(11) .
C17 C21 C24 C10 -176.9(11) .
C17 C21 C34 C27 175.7(12) .
C21 C17 C22 C13 -177.4(14) .
C21 C17 C46 C35 178.2(12) .
C22 C17 C21 C24 149.9(14) .
C22 C17 C21 C34 -28.6(19) .
C22 C17 C46 C35 0.4(19) .
C23 C47 C2 C1 93.8(14) .
C23 C47 C2 C14 -79.9(13) .
C24 C21 C34 C27 -3.0(18) .
C27 N3 C10 C24 -3.9(19) .
C28 N15 C31 C54 -8(3) .
C29 C19 C33 C30 -176.4(11) .
C29 C19 C42 C32 176.7(12) .
C30 N11 C32 C42 0(2) .
C31 N15 C28 C60 5(3) .
C32 N11 C30 C33 0.2(19) .
C33 C19 C29 C20 24.5(19) .
C33 C19 C29 C26 -156.8(14) .
C33 C19 C42 C32 -3.2(19) .
C34 C21 C24 C10 1.7(18) .
C35 N4 C13 C22 -5(2) .
C37 C39 C58 C16 179.6(11) .
C37 C39 C61 C1A -177.9(14) .
C39 C37 C54 C31 180(2) .
C39 C37 C60 C28 177.7(15) .
C39 C58 C16 N18 -0.4(19) .
C39 C61 C1A N18 -3(3) .
C42 C19 C29 C20 -155.4(14) .
C42 C19 C29 C26 23.2(19) .
C42 C19 C33 C30 3.5(18) .
C46 C17 C21 C24 -27.7(18) .
C46 C17 C21 C34 153.8(13) .
C46 C17 C22 C13 0(2) .
C47 C2 C14 C18 172.4(13) .
C54 C37 C39 C58 -9(2) .
C54 C37 C39 C61 169(2) .
C54 C37 C60 C28 0(3) .
C58 C39 C61 C1A 0(2) .
C60 C37 C39 C58 173.9(14) .
C60 C37 C39 C61 -8(2) .
C60 C37 C54 C31 -3(3) .
C61 C39 C58 C16 2(2) .
C1 C2 C14 C18 -2(2) .
C2 C1 C11 C7 1(2) .
C2 C14 C18 C7 -1(2) .
C4 C15 C1B C3 -2(3) .
C5 C3 C1B C15 1(3) .
C6 C4 C15 C1B -1(3) .
C6 C5 C3 C1B 2(3) .
C3 C5 C6 C25 172.0(14) .
C3 C5 C6 C4 -5(2) .
C14 C18 C7 C11 4(3) .
C18 C7 C11 C1 -4(3) .
C11 C1 C2 C47 -172.2(13) .
C11 C1 C2 C14 2(2) .
C15 C4 C6 C25 -172.1(12) .
C15 C4 C6 C5 4.5(19) .
C16 N18 C1A C61 5(2) .
C1A N18 C16 C58 -2.8(19) .
N2 C1F C1E C1H -175.3(17) .
N2 C1F C1C C1G 175.0(18) .
O11 N2 C1F C1E 179(2) .
O11 N2 C1F C1C 4(3) .
C1F C1E C1H C1D 0.0 .
C1E C1F C1C C1G 0.0 .
C1E C1H C1D C1G 0.0 .
C1H C1D C1G C1C 0.0 .
C1D C1G C1C C1F 0.0 .
C1C C1F C1E C1H 0.0 .
O15 N2 C1F C1E 2(4) .
O15 N2 C1F C1C -173(3) .
C1N C1P C1M C1J 0.0 .
C1P C1N C1O C1I 0.0 .
C1P C1N N5B O12 -156(4) .
C1P C1N N5B O13 29(6) .
C1P C1M C1J C1I 0.0 .
C1M C1J C1I C1O 0.0 .
C1J C1I C1O C1N 0.0 .
C1O C1N C1P C1M 0.0 .
C1O C1N N5B O12 17(6) .
C1O C1N N5B O13 -158(4) .
N5B C1N C1P C1M 173(3) .
N5B C1N C1O C1I -174(3) .
C1U C1W C1L C1K 0.0 .
C1W C1U C1R C1T 0.0 .
C1W C1U N10 O17 161(3) .
C1W C1U N10 O18 -15(5) .
C1W C1L C1K C1T 0.0 .
C1L C1K C1T C1R 0.0 .
C1K C1T C1R C1U 0.0 .
C1R C1U C1W C1L 0.0 .
C1R C1U N10 O17 -23(5) .
C1R C1U N10 O18 161(3) .
N10 C1U C1W C1L 176(3) .
N10 C1U C1R C1T -175(3) .
C1X C1S C1Q C62 0.0 .
C1S C1X C1V C1Y 0.0 .
C1S C1X N21 O19 10(7) .
C1S C1X N21 O21 -163(5) .
C1S C1Q C62 C1Y 0.0 .
C1Q C62 C1Y C1V 0.0 .
C62 C1Y C1V C1X 0.0 .
C1V C1X C1S C1Q 0.0 .
C1V C1X N21 O19 -166(5) .
C1V C1X N21 O21 21(8) .
N21 C1X C1S C1Q -176(4) .
N21 C1X C1V C1Y 176(4) .
