#------------------------------------------------------------------------------
#$Date: 2019-11-25 12:38:52 +0200 (Mon, 25 Nov 2019) $
#$Revision: 240879 $
#$URL: file:///home/coder/svn-repositories/cod/cif/4/13/04/4130450.cif $
#------------------------------------------------------------------------------
#
# This file is available in the Crystallography Open Database (COD),
# http://www.crystallography.net/
#
# All data on this site have been placed in the public domain by the
# contributors.
#
data_4130450
loop_
_publ_author_name
'Xiao, Dianne J.'
'Gonzalez, Miguel I.'
'Darago, Lucy E.'
'Vogiatzis, Konstantinos D.'
'Haldoupis, Emmanuel'
'Gagliardi, Laura'
'Long, Jeffrey R.'
_publ_section_title
;
 Selective, Tunable O2 Binding in Cobalt(II)-Triazolate/Pyrazolate
 Metal-Organic Frameworks.
;
_journal_issue                   22
_journal_name_full               'Journal of the American Chemical Society'
_journal_page_first              7161
_journal_page_last               7170
_journal_paper_doi               10.1021/jacs.6b03680
_journal_volume                  138
_journal_year                    2016
_chemical_formula_moiety         'C109.02 H71.02 Cl3 Co13.44 N63.98 O5.04'
_chemical_formula_sum            'C109.02 H71.02 Cl3 Co13.44 N63.98 O5.04'
_chemical_formula_weight         3256.24
_chemical_name_common            Co-BDTriP
_space_group_crystal_system      cubic
_space_group_IT_number           221
_space_group_name_Hall           '-P 4 2 3'
_space_group_name_H-M_alt        'P m -3 m'
_atom_sites_solution_hydrogens   geom
_audit_creation_date             2016-02-03
_audit_creation_method
;
Olex2 1.2
(compiled 2015.09.30 svn.r3233 for OlexSys, GUI svn.r5103)
;
_cell_angle_alpha                90
_cell_angle_beta                 90
_cell_angle_gamma                90
_cell_formula_units_Z            1
_cell_length_a                   18.6522(5)
_cell_length_b                   18.6522(5)
_cell_length_c                   18.6522(5)
_cell_measurement_reflns_used    9714
_cell_measurement_temperature    100(2)
_cell_measurement_theta_max      28.667
_cell_measurement_theta_min      2.442
_cell_volume                     6489.2(3)
_computing_cell_refinement       'SAINT v8.34A (Bruker, 2013)'
_computing_data_collection       'Bruker APEX 2'
_computing_data_reduction        'SAINT v8.34A (Bruker, 2013)'
_computing_molecular_graphics    'Olex2 (Dolomanov et al., 2009)'
_computing_publication_material  'Olex2 (Dolomanov et al., 2009)'
_computing_structure_refinement  'ShelXL (Sheldrick, 2015)'
_computing_structure_solution    'ShelXT (Sheldrick, 2015)'
_diffrn_ambient_temperature      100(2)
_diffrn_detector_area_resol_mean 7.9
_diffrn_measured_fraction_theta_full 0.999
_diffrn_measured_fraction_theta_max 0.999
_diffrn_measurement_device_type  'Bruker APEX-II CCD'
_diffrn_measurement_method       '\f and \w scans'
_diffrn_radiation_monochromator  'QUAZAR multilayer mirrors'
_diffrn_radiation_type           MoK\a
_diffrn_radiation_wavelength     0.71073
_diffrn_reflns_av_R_equivalents  0.0460
_diffrn_reflns_av_unetI/netI     0.0273
_diffrn_reflns_Laue_measured_fraction_full 0.999
_diffrn_reflns_Laue_measured_fraction_max 0.999
_diffrn_reflns_limit_h_max       22
_diffrn_reflns_limit_h_min       -5
_diffrn_reflns_limit_k_max       10
_diffrn_reflns_limit_k_min       -19
_diffrn_reflns_limit_l_max       21
_diffrn_reflns_limit_l_min       -10
_diffrn_reflns_number            7753
_diffrn_reflns_point_group_measured_fraction_full 0.999
_diffrn_reflns_point_group_measured_fraction_max 0.999
_diffrn_reflns_theta_full        25.026
_diffrn_reflns_theta_max         25.026
_diffrn_reflns_theta_min         1.544
_diffrn_source                   'microfocus sealed tube'
_diffrn_standards_number         0
_exptl_absorpt_coefficient_mu    0.903
_exptl_absorpt_correction_T_max  0.7458
_exptl_absorpt_correction_T_min  0.6661
_exptl_absorpt_correction_type   multi-scan
_exptl_absorpt_process_details
;
SADABS-2014/5 (Bruker,2014) was used for absorption correction.
wR2(int) was 0.0697 before and 0.0427 after correction.
The Ratio of minimum to maximum transmission is 0.8931.
The \l/2 correction factor is Not present.
;
_exptl_crystal_colour            'dark brown'
_exptl_crystal_colour_modifier   dark
_exptl_crystal_colour_primary    brown
_exptl_crystal_density_diffrn    0.814
_exptl_crystal_description       cube
_exptl_crystal_F_000             1582
_exptl_crystal_size_max          0.1
_exptl_crystal_size_mid          0.1
_exptl_crystal_size_min          0.1
_refine_diff_density_max         0.484
_refine_diff_density_min         -0.897
_refine_diff_density_rms         0.068
_refine_ls_extinction_method     none
_refine_ls_goodness_of_fit_ref   1.118
_refine_ls_hydrogen_treatment    constr
_refine_ls_matrix_type           full
_refine_ls_number_parameters     53
_refine_ls_number_reflns         1208
_refine_ls_number_restraints     0
_refine_ls_restrained_S_all      1.118
_refine_ls_R_factor_all          0.0610
_refine_ls_R_factor_gt           0.0463
_refine_ls_shift/su_max          0.000
_refine_ls_shift/su_mean         0.000
_refine_ls_structure_factor_coef Fsqd
_refine_ls_weighting_details
'w=1/[\s^2^(Fo^2^)+(0.0447P)^2^+13.2442P] where P=(Fo^2^+2Fc^2^)/3'
_refine_ls_weighting_scheme      calc
_refine_ls_wR_factor_gt          0.1099
_refine_ls_wR_factor_ref         0.1233
_reflns_Friedel_coverage         0.000
_reflns_number_gt                926
_reflns_number_total             1208
_reflns_threshold_expression     'I > 2\s(I)'
_cod_data_source_file            ja6b03680_si_001.cif
_cod_data_source_block           Co-BDTriP-Activated
_cod_original_cell_volume        6489.2(5)
_cod_database_code               4130450
_shelx_space_group_comment
;
The symmetry employed for this shelxl refinement is uniquely defined
by the following loop, which should always be used as a source of
symmetry information in preference to the above space-group names.
They are only intended as comments.
;
_shelx_estimated_absorpt_t_max   0.915
_shelx_estimated_absorpt_t_min   0.915
_olex2_refinement_description
;
1. Fixed Uiso
 At 1.2 times of:
  All C(H) groups
2. Shared sites
{C1, N2}
3. Uiso/Uaniso restraints and constraints
Uanis(C1) = Uanis(N2)
4. Others
 Fixed Sof: O1(0.105) Co2(0.03) N2(0.333) C1(0.667) H1(0.667)
5.a Aromatic/amide H refined with riding coordinates:
 C4(H4), C1(H1)
;
_shelx_res_file
;
    djx044_0m_sq.res created by SHELXL-2014/7

TITL djx044_0m in Pm-3m #221
REM reset to Pm-3m #221
CELL 0.71073 18.6522 18.6522 18.6522 90 90 90
ZERR 1 0.0005 0.0005 0.0005 0 0 0
LATT 1
SYMM -Y,+X,+Z
SYMM -X,-Y,+Z
SYMM +Y,-X,+Z
SYMM +X,-Z,+Y
SYMM +X,-Y,-Z
SYMM +X,+Z,-Y
SYMM +Z,+Y,-X
SYMM -X,+Y,-Z
SYMM -Z,+Y,+X
SYMM +Z,+X,+Y
SYMM +Y,+Z,+X
SYMM -Y,-Z,+X
SYMM +Z,-X,-Y
SYMM -Y,+Z,-X
SYMM -Z,-X,+Y
SYMM -Z,+X,-Y
SYMM +Y,-Z,-X
SYMM +Y,+X,-Z
SYMM -Y,-X,-Z
SYMM -X,+Z,+Y
SYMM -X,-Z,-Y
SYMM +Z,-Y,+X
SYMM -Z,-Y,-X
SFAC C H Cl Co N O
UNIT 104.02 56.02 3 13.44 63.98 5.04
EADP C1 N2
EXYZ C1 N2

L.S. 5 0 6
PLAN  20
SIZE 0.1 0.1 0.1
TEMP -173(2)
BOND
MORE -1
CONF
BOND $H
ABIN
fmap 2
acta 52
REM <olex2.extras>
REM <HklSrc "%./DJX044_0m_sq.hkl">
REM </olex2.extras>

WGHT    0.044700   13.244200
FVAR       0.06428
CO1   4    0.500000    0.000000    0.372260    10.25000    0.02339    0.01641 =
         0.03321    0.00000    0.00000    0.00000
CL1   3    0.500000    0.000000    0.500000    10.06250    0.02944    0.02383 =
         0.02944    0.00000    0.00000    0.00000
O1    6    0.500000    0.000000    0.246038    10.10500    0.05866    0.15897 =
         0.10614    0.00000    0.00000    0.00000
N1    5    0.424559    0.072384    0.373187    11.00000    0.02542    0.01659 =
         0.02879    0.00479    0.00036    0.00026
C2    1    0.351936    0.163222    0.351936    10.50000    0.03281    0.02419 =
         0.03281    0.00306    0.00230    0.00306
C3    1    0.319741    0.227908    0.319741    10.50000    0.02799    0.02724 =
         0.02799    0.00456    0.00332    0.00456
C4    1    0.258571    0.258571    0.349265    10.50000    0.03010    0.03010 =
         0.02694    0.00860    0.00860    0.00233
AFIX  43
H4    2    0.237323    0.237324    0.390388    10.50000   -1.20000
AFIX   0
PART 2
CO2   4    0.500000    0.146088    0.270695    10.03000    0.02169    0.11184 =
         0.05369    0.03196    0.00000    0.00000
N2    5    0.411883    0.127685    0.329268    10.33300    0.02909    0.02573 =
         0.03280    0.00954    0.00122   -0.00034
PART 0
PART 3
C1    1    0.411883    0.127685    0.329268    10.66700    0.02909    0.02573 =
         0.03280    0.00954    0.00122   -0.00034
AFIX  43
H1    2    0.440080    0.140252    0.288758    10.66700   -1.20000
AFIX   0
HKLF 4

REM  djx044_0m in Pm-3m #221
REM R1 =  0.0463 for     926 Fo > 4sig(Fo)  and  0.0610 for all    1208 data
REM     53 parameters refined using      0 restraints

END

WGHT      0.0449     13.1866

REM Highest difference peak  0.484,  deepest hole -0.897,  1-sigma level  0.068
Q1    1   0.5000  0.0543  0.3837  10.50000  0.05    0.48
Q2    1   0.5485  0.0000  0.2081  10.50000  0.05    0.44
Q3    1   0.5000  0.1801  0.1801  10.25000  0.05    0.41
Q4    1   0.5000  0.0000  0.3236  10.25000  0.05    0.39
Q5    1   0.5000  0.0603  0.2030  10.50000  0.05    0.35
Q6    1   0.5000 -0.0635  0.5000  10.12500  0.05    0.34
Q7    1   0.5000  0.0000  0.4381  10.25000  0.05    0.34
Q8    1   0.5683  0.0000  0.4317  10.25000  0.05    0.29
Q9    1   0.5000  0.0000  0.1670  10.25000  0.05    0.29
Q10   1   0.5000  0.1989  0.3222  10.50000  0.05    0.28
Q11   1   0.5681  0.0000  0.3283  10.50000  0.05    0.28
Q12   1   0.4363  0.0000  0.3587  10.50000  0.05    0.27
Q13   1   0.4290  0.1027  0.2490  11.00000  0.05    0.25
Q14   1   0.3471  0.1683  0.3724  11.00000  0.05    0.25
Q15   1   0.5000  0.1424  0.3286  10.50000  0.05    0.25
Q16   1   0.4691 -0.0293  0.3356  11.00000  0.05    0.25
Q17   1   0.5000  0.4805  0.5000  10.12500  0.05    0.24
Q18   1   0.4405  0.1122  0.2255  11.00000  0.05    0.24
Q19   1   0.3846  0.1577  0.3487  11.00000  0.05    0.23
Q20   1   0.4595  0.0000  0.3973  10.50000  0.05    0.23
;
_shelx_res_checksum              7826
_shelx_hkl_file
;
  -1  -1   0  243.74    4.70
  -1   0  -1  250.00    4.68
  -1   0   1  201.04    4.70
   1   0  -1  237.92    4.67
   1   0   1  245.46    4.68
   1   1   0  244.02    4.70
  -1  -1  -1 1000.00   22.94
   1   1   1  980.81   22.84
  -2   0   0  207.07    4.08
   2   0   0  203.34    4.05
   2  -1   0    9.21    0.24
   2   1   0    8.99    0.25
  -2   1   0    9.82    0.24
   1   0   2    8.99    0.23
  -2  -1   0    9.01    0.26
   2   0   1    9.39    0.26
   0  -1  -2    9.58    0.20
   2   0  -1    9.05    0.24
  -2   0  -1    9.53    0.26
  -2   0   1    8.87    0.23
  -2  -1  -1    0.75    0.11
   2  -1   1    0.97    0.11
  -2   1   1    0.90    0.09
  -1  -2  -1    1.03    0.11
  -1  -1  -2    0.88    0.09
   2   1  -1    1.04    0.12
   2  -1  -1    0.94    0.09
  -2  -1   1    0.88    0.11
   1   1   2    0.93    0.09
   2   1   1    0.86    0.11
  -2  -2   0  298.13    5.85
  -2   0  -2  298.32    5.89
  -2   0   2  296.41    5.81
   0  -2  -2  295.85    5.74
   2   0  -2  294.84    5.82
   2   0   2  299.04    5.90
  -2  -2  -1   78.84    1.57
  -2  -1  -2   76.53    1.56
  -2   1   2   79.52    1.51
  -1  -2  -2   78.01    1.54
   1   2   2   79.08    1.54
   2  -1  -2   76.14    1.54
   2   1   2   80.19    1.56
   2   2   1   78.13    1.57
  -2  -2  -2   72.84    1.44
   2  -2  -2   70.11    1.39
   2   2   2   70.13    1.44
  -3   0   0  244.37    4.86
   3   0   0  235.23    4.81
  -3   1   0   20.73    0.49
   3  -1   0   20.32    0.49
   3   1   0   19.57    0.50
   3   2   0    0.10    0.05
   3  -2   0    0.45    0.16
   2   0   3    0.10    0.05
   3   0  -1   19.45    0.47
   0   1   3   19.80    0.41
  -3   0   1   19.00    0.46
   3   0   1   19.78    0.49
  -1  -1  -3   16.19    0.38
  -3   1   1   16.09    0.40
   3  -1   1   16.47    0.43
   3   1  -1   15.44    0.42
   1   1   3   16.31    0.38
   3   1   1   15.73    0.43
   3  -1  -1   15.97    0.40
  -1  -3  -2    0.66    0.18
   3  -2   1    0.65    0.17
   3   2   1    0.59    0.20
  -3   0   2    0.47    0.15
   3   0  -2    0.45    0.16
   0   2   3    0.69    0.11
  -1  -2  -3    0.06    0.03
  -3   1   2    0.06    0.04
   3  -1   2    0.04    0.05
   3   1   2    0.03    0.05
   1   2   3    0.45    0.15
   3  -1  -2    0.11    0.04
  -3   2   2  220.96    4.15
   2   2   3  207.68    4.10
   2   3   2  204.97    4.13
   3  -2  -2  211.73    4.19
   3   2   2  204.98    4.17
  -3   0   3  152.54    2.98
   0  -3  -3  148.17    2.90
   3   0   3  153.58    2.98
  -3   1   3   35.76    0.77
  -1  -3  -3   36.19    0.80
   3  -1   3   37.30    0.85
   3  -1  -3   36.62    0.77
   1   3   3   38.08    0.80
   3   1   3   36.67    0.85
   3   3   1   36.95    0.87
  -3   2   3   25.28    0.55
   2   3   3   24.56    0.63
   3  -3  -2   25.76    0.56
   3  -2  -3   24.25    0.55
   3   2   3   24.52    0.64
   3   3   2   24.80    0.67
   3  -3  -3  428.06    8.29
   3   3   3  426.99    8.45
   4   0   0   16.39    0.48
   4   1   0   14.14    0.45
   4  -1   0   13.88    0.45
   4   2   0    0.75    0.31
   2   0   4    0.07    0.06
   4   3   0    0.97    0.33
   4  -3   0    0.65    0.25
   4   0   1   13.76    0.45
   4   0  -1   14.00    0.42
   0   1   4   14.01    0.34
   4   1  -1  141.24    2.85
  -1  -1  -4  145.39    2.78
   4  -1   1  145.35    2.86
   1   1   4  150.90    2.80
   4   1   1  143.98    2.87
   4  -1  -1  140.86    2.89
   4   2  -1   12.36    0.47
   4  -2   1   12.29    0.44
   4   2   1   12.63    0.46
   2   1   4   11.48    0.40
   4  -2  -1   11.91    0.41
   3  -1   4   15.93    0.50
  -3   1   4   16.43    0.40
   4  -3  -1   16.07    0.47
   3   1   4   16.20    0.52
   4   3   1   16.50    0.55
   4   0  -2    0.11    0.06
   0   2   4    0.10    0.04
   4   0   2   -0.09    0.07
  -1  -2  -4   11.71    0.35
   4   1  -2   12.54    0.44
   1   2   4   11.56    0.35
   4   1   2   11.48    0.45
   4  -1  -2   11.80    0.39
   4  -2   2   42.81    0.96
   2   2   4   41.39    0.92
   4  -2  -2   41.42    0.91
   4   2   2   40.81    0.98
   4  -3  -2    3.30    0.26
   4   3   2    3.81    0.34
   3   2   4    3.56    0.31
   4   0  -3    1.22    0.27
   4  -1   3   15.96    0.53
  -1  -3  -4   15.79    0.42
  -4   1   3   15.48    0.44
   1   3   4   16.28    0.44
   4  -1  -3   16.76    0.45
   4   1   3   15.47    0.52
  -4   2   3    3.61    0.24
   4  -2   3    4.09    0.32
   4   2   3    3.44    0.32
   2   3   4    4.12    0.29
   3   4   2    4.45    0.35
   4  -2  -3    3.07    0.24
   3   3   4  151.54    3.19
   3   4   3  164.32    3.21
   4  -3  -3  171.20    3.26
   4   3   3  160.61    3.23
   0  -4  -4  101.62    1.99
   4   0   4  101.23    2.10
  -4   1   4   56.20    1.17
   4  -1   4   58.17    1.28
   4  -1  -4   57.08    1.18
   4   1   4   56.55    1.27
   4   4   1   57.38    1.28
  -4   2   4   29.75    0.65
   4  -2   4   29.27    0.75
   4  -2  -4   28.78    0.65
   2   4   4   29.86    0.72
   4   2   4   28.65    0.76
   4   4   2   29.76    0.78
   3   4   4   34.60    0.85
   4  -4  -3   36.44    0.79
   4  -3  -4   35.59    0.76
   4   3   4   35.15    0.88
   4   4   3   35.17    0.89
   4  -4  -4  628.15   11.86
   4   4   4  596.19   12.13
   5   0   0    0.98    0.32
   5   1   0    1.15    0.32
   5   2   0   24.86    0.70
   5  -2   0   25.57    0.68
   2   0   5   24.91    0.63
   5   3   0   12.11    0.49
   5  -3   0   12.30    0.45
   3   0   5   12.57    0.46
   5   4   0    1.35    0.32
   5   0   1    0.13    0.08
   5   0  -1    0.19    0.07
   0   1   5    0.92    0.18
   5   1  -1    7.42    0.40
   5  -1   1    6.55    0.40
   1   1   5    6.93    0.30
   5  -1  -1    7.31    0.36
   5   1   1    7.12    0.40
   5   2  -1    5.34    0.38
   5  -2   1    4.85    0.35
   5   2   1    4.97    0.38
   5  -2  -1    4.29    0.32
   2   1   5    4.58    0.29
   5   3  -1    0.06    0.08
   3  -1   5    0.02    0.06
   5  -3   1    0.02    0.07
   3   1   5   -0.05    0.07
   5  -3  -1   -0.07    0.06
   5   3   1    0.09    0.08
   4  -1   5    2.47    0.32
  -4   1   5    1.99    0.20
   5  -4  -1    2.64    0.26
   5   4   1    2.97    0.36
   4   1   5    2.04    0.30
   5   0  -2   25.39    0.66
   5   0   2   24.86    0.71
   5   1  -2    5.36    0.35
   5  -1   2    4.71    0.36
  -1  -2  -5    5.02    0.24
   5  -1  -2    4.47    0.31
   5   1   2    4.67    0.36
   1   2   5    4.67    0.25
   5  -2   2   13.72    0.50
   5   2  -2   14.32    0.51
   2   2   5   13.68    0.43
   5  -2  -2   13.67    0.44
   5   2   2   13.95    0.51
   5  -3   2    2.37    0.30
   3   2   5    2.06    0.27
   5   3   2    2.10    0.32
   5  -3  -2    1.98    0.26
  -4   2   5   14.84    0.38
   4  -2   5   14.97    0.49
   5   4   2   14.83    0.54
   4  -2  -5   14.72    0.38
   5  -4  -2   15.09    0.46
   4   2   5   14.68    0.50
   5   0  -3   12.55    0.43
   5   0   3   12.16    0.49
   5   1  -3    0.14    0.07
   5  -1   3   -0.08    0.07
  -1  -3  -5    0.03    0.04
   1   3   5    0.06    0.05
   5  -1  -3   -0.01    0.06
   5   1   3   -0.06    0.07
   5  -2   3    2.27    0.31
   2   3   5    2.05    0.24
   5  -2  -3    1.84    0.24
   5   2   3    2.20    0.31
   5  -3   3  105.58    2.15
   3   3   5  100.10    2.10
   5  -3  -3  106.03    2.08
   5   3   3  102.32    2.17
   3   5   4    2.46    0.31
   4   3   5    2.81    0.29
   5  -4  -3    2.68    0.24
   5   4   3    2.66    0.33
   0  -4  -5    0.39    0.14
   5   0  -4    0.59    0.24
   5  -1   4    2.58    0.34
   5  -1  -4    2.17    0.23
   1   4   5    2.59    0.23
   5   1   4    1.97    0.31
   5  -2   4   14.87    0.53
   5  -2  -4   14.48    0.42
   5   2   4   14.63    0.53
   2   4   5   14.45    0.45
   5  -3   4    2.83    0.32
   5  -3  -4    2.16    0.22
   3   4   5    2.81    0.28
   5   3   4    2.06    0.32
   4   5   3    2.26    0.34
   4  -5  -4   19.69    0.46
   4   4   5   17.94    0.59
   4   5   4   18.48    0.60
   5  -4  -4   18.56    0.50
   5   4   4   18.23    0.62
   0  -5  -5  123.68    2.43
   5   0   5  122.84    2.55
   5  -1   5    9.83    0.46
   5   1   5    9.50    0.45
   5  -2   5    2.04    0.32
   5  -2  -5    2.52    0.22
   5  -5  -2    2.82    0.24
   5   2   5    2.05    0.32
   5   5   2    2.80    0.35
  -5   3   5  166.05    2.95
   5  -3   5  149.12    3.05
   5  -5  -3  153.68    2.97
   5  -3  -5  146.72    2.93
   3   5   5  149.46    3.02
   5   3   5  147.65    3.06
   5   5   3  143.90    3.07
   4   5   5   65.20    1.47
   5  -5  -4   67.89    1.39
   5  -4  -5   66.36    1.35
   5   4   5   65.52    1.50
   5   5   4   66.42    1.51
   5  -5  -5   16.08    0.44
   5   5   5   16.19    0.59
   6   0   0  177.62    3.55
   6   1   0   12.77    0.50
   6  -1   0   13.44    0.49
   6  -2   0   23.84    0.69
   6   2   0   23.85    0.71
   2   0   6   25.55    0.63
   3   0   6    9.78    0.42
   6   3   0   10.29    0.48
   6  -3   0   10.35    0.44
   6   4   0   67.28    1.54
   4   0   6   66.73    1.49
   6  -4   0   69.53    1.50
   5   0   6   11.87    0.50
   6  -5   0   12.40    0.46
   6   0   1   13.51    0.51
   6   0  -1   13.31    0.48
   0   1   6   13.72    0.36
   6   1  -1    4.82    0.37
   6  -1   1    4.77    0.37
   6   1   1    5.21    0.36
   6  -1  -1    5.54    0.35
   1   1   6    5.01    0.27
   6  -2   1    2.69    0.33
   6   2  -1    2.93    0.33
   6  -2  -1    1.92    0.29
   6   2   1    2.45    0.34
   2   1   6    2.38    0.27
   6  -3   1   -0.01    0.07
   3  -1   6    0.08    0.07
   6   3  -1    0.11    0.08
   3   1   6   -0.04    0.06
   6   3   1    0.07    0.08
   6  -3  -1    0.01    0.07
   6  -4   1   17.50    0.56
  -4   1   6   16.61    0.44
   4  -1   6   16.96    0.57
   4   1   6   16.94    0.56
   6  -4  -1   17.19    0.54
   6   4   1   16.27    0.60
   6  -5   1    0.07    0.07
   5  -1   6   -0.03    0.08
   6  -5  -1    0.07    0.07
   6   5   1    0.08    0.09
   5   1   6   -0.04    0.08
   6   0  -2   23.99    0.67
   0   2   6   24.36    0.55
   6   0   2   24.17    0.71
   6  -1   2    2.03    0.33
   6   1  -2    3.19    0.32
   6  -1  -2    2.26    0.28
   6   1   2    2.54    0.32
   1   2   6    2.37    0.22
   6   2  -2   11.71    0.49
   6  -2   2   11.45    0.49
   2   2   6   11.51    0.39
   6   2   2   12.07    0.49
   6  -2  -2   11.59    0.43
   6  -3   2    0.16    0.08
   6   3   2    0.79    0.31
   3   2   6    0.14    0.07
   6  -3  -2    0.15    0.07
   4  -2   6   13.36    0.48
   6  -4   2   13.26    0.50
   6   4   2   12.76    0.54
   6  -4  -2   13.56    0.46
   4   2   6   13.05    0.49
   5  -2   6    0.11    0.08
  -5   2   6    0.11    0.05
   6   5   2    0.18    0.09
   6  -5  -2    0.11    0.07
   5   2   6    0.07    0.08
   6   0  -3   10.01    0.41
   6   0   3   10.11    0.47
   6  -1   3   -0.06    0.08
   6   1  -3    0.07    0.07
   1   3   6    0.02    0.05
   6   1   3   -0.02    0.08
   6  -1  -3    0.08    0.06
   6  -2   3    0.13    0.08
   6   2  -3    0.83    0.30
   6   2   3    0.17    0.08
   6  -2  -3    0.19    0.06
   2   3   6    0.20    0.06
   6  -3   3    3.41    0.36
   6   3   3    3.25    0.35
   3   3   6    3.44    0.29
   6  -3  -3    2.90    0.27
   6  -4   3   16.23    0.56
   6  -4  -3   15.99    0.50
   6   4   3   15.75    0.59
   4   3   6   15.80    0.53
   5  -3   6    2.02    0.33
   6   5   3    2.12    0.38
   6  -5  -3    1.80    0.27
   5   3   6    1.82    0.31
   6   0   4   68.25    1.54
   6   0  -4   67.15    1.46
   6  -1   4   17.05    0.59
   6   1   4   16.15    0.58
   1   4   6   17.00    0.46
   6  -1  -4   16.91    0.50
   6  -2   4   13.45    0.53
   2   4   6   13.41    0.43
   6   2   4   12.33    0.53
   6  -2  -4   12.68    0.42
   6  -3   4   16.31    0.58
   6  -3  -4   15.62    0.48
   3   4   6   16.53    0.52
   6   3   4   16.05    0.59
   6  -4   4    4.68    0.37
   4   4   6    4.76    0.35
   6  -4  -4    3.95    0.28
   6   4   4    4.30    0.39
   5   4   6    2.34    0.36
   6  -5  -4    2.28    0.26
   4   6   5    2.37    0.35
   6   5   4    2.57    0.40
   0  -5  -6   11.67    0.33
   6   0   5   11.27    0.51
   6  -1   5   -0.06    0.08
   6  -1  -5    0.01    0.06
   6   1   5    0.02    0.08
   6  -2   5    0.02    0.08
   6  -2  -5    0.12    0.06
   2   5   6    0.14    0.07
   6   2   5    0.01    0.08
   6  -3   5    1.77    0.36
   6  -3  -5    1.82    0.22
   6   3   5    1.92    0.33
   3   5   6    1.98    0.30
   6  -4   5    2.89    0.37
   6  -4  -5    2.46    0.24
   6   4   5    2.46    0.39
   4   5   6    2.50    0.34
   5  -6  -4    2.98    0.24
   5   6   4    2.39    0.38
   5  -6  -5   38.43    0.86
   5   5   6   38.67    1.00
   5   6   5   38.36    1.02
   6  -5  -5   37.37    0.88
   6   5   5   38.16    1.03
   6   0   6  104.25    2.25
   6  -1   6   88.35    1.96
   6   1   6   90.05    1.97
   6  -2   6    5.33    0.45
   6  -2  -6    5.75    0.30
   6  -6  -2    5.97    0.35
   6   2   6    5.09    0.42
   6  -3   6   46.54    1.17
   6  -3  -6   46.78    1.01
   6  -6  -3   46.77    1.07
   6   3   6   46.13    1.17
   6   6   3   47.02    1.19
   6  -4   6   30.79    0.87
   6  -6  -4   31.00    0.77
   6  -4  -6   29.93    0.71
   4   6   6   30.64    0.85
   6   4   6   29.90    0.88
   6   6   4   30.45    0.91
   5   6   6   90.79    2.00
   6  -6  -5   93.30    1.88
   6  -5  -6   92.38    1.85
   6   5   6   90.77    2.03
   6   6   5   90.70    2.04
   6  -6  -6   14.93    0.45
   6   6   6   14.37    0.64
   7   0   0   53.45    1.26
   7   1   0   27.39    0.80
   7  -1   0   28.35    0.79
   7  -2   0   19.26    0.63
   2   0   7   20.50    0.56
   7   2   0   18.20    0.65
   3   0   7   10.62    0.44
   7   3   0   10.82    0.51
   7  -3   0   10.85    0.48
   7   4   0   27.64    0.83
   7  -4   0   28.27    0.79
   4   0   7   27.65    0.77
   7   5   0   93.84    2.09
   5   0   7   95.13    2.06
   7  -5   0   96.70    2.05
   7  -6   0    1.21    0.33
   7   0  -1   27.13    0.76
   7   0   1   27.18    0.79
   0   1   7   27.74    0.62
   7  -1   1  176.56    3.56
   7   1  -1  173.84    3.55
   7   1   1  172.70    3.55
   1   1   7  181.80    3.43
   7  -1  -1  174.57    3.53
   2   1   7    0.69    0.26
   7  -2  -1    1.09    0.29
   7   2   1    0.95    0.34
   3  -1   7   36.13    0.88
   7   3  -1   36.46    0.98
   7  -3   1   36.95    0.96
   7   3   1   35.29    0.97
   3   1   7   36.31    0.90
   7  -3  -1   37.94    0.94
   4  -1   7    3.22    0.35
   7   4  -1    3.50    0.40
   7  -4   1    2.72    0.36
  -4   1   7    2.90    0.22
   4   1   7    2.70    0.34
   7   4   1    3.52    0.39
   7  -4  -1    2.95    0.33
   5  -1   7   61.38    1.42
   7  -5   1   59.62    1.40
   7  -5  -1   60.97    1.39
   7   5   1   60.00    1.45
   5   1   7   59.41    1.41
   6  -1   7    0.29    0.11
   7  -6   1    1.22    0.34
   7  -6  -1    0.74    0.32
   6   1   7    0.37    0.11
   0   2   7   19.05    0.47
   7   0  -2   19.14    0.61
   7  -1   2    0.85    0.32
   7   1  -2    1.25    0.31
   1   2   7    0.61    0.21
   7  -1  -2    0.81    0.29
   7   1   2    0.91    0.32
   7  -2   2   80.89    1.79
   7   2  -2   80.55    1.78
   2   2   7   79.70    1.68
   7  -2  -2   84.55    1.76
   7   2   2   80.44    1.80
   7  -3   2    2.61    0.36
   7   3  -2    2.93    0.38
   7  -3  -2    2.65    0.31
   3   2   7    2.21    0.29
   7   3   2    2.32    0.38
   4  -2   7    5.69    0.37
   7  -4   2    5.90    0.42
   4   2   7    5.36    0.36
   7   4   2    5.47    0.44
   7  -4  -2    5.17    0.36
   7  -5   2    1.98    0.35
   5  -2   7    2.06    0.35
   5   2   7    1.39    0.34
   7   5   2    2.06    0.40
   7  -5  -2    1.96    0.32
   6  -2   7    2.84    0.42
   7  -6   2    3.03    0.37
   7  -6  -2    2.63    0.34
   7   6   2    3.31    0.45
   6   2   7    3.07    0.39
   7   0   3   10.40    0.49
   7   0  -3   10.73    0.45
   7  -1   3   36.46    0.97
   7   1  -3   36.25    0.93
   1   3   7   36.37    0.81
   7  -1  -3   35.72    0.90
   7   1   3   35.43    0.97
   7   2  -3    2.84    0.35
   7  -2   3    2.86    0.37
   2   3   7    2.48    0.26
   7   2   3    2.60    0.36
   7  -2  -3    2.54    0.29
   7  -3   3   -0.05    0.08
   7  -3  -3   -0.01    0.06
   7   3   3    0.01    0.08
   3   3   7   -0.01    0.06
   7  -4   3    1.75    0.37
   7  -4  -3    2.10    0.29
   4   3   7    1.65    0.32
   7   4   3    2.04    0.37
   7  -5   3    1.41    0.37
   5  -3   7    1.55    0.35
   5   3   7    1.32    0.34
   7   5   3    1.08    0.40
   6  -3   7    8.56    0.51
   7   6   3    8.29    0.56
   6   3   7    8.63    0.49
   7  -6  -3    8.83    0.43
   7   0  -4   28.54    0.77
   7   0   4   28.80    0.85
   7   1  -4    2.56    0.34
   7  -1   4    2.69    0.37
   7   1   4    3.18    0.38
   7  -1  -4    3.07    0.30
   1   4   7    3.15    0.23
   7  -2   4    4.82    0.41
   7  -2  -4    5.06    0.32
   7   2   4    4.67    0.40
   2   4   7    5.15    0.31
   7  -3   4    2.30    0.37
   7   3   4    1.84    0.38
   7  -3  -4    1.76    0.27
   3   4   7    2.06    0.29
   7  -4   4   42.64    1.12
   4   4   7   42.15    1.04
   7  -4  -4   42.64    1.00
   7   4   4   42.83    1.13
   7  -5   4   61.95    1.46
   7  -5  -4   63.58    1.38
   7   5   4   60.07    1.49
   5   4   7   61.91    1.44
   6  -4   7   11.81    0.56
   7  -6  -4   11.80    0.46
   7   6   4   11.73    0.62
   6   4   7   11.52    0.56
   7   0  -5   92.21    1.97
   7   0   5   95.51    2.09
   7  -1   5   62.92    1.49
   7  -1  -5   62.89    1.37
   7   1   5   60.70    1.48
   7  -2   5    1.85    0.40
   7   2   5    1.38    0.38
   2   5   7    2.52    0.29
   7  -2  -5    2.50    0.28
   7   3   5    1.16    0.38
   7  -3  -5    1.06    0.25
   3   5   7    1.20    0.31
   7  -4   5   60.11    1.47
   4   5   7   60.82    1.40
   7  -4  -5   63.74    1.35
   7   4   5   62.74    1.51
   7  -5   5   10.66    0.54
   7   5   5   10.52    0.56
   7  -5  -5   10.09    0.41
   5   5   7   10.03    0.51
   5   7   6    0.16    0.11
   5  -7  -6    0.03    0.05
   7   6   5    0.03    0.11
   7  -6  -5    0.04    0.07
   6   5   7   -0.07    0.10
   7   0   6    0.33    0.11
   7  -1   6    0.21    0.11
   7  -1  -6    1.36    0.28
   7   1   6    0.28    0.11
   7  -2   6    2.57    0.44
   7   2   6    2.32    0.42
   7  -2  -6    2.97    0.30
   7  -3   6    8.94    0.54
   7  -3  -6    8.20    0.36
   3   6   7    9.18    0.44
   7   3   6    8.66    0.52
   7  -4   6   11.01    0.57
   4   6   7   11.47    0.52
   7   4   6   11.18    0.58
   7  -4  -6   11.50    0.41
   6  -7  -4   11.49    0.42
   7  -5   6    0.14    0.10
   6   7   5    0.09    0.11
   7  -5  -6   -0.01    0.06
   6  -7  -5    0.01    0.06
   7   5   6    0.08    0.11
   5   6   7    0.08    0.10
   6  -7  -6  108.78    2.19
   6   6   7  108.22    2.36
   6   7   6  107.39    2.37
   7  -6  -6  110.98    2.22
   7   6   6  108.33    2.40
   7   0   7   81.77    1.89
   7  -1   7   86.40    1.96
   7  -7  -1   87.24    1.86
   7   1   7   84.52    1.96
   7  -2   7    0.02    0.11
   7  -7  -2    0.00    0.08
   7  -3   7    0.05    0.11
   7  -3  -7    0.00    0.06
   7  -7  -3   -0.02    0.07
   7   3   7   -0.02    0.10
   7  -4   7   45.99    1.22
   7  -4  -7   44.55    1.00
   7  -7  -4   45.85    1.08
   7   4   7   45.20    1.21
   7   7   4   44.64    1.22
   7  -5   7   30.98    0.95
   7  -7  -5   29.40    0.78
   7  -5  -7   29.90    0.73
   5   7   7   29.45    0.89
   7   5   7   30.67    0.96
   7   7   5   30.53    0.97
   6   7   7    2.76    0.51
   7  -7  -6    2.46    0.31
   7   6   7    4.34    0.53
   7   7   6    3.02    0.52
   7   7   7  209.31    4.30
   8   0   0  379.14    7.51
   8   1   0   21.49    0.72
   8  -1   0   22.82    0.72
   8   2   0   99.43    2.23
   8  -2   0  104.39    2.21
   2   0   8  103.66    2.10
   8   3   0   10.20    0.53
   8  -3   0    9.26    0.50
   3   0   8   10.00    0.45
   8   4   0  117.39    2.56
   4   0   8  116.63    2.47
   8  -4   0  121.94    2.52
   8   5   0    0.04    0.11
   5   0   8   -0.05    0.09
   8  -5   0   -0.01    0.09
   8  -6   0  123.72    2.63
   6   0   8  124.85    2.65
   8  -7   0    4.21    0.43
   7   0   8    3.91    0.48
   8   0  -1   23.13    0.72
   0   1   8   23.63    0.57
   8   0   1   22.63    0.74
   8  -1   1   48.23    1.18
   8   1  -1   46.24    1.18
   8  -1  -1   45.61    1.16
   1   1   8   47.31    1.04
   8   1   1   45.87    1.17
   8  -2   1    0.31    0.10
   8   2  -1    0.93    0.36
   8  -2  -1    1.06    0.32
   8   2   1    0.32    0.10
   2   1   8    0.34    0.08
   8   3  -1   70.48    1.66
   8  -3   1   71.50    1.65
   3  -1   8   72.84    1.57
   3   1   8   73.98    1.58
   8   3   1   70.01    1.67
   8  -3  -1   74.71    1.64
   8  -4   1   24.28    0.77
   4  -1   8   23.79    0.73
   8   4  -1   23.71    0.81
   8   4   1   23.92    0.81
   8  -4  -1   24.81    0.75
   4   1   8   24.47    0.73
   8  -5   1    9.90    0.52
   5  -1   8    9.62    0.51
   5   1   8    9.52    0.51
   8   5   1   10.59    0.58
   8  -5  -1    9.92    0.50
   6  -1   8   24.89    0.82
   8  -6   1   24.66    0.80
   8  -6  -1   24.75    0.78
   8   6   1   25.60    0.86
   6   1   8   24.53    0.81
   8  -7   1    8.03    0.50
   7  -1   8    8.11    0.55
   8  -7  -1    8.51    0.49
   7   1   8    7.92    0.55
   0   2   8  106.62    2.06
   8   0  -2  102.57    2.22
   8   0   2  102.81    2.26
   8  -1   2    0.26    0.10
   8   1  -2    0.33    0.09
   8   1   2    0.26    0.10
   1   2   8    0.95    0.23
   8  -1  -2    1.04    0.31
   8   2  -2   33.52    0.94
   8  -2   2   33.40    0.95
   8  -2  -2   34.00    0.91
   2   2   8   33.42    0.82
   8   2   2   33.60    0.96
   8  -3   2    2.36    0.38
   8   3  -2    2.83    0.42
   3   2   8    1.99    0.31
   8   3   2    2.35    0.40
   8  -3  -2    2.30    0.34
   8  -4   2   20.26    0.72
   4  -2   8   20.04    0.64
   8  -4  -2   20.36    0.67
   8   4   2   19.29    0.72
   4   2   8   20.15    0.65
   8  -5   2   -0.01    0.09
   5  -2   8    0.00    0.09
   5   2   8   -0.01    0.09
   8   5   2    0.09    0.11
   8  -5  -2   -0.01    0.08
   6  -2   8   23.50    0.79
   8  -6   2   22.54    0.76
   6   2   8   23.05    0.77
   8  -6  -2   22.23    0.72
   8   6   2   22.00    0.83
   7  -2   8    8.41    0.57
   8  -7   2    7.92    0.51
   8  -7  -2    8.37    0.48
   7   2   8    7.55    0.55
   8   0   3    9.23    0.52
   8   0  -3    9.43    0.47
   8  -1   3   74.67    1.70
   8   1  -3   70.38    1.63
   8  -1  -3   73.45    1.62
   1   3   8   72.43    1.50
   8   1   3   72.22    1.69
   8   2  -3    2.65    0.39
   8  -2   3    2.42    0.41
   8   2   3    1.78    0.38
   2   3   8    2.58    0.28
   8  -2  -3    2.63    0.33
   8  -3   3   10.95    0.55
   8   3  -3   10.28    0.54
   8   3   3   10.37    0.55
   8  -3  -3   10.29    0.47
   3   3   8   10.56    0.44
   8  -4   3    5.77    0.49
   8  -4  -3    5.44    0.38
   8   4   3    6.22    0.50
   4   3   8    5.59    0.40
   5  -3   8   18.67    0.66
   8  -5   3   17.93    0.70
   8  -5  -3   19.03    0.63
   5   3   8   18.18    0.65
   8   5   3   18.20    0.74
   8  -6   3   10.28    0.56
   6  -3   8   10.06    0.56
   8   6   3   11.06    0.63
   6   3   8   10.60    0.55
   8  -6  -3   10.93    0.49
   7  -3   8    0.15    0.12
   8  -7   3    1.54    0.41
   8  -7  -3    1.06    0.35
   8   7   3    0.39    0.13
   7   3   8    0.26    0.12
   8   0   4  116.83    2.51
   8   0  -4  115.18    2.43
   8   1  -4   23.58    0.73
   8  -1   4   23.71    0.80
   8  -1  -4   24.05    0.71
   8   1   4   23.37    0.80
   1   4   8   24.29    0.60
   8  -2   4   19.73    0.72
   8   2  -4   19.87    0.69
   8  -2  -4   20.82    0.63
   8   2   4   20.07    0.73
   2   4   8   19.92    0.57
   8  -3   4    5.28    0.47
   8  -3  -4    5.64    0.37
   3   4   8    5.66    0.36
   8   3   4    5.68    0.47
   8  -4   4   28.03    0.88
   8   4   4   27.24    0.90
   8  -4  -4   28.15    0.77
   4   4   8   27.29    0.78
   8  -5   4   15.41    0.66
   5   4   8   15.64    0.61
   8  -5  -4   15.68    0.56
   8   5   4   15.86    0.69
   6  -4   8    0.07    0.10
   8  -6   4    0.03    0.11
   6   4   8    0.11    0.10
   8   6   4    0.02    0.12
   8  -6  -4   -0.03    0.08
   8  -7   4   20.92    0.75
   7  -4   8   20.18    0.78
   8  -7  -4   19.83    0.65
   7   4   8   20.15    0.76
   8   7   4   18.97    0.81
   8   0  -5    0.06    0.08
   8   0   5   -0.02    0.10
   8  -1   5    9.64    0.57
   8  -1  -5   10.09    0.46
   8   1   5   10.12    0.55
   1   5   8    9.56    0.37
   8  -2   5   -0.02    0.10
   2   5   8   -0.03    0.07
   8   2   5    0.07    0.10
   8  -2  -5    0.10    0.07
   8  -3   5   17.74    0.71
   3   5   8   18.80    0.58
   8   3   5   17.87    0.72
   8  -3  -5   18.23    0.58
   8  -4   5   15.83    0.69
   8   4   5   14.98    0.67
   8  -4  -5   15.82    0.53
   4   5   8   15.38    0.58
   8  -5   5   26.28    0.89
   5   5   8   26.93    0.82
   8  -5  -5   27.35    0.74
   8   5   5   26.43    0.90
   8  -6   5   10.49    0.59
   6   5   8   10.59    0.58
   8   6   5   10.17    0.64
   8  -6  -5   10.27    0.46
   7  -5   8   58.04    1.47
   8  -7  -5   58.00    1.33
   8   7   5   58.18    1.52
   7   5   8   58.34    1.49
   8   0   6  125.72    2.73
   8  -1   6   24.77    0.86
   8  -1  -6   25.18    0.72
   8   1   6   24.39    0.85
   8  -2   6   22.51    0.81
   8  -2  -6   22.54    0.66
   8   2   6   21.93    0.81
   8  -3   6   10.96    0.61
   8   3   6    9.49    0.57
   3   6   8   10.60    0.47
   8  -3  -6   10.00    0.43
   8  -4   6   -0.03    0.11
   8  -4  -6   -0.03    0.07
   4   6   8    0.07    0.09
   8   4   6   -0.04    0.11
   8  -5   6    9.02    0.60
   8   5   6    9.89    0.62
   8  -5  -6    9.73    0.43
   6  -8  -5    9.80    0.40
   5   6   8   10.90    0.55
   8  -6   6   46.73    1.27
   8   6   6   45.98    1.30
   8  -6  -6   47.28    1.10
   6  -8  -6   46.89    1.05
   6   6   8   46.48    1.23
   8  -7  -6    3.12    0.35
   7   6   8    3.26    0.53
   6  -8  -7    3.23    0.28
   8   7   6    3.50    0.59
   8   0   7    3.87    0.50
   8  -1   7    7.81    0.57
   8   1   7    7.79    0.56
   8  -2   7    8.62    0.56
   8   2   7    7.77    0.57
   8  -2  -7    7.90    0.40
   8  -3   7    0.13    0.12
   7  -8  -3    1.05    0.30
   8  -3  -7    0.31    0.08
   8   3   7    0.21    0.12
   8  -4   7   19.77    0.81
   7  -8  -4   20.44    0.62
   4   7   8   19.99    0.69
   8   4   7   20.09    0.80
   8  -4  -7   19.76    0.58
   8  -5   7   57.72    1.51
   8  -5  -7   57.79    1.29
   8   5   7   59.65    1.53
   7  -8  -5   58.82    1.32
   5   7   8   58.57    1.42
   8  -6   7    2.65    0.52
   8   6   7    3.48    0.58
   6   7   8    3.01    0.52
   7  -8  -6    3.06    0.33
   7   8   6    2.19    0.57
   7  -8  -7   67.78    1.44
   7   7   8   69.22    1.69
   7   8   7   65.64    1.68
   8  -7  -7   66.63    1.47
   8   7   7   66.51    1.72
   8  -8   0  137.22    2.86
   8   0   8  136.43    2.97
   8  -1   8    5.23    0.53
   8  -8  -1    5.00    0.44
   8   1   8    3.84    0.53
   8  -2   8   27.31    0.93
   8  -8  -2   27.72    0.82
   8   2   8   26.61    0.92
   8  -3   8    1.70    0.52
   8  -8  -3    1.86    0.38
   8   3   8    1.41    0.50
   8  -4   8   49.02    1.35
   8  -4  -8   47.36    1.09
   8  -8  -4   48.70    1.19
   8   4   8   49.83    1.34
   8  -5   8    4.28    0.58
   8  -8  -5    3.56    0.39
   8   5   8    3.61    0.57
   8   8   5    4.19    0.61
   8  -6   8  146.44    3.19
   8  -8  -6  149.20    3.00
   6   8   8  148.14    3.13
   8   6   8  149.32    3.19
   8   8   6  145.17    3.19
   8  -7   8   32.83    1.05
   8  -8  -7   29.40    0.83
   7   8   8   29.96    1.07
   8   7   8   33.71    1.11
   8   8   7   30.82    1.10
   8   8   8  310.13    6.25
   9   0   0    2.63    0.41
   9   1   0   15.79    0.65
   9  -1   0   15.60    0.65
   9  -2   0   49.74    1.26
   2   0   9   50.82    1.14
   9   2   0   48.22    1.28
   3   0   9   12.25    0.51
   9   3   0   12.17    0.61
   9  -3   0   12.29    0.58
   4   0   9   17.95    0.65
   9  -4   0   17.48    0.69
   9   4   0   19.24    0.75
   9   5   0   23.67    0.86
   5   0   9   23.85    0.78
   9  -5   0   22.46    0.79
   6   0   9    5.93    0.49
   9  -6   0    5.31    0.48
   9  -7   0    4.64    0.51
   7   0   9    5.76    0.54
   8   0   9   13.62    0.72
   9  -8   0   13.70    0.64
   0   1   9   15.95    0.46
   9   0   1   14.42    0.64
   9   0  -1   14.89    0.62
   9  -1   1   64.66    1.54
   9   1  -1   62.38    1.53
   1   1   9   66.35    1.37
   9  -1  -1   63.22    1.52
   9   1   1   61.36    1.53
   9  -2   1    0.23    0.11
   9   2  -1    0.32    0.11
   9  -2  -1    0.36    0.10
   2   1   9    0.34    0.08
   9   2   1    0.33    0.12
   9  -3   1   30.41    0.93
   3  -1   9   30.29    0.83
   9   3  -1   30.01    0.94
   9  -3  -1   31.08    0.90
   3   1   9   31.37    0.83
   9   3   1   30.14    0.95
   4  -1   9    5.27    0.43
   9   4  -1    5.15    0.52
   9  -4   1    5.19    0.47
   9  -4  -1    4.48    0.45
   4   1   9    4.94    0.41
   9   4   1    5.38    0.50
   9  -5   1   35.00    1.02
   5  -1   9   34.63    0.99
   9   5  -1   34.54    1.04
   9  -5  -1   35.29    0.98
   9   5   1   36.04    1.08
   5   1   9   34.99    0.98
   9  -6   1    2.20    0.44
   6  -1   9    2.64    0.44
   9  -6  -1    2.36    0.41
   9   6   1    2.53    0.50
   6   1   9    1.89    0.43
   9  -7   1   51.65    1.34
   7  -1   9   51.80    1.36
   7   1   9   51.55    1.36
   9  -7  -1   50.67    1.31
   9  -8   1    6.30    0.52
   8  -1   9    5.42    0.58
   9  -8  -1    5.32    0.49
   8   1   9    5.17    0.56
   0   2   9   51.98    1.10
   9   0  -2   51.32    1.28
   9   0   2   50.42    1.32
   9  -1   2    0.36    0.11
   9   1  -2    0.33    0.11
   1   2   9    0.72    0.26
   9  -1  -2    1.22    0.35
   9   1   2    0.25    0.11
   9  -2   2    4.50    0.46
   9   2  -2    4.73    0.47
   9   2   2    5.09    0.49
   9  -2  -2    4.85    0.43
   2   2   9    4.08    0.34
   9   3  -2    1.06    0.43
   9  -3   2    0.31    0.11
   9  -3  -2    0.36    0.10
   3   2   9    0.34    0.09
   9   3   2    0.35    0.12
   9  -4   2   16.17    0.68
   4  -2   9   15.79    0.61
   9   4  -2   16.38    0.70
   9   4   2   16.01    0.69
   4   2   9   16.31    0.60
   9  -4  -2   16.76    0.64
   5  -2   9    0.06    0.10
   9  -5   2    0.15    0.11
   9  -5  -2    0.14    0.09
   9   5   2    0.03    0.12
   5   2   9    0.09    0.09
   6  -2   9    0.30    0.12
   9  -6   2    0.42    0.12
   6   2   9    0.31    0.11
   9   6   2    0.39    0.14
   9  -6  -2    0.38    0.11
   9  -7   2    1.12    0.45
   9   7   2    1.39    0.54
   8  -2   9   -0.14    0.13
   9  -8   2    0.03    0.11
   8   2   9   -0.08    0.13
   9  -8  -2    0.09    0.10
   9   0  -3   12.58    0.56
   9   0   3   11.74    0.61
   9   1  -3   30.47    0.90
   9  -1   3   29.85    0.94
   9  -1  -3   31.33    0.89
   9   1   3   30.40    0.96
   1   3   9   30.95    0.74
   9   2  -3    1.36    0.41
   2   3   9    0.99    0.27
   9  -2  -3    0.92    0.34
   9  -3   3   23.09    0.81
   9   3  -3   23.53    0.81
   9   3   3   23.30    0.84
   9  -3  -3   23.57    0.75
   3   3   9   23.96    0.69
   9  -4   3   35.29    1.04
   9  -4  -3   35.94    0.96
   9   4   3   33.89    1.05
   4   3   9   35.14    0.93
   9  -5   3   12.24    0.62
   5  -3   9   11.58    0.56
   9  -5  -3   10.74    0.52
   9   5   3   11.46    0.63
   5   3   9   11.56    0.55
   6  -3   9    0.00    0.11
   9  -6   3   -0.09    0.11
   9   6   3    0.09    0.13
   6   3   9    0.10    0.11
   9  -6  -3   -0.01    0.09
   7  -3   9    7.92    0.59
   9  -7   3    7.85    0.58
   9  -7  -3    7.44    0.49
   7   3   9    8.59    0.59
   9   7   3    8.24    0.64
   9  -8   3   23.49    0.86
   8  -3   9   22.09    0.90
   8   3   9   24.17    0.91
   9  -8  -3   22.19    0.77
   9   0   4   18.18    0.74
   9   0  -4   18.89    0.66
   9   1  -4    5.62    0.46
   9  -1   4    4.30    0.48
   9   1   4    5.05    0.49
   9  -1  -4    5.01    0.42
   1   4   9    5.03    0.29
   9   2  -4   16.06    0.66
   9  -2   4   16.35    0.71
   2   4   9   15.66    0.51
   9   2   4   15.94    0.69
   9  -2  -4   15.83    0.60
   9  -3   4   34.43    1.04
   9  -3  -4   36.35    0.95
   9   3   4   34.82    1.06
   3   4   9   35.58    0.89
   9   4   4    1.36    0.48
   4   4   9    1.55    0.34
   9  -4  -4    1.27    0.34
   9  -5   4    7.11    0.55
   9  -5  -4    7.56    0.44
   5   4   9    7.89    0.48
   9   5   4    7.61    0.59
   9  -6   4   11.00    0.64
   6  -4   9   10.90    0.60
   9   6   4   11.42    0.70
   6   4   9   10.66    0.57
   9  -6  -4   11.15    0.53
   9  -7   4    9.21    0.61
   7  -4   9    9.41    0.61
   9   7   4    9.18    0.68
   9  -7  -4    8.54    0.50
   7   4   9    9.89    0.60
   8  -4   9    6.61    0.65
   9  -8   4    7.62    0.61
   9  -8  -4    7.44    0.50
   9   8   4    8.98    0.69
   8   4   9    7.43    0.63
   9   0   5   23.59    0.84
   9   0  -5   24.31    0.76
   9   1  -5   34.80    0.97
   9  -1   5   35.15    1.06
   1   5   9   35.15    0.82
   9  -1  -5   34.84    0.94
   9   1   5   35.93    1.07
   9  -2   5    0.05    0.11
   2   5   9    0.08    0.07
   9   2   5    0.06    0.12
   9  -2  -5    0.03    0.08
   9  -3   5   10.97    0.61
   3   5   9   11.81    0.49
   9   3   5   11.44    0.63
   9  -3  -5   11.42    0.50
   9  -4   5    6.30    0.55
   9   4   5    8.09    0.59
   9  -4  -5    7.28    0.43
   4   5   9    7.36    0.47
   9  -5   5   17.35    0.78
   9  -5  -5   18.24    0.62
   9   5   5   17.72    0.79
   5   5   9   18.48    0.69
   9  -6   5    3.34    0.53
   9   6   5    4.63    0.59
   9  -6  -5    3.19    0.39
   6   5   9    3.78    0.49
   9  -7   5   21.94    0.86
   7  -5   9   21.21    0.85
   9  -7  -5   21.73    0.71
   9   7   5   21.28    0.91
   7   5   9   22.95    0.86
   8  -5   9   11.43    0.73
   9  -8   5   11.58    0.68
   9  -8  -5   12.40    0.56
   9   8   5   12.16    0.79
   8   5   9   11.49    0.73
   9   0   6    5.38    0.54
   9   0  -6    5.90    0.44
   9  -1   6    2.17    0.49
   9   1   6    2.35    0.49
   9  -1  -6    2.84    0.38
   9  -2   6    0.38    0.13
   9   2   6    0.39    0.13
   2   6   9    0.77    0.31
   9  -2  -6    0.79    0.33
   9  -3   6   -0.09    0.11
   9  -3  -6    0.02    0.08
   3   6   9    0.04    0.09
   9   3   6   -0.04    0.12
   9  -4   6   10.80    0.67
   9   4   6   11.06    0.67
   9  -4  -6   11.07    0.48
   4   6   9   10.93    0.54
   9  -5   6    3.48    0.55
   9   5   6    3.92    0.55
   5   6   9    3.55    0.45
   9  -5  -6    3.46    0.37
   9  -6   6   16.21    0.76
   6   6   9   15.61    0.69
   9   6   6   15.38    0.79
   9  -6  -6   15.90    0.58
   6  -9  -6   15.65    0.50
   9  -7   6    3.62    0.61
   7   6   9    3.79    0.57
   6  -9  -7    3.95    0.31
   9   7   6    3.76    0.65
   9  -7  -6    2.28    0.39
   9  -8   6   25.23    0.96
   8  -6   9   24.77    0.96
   9  -8  -6   25.10    0.77
   8   6   9   25.44    0.97
   9   8   6   24.34    1.02
   9   0   7    5.07    0.55
   9  -1   7   50.39    1.38
   9   1   7   49.53    1.37
   9  -2   7    0.14    0.13
   9   2   7   -0.02    0.13
   9  -2  -7    0.82    0.35
   9  -3   7    6.96    0.60
   9  -3  -7    7.56    0.44
   9   3   7    7.87    0.61
   9  -4   7    8.94    0.67
   9   4   7    9.64    0.66
   4   7   9   10.39    0.54
   9  -4  -7    9.39    0.45
   7  -9  -4    8.48    0.45
   9  -5   7   20.47    0.90
   7  -9  -5   22.23    0.66
   9  -5  -7   21.48    0.67
   9   5   7   22.35    0.91
   5   7   9   22.32    0.79
   9  -6   7    2.74    0.61
   7  -9  -6    4.17    0.36
   9  -6  -7    2.65    0.37
   9   6   7    4.29    0.63
   6   7   9    4.51    0.58
   9  -7   7  125.28    2.83
   9   7   7  126.27    2.86
   9  -7  -7  128.98    2.62
   7  -9  -7  125.83    2.57
   7   7   9  127.92    2.79
   9  -8   7   10.22    0.74
   8  -7   9   10.55    0.70
   9   8   7   10.36    0.79
   8   7   9   10.79    0.75
   9  -8  -7   10.36    0.49
   9   0   8   13.97    0.75
   9  -1   8    5.45    0.61
   9   1   8    5.20    0.57
   9  -2   8   -0.05    0.13
   8  -9  -2    0.08    0.10
   9   2   8    0.08    0.14
   9  -3   8   21.69    0.89
   9   3   8   22.33    0.89
   8  -9  -3   22.27    0.72
   9  -4   8    6.38    0.65
   9   4   8    7.17    0.65
   9  -4  -8    6.87    0.42
   8  -9  -4    7.01    0.46
   9  -5   8    9.44    0.75
   8  -9  -5   11.77    0.53
   9  -5  -8   10.20    0.46
   9   5   8   11.69    0.75
   9  -6   8   25.71    1.00
   9   6   8   24.73    0.98
   9  -6  -8   23.11    0.70
   6   8   9   25.32    0.91
   8  -9  -6   24.23    0.74
   9  -7   8    8.88    0.76
   9   7   8   11.09    0.78
   7   8   9   11.64    0.74
   8  -9  -7   10.42    0.48
   9  -8   8    9.43    0.72
   9  -8  -8    8.70    0.45
   8   8   9    8.93    0.75
   9   8   8    8.74    0.79
   9  -9   0    4.55    0.53
   9   0   9    4.50    0.63
   9  -1   9   28.35    1.04
   9  -9   1   28.26    0.93
   9  -9  -1   28.90    0.92
   9   1   9   28.70    1.03
   9  -2   9    0.06    0.14
   9  -9   2   -0.13    0.12
   9  -9  -2   -0.01    0.11
   9   2   9   -0.17    0.14
   9  -3   9    1.66    0.58
   9  -9   3    1.45    0.48
   9  -9  -3    1.35    0.45
   9   3   9    1.56    0.59
   9  -4   9   13.40    0.80
   9  -9  -4   14.42    0.64
   9   4   9   14.23    0.80
   9  -5   9   13.91    0.83
   9  -9  -5   13.73    0.60
   9   5   9   13.27    0.80
   9  -9  -6    0.98    0.39
   9   6   9    1.49    0.64
   9  -7   9   78.74    2.01
   9  -9  -7   80.56    1.77
   9   7   9   80.19    2.02
   9   9   7   82.11    2.02
   9  -8   9   24.77    1.04
   9  -9  -8   25.54    0.74
   8   9   9   25.53    1.04
   9   8   9   27.48    1.08
   9   9   8   25.88    1.08
   9   9   9   35.74    1.25
  10   0   0   24.75    0.83
  10   1   0    3.31    0.48
   1   0  10    4.05    0.32
  10  -1   0    3.59    0.47
  10  -2   0   47.85    1.28
   2   0  10   48.05    1.14
  10   2   0   50.29    1.33
   3   0  10    0.05    0.09
  10  -3   0    0.02    0.10
  10   3   0    0.07    0.11
  10   4   0    7.44    0.60
  10  -4   0    6.61    0.52
   4   0  10    6.75    0.47
   5   0  10    0.00    0.11
  10   5   0    0.16    0.14
  10  -5   0    0.00    0.10
   6   0  10   26.60    0.89
  10  -6   0   26.46    0.89
  10   6   0   26.92    0.96
   7   0  10    7.22    0.61
  10  -7   0    6.28    0.57
   8   0  10   39.86    1.23
  10  -8   0   39.29    1.16
  10  -9   0    0.32    0.14
   9   0  10    0.29    0.16
  10   0  -1    4.13    0.47
   0   1  10    3.98    0.30
  10   0   1    3.71    0.47
  10   1  -1    0.09    0.11
  10  -1   1    0.09    0.11
  10   1   1   -0.02    0.11
   1   1  10    0.13    0.08
  10  -1  -1    0.01    0.10
  10  -2   1   29.71    0.94
  10   2  -1   30.14    0.95
  10  -2  -1   31.53    0.95
   2   1  10   31.68    0.82
  10   2   1   29.57    0.99
  10   3  -1    2.72    0.50
   3  -1  10    2.65    0.38
  10  -3   1    2.90    0.47
   3   1  10    2.88    0.38
  10   3   1    2.17    0.47
  10  -3  -1    2.34    0.42
   4  -1  10   13.36    0.60
  10  -4   1   13.96    0.67
  10   4  -1   13.74    0.70
   4   1  10   13.83    0.57
  10   4   1   13.75    0.71
  10  -4  -1   13.57    0.64
  10   5  -1    0.10    0.14
   5  -1  10    0.04    0.11
  10  -5   1    0.08    0.11
   5   1  10   -0.02    0.10
  10   5   1   -0.01    0.13
  10  -5  -1    0.00    0.11
   6  -1  10    4.40    0.51
  10  -6   1    4.35    0.52
  10  -6  -1    4.89    0.49
  10   6   1    5.45    0.63
   6   1  10    3.97    0.50
  10  -7   1    0.31    0.13
   7  -1  10    0.16    0.13
  10  -7  -1    0.14    0.12
   7   1  10    0.12    0.13
   8  -1  10    8.89    0.67
  10  -8   1    8.77    0.65
  10  -8  -1    8.61    0.61
   8   1  10    8.44    0.67
   9  -1  10   -0.08    0.15
  10  -9   1    0.05    0.13
   9   1  10   -0.02    0.15
  10  -9  -1   -0.05    0.12
  10   0  -2   48.00    1.28
   0   2  10   49.64    1.07
  10   0   2   48.95    1.32
  10  -1   2   30.90    0.97
  10   1  -2   29.73    0.95
  10  -1  -2   30.13    0.92
   1   2  10   32.11    0.77
  10   1   2   29.65    0.96
  10  -2   2    1.68    0.46
  10   2  -2    1.79    0.45
  10   2   2    2.10    0.46
   2   2  10    1.52    0.32
  10  -2  -2    1.84    0.40
  10  -3   2   15.30    0.71
  10   3  -2   15.49    0.72
   3   2  10   15.43    0.57
  10  -3  -2   15.79    0.66
  10   3   2   15.77    0.72
  10   4  -2    8.97    0.61
   4  -2  10    9.38    0.51
  10  -4   2    9.49    0.60
  10   4   2    9.82    0.63
   4   2  10    9.32    0.51
  10  -4  -2    9.39    0.54
   5  -2  10    6.00    0.49
  10  -5   2    5.93    0.54
  10   5   2    6.58    0.60
   5   2  10    5.85    0.47
  10  -5  -2    5.92    0.50
   6  -2  10    0.29    0.13
  10  -6   2    0.10    0.13
  10   6   2    1.50    0.56
   6   2  10    0.35    0.12
  10  -6  -2    0.12    0.11
   7  -2  10   16.04    0.76
  10  -7   2   16.18    0.76
   7   2  10   16.64    0.75
  10   7   2   15.16    0.81
  10  -7  -2   16.66    0.70
   8  -2  10   22.27    0.91
  10  -8   2   22.65    0.89
  10  -8  -2   22.26    0.82
   8   2  10   23.34    0.93
  10  -9   2    7.15    0.64
   9  -2  10    7.20    0.70
  10  -9  -2    7.95    0.59
   9   2  10    6.78    0.70
  10   0   3    0.01    0.11
  10   0  -3    0.14    0.10
  10   1  -3    2.68    0.45
  10  -1   3    2.30    0.46
  10   1   3    2.73    0.47
  10  -1  -3    2.75    0.43
   1   3  10    2.27    0.28
  10  -2   3   15.60    0.72
  10   2  -3   15.49    0.69
  10   2   3   15.74    0.71
   2   3  10   15.95    0.53
  10  -2  -3   16.04    0.63
  10   3  -3    0.05    0.12
  10  -3   3    0.07    0.12
  10  -3  -3    0.03    0.09
   3   3  10    0.02    0.08
  10   3   3   -0.11    0.12
  10  -4   3    1.18    0.48
  10  -4  -3    1.14    0.38
   4   3  10    1.32    0.36
  10  -5   3   -0.01    0.12
   5  -3  10   -0.01    0.11
   5   3  10    0.00    0.10
  10  -5  -3    0.01    0.09
  10   5   3    0.07    0.13
   6  -3  10    2.10    0.48
  10  -6   3    1.51    0.52
   6   3  10    2.80    0.47
  10  -6  -3    2.50    0.44
  10   6   3    2.61    0.60
  10  -7   3    0.09    0.13
   7  -3  10    0.03    0.13
  10  -7  -3    0.05    0.11
   7   3  10    0.02    0.13
  10   7   3    0.12    0.16
  10  -8   3   10.47    0.68
   8  -3  10   10.13    0.71
   8   3  10   10.67    0.70
  10  -8  -3   10.25    0.60
   9  -3  10    2.26    0.63
  10  -9   3    1.43    0.55
  10  -9  -3    2.29    0.49
   9   3  10    1.70    0.61
  10   0  -4    6.71    0.48
  10   0   4    5.65    0.55
  10  -1   4   12.90    0.67
  10   1  -4   14.59    0.65
   1   4  10   13.54    0.45
  10  -1  -4   14.08    0.61
  10   1   4   13.92    0.69
  10   2  -4    9.82    0.59
  10  -2   4    8.95    0.60
  10  -2  -4    9.96    0.53
   2   4  10    9.38    0.41
  10   2   4   10.06    0.61
  10  -3  -4    0.99    0.37
   3   4  10    0.94    0.32
  10  -4   4   59.15    1.55
  10   4   4   58.38    1.58
   4   4  10   61.42    1.40
  10  -4  -4   59.80    1.44
  10  -5   4   11.27    0.69
  10   5   4   12.13    0.70
   5   4  10   10.91    0.57
  10  -5  -4   11.03    0.56
  10  -6   4    3.18    0.57
   6  -4  10    4.09    0.52
  10   6   4    4.09    0.63
  10  -6  -4    3.28    0.44
   6   4  10    4.14    0.50
  10  -7   4    6.39    0.64
   7  -4  10    6.49    0.62
  10  -7  -4    6.61    0.52
  10   7   4    6.79    0.69
   7   4  10    6.99    0.58
   8  -4  10    0.04    0.15
  10  -8   4   -0.14    0.15
  10   8   4    0.15    0.17
   8   4  10    0.07    0.14
  10  -8  -4    0.05    0.11
   9  -4  10   10.21    0.75
  10  -9   4    9.06    0.71
   9   4  10    9.59    0.72
  10  -9  -4    9.52    0.59
  10   0   5    0.13    0.12
  10   0  -5    0.10    0.10
  10  -1   5    0.01    0.12
  10   1  -5    0.05    0.11
  10   1   5    0.02    0.12
  10  -1  -5    0.06    0.10
   1   5  10   -0.01    0.07
  10  -2   5    6.03    0.59
  10  -2  -5    6.29    0.46
  10   2   5    6.08    0.58
   2   5  10    5.94    0.37
  10  -3   5   -0.01    0.13
   3   5  10   -0.01    0.09
  10   3   5   -0.04    0.12
  10  -3  -5   -0.04    0.09
  10  -4   5   11.43    0.69
  10   4   5   11.27    0.71
   4   5  10   11.41    0.56
  10  -4  -5   11.10    0.53
  10  -5   5    0.00    0.13
   5   5  10    0.07    0.11
  10  -5  -5    0.10    0.09
  10   5   5    0.12    0.14
  10  -6   5    0.26    0.15
   6   5  10    0.29    0.13
  10  -6  -5    0.31    0.11
  10   6   5    1.72    0.60
   7  -5  10    0.25    0.15
  10  -7   5    0.14    0.16
  10   7   5    0.31    0.17
  10  -7  -5    0.24    0.11
   7   5  10    0.24    0.14
  10  -8   5    0.48    0.17
   8  -5  10    0.44    0.17
   8   5  10    1.40    0.58
  10  -8  -5    0.29    0.12
  10   8   5    0.42    0.18
   9  -5  10   -0.09    0.16
  10  -9   5    0.11    0.16
   9   5  10    0.05    0.16
  10  -9  -5    0.03    0.11
  10   0  -6   26.66    0.84
  10   0   6   26.14    0.96
  10  -1   6    3.75    0.57
  10   1   6    4.48    0.56
  10  -1  -6    5.30    0.47
  10  -2   6    0.07    0.13
  10  -2  -6    0.22    0.10
  10   2   6    0.02    0.13
   2   6  10    0.19    0.09
  10  -3   6    1.89    0.55
   3   6  10    2.33    0.39
  10  -3  -6    2.83    0.40
  10   3   6    2.65    0.53
  10  -4   6    3.71    0.56
   4   6  10    4.05    0.45
  10   4   6    4.00    0.61
  10  -4  -6    4.25    0.42
  10  -5   6    0.06    0.15
   5   6  10    0.26    0.12
  10  -5  -6    1.05    0.37
  10   5   6    0.36    0.16
  10  -6   6   -0.14    0.14
   6   6  10    0.14    0.13
  10  -6  -6   -0.03    0.09
  10   6   6    0.14    0.16
  10  -7   6    8.12    0.73
  10  -7  -6    8.15    0.50
   7   6  10    8.31    0.66
  10   7   6    9.38    0.78
   6 -10  -7    7.08    0.38
   8  -6  10   24.35    0.98
  10  -8   6   23.94    0.97
   8   6  10   23.15    0.96
  10  -8  -6   24.40    0.79
  10   8   6   23.75    1.04
  10  -9   6    2.34    0.65
   9  -6  10    2.37    0.68
  10  -9  -6    2.33    0.45
  10   9   6    3.09    0.72
   9   6  10    2.14    0.65
  10   0   7    7.18    0.64
  10  -1   7    0.08    0.15
  10  -1  -7    0.21    0.11
  10   1   7    0.21    0.15
  10  -2   7   14.74    0.80
  10  -2  -7   16.49    0.63
  10   2   7   14.93    0.80
  10  -3   7    0.00    0.14
  10   3   7    0.08    0.14
   3   7  10    0.04    0.10
  10  -3  -7    0.06    0.10
  10  -4   7    4.68    0.64
  10   4   7    6.54    0.68
   4   7  10    6.63    0.52
  10  -4  -7    6.62    0.45
  10  -5   7    0.20    0.17
  10   5   7    0.19    0.17
  10  -5  -7    0.27    0.10
   5   7  10    0.29    0.13
  10  -6   7    5.85    0.73
   6   7  10    9.26    0.65
   7 -10  -6    7.76    0.43
  10   6   7    8.37    0.73
  10  -6  -7    7.23    0.47
  10  -7  -7    1.47    0.39
   7   7  10    2.12    0.60
   7 -10  -7    1.79    0.33
  10   7   7    1.68    0.67
   8  -7  10   11.49    0.74
  10  -8   7    9.80    0.80
   8   7  10   10.81    0.76
  10   8   7   12.26    0.85
  10  -8  -7    9.48    0.54
  10  -9   7    0.02    0.17
   9  -7  10   -0.08    0.17
   9   7  10    0.07    0.17
  10   9   7    0.23    0.19
  10  -9  -7    0.13    0.10
  10   0   8   40.67    1.27
  10  -1   8    8.91    0.73
  10   1   8    8.27    0.72
  10  -2   8   21.44    0.95
  10   2   8   22.25    0.95
  10  -3   8    8.95    0.71
  10   3   8   10.05    0.73
   8 -10  -3    9.34    0.52
  10  -3  -8   10.30    0.52
  10  -4   8   -0.16    0.15
  10   4   8    0.07    0.16
   8 -10  -4    0.00    0.10
  10  -4  -8   -0.06    0.10
  10  -5   8    0.18    0.17
  10   5   8    0.38    0.18
   5   8  10    1.61    0.51
  10  -5  -8    0.42    0.10
   8 -10  -5    1.04    0.38
  10  -6   8   22.54    1.03
   6   8  10   24.49    0.91
  10  -6  -8   23.98    0.74
  10   6   8   24.28    1.03
   8 -10  -6   24.16    0.75
  10  -7   8   11.34    0.81
  10  -7  -8    9.79    0.50
   8 -10  -7   11.20    0.51
  10   7   8   11.54    0.82
   7   8  10   10.90    0.75
  10  -8   8   18.40    0.97
  10   8   8   19.73    0.99
  10  -8  -8   19.57    0.67
   8 -10  -8   20.18    0.63
   8   8  10   20.53    0.95
   9  -8  10    1.96    0.69
  10  -9   8    2.23    0.70
  10  -9  -8    1.99    0.39
  10   9   8    2.51    0.75
   9   8  10    2.57    0.73
  10   0   9    0.30    0.16
   9 -10   0    0.32    0.13
  10  -1   9    0.14    0.16
  10   1   9   -0.06    0.15
   9 -10  -1   -0.04    0.12
  10  -2   9    6.77    0.71
  10   2   9    7.27    0.70
   9 -10  -2    7.53    0.56
  10  -3   9    1.62    0.64
  10   3   9    2.18    0.63
   9 -10  -3    1.92    0.45
  10  -4   9    8.35    0.74
  10   4   9    9.99    0.76
   9 -10  -4    9.16    0.56
  10  -5   9   -0.09    0.16
   9 -10  -5    0.14    0.11
  10  -5  -9    0.02    0.10
  10   5   9    0.07    0.17
  10   6   9    2.06    0.70
  10  -6  -9    1.57    0.38
   9 -10  -6    2.51    0.43
  10  -7   9   -0.09    0.18
  10   7   9    0.03    0.18
   9 -10  -7    0.09    0.10
  10   8   9    2.32    0.75
   8   9  10    2.10    0.68
   9 -10  -8    2.42    0.38
   9  -9  10    4.11    0.71
  10  -9   9    4.21    0.71
   9   9  10    4.01    0.73
  10   9   9    4.07    0.77
  10 -10   0   47.69    1.35
  10   0  10   48.25    1.47
  10  -1  10   13.26    0.86
  10 -10   1   13.76    0.75
  10 -10  -1   14.06    0.74
  10   1  10   13.27    0.86
  10  -2  10    2.64    0.69
  10 -10   2    3.83    0.60
  10 -10  -2    3.60    0.55
  10   2  10    2.71    0.69
  10  -3  10    8.05    0.77
  10 -10   3    8.32    0.70
  10 -10  -3    8.46    0.62
  10   3  10    8.12    0.77
  10  -4  10    9.04    0.77
  10 -10   4    9.14    0.73
  10 -10  -4    8.72    0.61
  10   4  10    9.45    0.79
  10  -5  10    3.54    0.70
  10 -10   5    3.86    0.67
  10 -10  -5    3.68    0.49
  10   5  10    3.35    0.73
  10  -6  10    0.13    0.19
  10 -10   6    0.14    0.17
  10 -10  -6    0.17    0.11
  10   6  10   -0.01    0.18
  10  -7  10   10.09    0.84
  10 -10   7   10.44    0.78
  10 -10  -7   10.79    0.56
  10   7  10   11.25    0.84
  10  -8  10   10.64    0.85
  10 -10   8   10.48    0.79
  10 -10  -8   10.63    0.51
  10   8  10   10.44    0.84
  10 -10   9    7.38    0.77
  10  -9  10    6.70    0.75
  10   9  10    6.10    0.78
  10 -10  10    3.78    0.72
  11   0   0    5.79    0.54
  11  -1   0   18.70    0.78
  11   1   0   19.04    0.81
   1   0  11   19.27    0.60
  11   2   0   27.17    0.97
   2   0  11   28.61    0.80
  11  -2   0   28.53    0.95
  11   3   0   41.69    1.23
  11  -3   0   41.00    1.18
   3   0  11   40.93    1.07
   4   0  11   15.15    0.64
  11   4   0   16.08    0.80
  11  -4   0   14.88    0.72
  11   5   0    2.63    0.58
  11  -5   0    2.59    0.51
   5   0  11    2.37    0.47
  11   6   0    0.15    0.16
   6   0  11    0.09    0.13
  11  -6   0   -0.01    0.13
   7   0  11   21.49    0.89
  11  -7   0   21.30    0.86
  11  -8   0    8.14    0.65
   8   0  11    8.12    0.70
  11  -9   0   49.28    1.42
   9   0  11   49.52    1.47
  10   0  11    0.20    0.18
  11 -10   0    0.12    0.15
  11   0  -1   19.20    0.79
  11   0   1   19.44    0.79
   0   1  11   19.25    0.56
  11  -1   1   20.07    0.82
  11   1  -1   20.07    0.82
   1   1  11   20.62    0.62
  11   1   1   19.30    0.81
  11  -1  -1   19.83    0.78
  11  -2   1    0.31    0.13
  11   2  -1    0.31    0.13
  11   2   1    0.18    0.13
   2   1  11    0.32    0.10
  11  -2  -1    0.27    0.12
  11   3  -1    6.22    0.61
  11  -3   1    6.06    0.55
   3  -1  11    5.94    0.46
   3   1  11    5.55    0.44
  11   3   1    6.73    0.62
  11  -3  -1    5.93    0.53
  11  -4   1   10.52    0.65
  11   4  -1   11.08    0.70
   4  -1  11   10.56    0.57
   4   1  11   10.17    0.56
  11  -4  -1   11.65    0.63
  11   4   1   11.42    0.70
  11  -5   1    3.76    0.52
  11   5  -1    3.90    0.63
   5  -1  11    3.64    0.49
  11   5   1    4.24    0.64
   5   1  11    3.47    0.48
  11  -5  -1    2.98    0.50
  11  -6   1    0.33    0.14
   6  -1  11    0.28    0.14
   6   1  11    0.34    0.14
  11   6   1    1.40    0.60
  11  -6  -1    0.33    0.13
   7  -1  11   26.73    0.97
  11  -7   1   26.07    0.97
  11   7   1   27.43    1.05
   7   1  11   26.99    0.98
  11  -7  -1   26.81    0.95
   8  -1  11   13.81    0.80
  11  -8   1   13.12    0.77
  11  -8  -1   13.79    0.73
   8   1  11   14.36    0.80
  11  -9   1   27.45    1.03
   9  -1  11   27.74    1.08
   9   1  11   27.22    1.07
  11  -9  -1   26.00    0.98
  11 -10   1    0.03    0.16
  10  -1  11   -0.15    0.17
  11 -10  -1    0.03    0.14
  10   1  11    0.04    0.17
  11   0   2   29.01    0.99
   0   2  11   27.83    0.71
  11   0  -2   28.75    0.95
  11   1  -2    0.27    0.13
  11  -1   2    0.35    0.13
  11   1   2    0.37    0.13
  11  -1  -2    0.36    0.12
   1   2  11    0.32    0.08
  11   2  -2   15.68    0.74
  11  -2   2   15.55    0.74
  11   2   2   14.79    0.76
   2   2  11   15.74    0.57
  11  -2  -2   15.36    0.69
  11  -3   2    1.41    0.48
   3   2  11    1.00    0.37
  11  -3  -2    1.47    0.46
  11   3   2    1.58    0.54
   4  -2  11    5.41    0.48
  11  -4   2    4.22    0.55
  11   4  -2    4.78    0.61
  11  -4  -2    4.68    0.51
  11   4   2    4.52    0.60
   4   2  11    4.61    0.46
  11   5  -2    1.34    0.57
   5  -2  11    0.10    0.12
  11  -5   2    0.22    0.13
  11   5   2    0.18    0.15
   5   2  11    0.12    0.11
  11  -5  -2    0.28    0.12
   6  -2  11    2.91    0.54
  11  -6   2    3.62    0.59
  11   6   2    4.35    0.68
  11  -6  -2    2.67    0.52
   6   2  11    3.42    0.51
  11  -7   2   -0.05    0.14
   7  -2  11    0.11    0.15
   7   2  11   -0.08    0.14
  11   7   2    0.28    0.18
  11  -7  -2    0.03    0.12
   8  -2  11   -0.19    0.15
  11  -8   2    0.03    0.15
  11  -8  -2   -0.08    0.12
   8   2  11   -0.03    0.15
   9  -2  11    0.02    0.16
  11  -9   2    0.06    0.16
   9   2  11   -0.01    0.17
  11  -9  -2    0.14    0.13
  11 -10   2   15.40    0.85
  10  -2  11   13.85    0.90
  10   2  11   16.03    0.92
  11 -10  -2   14.56    0.79
  11   0   3   41.36    1.23
   0   3  11   40.83    0.92
  11   0  -3   41.39    1.18
  11  -1   3    6.27    0.58
  11   1  -3    6.61    0.56
  11   1   3    5.51    0.57
  11  -1  -3    6.00    0.53
   1   3  11    6.37    0.35
   2   3  11    1.03    0.33
  11  -2  -3    1.78    0.44
  11   2   3    1.14    0.50
  11   3  -3   40.41    1.21
  11  -3   3   41.78    1.25
  11   3   3   41.01    1.26
   3   3  11   43.16    1.06
  11  -3  -3   42.09    1.17
  11   4  -3   19.87    0.85
  11  -4   3   18.79    0.85
  11  -4  -3   19.87    0.77
  11   4   3   19.59    0.87
   4   3  11   19.75    0.70
  11  -5   3   34.33    1.13
   5  -3  11   34.70    1.04
   5   3  11   34.13    1.00
  11   5   3   34.34    1.17
  11  -5  -3   34.81    1.03
  11  -6   3    0.09    0.14
   6  -3  11   -0.06    0.13
  11   6   3    0.13    0.16
   6   3  11   -0.05    0.12
  11  -6  -3   -0.07    0.11
   7  -3  11    0.05    0.14
  11  -7   3    0.01    0.14
  11   7   3   -0.07    0.17
   7   3  11   -0.13    0.14
  11  -7  -3    0.02    0.12
  11  -8   3   21.46    0.94
   8  -3  11   20.42    0.93
  11  -8  -3   20.93    0.81
  11   8   3   20.95    1.01
   8   3  11   20.70    0.90
  11  -9   3   11.47    0.79
   9  -3  11    8.56    0.78
  11  -9  -3    9.80    0.66
   9   3  11    9.18    0.77
  11 -10   3    0.25    0.17
  10  -3  11    0.13    0.18
  10   3  11    0.25    0.19
  11 -10  -3    0.28    0.14
  11   0  -4   15.25    0.69
  11   0   4   16.23    0.78
  11  -1   4   10.41    0.68
  11   1  -4   10.94    0.65
   1   4  11    9.75    0.41
  11   1   4   11.22    0.68
  11  -1  -4   10.87    0.61
  11  -2   4    4.42    0.59
  11   2  -4    4.50    0.56
   2   4  11    4.65    0.36
  11  -2  -4    4.64    0.50
  11   2   4    5.07    0.57
  11   3  -4   19.17    0.82
  11  -3   4   19.41    0.87
  11   3   4   19.80    0.87
   3   4  11   19.31    0.65
  11  -3  -4   20.31    0.75
  11  -4   4    0.01    0.13
   4   4  11    0.12    0.10
  11  -4  -4    0.11    0.11
  11   4   4    0.07    0.14
  11  -5   4    5.57    0.62
  11   5   4    5.77    0.65
  11  -5  -4    6.11    0.52
   5   4  11    6.09    0.53
   6  -4  11    2.00    0.53
  11  -6   4    1.85    0.59
  11  -6  -4    2.13    0.47
  11   6   4    3.31    0.69
   6   4  11    2.16    0.50
  11  -7   4    5.57    0.66
   7  -4  11    5.31    0.62
  11   7   4    7.00    0.76
   7   4  11    6.76    0.62
  11  -7  -4    7.17    0.56
   8  -4  11    5.49    0.69
  11  -8   4    5.35    0.69
  11  -8  -4    5.55    0.57
   8   4  11    5.96    0.65
  11   8   4    6.73    0.78
   9  -4  11   15.66    0.91
  11  -9   4   17.68    0.91
  11  -9  -4   14.64    0.72
   9   4  11   15.90    0.85
  10  -4  11    3.07    0.74
  11 -10   4    3.10    0.69
  10   4  11    3.84    0.72
  11 -10  -4    3.09    0.55
  11   0  -5    2.83    0.50
  11   0   5    2.39    0.54
  11  -1   5    3.47    0.58
  11   1  -5    3.72    0.52
   1   5  11    3.58    0.32
  11   1   5    3.48    0.57
  11  -1  -5    3.90    0.48
  11  -2   5    0.20    0.15
  11   2  -5    0.29    0.13
  11   2   5    0.11    0.14
   2   5  11    0.35    0.09
  11  -2  -5    0.29    0.12
  11  -3   5   33.65    1.14
  11  -3  -5   35.21    1.02
   3   5  11   35.48    0.94
  11   3   5   35.47    1.18
  11  -4   5    5.05    0.62
  11   4   5    5.73    0.69
   4   5  11    5.42    0.48
  11  -4  -5    5.98    0.50
  11  -5   5   17.17    0.85
   5   5  11   17.67    0.74
  11   5   5   18.64    0.92
  11  -5  -5   18.89    0.73
  11  -6   5    2.52    0.61
   6   5  11    2.76    0.53
  11  -6  -5    4.13    0.48
  11   6   5    2.75    0.65
  11  -7   5    2.84    0.66
   7   5  11    3.09    0.59
  11   7   5    3.43    0.73
  11  -7  -5    2.70    0.46
   8  -5  11   10.22    0.78
  11  -8   5   10.93    0.80
   8   5  11   10.42    0.75
  11   8   5   11.37    0.88
  11  -8  -5   10.91    0.63
   9  -5  11    2.14    0.69
  11  -9   5    3.89    0.71
   9   5  11    3.26    0.68
  11  -9  -5    3.09    0.53
  10  -5  11   -0.09    0.18
  11 -10   5    0.13    0.18
  10   5  11    0.14    0.18
  11 -10  -5    0.24    0.13
  11   0  -6    0.19    0.13
  11   0   6    0.03    0.15
  11  -1   6    0.31    0.16
  11  -1  -6    0.33    0.13
  11   1   6    0.34    0.16
  11  -2   6    2.99    0.63
   2   6  11    3.49    0.39
  11  -2  -6    3.58    0.47
  11   2   6    3.24    0.62
  11  -3   6   -0.01    0.15
  11   3   6   -0.15    0.14
  11  -3  -6    0.01    0.11
   3   6  11   -0.04    0.10
  11  -4   6    2.06    0.59
   4   6  11    3.11    0.46
  11  -4  -6    2.44    0.45
  11   4   6    2.11    0.65
  11  -5   6    2.23    0.64
  11  -5  -6    3.96    0.46
  11   5   6    4.22    0.69
   5   6  11    3.47    0.51
  11  -6   6   39.09    1.30
   6   6  11   41.62    1.19
  11   6   6   41.89    1.33
  11  -6  -6   40.35    1.11
   7  -6  11    2.09    0.60
  11   7   6    1.87    0.71
  11  -7  -6    2.49    0.45
   7   6  11    2.78    0.60
   8  -6  11    9.51    0.75
  11  -8   6    9.88    0.79
   8   6  11   10.13    0.76
  11  -8  -6    9.64    0.58
  11   8   6    9.66    0.85
   6 -11  -8    9.35    0.41
  11  -9   6    0.19    0.19
   9  -6  11    0.45    0.19
  11   9   6    0.42    0.21
   9   6  11    0.51    0.19
  11  -9  -6    0.28    0.12
  11 -10   6    2.24    0.69
  11 -10  -6    1.71    0.48
  11   0   7   22.22    0.98
  11  -1   7   26.65    1.06
  11  -1  -7   27.53    0.89
  11   1   7   26.73    1.06
  11  -2   7   -0.03    0.15
  11   2   7   -0.13    0.15
  11  -2  -7   -0.04    0.11
  11  -3   7    0.11    0.16
  11  -3  -7    0.04    0.11
   3   7  11    0.16    0.11
  11   3   7    0.22    0.16
  11  -4   7    5.23    0.68
  11   4   7    6.04    0.70
   4   7  11    5.97    0.53
  11  -4  -7    6.51    0.50
   5   7  11    2.67    0.54
  11  -5  -7    2.04    0.44
  11   5   7    2.62    0.69
  11   6   7    2.02    0.69
  11  -6  -7    1.98    0.43
   6   7  11    2.00    0.56
  11  -7   7   -0.04    0.17
  11  -7  -7    0.11    0.11
  11   7   7    0.29    0.19
   7   7  11    0.27    0.16
   7 -11  -7    0.10    0.09
  11  -8   7    7.25    0.81
   8  -7  11    8.28    0.73
   8   7  11    8.52    0.74
  11  -8  -7    8.43    0.54
   7 -11  -8    8.32    0.43
  11   8   7    7.98    0.83
   9  -7  11    1.72    0.71
  11  -9   7    0.42    0.19
   9   7  11    0.59    0.19
  11   9   7    0.37    0.20
  11  -9  -7    1.86    0.44
  11 -10   7    0.14    0.18
  10  -7  11   -0.09    0.19
  10   7  11    0.10    0.18
  11 -10  -7    0.22    0.11
  11   0   8    8.66    0.75
  11  -1   8   14.45    0.85
  11   1   8   14.47    0.84
  11  -2   8   -0.13    0.16
  11   2   8    0.20    0.17
  11  -3   8   21.04    0.99
  11   3   8   20.42    0.95
  11  -3  -8   21.57    0.76
  11  -4   8    5.35    0.71
  11   4   8    6.42    0.75
  11  -4  -8    6.56    0.50
  11  -5   8    8.88    0.78
  11  -5  -8   10.69    0.55
   5   8  11   10.23    0.64
   8 -11  -5   10.71    0.54
  11   5   8   10.07    0.82
  11  -6   8    7.70    0.81
  11  -6  -8    9.21    0.54
   6   8  11    9.94    0.69
   8 -11  -6    9.93    0.52
  11   6   8    9.67    0.82
  11  -7   8    6.78    0.80
   7   8  11    8.52    0.73
   8 -11  -7    8.23    0.49
  11   7   8    8.71    0.82
  11  -7  -8    7.91    0.51
  11  -8   8   17.71    1.00
  11   8   8   17.63    1.02
   8   8  11   18.41    0.93
   8 -11  -8   17.52    0.60
  11  -8  -8   18.81    0.67
   9  -8  11    5.20    0.75
  11  -9   8    4.45    0.75
   9   8  11    5.92    0.75
  11   9   8    5.21    0.79
  11  -9  -8    5.65    0.46
  11 -10   8    1.99    0.69
  11 -10  -8    1.74    0.39
  11   0   9   52.76    1.56
  11  -1   9   27.70    1.11
  11   1   9   26.67    1.12
  11  -2   9    0.16    0.18
  11   2   9   -0.12    0.17
   9 -11  -2    0.14    0.12
  11  -3   9    9.93    0.79
   9 -11  -3    9.62    0.60
  11   3   9    9.77    0.80
  11  -4   9   14.75    0.91
  11  -4  -9   15.43    0.63
   9 -11  -4   15.83    0.68
  11   4   9   16.03    0.92
  11  -5   9    1.77    0.68
  11  -5  -9    3.09    0.45
   9 -11  -5    2.67    0.47
  11   5   9    3.22    0.73
  11  -6   9    0.18    0.19
   9 -11  -6    1.46    0.44
  11  -6  -9    0.37    0.11
  11   6   9    0.28    0.19
   9 -11  -7    2.05    0.41
  11   7   9    1.78    0.72
  11  -7  -9    1.02    0.39
   7   9  11    1.63    0.63
  11  -8   9    4.55    0.78
   9 -11  -8    6.18    0.43
   8   9  11    5.09    0.70
  11   8   9    4.34    0.78
  11  -8  -9    5.34    0.44
   9  -9  11    0.28    0.17
  11  -9   9    0.16    0.18
  11   9   9   -0.04    0.19
   9   9  11   -0.07    0.17
  11  -9  -9    0.12    0.09
  10  -9  11   -0.08    0.17
  11 -10   9   -0.01    0.18
  10   9  11   -0.11    0.17
  11  10   9    0.09    0.19
  11   0  10   -0.05    0.17
  10 -11   0    0.09    0.14
  10 -11   1    0.16    0.15
  11  -1  10    0.03    0.18
  11   1  10    0.12    0.18
  10 -11  -1   -0.01    0.13
  10 -11   2   15.11    0.80
  11  -2  10   15.05    0.94
  10 -11  -2   14.14    0.74
  11   2  10   15.08    0.94
  10 -11   3    0.13    0.16
  11  -3  10   -0.05    0.18
  11   3  10    0.16    0.18
  10 -11  -3    0.10    0.13
  11  -4  10    3.68    0.75
  11   4  10    3.26    0.74
  10 -11  -4    2.99    0.53
  11  -5  10   -0.21    0.18
  10 -11  -5    0.15    0.12
  11   5  10   -0.03    0.18
  11  -6  10    0.18    0.19
  11   6  10    0.32    0.20
  10 -11  -6    1.95    0.44
  11  -7  10    0.12    0.19
  10 -11  -7    0.19    0.10
  11   7  10    0.09    0.19
  11  -8  10    1.90    0.72
  10 -11  -8    2.01    0.38
  11  -9  10   -0.10    0.17
  11   9  10   -0.13    0.18
  10 -11  10    5.98    0.77
  10 -10  11    6.19    0.79
  11 -10  10    5.61    0.80
  10  10  11    5.59    0.76
  11  10  10    6.00    0.81
  11 -11   0    4.71    0.65
  11   0  11    4.56    0.77
  11  -1  11    7.79    0.81
  11 -11   1    8.18    0.72
  11 -11  -1    8.02    0.70
  11   1  11    7.90    0.83
  11  -2  11   12.01    0.93
  11 -11   2   12.91    0.82
  11 -11  -2   12.59    0.76
  11   2  11   12.84    0.92
  11  -3  11    9.39    0.87
  11 -11   3   10.51    0.79
  11 -11  -3   10.62    0.70
  11   3  11    9.38    0.86
  11  -4  11    0.64    0.21
  11 -11   4    0.39    0.18
  11 -11  -4    0.54    0.15
  11   4  11    0.59    0.20
  11  -5  11   28.07    1.17
  11 -11   5   25.69    1.08
  11 -11  -5   26.57    0.92
  11   5  11   27.83    1.17
  11  -6  11    0.15    0.19
  11 -11   6   -0.08    0.17
  11 -11  -6    0.18    0.11
  11   6  11   -0.16    0.18
  11  -7  11    0.04    0.18
  11 -11   7    0.18    0.18
  11 -11  -7    1.03    0.41
  11   7  11   -0.04    0.17
  11  -8  11   10.66    0.89
  11 -11   8    9.74    0.84
  11 -11  -8   10.23    0.52
  11   8  11   10.13    0.85
  11 -11   9    2.03    0.70
  11  -9  11    1.86    0.74
  10 -11  11    0.29    0.19
  11 -11  10   -0.02    0.18
  11 -10  11   -0.03    0.19
  11  10  11    0.08    0.19
  11 -11  11   38.83    1.45
  12   0   0  203.60    4.27
  12  -1   0   17.98    0.83
  12   1   0   19.01    0.87
   1   0  12   17.98    0.62
  12  -2   0    2.41    0.55
  12   2   0    2.36    0.60
   2   0  12    2.55    0.42
  12  -3   0   11.63    0.71
   3   0  12   13.12    0.61
  12   3   0   13.70    0.76
  12  -4   0   22.27    0.89
  12   4   0   22.58    0.97
   4   0  12   21.51    0.79
  12   5   0    1.68    0.63
  12  -5   0    0.47    0.16
   5   0  12    0.46    0.14
  12   6   0   14.41    0.88
   6   0  12   12.90    0.72
  12  -6   0   13.67    0.78
  12  -7   0   21.69    0.92
   7   0  12   21.43    0.90
   8   0  12   99.92    2.36
  12  -8   0   96.64    2.33
   9   0  12    4.97    0.73
  12  -9   0    4.03    0.65
  12 -10   0    0.54    0.18
  10   0  12    0.43    0.20
  11   0  12    3.97    0.76
  12 -11   0    5.28    0.68
  12   0   1   20.00    0.86
  12   0  -1   19.45    0.85
   0   1  12   19.11    0.61
  12   1  -1    3.72    0.59
  12  -1   1    4.41    0.60
  -1   1  12    4.25    0.33
  12  -1  -1    5.04    0.56
  12   1   1    4.37    0.59
   1   1  12    3.08    0.41
  12  -2   1    9.97    0.67
  12   2  -1    9.22    0.70
   2  -1  12    8.78    0.50
  12   2   1    9.42    0.72
   2   1  12    8.71    0.50
  12  -2  -1    9.36    0.65
   3  -1  12   30.65    0.91
  12  -3   1   30.42    1.04
  12   3  -1   30.85    1.10
  12  -3  -1   31.52    1.05
   3   1  12   30.31    0.89
  12   3   1   30.60    1.09
  12  -4   1    6.91    0.66
   4  -1  12    7.60    0.57
  12   4  -1    7.64    0.73
  12   4   1    7.92    0.70
  12  -4  -1    7.40    0.63
   4   1  12    7.08    0.55
  12   5  -1    4.74    0.69
   5  -1  12    3.33    0.55
  12  -5   1    3.34    0.61
  12  -5  -1    3.00    0.56
  12   5   1    4.47    0.69
   5   1  12    3.88    0.55
  12  -6   1    1.54    0.59
   6  -1  12    1.45    0.53
  12   6   1    2.24    0.70
  12  -7   1    0.21    0.16
   7  -1  12    0.18    0.16
   7   1  12    0.24    0.15
  12  -7  -1    0.07    0.14
  12   7   1    1.97    0.71
   8  -1  12   17.25    0.88
  12  -8   1   18.10    0.90
   8   1  12   17.19    0.91
  12  -8  -1   17.21    0.86
   9  -1  12    3.63    0.72
  12  -9   1    3.53    0.67
   9   1  12    2.58    0.67
  12  -9  -1    3.69    0.63
  12 -10   1    0.59    0.18
  10  -1  12    0.49    0.20
  12 -10  -1    0.67    0.18
  10   1  12    0.59    0.20
  11  -1  12    2.44    0.78
  12 -11   1    2.69    0.65
  12 -11  -1    3.11    0.61
  11   1  12    1.98    0.73
  12   0  -2    3.26    0.56
  12   0   2    2.80    0.56
   0   2  12    3.15    0.34
  12  -1   2    8.73    0.67
  12   1  -2    9.88    0.68
  -1   2  12    9.70    0.39
  12   1   2    9.48    0.70
   1   2  12    9.36    0.46
  12  -1  -2    9.97    0.65
  12   2  -2    3.05    0.59
  12  -2   2    2.79    0.57
   2   2  12    2.71    0.40
  12   2   2    2.60    0.59
  12  -2  -2    2.48    0.51
   3  -2  12    2.46    0.44
  12  -3   2    1.28    0.53
  12   3  -2    2.46    0.62
  12   3   2    2.35    0.62
  12  -3  -2    2.30    0.53
   3   2  12    2.51    0.43
  12  -4   2   32.23    1.13
  12   4  -2   33.99    1.16
   4  -2  12   32.89    0.99
   4   2  12   33.26    0.98
  12   4   2   32.98    1.16
  12  -4  -2   33.05    1.07
  12   5  -2   12.95    0.84
  12  -5   2   12.42    0.77
   5  -2  12   12.28    0.68
  12  -5  -2   11.63    0.69
   5   2  12   11.99    0.65
  12   5   2   12.23    0.83
   6  -2  12    3.40    0.58
  12  -6   2    3.26    0.62
   6   2  12    3.16    0.56
  12   6   2    3.19    0.72
  12  -6  -2    2.76    0.57
  12  -7   2    4.52    0.66
   7  -2  12    4.77    0.63
  12   7   2    5.31    0.75
  12  -7  -2    4.18    0.61
   7   2  12    4.65    0.62
  12  -8   2    5.81    0.71
   8  -2  12    6.16    0.70
  12  -8  -2    7.21    0.65
   8   2  12    5.73    0.71
   9  -2  12   12.56    0.84
  12  -9   2   11.08    0.83
  12  -9  -2   11.90    0.75
   9   2  12   12.27    0.83
  10  -2  12    0.17    0.19
  12 -10   2    0.14    0.17
  10   2  12    0.09    0.18
  12 -10  -2    0.22    0.15
  11  -2  12    6.38    0.82
  12 -11   2    6.11    0.74
  12 -11  -2    5.77    0.65
  11   2  12    5.88    0.79
  12   0   3   12.18    0.76
  12   0  -3   13.10    0.72
   0   3  12   13.58    0.45
  12   1  -3   30.50    1.05
  12  -1   3   30.93    1.09
   1   3  12   31.70    0.81
  12  -1  -3   32.37    1.05
  12   1   3   31.73    1.11
  12   2  -3    2.57    0.59
  12  -2   3    1.94    0.55
  12   2   3    1.92    0.58
  12  -2  -3    2.21    0.50
   2   3  12    2.84    0.38
  12   3  -3    2.93    0.62
  12  -3  -3    1.93    0.51
   3   3  12    1.87    0.41
  12   3   3    2.07    0.60
  12  -4   3    4.14    0.65
   4  -3  12    4.39    0.50
  12   4  -3    5.13    0.67
  12   4   3    4.78    0.70
   4   3  12    3.96    0.48
  12  -4  -3    4.36    0.56
   5  -3  12    1.60    0.53
   5   3  12    1.55    0.49
  12  -5  -3    1.99    0.51
  12  -6   3    2.13    0.63
   6  -3  12    1.77    0.56
  12   6   3    2.42    0.72
  12  -6  -3    2.29    0.53
   6   3  12    2.16    0.54
  12  -7   3    0.35    0.17
   7  -3  12    0.47    0.17
  12  -7  -3    0.52    0.15
  12   7   3    0.55    0.20
   7   3  12    0.38    0.16
  12  -8   3   13.80    0.86
   8  -3  12   12.75    0.83
  12  -8  -3   12.79    0.74
   8   3  12   13.03    0.82
  12   8   3   14.04    0.91
   9  -3  12    6.09    0.76
  12  -9   3    7.23    0.76
  12  -9  -3    6.33    0.63
   9   3  12    6.12    0.77
  10  -3  12    0.12    0.18
  12 -10   3    0.14    0.18
  10   3  12   -0.04    0.18
  12 -10  -3    0.23    0.15
  12 -11   3   10.27    0.82
  11  -3  12    9.66    0.84
  12 -11  -3    9.88    0.70
  11   3  12   10.29    0.85
  12   0   4   22.96    0.98
  12   0  -4   22.82    0.88
  12   1  -4    7.84    0.65
  12  -1   4    6.54    0.67
   1   4  12    7.61    0.38
  12  -1  -4    7.74    0.62
  12   1   4    7.22    0.68
  12   2  -4   33.57    1.11
  12  -2   4   32.38    1.13
  12   2   4   33.39    1.15
   2   4  12   33.10    0.87
  12  -2  -4   34.70    1.07
  12   3  -4    4.88    0.65
  12  -3   4    4.15    0.67
   3   4  12    4.97    0.44
  12   3   4    5.08    0.70
  12  -3  -4    4.21    0.54
  12  -4   4   39.11    1.29
  12   4   4   39.60    1.31
   4   4  12   40.20    1.08
  12  -4  -4   39.67    1.16
  12  -5   4    0.47    0.17
   5  -4  12    1.32    0.50
  12  -5  -4    0.35    0.14
  12   5   4    0.41    0.18
   5   4  12    0.32    0.13
   6  -4  12    6.24    0.63
  12  -6   4    5.52    0.70
  12   6   4    8.09    0.78
  12  -6  -4    5.25    0.57
   6   4  12    6.31    0.60
  12  -7   4    9.55    0.78
   7  -4  12    9.39    0.73
  12  -7  -4    9.13    0.64
  12   7   4   10.40    0.84
   7   4  12    9.50    0.68
  12  -8   4    3.16    0.71
   8  -4  12    3.86    0.70
  12   8   4    4.45    0.81
  12  -8  -4    3.98    0.58
   8   4  12    4.47    0.65
   9  -4  12    4.21    0.74
  12  -9   4    2.91    0.71
   9   4  12    3.82    0.68
  12  -9  -4    3.47    0.58
  10  -4  12   13.96    0.92
  12 -10   4   14.98    0.92
  12 -10  -4   14.48    0.75
  10   4  12   14.89    0.90
  12 -11   4    3.94    0.72
  11  -4  12    2.19    0.75
  11   4  12    2.15    0.69
  12 -11  -4    3.67    0.57
  12   0   5    2.00    0.60
  12   1  -5    4.32    0.60
  12  -1   5    3.51    0.63
  12   1   5    3.85    0.64
  12  -1  -5    3.59    0.54
  12   2  -5   12.51    0.74
  12  -2   5   10.71    0.80
   2   5  12   11.95    0.52
  12   2   5   12.59    0.78
  12  -2  -5   12.16    0.67
   3   5  12    1.71    0.42
  12  -3  -5    1.56    0.50
  12  -4   5    0.20    0.17
  12   4   5    1.61    0.68
   4   5  12    0.45    0.13
  12  -4  -5    0.41    0.13
  12  -5   5   13.27    0.85
  12   5   5   13.48    0.88
  12  -5  -5   13.77    0.69
   5   5  12   14.16    0.70
   6  -5  12    0.14    0.15
  12  -6   5    0.03    0.16
  12   6   5    0.16    0.18
  12  -6  -5    0.04    0.12
   6   5  12    0.06    0.14
   7  -5  12   19.93    0.91
  12  -7   5   19.19    0.95
  12   7   5   19.89    1.04
   7   5  12   20.30    0.89
  12  -7  -5   19.97    0.81
   8  -5  12    0.50    0.19
  12  -8   5    0.43    0.19
  12   8   5    0.46    0.21
  12  -8  -5    1.53    0.50
   8   5  12    0.54    0.18
   9  -5  12    3.64    0.74
  12  -9   5    1.84    0.69
   9   5  12    3.97    0.71
  12   9   5    4.20    0.81
  12  -9  -5    3.30    0.54
  12 -10   5    2.62    0.73
  10  -5  12    2.72    0.74
  12 -10  -5    2.85    0.56
  10   5  12    3.27    0.72
  12 -11   5    2.94    0.71
  11  -5  12    2.54    0.74
  11   5  12    2.66    0.73
  12 -11  -5    3.71    0.54
  12   0  -6   13.65    0.73
  12   0   6   14.47    0.86
  12   1  -6    1.70    0.56
  12  -1  -6    1.94    0.53
  12   1   6    1.76    0.65
  12  -2   6    2.13    0.68
  12  -2  -6    3.47    0.52
  12   2   6    4.04    0.69
   2   6  12    3.81    0.41
  12  -3   6    0.57    0.19
   3   6  12    1.71    0.43
  12   3   6    0.65    0.19
  12  -3  -6    1.82    0.50
  12  -4   6    5.69    0.71
  12  -4  -6    7.08    0.57
   4   6  12    7.11    0.53
  12   4   6    7.14    0.77
  12  -5   6   -0.15    0.16
   5   6  12   -0.11    0.13
  12  -5  -6    0.00    0.12
  12   5   6    0.08    0.18
  12  -6   6    2.53    0.67
   6   6  12    2.73    0.57
  12  -6  -6    2.53    0.49
  12   6   6    3.60    0.72
  12  -7   6    7.38    0.78
   7  -6  12    7.46    0.72
  12   7   6    7.63    0.83
   7   6  12    7.17    0.70
  12  -7  -6    8.65    0.59
   8  -6  12    0.02    0.17
  12  -8   6    0.09    0.18
   8   6  12    0.11    0.16
  12  -8  -6    0.14    0.12
  12   8   6    1.82    0.77
   9  -6  12    0.19    0.19
  12  -9   6    0.17    0.19
   9   6  12    0.18    0.18
  12   9   6    0.27    0.20
  12  -9  -6    0.31    0.13
  12 -10   6    4.99    0.79
  10  -6  12    5.52    0.78
  12 -10  -6    5.62    0.54
  10   6  12    5.17    0.75
  11  -6  12    0.43    0.20
  12 -11   6    0.44    0.20
  11   6  12    0.42    0.20
  12 -11  -6    2.01    0.48
  12   0   7   22.03    1.02
  12  -1   7    0.31    0.18
  12   1   7    0.09    0.17
  12  -1  -7    0.29    0.14
  12  -2   7    4.25    0.74
  12   2   7    4.63    0.70
  12  -2  -7    5.24    0.57
  12  -3   7    0.16    0.17
   3   7  12    0.47    0.12
  12  -3  -7    1.14    0.49
  12   3   7    0.08    0.17
  12  -4   7    9.46    0.81
  12   4   7    9.70    0.84
   4   7  12    9.90    0.60
  12  -4  -7    9.76    0.60
  12  -5   7   18.64    0.98
  12  -5  -7   19.55    0.77
  12   5   7   20.05    1.04
   5   7  12   20.21    0.81
  12  -6   7    7.06    0.80
   6   7  12    8.07    0.67
  12   6   7    7.66    0.82
  12  -6  -7    7.45    0.56
  12  -7   7   21.34    1.07
   7   7  12   22.66    0.93
  12   7   7   23.52    1.11
  12  -7  -7   22.66    0.80
   7 -12  -7   21.01    0.68
   8  -7  12    3.09    0.69
  12  -8   7    1.81    0.73
  12   8   7    3.47    0.80
   7 -12  -8    3.40    0.37
   8   7  12    2.89    0.65
  12  -8  -7    2.94    0.48
   9  -7  12    6.67    0.77
  12  -9   7    6.66    0.80
  12  -9  -7    7.32    0.53
   9   7  12    6.59    0.72
  12   9   7    6.64    0.83
  10  -7  12    0.35    0.20
  12 -10   7    0.50    0.20
  10   7  12    0.40    0.18
  12 -11   7    0.14    0.18
  11  -7  12   -0.27    0.17
  12 -11  -7    0.18    0.11
  11   7  12   -0.31    0.17
  12   0   8  100.78    2.48
  12  -1   8   18.45    0.98
  12   1   8   17.66    1.00
  12  -2   8    5.75    0.80
  12   2   8    6.26    0.77
  12  -2  -8    7.22    0.59
  12  -3   8   11.38    0.87
  12   3   8   13.50    0.87
  12  -3  -8   13.57    0.67
  12  -4   8    3.88    0.75
  12   4   8    3.71    0.76
  12  -4  -8    3.88    0.52
  12  -5   8    0.59    0.19
   8 -12  -5    0.37    0.11
  12  -5  -8    0.42    0.13
  12   5   8    0.38    0.20
   5   8  12    1.64    0.55
  12  -6   8    0.10    0.19
  12  -6  -8    0.08    0.12
  12   6   8    0.15    0.19
   6   8  12    0.08    0.15
   8 -12  -6    0.13    0.10
  12  -7  -8    3.10    0.46
   7   8  12    2.43    0.64
   8 -12  -7    2.62    0.40
  12   7   8    3.11    0.77
  12  -8   8   -0.02    0.18
   8  -8  12   -0.07    0.16
  12  -8  -8   -0.04    0.10
   8 -12  -8    0.13    0.09
  12   8   8    0.03    0.19
   8   8  12   -0.02    0.16
   9  -8  12    1.70    0.69
  12  -9   8    0.59    0.20
  12   9   8    0.38    0.20
   9   8  12    0.64    0.18
  12  -9  -8    1.62    0.42
  10  -8  12    0.05    0.18
  12 -10   8    0.03    0.18
  10   8  12   -0.05    0.17
  12 -10  -8    0.10    0.10
  12  10   8   -0.24    0.19
  11  -8  12    0.11    0.20
  12 -11   8    0.15    0.19
  12 -11  -8    0.09    0.10
  11   8  12   -0.01    0.19
  12   0   9    3.66    0.77
  12  -1   9    3.41    0.76
  12   1   9    3.15    0.75
  12  -2   9   11.65    0.92
  12   2   9   13.31    0.93
  12  -3   9    6.55    0.80
   9 -12  -3    6.63    0.56
  12   3   9    7.04    0.81
  12  -4   9    4.25    0.74
  12  -4  -9    3.78    0.51
  12   4   9    3.64    0.78
   9 -12  -4    3.21    0.50
  12  -5   9    3.04    0.76
  12  -5  -9    2.81    0.49
   9 -12  -5    3.28    0.48
  12   5   9    2.82    0.78
  12  -6   9    0.20    0.19
   9 -12  -6    0.33    0.11
  12  -6  -9    0.31    0.12
  12   6   9   -0.10    0.19
  12  -7   9    7.53    0.83
   7   9  12    7.22    0.69
   9 -12  -7    7.74    0.50
  12  -7  -9    6.81    0.49
  12   7   9    6.82    0.81
  12  -8   9    1.75    0.73
  12  -8  -9    0.98    0.40
  12   8   9    0.55    0.21
   8   9  12    0.64    0.18
  12  -9   9   10.88    0.90
   9  -9  12   12.27    0.84
  12   9   9   11.20    0.90
   9   9  12   11.04    0.82
  12  -9  -9   11.32    0.56
  12 -10   9    3.54    0.76
  10  -9  12    4.40    0.74
  10   9  12    3.23    0.72
  12  10   9    3.65    0.80
  11  -9  12    0.14    0.20
  12 -11   9    0.20    0.19
  11   9  12   -0.18    0.19
  10 -12   0    0.59    0.16
  12   0  10    0.35    0.20
  12  -1  10    0.55    0.21
  10 -12  -1    1.35    0.55
  12   1  10    0.72    0.21
  12  -2  10    0.10    0.19
  12   2  10    0.07    0.19
  10 -12  -2    0.13    0.14
  12  -3  10    0.04    0.19
  10 -12  -3    0.16    0.13
  12   3  10    0.20    0.19
  12  -4  10   14.60    0.96
  12   4  10   15.50    0.97
  10 -12  -4   15.15    0.73
  12  -5  10    1.79    0.75
  12   5  10    2.18    0.76
  10 -12  -5    2.91    0.51
  12  -6  10    5.48    0.79
  12   6  10    4.85    0.78
  10 -12  -6    5.91    0.50
  12  -6 -10    4.10    0.45
  12  -7  10    0.37    0.20
  12   7  10    0.13    0.19
  12  -7 -10    0.36    0.11
  12  -8  10    0.07    0.19
  12   8  10   -0.13    0.19
  10 -12  -8    1.35    0.38
  12  -9  10    3.64    0.76
  12   9  10    2.72    0.78
  12 -10  10    0.00    0.19
  10 -10  12    0.00    0.19
  12  10  10   -0.19    0.19
  10  10  12   -0.17    0.18
  11 -10  12    0.02    0.20
  12 -11  10    0.15    0.20
  11  10  12   -0.12    0.20
  12   0  11    4.43    0.76
  11 -12   0    4.94    0.66
  11 -12   1    2.53    0.62
  12  -1  11    2.43    0.78
  12   1  11    2.47    0.76
  11 -12  -1    2.80    0.60
  12  -2  11    5.39    0.82
  11 -12   2    5.89    0.70
  11 -12  -2    6.11    0.64
  12   2  11    6.22    0.82
  11 -12   3   10.51    0.78
  12  -3  11    9.89    0.89
  11 -12  -3    9.37    0.68
  12   3  11    9.63    0.86
  12  -4  11    3.83    0.77
  11 -12   4    3.72    0.68
  12   4  11    2.53    0.74
  11 -12  -4    3.45    0.56
  12  -5  11    2.95    0.76
  11 -12   5    2.70    0.66
  11 -12  -5    3.76    0.53
  12   5  11    1.87    0.77
  11 -12   6    0.46    0.19
  12  -6  11    0.63    0.21
  11 -12  -6    1.96    0.47
  12   6  11    0.31    0.20
  11 -12   7    0.15    0.18
  12  -7  11   -0.14    0.18
  12   7  11   -0.12    0.18
  11 -12  -7    1.23    0.42
  11 -12   8    0.01    0.18
  12  -8  11    0.12    0.20
  11 -12  -8    0.19    0.11
  12   8  11   -0.02    0.19
  11 -12   9    0.17    0.19
  12  -9  11    0.18    0.20
  12   9  11    0.15    0.21
  11 -12  10    0.21    0.20
  10 -11  12    0.11    0.20
  12 -10  11    0.04    0.21
  12  10  11    0.03    0.20
  11 -12  11    7.44    0.88
  11 -11  12    6.68    0.92
  12 -11  11    7.71    0.94
  12 -12   0    3.47    0.65
  12   0  12    3.94    0.77
  12  -1  12    0.22    0.20
  12 -12   1    0.10    0.17
  12 -12  -1    0.21    0.16
  12   1  12    0.19    0.19
  12  -2  12   33.54    1.32
  12 -12   2   31.63    1.20
  12 -12  -2   33.28    1.15
  12   2  12   34.28    1.31
  12  -3  12    0.41    0.21
  12 -12   3    0.12    0.18
  12 -12  -3    0.16    0.15
  12   3  12    0.11    0.19
  12  -4  12   35.44    1.35
  12 -12   4   35.30    1.29
  12 -12  -4   34.96    1.14
  12   4  12   36.67    1.34
  12  -5  12    0.54    0.21
  12 -12   5    0.65    0.20
  12 -12  -5    2.10    0.51
  12   5  12    0.56    0.21
  12 -12   6    2.07    0.72
  12 -12  -6    2.60    0.50
  12  -7  12    5.65    0.84
  12 -12   7    4.25    0.75
  12 -12  -7    5.30    0.53
  12   7  12    4.50    0.77
  12 -12   8   10.63    0.91
  12  -8  12   11.82    0.96
  12   8  12   10.93    0.94
  12 -12   9    1.93    0.79
  12  -9  12    0.62    0.23
  12   9  12    0.57    0.23
  10 -12  12   19.12    1.10
  12 -12  10   19.80    1.11
  12 -10  12   18.82    1.15
  12  10  12   18.34    1.10
  11 -12  12    9.17    0.97
  12 -12  11    6.62    0.94
  12 -11  12    9.32    1.00
  12 -12  12   64.64    2.03
   0   0  13    3.06    0.40
  13   0   0    4.29    0.64
   1   0  13   30.27    0.86
  13  -1   0   30.20    1.09
  13   1   0   30.28    1.11
  13  -2   0    9.79    0.74
  13   2   0    8.71    0.77
   2   0  13    7.71    0.55
  13  -3   0    7.31    0.69
   3   0  13    8.18    0.57
  13   3   0    8.30    0.76
  13  -4   0    1.38    0.60
   4   0  13    2.38    0.52
  13   4   0    2.46    0.68
  13   5   0    3.35    0.74
   5   0  13    2.63    0.55
  13  -5   0    2.97    0.62
  13  -6   0   -0.03    0.16
   6   0  13    0.23    0.15
  13   6   0    0.20    0.19
  13  -7   0    8.43    0.76
   7   0  13    8.96    0.76
   8   0  13    2.79    0.68
  13  -8   0    3.88    0.67
   9   0  13    0.17    0.18
  13  -9   0    0.14    0.16
  13 -10   0    7.10    0.73
  10   0  13    6.06    0.78
  11   0  13   16.35    0.95
  13 -11   0   14.55    0.86
  12   0  13    0.21    0.19
  13 -12   0   -0.01    0.17
  13   0  -1   30.27    1.11
  13   0   1   30.31    1.12
   0   1  13   30.10    0.83
  13  -1   1   51.56    1.50
  13   1  -1   49.67    1.49
  -1   1  13   51.28    1.15
   1   1  13   50.89    1.23
  13   1   1   49.51    1.49
  13  -1  -1   51.41    1.46
  13  -2   1    0.00    0.15
   2  -1  13    0.06    0.11
  13   2  -1   -0.20    0.15
  13   2   1    0.04    0.16
  13  -2  -1   -0.18    0.14
   2   1  13   -0.07    0.11
  13  -3   1   12.35    0.80
  13   3  -1   13.54    0.86
   3  -1  13   13.75    0.64
  13  -3  -1   14.02    0.79
   3   1  13   12.43    0.63
  13   3   1   12.73    0.85
   4  -1  13   20.87    0.82
  13  -4   1   21.46    0.95
  13   4  -1   22.02    1.00
  13   4   1   21.37    1.01
  13  -4  -1   19.86    0.90
   4   1  13   22.02    0.81
   5  -1  13    3.38    0.57
  13  -5   1    3.08    0.66
  13   5  -1    3.62    0.73
  13   5   1    3.22    0.71
   5   1  13    3.76    0.57
  13  -5  -1    1.98    0.59
   6  -1  13    0.26    0.16
  13   6  -1    0.36    0.19
  13  -6   1    0.21    0.17
  13  -6  -1    0.10    0.16
   6   1  13    1.36    0.56
  13   6   1    1.65    0.71
   7  -1  13   41.15    1.29
  13  -7   1   39.83    1.33
  13  -7  -1   40.02    1.30
   7   1  13   43.47    1.30
  13   7   1   42.98    1.42
   8  -1  13   19.32    0.95
  13  -8   1   19.19    0.95
   8   1  13   19.18    0.95
  13  -8  -1   18.22    0.90
   9  -1  13    6.51    0.78
  13  -9   1    6.71    0.75
  13  -9  -1    7.23    0.72
   9   1  13    6.20    0.77
  13 -10   1   -0.09    0.16
  10  -1  13   -0.07    0.18
  13 -10  -1    0.05    0.15
  10   1  13    0.11    0.18
  11  -1  13    2.93    0.75
  13 -11   1    2.95    0.69
  11   1  13    2.47    0.72
  13 -11  -1    2.86    0.65
  13 -12   1    8.24    0.78
  12  -1  13    8.79    0.88
  13 -12  -1    8.93    0.76
  12   1  13    8.32    0.85
  13   0  -2    8.47    0.72
   0   2  13    8.15    0.44
  13   0   2    8.77    0.72
  13  -1   2   -0.03    0.15
  13   1  -2   -0.02    0.15
  13  -1  -2   -0.15    0.14
   1   2  13   -0.15    0.10
  13   1   2   -0.02    0.15
  13   2  -2    3.30    0.66
  13  -2   2    2.69    0.62
  13   2   2    3.82    0.70
  13  -2  -2    3.15    0.58
   2   2  13    2.72    0.45
  13   3  -2    0.17    0.17
   3  -2  13    0.13    0.12
  13  -3   2    0.14    0.16
  13   3   2    0.17    0.18
  13  -3  -2    0.09    0.14
   3   2  13    0.12    0.12
  13   4  -2    0.16    0.18
  13  -4   2    0.08    0.16
   4  -2  13    0.14    0.13
  13  -4  -2    0.16    0.15
  13   4   2    0.19    0.18
   4   2  13    0.01    0.12
  13   5  -2    0.20    0.19
   5  -2  13    0.03    0.14
  13  -5   2    0.02    0.16
   5   2  13   -0.03    0.13
  13  -5  -2    0.05    0.14
  13   5   2    0.14    0.18
  13  -6   2   -0.05    0.17
   6  -2  13    0.03    0.15
  13  -6  -2    0.00    0.14
  13   6   2    0.21    0.19
   6   2  13    0.07    0.15
   7  -2  13    0.16    0.16
  13  -7   2   -0.01    0.17
  13  -7  -2   -0.11    0.14
  13   7   2    0.20    0.20
   7   2  13   -0.24    0.15
   8  -2  13    4.67    0.71
  13  -8   2    4.00    0.72
   8   2  13    3.71    0.70
  13  -8  -2    4.52    0.68
  13  -9   2    0.43    0.19
   9  -2  13    0.65    0.20
   9   2  13    0.57    0.19
  13  -9  -2    1.41    0.61
  10  -2  13    0.15    0.18
  13 -10   2    0.14    0.18
  13 -10  -2    0.01    0.15
  10   2  13   -0.03    0.17
  11  -2  13    2.09    0.74
  11   2  13    1.67    0.71
  13 -11  -2    2.27    0.61
  13 -12   2    2.45    0.70
  12  -2  13    3.19    0.80
  13 -12  -2    3.11    0.63
  12   2  13    2.20    0.79
  13   0   3    7.68    0.75
  13   0  -3    7.98    0.70
  13   1  -3   13.30    0.79
  13  -1   3   12.75    0.82
   1   3  13   13.20    0.53
  13  -1  -3   13.06    0.78
  13   1   3   13.07    0.82
  13   2  -3    0.13    0.16
  13  -2   3   -0.03    0.16
   2   3  13    0.03    0.10
  13  -2  -3    0.07    0.14
  13   2   3    0.11    0.17
  13  -3   3   11.62    0.81
  13   3  -3   11.40    0.79
  13  -3  -3   12.79    0.74
   3   3  13   12.36    0.60
  13   3   3   11.46    0.84
   4  -3  13   10.62    0.65
  13   4  -3   10.88    0.80
  13  -4   3    9.72    0.80
  13  -4  -3   10.96    0.71
   4   3  13   10.64    0.62
  13   4   3   11.27    0.85
  13  -5   3   21.09    1.01
   5  -3  13   21.74    0.89
   5   3  13   22.68    0.84
  13  -5  -3   21.90    0.91
  13   5   3   21.80    1.03
   6  -3  13    2.12    0.60
  13   6   3    0.49    0.21
   6   3  13    2.37    0.57
  13  -7   3    0.40    0.18
   7  -3  13    1.66    0.64
  13   7   3    0.70    0.22
   7   3  13    0.58    0.17
  13  -7  -3    1.57    0.58
  13  -8   3   14.67    0.88
   8  -3  13   13.65    0.87
  13  -8  -3   13.34    0.80
  13   8   3   15.47    0.98
   8   3  13   13.58    0.85
   9  -3  13    2.45    0.71
  13  -9  -3    1.99    0.61
   9   3  13    1.86    0.70
  10  -3  13   -0.02    0.18
  13 -10   3    0.06    0.18
  13 -10  -3   -0.03    0.14
  10   3  13    0.02    0.17
  11  -3  13   25.78    1.15
  13 -11   3   24.65    1.12
  13 -11  -3   24.22    0.99
  11   3  13   28.06    1.17
  12  -3  13    5.10    0.84
  13 -12   3    4.79    0.77
  13 -12  -3    5.61    0.64
  12   3  13    3.72    0.78
  13   0   4    1.50    0.64
  13   0  -4    2.31    0.59
  13   1  -4   22.50    0.95
  13  -1   4   21.10    1.00
  13   1   4   21.97    1.00
   1   4  13   21.73    0.64
  13  -1  -4   20.75    0.91
  13  -2   4    0.17    0.17
  13   2  -4    0.31    0.17
  13   2   4    0.02    0.17
  13  -2  -4    0.14    0.14
   2   4  13    0.18    0.10
  13   3  -4   11.39    0.80
  13  -3   4    9.96    0.81
  13  -3  -4   10.14    0.69
  13   3   4   10.82    0.82
   3   4  13   10.36    0.56
  13  -4   4    0.13    0.17
  13  -4  -4    0.01    0.13
   4   4  13   -0.04    0.12
  13   4   4    0.06    0.17
  13  -5   4    2.57    0.67
   5  -4  13    1.94    0.58
  13   5   4    2.57    0.73
  13  -5  -4    1.90    0.56
   5   4  13    1.70    0.53
   6  -4  13    4.06    0.63
  13  -6   4    2.35    0.71
  13   6   4    5.10    0.78
   6   4  13    3.39    0.59
  13  -6  -4    3.21    0.57
  13  -7   4    3.40    0.71
   7  -4  13    2.46    0.70
   7   4  13    3.91    0.64
  13   7   4    3.49    0.81
  13  -7  -4    2.85    0.58
  13  -8   4   -0.03    0.17
   8  -4  13    0.14    0.18
  13   8   4    0.06    0.20
   8   4  13    0.00    0.16
  13  -8  -4    0.14    0.14
   9  -4  13    3.30    0.72
  13  -9   4    1.98    0.73
   9   4  13    2.30    0.66
  13  -9  -4    1.87    0.59
  10  -4  13    0.24    0.19
  13 -10   4    0.39    0.19
  13 -10  -4    0.64    0.16
  10   4  13    0.46    0.18
  11  -4  13    3.83    0.76
  11   4  13    2.05    0.70
  13 -11  -4    2.96    0.58
  13 -12   4    0.44    0.20
  12  -4  13    0.31    0.21
  12   4  13    0.73    0.21
  13 -12  -4    2.05    0.57
  13   0  -5    2.96    0.61
  13   0   5    2.26    0.69
  13  -1   5    1.81    0.65
  13   1  -5    3.88    0.63
  13   1   5    2.90    0.70
  13  -1  -5    4.08    0.60
  13   2  -5    0.10    0.16
  13  -2   5   -0.04    0.16
  13   2   5   -0.08    0.17
  13  -2  -5    0.08    0.14
   2   5  13    0.12    0.10
  13  -3   5   22.68    1.06
  13   3   5   22.84    1.06
   3   5  13   23.64    0.78
  13  -3  -5   23.02    0.91
  13  -4   5    0.64    0.20
  13  -4  -5    1.40    0.53
   4   5  13    1.98    0.49
  13   4   5    0.58    0.20
  13  -5   5    7.81    0.78
   5   5  13    9.23    0.64
  13  -5  -5    8.92    0.64
  13   5   5    9.90    0.87
  13  -6   5    0.23    0.18
   6  -5  13    0.40    0.17
  13  -6  -5    0.15    0.14
  13   6   5    0.54    0.21
   6   5  13    0.39    0.16
  13  -7   5   -0.03    0.18
   7  -5  13    0.12    0.16
  13  -7  -5   -0.06    0.13
   7   5  13    0.08    0.16
  13   7   5   -0.03    0.20
   8  -5  13    1.99    0.70
  13  -8   5    0.33    0.19
  13  -8  -5    0.46    0.14
  13   8   5    1.93    0.78
   8   5  13    0.51    0.18
  13  -9   5    3.24    0.75
   9  -5  13    3.48    0.72
  13  -9  -5    3.33    0.54
   9   5  13    2.67    0.67
  13   9   5    3.17    0.77
  10  -5  13    0.29    0.19
  13 -10   5   -0.06    0.18
  10   5  13   -0.05    0.17
  13 -10  -5    0.04    0.13
  13 -11   5    8.45    0.86
  11  -5  13    9.66    0.87
  11   5  13    8.76    0.84
  13 -11  -5    9.71    0.68
  12  -5  13    2.24    0.79
  13 -12  -5    1.58    0.55
  13   0  -6    0.05    0.14
  13   0   6   -0.01    0.18
  13   1  -6    0.39    0.16
  13  -1   6    0.14    0.18
  13   1   6    0.29    0.19
  13  -1  -6    0.31    0.15
  13  -2   6    0.20    0.17
  13  -2  -6    0.14    0.14
   2   6  13    0.12    0.10
  13   2   6    0.05    0.17
  13  -3   6    0.55    0.20
  13  -3  -6    1.54    0.54
   3   6  13    0.41    0.12
  13   3   6    0.46    0.20
  13  -4   6    2.07    0.75
  13  -4  -6    3.89    0.57
   4   6  13    4.30    0.52
  13   4   6    3.31    0.75
  13  -5   6    0.42    0.20
  13   5   6    1.86    0.76
  13  -5  -6    0.46    0.15
   5   6  13    0.50    0.15
  13  -6   6    2.79    0.71
  13  -6  -6    3.92    0.54
  13   6   6    3.48    0.80
   6   6  13    3.80    0.62
   7  -6  13    2.37    0.66
  13  -7   6    2.13    0.70
   7   6  13    1.86    0.62
  13  -7  -6    1.63    0.52
   8  -6  13    0.32    0.18
  13  -8   6    0.50    0.20
   8   6  13    0.50    0.18
  13  -8  -6    0.58    0.14
  13   8   6    0.60    0.22
  13  -9   6    0.35    0.19
   9  -6  13    0.39    0.19
   9   6  13    0.27    0.17
  13   9   6    0.31    0.21
  13  -9  -6    1.26    0.48
  13 -10   6   -0.14    0.18
  10  -6  13   -0.01    0.18
  13 -10  -6    0.06    0.12
  10   6  13   -0.03    0.17
  13 -11   6    0.03    0.18
  11  -6  13   -0.06    0.19
  11   6  13   -0.07    0.18
  13 -11  -6    0.10    0.12
  12  -6  13   -0.04    0.20
  13 -12   6    0.13    0.20
  13 -12  -6    1.31    0.50
  12   6  13   -0.32    0.19
  13   0   7    8.52    0.83
  13   0  -7    9.67    0.71
  13  -1   7   40.20    1.39
  13   1   7   41.40    1.42
  13  -1  -7   42.98    1.26
  13  -2   7   -0.06    0.18
  13  -2  -7    0.02    0.14
  13   2   7   -0.07    0.18
   3   7  13    1.77    0.47
  13  -3  -7    2.13    0.56
  13  -4   7    2.59    0.74
  13  -4  -7    3.74    0.55
  13   4   7    2.81    0.78
   4   7  13    3.24    0.53
  13  -5   7   -0.18    0.18
   5   7  13    0.00    0.14
  13  -5  -7    0.04    0.13
  13   5   7   -0.02    0.20
  13  -6   7    1.63    0.70
  13   6   7    2.29    0.73
  13  -6  -7    1.56    0.50
   6   7  13    1.36    0.58
  13  -7   7    3.34    0.72
   7  -7  13    4.03    0.68
  13  -7  -7    3.57    0.51
   7   7  13    3.58    0.64
  13   7   7    3.89    0.80
  13  -8   7    1.95    0.72
   8  -7  13    2.46    0.69
   8   7  13    1.52    0.62
   7 -13  -8    1.62    0.34
  13  -8  -7    2.56    0.49
  13   8   7    2.20    0.77
   9  -7  13    0.11    0.18
  13  -9   7    0.14    0.18
  13  -9  -7    0.14    0.11
   9   7  13   -0.07    0.16
  13   9   7    0.09    0.20
  10  -7  13   -0.11    0.18
  13 -10   7    0.14    0.19
  10   7  13   -0.14    0.16
  13 -10  -7    0.12    0.11
  13 -11   7    1.89    0.74
  11  -7  13    3.12    0.79
  13 -11  -7    2.81    0.49
  11   7  13    2.16    0.71
  13 -12   7    0.12    0.20
  12  -7  13   -0.10    0.20
  12   7  13   -0.29    0.18
  13 -12  -7    0.13    0.12
  13   0   8    3.73    0.81
  13  -1   8   18.75    1.04
  13   1   8   19.40    1.06
  13  -2   8    4.91    0.78
  13  -2  -8    5.53    0.61
  13   2   8    4.12    0.80
  13  -3   8   13.61    0.97
  13   3   8   14.22    0.96
  13  -3  -8   14.20    0.73
  13  -4   8    0.00    0.18
  13  -4  -8    0.12    0.13
  13   4   8   -0.01    0.20
  13  -5   8    0.30    0.19
  13   5   8    0.30    0.21
  13  -5  -8    0.40    0.13
   5   8  13    0.52    0.15
  13  -6   8    0.47    0.20
   8 -13  -6    0.49    0.12
  13   6   8    0.70    0.21
  13  -6  -8    1.36    0.48
   6   8  13    1.47    0.57
  13  -7   8    2.59    0.74
   8 -13  -7    2.33    0.39
  13  -7  -8    2.11    0.46
  13  -8   8    3.07    0.76
   8  -8  13    3.08    0.69
   8 -13  -8    3.25    0.38
   8   8  13    1.74    0.65
  13  -8  -8    3.47    0.47
  13   8   8    3.21    0.78
   9  -8  13    4.73    0.77
  13  -9   8    4.16    0.80
   9   8  13    3.72    0.70
  13  -9  -8    4.47    0.49
  13   9   8    3.55    0.81
  10  -8  13    2.57    0.75
  13 -10   8    2.78    0.75
  13 -10  -8    2.74    0.47
  11  -8  13    7.31    0.89
  13 -11   8    6.99    0.85
  11   8  13    5.81    0.82
  12  -8  13    0.21    0.21
  13 -12   8    0.21    0.21
  12   8  13   -0.05    0.20
  13   0   9    0.09    0.20
  13  -1   9    6.49    0.84
  13   1   9    6.98    0.83
  13   2   9    2.01    0.78
  13  -3   9    2.14    0.73
  13   3   9    2.26    0.76
  13  -4   9    2.07    0.77
  13   4   9    2.91    0.77
  13  -4  -9    1.86    0.52
   9 -13  -4    2.28    0.49
  13  -5   9    4.05    0.73
   9 -13  -5    3.16    0.48
  13   5   9    2.89    0.78
  13  -5  -9    2.89    0.51
  13  -6   9    0.24    0.19
  13  -6  -9    0.25    0.12
  13   6   9    0.26    0.20
   9 -13  -6    1.22    0.42
  13  -7   9    0.01    0.18
   9 -13  -7    0.14    0.10
   7   9  13   -0.23    0.15
  13   7   9   -0.05    0.18
  13  -7  -9   -0.08    0.10
  13  -8   9    4.17    0.76
  13   8   9    4.08    0.80
   8   9  13    2.59    0.67
   9 -13  -8    4.46    0.43
  13  -8  -9    3.82    0.47
   9  -9  13    4.92    0.77
  13  -9   9    5.03    0.84
  13   9   9    4.02    0.81
   9   9  13    2.66    0.71
  10  -9  13    0.13    0.20
  13 -10   9    0.13    0.20
  10   9  13   -0.17    0.18
  13  10   9   -0.11    0.20
  13 -11   9    0.15    0.21
  11  -9  13   -0.16    0.20
  11   9  13   -0.05    0.19
  13 -12   9    2.04    0.84
  12  -9  13    0.58    0.23
  12   9  13    0.28    0.23
  13   0  10    7.26    0.85
  13  -1  10    0.01    0.19
  13   1  10    0.17    0.20
  10 -13  -1    0.10    0.14
  13  -2  10    0.10    0.19
  13   2  10   -0.01    0.19
  10 -13  -2   -0.06    0.13
  13  -3  10    0.03    0.19
  13   3  10    0.00    0.18
  10 -13  -3   -0.02    0.12
  13  -4  10    2.02    0.75
  10 -13  -4    1.48    0.48
  13  -5  10   -0.22    0.17
  10 -13  -5    0.00    0.11
  13   5  10   -0.20    0.19
  13  -6  10   -0.13    0.18
  13  -6 -10   -0.22    0.11
  13   6  10   -0.17    0.19
  10 -13  -6    0.12    0.11
  13  -7  10    0.02    0.19
  10 -13  -7    0.14    0.11
  13   7  10   -0.06    0.19
  13  -8  10    2.54    0.79
  13  -9  10    0.20    0.21
   9 -10  13    0.13    0.19
  13   9  10   -0.27    0.20
  13 -10  10    0.08    0.20
  10 -10  13    0.05    0.20
  13  10  10    0.02    0.21
  10  10  13   -0.15    0.18
  13 -11  10    0.28    0.22
  11 -10  13    0.44    0.23
  11  10  13    0.04    0.20
  13 -12  10    2.14    0.86
  12 -10  13    0.50    0.24
  12  10  13    0.50    0.23
  11 -13   0   15.09    0.84
  13   0  11   15.65    1.00
  11 -13   1    1.73    0.61
  13  -1  11    1.83    0.76
  11 -13  -1    1.88    0.59
  13  -2  11    1.83    0.75
  11 -13   2    0.47    0.18
  13   2  11    0.75    0.22
  11 -13  -2    0.55    0.16
  13  -3  11   24.68    1.19
  11 -13   3   24.01    1.05
  11 -13  -3   25.62    0.97
  13   3  11   25.86    1.16
  11 -13   4    2.21    0.69
  13  -4  11    3.82    0.80
  11 -13  -4    3.00    0.55
  13   4  11    3.11    0.79
  13  -5  11    9.09    0.88
  11 -13   5    8.26    0.79
  13   5  11    8.39    0.88
  11 -13  -5    9.57    0.63
  11 -13   6   -0.17    0.17
  13  -6  11    0.11    0.20
  11 -13  -6    1.17    0.47
  13   6  11   -0.09    0.19
  11 -13   7    1.73    0.72
  13  -7  11    0.72    0.23
  13   7  11    0.81    0.23
  11 -13  -7    2.40    0.47
  11 -13   8    6.97    0.82
  13  -8  11    6.59    0.88
  13   8  11    5.16    0.87
  11 -13   9   -0.18    0.19
  13  -9  11   -0.08    0.21
  13   9  11   -0.34    0.20
  13 -10  11    0.00    0.22
  10 -11  13    0.19    0.22
  11 -13  10    0.14    0.21
  13  10  11    0.06    0.22
  13 -11  11   18.44    1.19
  11 -11  13   18.67    1.13
  11 -13  11   18.19    1.09
  12 -11  13    2.15    0.89
  13 -12  11    3.11    0.92
  12 -13   0    0.11    0.16
  13   0  12   -0.02    0.19
  12 -13   1    8.59    0.77
  13  -1  12    8.68    0.85
  13   1  12    8.92    0.92
  12 -13  -1    8.25    0.73
  13  -2  12    1.90    0.75
  12 -13   2    3.17    0.68
  12 -13  -2    3.11    0.62
  13   2  12    2.35    0.77
  13  -3  12    4.57    0.84
  12 -13   3    4.21    0.72
  12 -13  -3    4.92    0.64
  13   3  12    4.03    0.81
  12 -13   4    0.40    0.19
  13  -4  12    0.34    0.21
  13   4  12    0.51    0.21
  12 -13  -4    1.94    0.55
  12 -13   5    0.17    0.19
  13  -5  12    0.30    0.21
  13   5  12    0.28    0.21
  12 -13  -5    1.53    0.53
  13  -6  12   -0.01    0.21
  12 -13   6   -0.03    0.19
  12 -13  -6    1.23    0.48
  13   6  12   -0.06    0.20
  12 -13   7    0.06    0.19
  13  -7  12    0.10    0.21
  12 -13  -7    1.12    0.48
  13   7  12   -0.25    0.19
  13  -8  12   -0.07    0.21
  12 -13   8    0.11    0.20
  13   8  12    0.07    0.21
  12 -13   9    0.51    0.22
  13  -9  12    0.23    0.24
  13   9  12    0.29    0.23
  10 -12  13    0.34    0.22
  13 -10  12    0.65    0.25
  12 -13  10    0.63    0.24
  13  10  12    0.39    0.24
  12 -13  11    2.68    0.88
  11 -12  13    2.77    0.88
  12 -13  12    0.34    0.25
  12 -12  13    0.21    0.24
  13 -12  12    0.36    0.26
  13   0  13    3.55    0.82
  13  -1  13    0.01    0.20
  13 -13   1    0.00    0.18
  13 -13  -1   -0.09    0.16
  13   1  13    0.16    0.20
  13 -13   2    2.07    0.71
  13 -13  -2    2.60    0.64
  13   2  13    2.50    0.80
  13  -3  13   20.95    1.15
  13 -13   3   19.83    1.06
  13 -13  -3   20.87    0.94
  13   3  13   19.67    1.10
  13  -4  13   13.74    1.04
  13 -13   4   12.23    0.95
  13 -13  -4   11.76    0.76
  13   4  13   12.26    0.99
  13  -5  13   10.89    0.99
  13 -13   5    9.83    0.92
  13 -13  -5   11.56    0.73
  13   5  13   10.81    0.95
  13 -13   6   -0.03    0.20
  13  -6  13    0.30    0.22
  13   6  13   -0.06    0.21
  13 -13   7    9.56    0.95
  13  -7  13    9.94    0.98
  13   7  13    9.89    0.94
  13 -13   8    9.99    0.98
  13  -8  13   11.00    0.98
  13   8  13   10.23    0.97
  13 -13   9    0.49    0.24
  13  -9  13    0.62    0.25
  13   9  13    0.13    0.23
  10 -13  13   -0.29    0.20
  13 -13  10    0.13    0.22
  13 -10  13    0.07    0.23
  13  10  13   -0.40    0.21
  11 -13  13   18.31    1.20
  13 -13  11   17.61    1.17
  13 -11  13   18.22    1.22
  12 -13  13    8.85    1.03
  13 -13  12    9.59    1.08
  13 -12  13   10.04    1.05
   0   0  14  188.61    3.83
  14   0   0  194.66    4.17
  14   1   0   18.27    1.00
  14  -1   0   20.55    0.97
   1   0  14   17.59    0.71
  14   2   0   48.58    1.50
  14  -2   0   47.44    1.47
   2   0  14   47.01    1.24
   3   0  14    5.78    0.59
  14  -3   0    5.87    0.73
  14   3   0    6.68    0.77
   4   0  14   -0.14    0.13
  14   4   0    0.04    0.19
  14  -4   0    0.08    0.16
   5   0  14    5.13    0.61
  14  -5   0    3.64    0.72
  14   5   0    5.76    0.80
  14   6   0   21.37    1.08
  14  -6   0   20.79    1.02
   6   0  14   22.10    0.94
   7   0  14   10.16    0.79
  14  -7   0    9.86    0.83
   8   0  14   46.30    1.44
  14  -8   0   46.06    1.48
  14  -9   0   25.79    1.09
   9   0  14   25.26    1.10
  10   0  14    8.24    0.85
  14 -10   0    7.25    0.75
  11   0  14   15.90    0.96
  14 -11   0   15.03    0.90
  14 -12   0    4.23    0.76
  12   0  14    5.40    0.83
  13   0  14    0.08    0.21
  14 -13   0    0.32    0.18
  14   0  -1   20.22    1.00
  14   0   1   21.83    1.00
   0   1  14   19.82    0.69
  -1   1  14    0.06    0.09
  14   1  -1   -0.11    0.18
  14  -1   1   -0.04    0.17
   1  -1  14    0.00    0.12
  14   1   1    0.27    0.18
  14  -1  -1    0.10    0.17
  -2   1  14   15.94    0.54
  14  -2   1   16.35    0.91
   2  -1  14   15.76    0.70
  14   2  -1   16.63    0.94
  14   2   1   16.82    0.97
   2   1  14   14.89    0.69
  14  -2  -1   15.82    0.86
   3  -1  14    0.24    0.14
  14   3  -1    0.26    0.19
  14  -3   1    0.22    0.17
  14  -3  -1    0.36    0.17
  14   3   1    0.34    0.19
   3   1  14    0.12    0.13
   4  -1  14    3.26    0.57
  14  -4   1    2.24    0.68
  14   4  -1    3.09    0.75
  14  -4  -1    2.23    0.65
  14   4   1    3.64    0.73
   4   1  14    2.58    0.55
  14   5  -1    2.12    0.79
   5  -1  14    2.02    0.58
  14   5   1    2.83    0.77
   5   1  14    1.67    0.59
  14   6  -1    4.15    0.83
  14  -6   1    2.13    0.73
   6  -1  14    3.22    0.63
  14   6   1    4.46    0.84
   6   1  14    2.97    0.64
  14  -6  -1    2.46    0.65
  14  -7   1    2.12    0.72
   7  -1  14    2.29    0.65
   7   1  14    2.15    0.66
  14  -7  -1    1.79    0.66
  14   7   1    2.69    0.83
   8  -1  14    0.06    0.18
  14  -8   1   -0.02    0.17
  14  -8  -1   -0.02    0.16
   8   1  14   -0.21    0.17
  14  -9   1    0.18    0.17
   9  -1  14    0.10    0.18
  14  -9  -1    0.05    0.16
   9   1  14   -0.11    0.17
  10  -1  14    7.70    0.84
  14 -10   1    7.41    0.77
  14 -10  -1    7.80    0.76
  10   1  14    7.84    0.82
  11  -1  14    0.37    0.20
  14 -11   1   -0.05    0.17
  14 -11  -1    0.20    0.16
  11   1  14    0.03    0.19
  12  -1  14   11.07    0.94
  14 -12   1   10.55    0.88
  14 -12  -1    9.58    0.82
  12   1  14   10.53    0.94
  13  -1  14    0.47    0.23
  14 -13   1    1.94    0.76
  14 -13  -1    0.43    0.19
  13   1  14    0.73    0.24
   0   2  14   47.88    1.15
  14   0  -2   48.88    1.49
  14   0   2   49.35    1.50
  14   1  -2   16.15    0.91
  14  -1   2   15.24    0.90
  14   1   2   16.58    0.96
   1   2  14   15.84    0.63
  14  -1  -2   15.33    0.88
  14  -2   2    0.10    0.18
  14   2  -2    0.18    0.18
  14  -2  -2    0.15    0.16
   2   2  14    0.18    0.12
  14   2   2    0.29    0.19
  14  -3   2   15.82    0.93
  14   3  -2   16.13    0.96
   3  -2  14   17.27    0.74
  14  -3  -2   16.19    0.86
  14   3   2   17.83    0.99
   3   2  14   16.49    0.71
  14  -4   2    5.52    0.74
   4  -2  14    5.44    0.60
  14   4  -2    4.90    0.78
   4   2  14    5.76    0.59
  14   4   2    6.18    0.77
  14  -4  -2    5.35    0.69
  14   5  -2    6.04    0.84
   5  -2  14    6.27    0.66
  14  -5   2    5.37    0.77
  14  -5  -2    5.95    0.69
  14   5   2    7.26    0.83
   5   2  14    6.48    0.62
   6  -2  14    3.50    0.66
  14  -6   2    2.18    0.71
   6   2  14    2.22    0.61
  14  -6  -2    3.27    0.67
  14   6   2    3.88    0.80
  14  -7   2   15.97    0.96
   7  -2  14   17.64    0.90
   7   2  14   17.34    0.89
  14   7   2   17.25    1.04
  14  -7  -2   16.54    0.89
  14  -8   2   15.28    0.93
   8  -2  14   15.60    0.89
   8   2  14   14.53    0.86
  14  -8  -2   14.55    0.85
  14   8   2   14.40    1.02
   9  -2  14    0.32    0.19
  14  -9   2    0.50    0.19
   9   2  14    0.34    0.19
  14  -9  -2    1.54    0.63
  14 -10   2   -0.08    0.18
  10  -2  14   -0.04    0.18
  10   2  14    0.08    0.18
  14 -10  -2    0.33    0.16
  14 -11   2    3.24    0.73
  11  -2  14    3.05    0.77
  11   2  14    2.63    0.73
  14 -11  -2    2.23    0.63
  12  -2  14    2.65    0.80
  14 -12   2    2.05    0.73
  14 -12  -2    2.65    0.66
  13  -2  14    2.26    0.86
  14 -13   2    3.44    0.80
  13   2  14    2.21    0.86
  14 -13  -2    2.57    0.67
  14   0   3    6.85    0.79
  14   0  -3    6.85    0.74
  14  -1   3    0.31    0.18
  14   1  -3    0.44    0.18
   1   3  14    0.21    0.10
  14   1   3    0.41    0.19
  14  -1  -3    0.28    0.17
  14  -2   3   16.52    0.95
  14   2  -3   16.71    0.95
  14  -2  -3   17.67    0.89
  14   2   3   17.54    0.97
   2   3  14   17.61    0.67
  14  -3   3    3.82    0.70
  14   3  -3    3.87    0.75
  14  -3  -3    2.90    0.62
   3   3  14    3.24    0.50
  14   3   3    3.79    0.74
  14  -4   3    0.07    0.18
   4  -3  14   -0.08    0.14
  14   4  -3   -0.08    0.18
   4   3  14   -0.10    0.13
  14   4   3    0.11    0.18
  14  -4  -3   -0.01    0.15
   5  -3  14    1.58    0.58
  14  -5   3    0.32    0.19
  14   5   3    0.30    0.20
   5   3  14    0.17    0.15
  14  -5  -3    0.24    0.15
   6  -3  14    2.38    0.64
  14   6   3    3.22    0.83
   6   3  14    1.66    0.60
  14  -6  -3    1.54    0.60
   7  -3  14    0.43    0.18
  14  -7   3    0.21    0.18
  14  -7  -3    0.42    0.16
  14   7   3    0.38    0.22
   7   3  14    0.46    0.18
  14  -8   3    0.14    0.19
   8  -3  14    0.26    0.18
   8   3  14    0.08    0.17
  14  -8  -3    0.38    0.16
  14   8   3    0.36    0.22
  14  -9   3    1.74    0.70
   9  -3  14    1.72    0.70
  14  -9  -3    2.28    0.62
   9   3  14    2.35    0.69
  14 -10   3    5.74    0.79
  10  -3  14    6.07    0.79
  10   3  14    5.10    0.76
  14 -10  -3    5.62    0.69
  11  -3  14    3.05    0.78
  14 -11   3    2.97    0.75
  14 -11  -3    3.42    0.65
  11   3  14    3.63    0.76
  12  -3  14    7.09    0.91
  14 -12   3    6.05    0.87
  14 -12  -3    8.00    0.72
  12   3  14    6.83    0.85
  13  -3  14   -0.01    0.22
  14 -13   3   -0.05    0.19
  13   3  14    0.02    0.20
  14 -13  -3    0.05    0.15
  14   0   4    0.00    0.17
  14   0  -4   -0.03    0.16
  14  -1   4    2.46    0.74
  14   1  -4    3.27    0.69
  14   1   4    2.81    0.72
  14  -1  -4    3.37    0.65
   1   4  14    2.80    0.37
  14   2  -4    6.37    0.75
  14  -2   4    5.43    0.77
  14   2   4    5.81    0.80
  14  -2  -4    4.89    0.67
   2   4  14    5.02    0.47
  14   3  -4    0.20    0.18
  14  -3   4   -0.06    0.18
  14  -3  -4    0.18    0.15
  14   3   4    0.08    0.19
   3   4  14   -0.01    0.12
  14  -4   4    2.69    0.76
   4   4  14    2.02    0.51
  14   4   4    1.99    0.75
  14  -4  -4    2.10    0.61
   5  -4  14    1.93    0.59
   5   4  14    1.61    0.55
  14  -5  -4    1.88    0.60
  14  -6   4    3.42    0.75
   6  -4  14    5.12    0.70
  14   6   4    5.63    0.87
   6   4  14    4.44    0.62
  14  -6  -4    4.26    0.63
  14  -7  -4    1.44    0.56
  14   7   4    1.87    0.81
  14  -8   4   15.35    0.96
   8  -4  14   14.80    0.90
   8   4  14   15.63    0.84
  14   8   4   14.82    1.02
  14  -8  -4   14.35    0.80
   9  -4  14    4.55    0.73
  14  -9   4    4.22    0.74
  14   9   4    4.78    0.82
   9   4  14    4.26    0.68
  14  -9  -4    4.66    0.61
  10  -4  14    0.35    0.20
  14 -10   4    0.06    0.19
  14 -10  -4    0.50    0.16
  10   4  14    0.40    0.18
  11  -4  14    1.97    0.76
  14 -11  -4    2.39    0.60
  11   4  14    1.81    0.71
  14 -12   4   14.61    1.01
  12  -4  14   12.67    1.01
  12   4  14   13.74    0.98
  14 -12  -4   14.40    0.84
  13  -4  14    0.17    0.22
  14 -13   4    0.14    0.20
  13   4  14    0.01    0.21
  14 -13  -4    0.02    0.15
  14   0  -5    5.10    0.68
  14   0   5    5.02    0.79
  14   1  -5    2.59    0.67
  14  -1  -5    2.15    0.62
  14   1   5    1.75    0.73
  14  -2   5    6.62    0.81
  14   2  -5    7.20    0.77
   2   5  14    6.16    0.49
  14  -2  -5    6.89    0.69
  14   2   5    5.57    0.82
  14  -3   5    0.20    0.18
  14   3   5    0.27    0.20
  14  -3  -5    0.32    0.16
   3   5  14    0.26    0.13
  14  -4   5    0.44    0.20
   4   5  14    1.70    0.51
  14  -4  -5    1.46    0.59
  14   4   5    0.59    0.22
  14  -5   5    0.09    0.20
   5   5  14    0.34    0.15
  14  -5  -5    0.30    0.15
  14   5   5    0.19    0.21
   6  -5  14   -0.10    0.16
  14  -6   5    0.07    0.18
  14   6   5   -0.11    0.20
   6   5  14    0.05    0.15
  14  -6  -5   -0.05    0.13
  14  -7   5    4.70    0.78
   7  -5  14    4.53    0.74
  14   7   5    5.72    0.89
   7   5  14    4.98    0.66
  14  -7  -5    5.28    0.61
   8  -5  14    0.31    0.18
  14  -8   5    0.14    0.18
  14   8   5   -0.15    0.21
  14  -8  -5    0.20    0.13
   8   5  14    0.12    0.17
   9  -5  14   -0.01    0.18
  14  -9   5    0.18    0.18
  14  -9  -5    0.17    0.13
   9   5  14    0.13    0.17
  14   9   5    0.11    0.21
  14 -10   5    0.24    0.20
  10  -5  14    0.17    0.19
  14 -10  -5    1.55    0.55
  10   5  14    0.27    0.18
  14 -11   5    0.17    0.20
  11  -5  14    0.14    0.21
  14 -11  -5    0.22    0.14
  11   5  14   -0.06    0.18
  12  -5  14    3.80    0.86
  14 -12   5    3.89    0.83
  14 -12  -5    4.46    0.63
  12   5  14    3.19    0.80
  13  -5  14    0.28    0.23
  14 -13   5    0.01    0.20
  13   5  14   -0.12    0.20
  14 -13  -5    1.66    0.59
  14   0  -6   22.39    0.98
  14   0   6   22.17    1.12
  14  -1   6    2.72    0.77
  14   1  -6    3.93    0.69
  14  -1  -6    3.45    0.66
  14   1   6    3.02    0.79
  14  -2   6    3.10    0.77
  14   2   6    3.05    0.79
   2   6  14    2.97    0.44
  14  -2  -6    3.56    0.63
   3   6  14    2.00    0.47
  14  -3  -6    1.55    0.58
  14  -4   6    3.36    0.79
   4   6  14    4.13    0.54
  14   4   6    3.86    0.84
  14  -4  -6    5.43    0.64
  14  -5   6   -0.14    0.19
   5   6  14    0.02    0.14
  14  -5  -6   -0.01    0.14
  14   5   6    0.21    0.21
  14  -6   6   17.09    1.01
   6  -6  14   16.85    0.86
  14  -6  -6   17.14    0.80
   6   6  14   17.56    0.81
  14   6   6   17.38    1.03
   7  -6  14    0.27    0.18
  14  -7   6    0.39    0.19
  14   7   6    0.42    0.21
  14  -7  -6    0.39    0.14
   7   6  14    0.22    0.16
   8  -6  14    3.86    0.72
  14  -8   6    4.34    0.77
   8   6  14    3.87    0.67
  14   8   6    3.15    0.80
  14  -8  -6    4.50    0.56
   9  -6  14    0.07    0.19
  14  -9   6    0.03    0.19
  14   9   6   -0.03    0.20
  14  -9  -6    0.13    0.12
   9   6  14   -0.19    0.16
  14 -10   6    1.90    0.76
  10  -6  14    0.78    0.22
  14 -10  -6    1.27    0.50
  10   6  14    0.75    0.20
  14 -11   6    0.08    0.20
  11  -6  14   -0.09    0.19
  14 -11  -6    0.16    0.13
  11   6  14   -0.23    0.19
  14 -12   6    0.08    0.21
  12  -6  14    0.19    0.21
  12   6  14    0.00    0.20
  14 -12  -6    0.18    0.14
  13  -6  14    0.08    0.22
  14 -13   6    0.10    0.21
  13   6  14   -0.09    0.20
  14 -13  -6    1.87    0.57
  14   0  -7    9.86    0.75
  14   0   7   10.50    0.94
  14  -1   7    1.77    0.75
  14  -1  -7    2.03    0.62
  14  -2   7   16.95    1.02
  14  -2  -7   16.52    0.84
  14   2   7   16.46    1.01
  14  -3   7    0.34    0.20
  14   3   7    0.39    0.21
  14  -3  -7    1.60    0.58
   3   7  14    0.27    0.13
  14  -4   7    0.21    0.19
   4   7  14    0.32    0.14
  14   4   7    0.37    0.21
  14  -4  -7    0.43    0.15
  14  -5   7    4.77    0.82
   5   7  14    4.45    0.59
  14   5   7    4.92    0.84
  14  -5  -7    4.59    0.59
  14  -6   7    0.29    0.20
  14  -6  -7    0.26    0.14
  14   6   7    0.41    0.20
   6   7  14    0.16    0.14
   7  -7  14    3.08    0.68
  14  -7   7    3.00    0.72
  14   7   7    3.16    0.78
   7   7  14    2.46    0.60
  14  -7  -7    3.52    0.52
  14  -8   7    0.37    0.20
   8  -7  14    0.50    0.19
  14   8   7    0.38    0.21
   8   7  14    0.21    0.17
  14  -8  -7    0.50    0.14
  14  -9   7    0.13    0.19
   9  -7  14   -0.07    0.19
   9   7  14   -0.03    0.16
  14   9   7   -0.31    0.20
  14  -9  -7    0.06    0.12
  10  -7  14    5.67    0.84
  14 -10   7    6.63    0.90
  14 -10  -7    6.75    0.58
  10   7  14    6.28    0.77
  14  10   7    4.87    0.89
  14 -11   7   -0.08    0.20
  11  -7  14   -0.12    0.20
  11   7  14   -0.29    0.18
  14 -11  -7    0.11    0.12
  12  -7  14    4.47    0.87
  14 -12   7    4.59    0.89
  14 -12  -7    4.71    0.57
  12   7  14    3.95    0.80
  14 -13   7    0.30    0.22
  13  -7  14    0.20    0.23
  13   7  14   -0.15    0.20
  14   0   8   46.09    1.56
  14  -1   8    0.03    0.20
  14   1   8   -0.14    0.19
  14  -2   8   14.27    0.97
  14  -2  -8   14.58    0.79
  14   2   8   14.87    0.99
  14  -3   8    0.49    0.20
  14  -3  -8    0.32    0.15
  14   3   8    0.28    0.20
  14  -4   8   14.56    0.98
  14  -4  -8   14.21    0.75
  14   4   8   15.24    1.01
  14  -5   8    0.04    0.19
  14   5   8    0.29    0.21
   5   8  14   -0.01    0.14
  14  -5  -8    0.13    0.13
  14  -6   8    3.41    0.77
   6   8  14    3.30    0.60
  14  -6  -8    3.89    0.53
  14   6   8    4.34    0.81
  14  -7   8    0.40    0.20
   8 -14  -7    0.39    0.11
   7   8  14    0.16    0.16
  14   7   8    0.28    0.20
  14  -7  -8    0.43    0.14
   8  -8  14   26.20    1.11
  14  -8   8   23.31    1.15
  14  -8  -8   25.26    0.90
   8 -14  -8   24.24    0.82
  14   8   8   24.98    1.22
   8   8  14   24.64    1.03
   9  -8  14    2.30    0.75
  14  -9   8    2.53    0.80
  14   9   8    2.07    0.83
  14  -9  -8    1.41    0.48
  10  -8  14    7.97    0.90
  14 -10   8    7.51    0.92
  14  10   8    7.01    0.93
  14 -10  -8    8.28    0.60
  10   8  14    6.98    0.82
  14 -11   8    0.17    0.22
  11  -8  14    0.17    0.21
  11   8  14    0.06    0.20
  12  -8  14    6.28    0.92
  14 -12   8    5.19    0.89
  12   8  14    5.81    0.87
  13  -8  14    0.22    0.23
  14 -13   8    0.19    0.23
  13   8  14   -0.09    0.21
  14   0   9   24.86    1.18
  14  -1   9    0.09    0.19
  14   1   9   -0.07    0.19
  14  -2   9    0.46    0.20
  14   2   9    0.33    0.20
  14  -3   9    2.78    0.78
  14   3   9    2.05    0.73
  14  -3  -9    1.35    0.52
  14  -4   9    5.02    0.78
  14   4   9    4.79    0.79
  14  -4  -9    3.70    0.57
  14  -5   9    0.12    0.19
  14   5   9    0.07    0.20
   9 -14  -5    0.04    0.11
  14  -5  -9   -0.05    0.13
  14  -6   9    0.09    0.19
  14   6   9    0.15    0.20
  14  -6  -9   -0.11    0.12
   9 -14  -6    0.03    0.11
  14  -7   9   -0.01    0.19
  14  -7  -9   -0.20    0.11
  14   7   9   -0.26    0.19
   9 -14  -7   -0.15    0.10
   7   9  14   -0.34    0.15
   8  -9  14    0.53    0.20
  14  -8   9    2.43    0.79
  14   8   9    0.51    0.23
   8   9  14    0.52    0.19
  14  -8  -9    1.15    0.48
  14  -9   9    0.24    0.20
   9  -9  14    0.17    0.20
  14   9   9    0.12    0.22
   9   9  14   -0.22    0.18
  10  -9  14    0.63    0.22
  14 -10   9    0.43    0.23
  10   9  14    0.24    0.20
  14  10   9    0.30    0.23
  14 -11   9   -0.10    0.22
  11  -9  14    0.02    0.22
  11   9  14   -0.20    0.20
  14 -12   9    6.41    0.92
  12  -9  14    6.19    0.94
  12   9  14    3.52    0.89
  14 -13   9   -0.02    0.23
  13  -9  14    0.13    0.24
  13   9  14   -0.53    0.21
  14   0  10    7.10    0.86
  14  -1  10    7.23    0.87
  14   1  10    7.75    0.88
  14  -2  10   -0.08    0.19
  14   2  10    0.02    0.19
  10 -14  -2   -0.02    0.14
  14  -3  10    5.57    0.81
  10 -14  -3    5.76    0.60
  14   3  10    6.24    0.83
  14  -4  10    0.30    0.20
  14   4  10    0.26    0.21
  10 -14  -4    0.29    0.13
  14  -5  10    0.30    0.20
  10 -14  -5    0.20    0.12
  14   5  10    0.28    0.21
  14  -6  10    1.80    0.74
  10 -14  -6    2.01    0.47
  14  -7  10    6.24    0.89
  10 -14  -7    5.96    0.54
  14   7  10    5.83    0.85
  14  -8  10    8.29    0.93
  14   8  10    7.91    0.93
   9 -10  14    1.80    0.76
  14  -9  10    0.32    0.22
  14   9  10    0.32    0.23
  10 -10  14    0.16    0.21
  14 -10  10    0.02    0.22
  10  10  14   -0.13    0.19
  14  10  10   -0.05    0.22
  14 -11  10    2.01    0.86
  11 -10  14    0.67    0.24
  11  10  14    0.39    0.22
  14 -12  10    0.34    0.24
  12 -10  14    0.19    0.24
  12  10  14   -0.13    0.21
  14 -13  10    0.00    0.24
  13 -10  14    0.18    0.24
  13  10  14   -0.50    0.21
  11 -14   0   14.35    0.84
  14   0  11   14.87    1.02
  11 -14   1    0.09    0.16
  14  -1  11    0.02    0.20
  11 -14  -1    0.12    0.15
  14   1  11   -0.07    0.20
  14  -2  11    2.65    0.80
  11 -14   2    2.91    0.66
  11 -14  -2    2.83    0.59
  14  -3  11    3.99    0.84
  11 -14  -3    3.32    0.57
  14   3  11    2.95    0.79
  14  -4  11    2.12    0.82
  11 -14  -4    1.38    0.53
  14  -5  11    0.12    0.21
  14   5  11   -0.03    0.20
  11 -14  -5    0.16    0.13
  14  -6  11    0.21    0.21
  11 -14  -6    0.15    0.13
  14   6  11   -0.31    0.20
  14  -7  11   -0.07    0.21
  14   7  11   -0.20    0.21
  11 -14  -7    0.11    0.12
  14  -8  11   -0.14    0.21
  14   8  11    0.04    0.22
   9 -11  14   -0.04    0.20
  14  -9  11   -0.40    0.21
  14   9  11   -0.06    0.22
  11 -14  10    0.68    0.23
  14 -10  11    0.12    0.24
  10 -11  14    0.72    0.24
  14  10  11    0.54    0.24
  11 -11  14    3.77    0.89
  11 -14  11    2.58    0.84
  14 -11  11    3.56    0.95
  12 -11  14    4.72    0.97
  14 -12  11    3.09    0.95
  11 -14  13   -0.49    0.22
  13 -11  14    0.42    0.25
  14 -13  11    0.20    0.25
  14   0  12    5.12    0.87
  12 -14   0    4.63    0.70
  14  -1  12   10.65    0.96
  12 -14   1    9.79    0.80
  14   1  12   11.27    0.99
  12 -14  -1    9.82    0.78
  12 -14   2    1.63    0.68
  14  -2  12    2.28    0.78
  12 -14  -2    1.51    0.61
  12 -14   3    5.87    0.78
  14  -3  12    7.63    0.95
  12 -14  -3    7.28    0.68
  14   3  12    7.40    0.88
  12 -14   4   13.30    0.94
  14  -4  12   15.37    1.08
  14   4  12   13.78    1.03
  12 -14  -4   13.76    0.80
  12 -14   5    3.59    0.74
  14  -5  12    4.16    0.87
  12 -14  -5    4.45    0.59
  14   5  12    2.68    0.84
  12 -14   6   -0.03    0.19
  14  -6  12   -0.04    0.21
  14   6  12   -0.20    0.21
  12 -14  -6    0.21    0.13
  14  -7  12    5.07    0.88
  12 -14   7    4.34    0.84
  14   7  12    4.17    0.85
  14  -8  12    5.52    0.96
  12 -14   8    5.48    0.88
  14   8  12    5.66    0.91
  14  -9  12    5.65    0.96
  12 -14   9    4.39    0.88
  14   9  12    4.64    0.92
  14 -10  12   -0.18    0.25
  10 -12  14    0.00    0.22
  12 -14  10    0.42    0.23
  14  10  12   -0.18    0.23
  12 -14  11    3.27    0.92
  11 -12  14    3.11    0.90
  14 -11  12    4.49    0.99
  12 -14  12    6.26    1.00
  12 -12  14    7.60    1.01
  14 -12  12    5.76    1.04
  13 -14   0    0.14    0.18
  14   0  13    0.37    0.23
  13 -14   1    0.48    0.20
  14  -1  13    0.64    0.24
  13 -14  -1    0.56    0.19
  14   1  13    0.58    0.24
  13 -14   2    2.51    0.74
  14  -2  13    2.35    0.84
  14   2  13    2.53    0.84
  13 -14  -2    2.68    0.68
  13 -14   3   -0.03    0.19
  14  -3  13    0.06    0.22
  13 -14  -3    0.18    0.15
  14   3  13   -0.08    0.20
  13 -14   4   -0.09    0.20
  14  -4  13    0.04    0.22
  14   4  13   -0.13    0.21
  13 -14  -4    0.09    0.15
  13 -14   5    0.01    0.20
  14  -5  13    0.11    0.23
  14   5  13    0.14    0.22
  13 -14  -5    0.24    0.14
  14  -6  13   -0.01    0.23
  13 -14   6    0.00    0.20
  13 -14  -6    1.23    0.53
  14   6  13   -0.11    0.22
  13 -14   7    0.26    0.21
  14  -7  13    0.03    0.23
  14   7  13    0.02    0.22
  14  -8  13    0.50    0.24
  13 -14   8    0.31    0.23
  14   8  13   -0.22    0.22
  14  -9  13    0.14    0.24
  13 -14   9    0.01    0.22
  14   9  13   -0.43    0.22
  13 -14  10   -0.12    0.23
  14 -10  13   -0.19    0.24
  10 -13  14   -0.33    0.22
  14  10  13   -0.36    0.23
  11 -13  14    0.16    0.24
  13 -14  11    0.08    0.23
  14 -11  13    0.14    0.25
  14 -14   0   27.52    1.25
  14   0  14   31.63    1.41
  14  -1  14    3.80    0.91
  14 -14   1    3.46    0.81
  14 -14  -1    4.58    0.77
  14   1  14    4.85    0.93
  14  -2  14    2.10    0.86
  14 -14   2    3.90    0.79
  14 -14  -2    3.55    0.71
  14  -3  14    0.54    0.25
  14 -14   3    0.48    0.22
  14 -14  -3    2.21    0.63
  14   3  14    0.14    0.22
  14  -4  14    2.89    0.90
  14 -14   4    1.95    0.82
  14 -14  -4    2.56    0.63
  14  -5  14    5.09    0.95
  14 -14   5    5.36    0.89
  14 -14  -5    6.95    0.67
  14   5  14    4.17    0.88
  14  -6  14    3.96    0.93
  14 -14   6    3.29    0.87
  14 -14  -6    4.46    0.66
  14   6  14    2.25    0.85
  14 -14   7    8.24    1.00
  14  -7  14    9.08    1.02
  14   7  14    7.33    0.95
  14 -14   8   13.85    1.12
  14  -8  14   12.46    1.10
  14   8  14   12.94    1.08
  14 -14   9    1.07    0.29
  14  -9  14    4.09    0.98
  14   9  14    0.47    0.25
  14 -14  10    0.41    0.25
  14 -10  14    0.36    0.26
  14  10  14   -0.25    0.24
   0   0  15    0.09    0.12
  15   0   0   -0.01    0.19
  15  -1   0   30.69    1.21
  15   1   0   29.33    1.24
   1   0  15   29.32    0.92
  -1   0  15   28.08    0.84
  15  -2   0    8.58    0.82
  15   2   0    7.86    0.88
   2   0  15    6.92    0.62
  15  -3   0   11.79    0.88
   3   0  15   11.39    0.68
  15   3   0   11.59    0.91
  15   4   0   14.02    1.00
   4   0  15   12.36    0.73
  15  -4   0   11.78    0.88
   5   0  15    4.59    0.65
  15  -5   0    3.67    0.74
  15   5   0    3.70    0.84
  15  -6   0    6.78    0.78
   6   0  15    6.84    0.70
  15   6   0    8.25    0.92
   7   0  15    2.45    0.68
  15   7   0    2.01    0.77
  15  -7   0    1.79    0.70
  15  -8   0    0.06    0.17
   8   0  15   -0.09    0.16
  15  -9   0    3.12    0.75
  15 -10   0    2.61    0.70
  10   0  15    3.47    0.77
  11   0  15   23.87    1.13
  15 -11   0   22.95    1.10
  15 -12   0    3.21    0.76
  12   0  15    2.25    0.83
  13   0  15   17.61    1.13
  15 -13   0   15.94    1.04
  15 -14   0    8.15    0.89
  14   0  15    6.83    0.95
  15   0  -1   29.19    1.22
   0   1  15   27.64    0.87
  15   0   1   31.40    1.25
  -1   1  15   89.44    1.90
  15  -1   1   89.77    2.27
  15   1  -1   88.07    2.29
   1  -1  15   88.04    1.98
   1   1  15   86.42    1.96
  15   1   1   89.82    2.32
  15  -1  -1   88.53    2.27
  15   2  -1    0.03    0.19
  -2   1  15   -0.22    0.09
  15  -2   1    0.06    0.18
   2  -1  15   -0.18    0.13
   2   1  15   -0.18    0.13
  15   2   1    0.11    0.20
  15  -2  -1   -0.01    0.18
  15   3  -1    9.23    0.91
  15  -3   1   10.72    0.87
   3  -1  15    9.84    0.67
   3   1  15    8.58    0.64
  15   3   1   11.41    0.90
  15  -3  -1   10.45    0.83
  15  -4   1   13.46    0.91
   4  -1  15   13.75    0.76
  15   4  -1   13.04    1.00
   4   1  15   12.81    0.74
  15  -4  -1   13.30    0.88
  15   4   1   14.22    1.00
  15  -5   1    3.01    0.74
  15   5  -1    3.36    0.86
   5  -1  15    3.68    0.62
  15   5   1    2.97    0.84
   5   1  15    3.35    0.62
  15  -5  -1    2.82    0.69
  15  -6   1   -0.13    0.17
  15   6  -1    0.17    0.20
   6  -1  15    0.12    0.16
   6   1  15   -0.02    0.15
  15  -6  -1   -0.19    0.16
  15   6   1   -0.04    0.20
  15  -7   1   26.36    1.16
   7  -1  15   27.77    1.07
  15   7   1   28.38    1.23
  15  -7  -1   26.25    1.12
   7   1  15   27.61    1.08
   8  -1  15   25.38    1.06
  15  -8   1   23.55    1.10
  15  -8  -1   24.34    1.07
   8   1  15   25.15    1.04
   9  -1  15   28.17    1.18
  15  -9   1   27.65    1.17
  15  -9  -1   27.99    1.16
   9   1  15   28.72    1.14
  10  -1  15    0.40    0.20
  15 -10   1    0.05    0.18
  15 -10  -1    0.06    0.17
  10   1  15   -0.10    0.17
  15 -11   1    8.92    0.88
  11  -1  15    6.99    0.86
  11   1  15    8.05    0.86
  15 -11  -1    8.24    0.80
  15 -12   1    6.48    0.83
  12  -1  15    5.54    0.85
  15 -12  -1    5.95    0.77
  12   1  15    6.97    0.86
  13  -1  15   16.30    1.10
  15 -13   1   16.29    1.03
  13   1  15   15.59    1.08
  15 -13  -1   15.30    0.99
  15 -14   1    0.36    0.21
  14  -1  15    0.45    0.24
  14   1  15    0.13    0.23
  15 -14  -1    2.01    0.74
  15   0  -2    8.17    0.83
  15   0   2    8.77    0.83
   0   2  15    7.18    0.50
  15  -1   2    0.09    0.19
  15   1  -2   -0.08    0.18
  15   1   2    0.19    0.20
   1   2  15   -0.19    0.12
  15  -1  -2   -0.04    0.17
   2  -2  15    6.46    0.58
  15   2  -2    5.37    0.80
  15  -2   2    6.53    0.82
  15  -2  -2    6.02    0.75
   2   2  15    5.54    0.55
  15   2   2    7.46    0.88
   3  -2  15   -0.09    0.14
  15   3  -2   -0.19    0.20
  15  -3   2    0.05    0.18
   3   2  15   -0.10    0.13
  15   3   2    0.18    0.21
  15  -3  -2    0.00    0.16
  15   4  -2    5.47    0.83
  15  -4   2    5.46    0.81
   4  -2  15    6.06    0.67
  15   4   2    6.19    0.83
  15  -4  -2    5.79    0.74
   4   2  15    6.43    0.62
   5  -2  15    0.30    0.17
  15  -5   2    0.39    0.19
  15   5  -2    0.56    0.22
  15  -5  -2    0.39    0.18
   5   2  15    0.41    0.16
  15   5   2    0.30    0.21
   6  -2  15    0.02    0.16
  15  -6   2    0.01    0.18
  15  -6  -2    0.02    0.16
   6   2  15    0.12    0.15
  15   6   2    0.18    0.21
   7  -2  15    0.07    0.17
  15  -7   2    0.30    0.19
  15  -7  -2    0.02    0.15
   7   2  15    0.10    0.16
  15   7   2    0.25    0.21
  15  -8   2    2.10    0.74
   8   2  15    1.57    0.65
  15  -8  -2    2.41    0.66
  15  -9   2    0.12    0.18
   9  -2  15   -0.03    0.18
  15  -9  -2    0.03    0.16
   9   2  15   -0.09    0.17
  10  -2  15    3.35    0.80
  15 -10  -2    3.69    0.69
  10   2  15    2.28    0.72
  15 -11   2    0.06    0.19
  11  -2  15   -0.03    0.20
  11   2  15    0.03    0.20
  15 -11  -2    0.18    0.18
  12  -2  15    7.02    0.91
  15 -12   2    7.12    0.89
  12   2  15    6.36    0.86
  15 -12  -2    8.01    0.78
  13  -2  15    0.10    0.23
  15 -13   2    0.34    0.20
  15 -13  -2    0.06    0.17
  13   2  15    0.05    0.22
  14  -2  15    5.85    0.94
  15 -14   2    6.43    0.88
  15 -14  -2    6.91    0.80
  14   2  15    6.18    0.96
  15   0   3   12.63    0.94
  15   0  -3   11.92    0.86
  15  -1   3   10.35    0.87
  15   1  -3    9.54    0.85
  15   1   3   10.67    0.89
  15  -1  -3    9.62    0.82
   1   3  15    9.95    0.54
  15  -2   3    0.04    0.19
  15   2  -3   -0.06    0.19
  15   2   3    0.31    0.21
  15  -2  -3    0.02    0.17
   2   3  15   -0.11    0.12
  15   3  -3    7.15    0.85
  15  -3   3    6.54    0.83
   3  -3  15    5.82    0.60
   3   3  15    6.04    0.57
  15   3   3    5.90    0.87
  15  -3  -3    6.18    0.73
   4  -3  15   12.26    0.74
  15   4  -3   11.40    0.93
  15  -4   3   11.98    0.92
  15  -4  -3   12.21    0.82
   4   3  15   11.86    0.68
  15   4   3   12.17    0.96
   5  -3  15   -0.13    0.16
  15  -5   3    0.00    0.19
  15  -5  -3    0.11    0.16
   5   3  15    0.12    0.14
  15   5   3   -0.01    0.19
   6  -3  15    6.80    0.72
  15  -6   3    6.52    0.84
  15   6   3    7.13    0.87
  15  -6  -3    6.07    0.68
   6   3  15    7.26    0.67
   7  -3  15   22.43    1.02
  15  -7   3   22.03    1.10
  15  -7  -3   21.59    0.97
   7   3  15   23.48    0.97
  15   7   3   22.36    1.18
  15  -8   3    4.36    0.79
   8  -3  15    4.29    0.71
  15   8   3    4.14    0.81
  15  -8  -3    4.21    0.64
   8   3  15    3.72    0.69
   9  -3  15    4.23    0.75
  15  -9   3    4.42    0.77
   9   3  15    4.46    0.73
  15  -9  -3    5.73    0.68
  15 -10   3   -0.09    0.18
  10  -3  15   -0.09    0.18
  15 -10  -3    0.20    0.16
  10   3  15   -0.12    0.17
  15 -11   3    0.24    0.21
  11  -3  15    0.17    0.21
  15 -11  -3    0.23    0.17
  11   3  15   -0.04    0.19
  12  -3  15    1.95    0.83
  15 -12   3    2.95    0.81
  15 -12  -3    3.43    0.70
  15 -13   3    0.59    0.22
  13  -3  15    0.53    0.25
  15 -13  -3    2.17    0.65
  13   3  15    0.37    0.22
  14  -3  15    0.13    0.24
  15 -14   3    0.36    0.22
  15 -14  -3    2.07    0.67
  14   3  15    0.17    0.22
  15   0  -4   12.84    0.87
  15   0   4   13.26    0.97
  15  -1   4   13.82    0.95
  15   1  -4   13.91    0.93
  15  -1  -4   14.29    0.88
  15   1   4   13.03    0.94
  15   2  -4    6.51    0.80
  15  -2   4    5.74    0.83
  15   2   4    6.09    0.83
  15  -2  -4    5.94    0.74
   2   4  15    5.94    0.49
  15   3  -4   12.57    0.92
  15  -3   4   11.92    0.93
  15   3   4   11.58    0.97
   3   4  15   11.76    0.63
  15  -3  -4   11.83    0.82
   4  -4  15    4.81    0.63
  15  -4   4    4.93    0.78
  15  -4  -4    4.57    0.68
  15   4   4    6.00    0.87
   4   4  15    4.65    0.57
  15  -5   4    0.55    0.21
   5  -4  15    2.86    0.63
  15  -5  -4    0.54    0.17
  15   5   4    0.70    0.23
   5   4  15    1.99    0.55
   6  -4  15    0.39    0.17
  15  -6   4    0.57    0.21
   6   4  15    1.98    0.58
  15   6   4    0.50    0.22
  15  -6  -4    0.49    0.16
   7  -4  15    1.91    0.68
  15  -7   4    0.18    0.20
   7   4  15    0.14    0.15
  15  -7  -4    0.33    0.15
  15   7   4    0.15    0.21
  15  -8   4    4.95    0.77
   8  -4  15    4.35    0.75
  15   8   4    4.57    0.84
   8   4  15    5.37    0.68
  15  -8  -4    4.71    0.63
   9  -4  15    2.51    0.73
  15  -9   4    2.81    0.75
   9   4  15    2.49    0.67
  15  -9  -4    3.49    0.62
  15 -10   4    9.57    0.91
  10  -4  15    8.90    0.89
  15 -10  -4    9.77    0.75
  10   4  15    9.50    0.82
  15 -11   4   11.73    0.98
  11  -4  15   12.68    1.03
  11   4  15   13.08    0.93
  15 -11  -4   12.95    0.81
  12  -4  15    4.91    0.90
  15 -12   4    6.34    0.87
  12   4  15    5.37    0.84
  15 -12  -4    6.47    0.71
  15 -13   4    7.90    0.97
  13  -4  15    8.53    1.03
  15 -13  -4    7.68    0.75
  13   4  15    7.15    0.92
  15 -14   4    2.26    0.84
  15 -14  -4    1.60    0.64
  15   0   5    3.82    0.77
  15   0  -5    4.07    0.74
  15  -1   5    3.08    0.80
  15   1  -5    2.92    0.71
  15   1   5    3.73    0.79
  15  -1  -5    3.16    0.69
  15   2  -5    1.79    0.72
  15  -2   5    0.60    0.21
  15  -2  -5    0.53    0.18
  15   2   5    0.50    0.21
   2   5  15    0.46    0.12
  15  -3   5    0.02    0.19
   3   5  15   -0.02    0.12
  15  -3  -5    0.01    0.15
  15   3   5   -0.16    0.19
  15  -4   5    0.70    0.22
  15  -4  -5    0.65    0.17
  15   4   5    0.62    0.22
   4   5  15    0.67    0.15
  15  -5   5   -0.13    0.19
   5  -5  15    0.00    0.16
   5   5  15   -0.11    0.13
  15   5   5   -0.09    0.19
  15  -5  -5   -0.04    0.14
  15  -6   5    0.20    0.20
   6  -5  15    0.30    0.17
  15  -6  -5    0.13    0.14
  15   6   5    0.04    0.21
   6   5  15    0.15    0.15
  15  -7   5   18.57    1.06
   7  -5  15   17.87    0.97
   7   5  15   18.17    0.88
  15  -7  -5   19.57    0.89
  15   7   5   19.14    1.11
   8  -5  15    4.75    0.75
  15  -8   5    5.63    0.82
   8   5  15    5.33    0.70
  15   8   5    5.80    0.90
  15  -8  -5    5.55    0.63
   9  -5  15   10.43    0.92
  15  -9   5   11.35    0.94
  15   9   5   10.86    0.96
   9   5  15   11.36    0.83
  15  -9  -5   11.74    0.74
  10  -5  15   -0.19    0.19
  15 -10   5    0.11    0.20
  15 -10  -5    0.04    0.14
  10   5  15   -0.10    0.18
  11  -5  15   -0.18    0.21
  15 -11   5    0.26    0.21
  11   5  15    0.36    0.20
  15 -11  -5    1.38    0.58
  12  -5  15    0.08    0.22
  15 -12   5    0.40    0.22
  15 -12  -5    1.64    0.59
  12   5  15    0.02    0.20
  13  -5  15    0.18    0.24
  15 -13   5    0.10    0.22
  13   5  15   -0.12    0.21
  15 -13  -5    1.74    0.60
  15 -14   5    2.61    0.87
  15 -14  -5    3.10    0.64
  15   0  -6    6.69    0.75
  15   0   6    6.81    0.87
  15  -1   6    0.09    0.20
  15   1  -6    0.17    0.18
  15  -1  -6    0.13    0.17
  15   1   6    0.07    0.19
  15  -2   6   -0.17    0.17
  15  -2  -6    0.07    0.16
  15   2   6    0.02    0.19
  15  -3   6    6.75    0.85
   3   6  15    6.37    0.52
  15  -3  -6    7.37    0.68
  15   3   6    5.56    0.88
  15  -4   6    0.27    0.20
  15   4   6    0.25    0.21
   4   6  15    0.36    0.13
  15  -4  -6    0.52    0.16
  15  -5   6    0.26    0.20
  15   5   6    0.32    0.21
  15  -5  -6    0.12    0.14
   5   6  15    0.05    0.14
   6  -6  15   30.77    1.17
  15  -6   6   32.23    1.31
  15  -6  -6   33.92    1.13
  15   6   6   33.15    1.36
   6   6  15   33.77    1.09
  15  -7   6    0.14    0.19
   7  -6  15    0.22    0.18
   7   6  15    0.07    0.16
  15  -7  -6    0.08    0.13
  15   7   6   -0.17    0.21
  15  -8   6    5.35    0.79
   8  -6  15    4.18    0.77
  15   8   6    3.70    0.86
   8   6  15    4.26    0.68
  15  -8  -6    5.31    0.62
   9  -6  15    3.49    0.81
  15  -9   6    3.94    0.83
  15  -9  -6    4.34    0.59
  15   9   6    3.38    0.87
   9   6  15    2.89    0.71
  15 -10   6    1.87    0.80
  10  -6  15    0.03    0.22
  15 -10  -6    0.40    0.15
  10   6  15    0.24    0.19
  15 -11   6    0.53    0.23
  11  -6  15    0.24    0.22
  15 -11  -6    1.78    0.57
  11   6  15    0.37    0.21
  15 -12   6    1.98    0.85
  15 -12  -6    1.53    0.57
  13  -6  15   -0.15    0.22
  15 -13   6    0.10    0.22
  15 -13  -6    1.32    0.56
  13   6  15   -0.19    0.21
  15 -14   6    0.36    0.24
  14  -6  15    0.53    0.26
  14   6  15    0.02    0.23
  15   0   7    1.91    0.76
  15  -1   7   27.13    1.22
  15   1   7   26.11    1.22
  15  -1  -7   26.23    1.05
  15  -2   7    0.02    0.19
  15  -2  -7   -0.03    0.15
  15   2   7   -0.01    0.19
  15  -3   7   22.16    1.09
   3   7  15   20.50    0.74
  15  -3  -7   21.43    0.93
  15   3   7   22.57    1.16
  15  -4   7    0.41    0.20
   4   7  15   -0.06    0.13
  15  -4  -7    0.22    0.14
  15   4   7    0.22    0.21
  15  -5   7   20.42    1.11
  15  -5  -7   20.20    0.89
  15   5   7   20.05    1.10
   5   7  15   19.00    0.81
  15  -6   7    0.14    0.20
  15   6   7    0.13    0.21
  15  -6  -7   -0.12    0.13
   6   7  15    0.02    0.14
   7  -7  15   25.30    1.10
  15  -7   7   26.75    1.24
   7   7  15   25.67    1.01
  15   7   7   28.53    1.30
  15  -7  -7   26.99    0.99
  15  -8   7    4.20    0.80
   8  -7  15    3.77    0.76
   8   7  15    3.49    0.68
  15  -8  -7    2.86    0.55
  15   8   7    2.97    0.87
  15  -9   7   36.62    1.46
   9  -7  15   33.84    1.38
  15  -9  -7   38.44    1.18
   9   7  15   37.74    1.29
  15   9   7   37.26    1.50
  15 -10   7   -0.13    0.21
  10  -7  15   -0.08    0.20
  10   7  15   -0.23    0.17
  15  10   7   -0.50    0.22
  15 -10  -7    0.00    0.13
  11  -7  15    7.68    0.95
  15 -11   7    7.39    0.95
  15 -11  -7    7.72    0.64
  11   7  15    7.10    0.86
  15 -12   7    0.22    0.22
  12  -7  15    0.29    0.23
  12   7  15   -0.05    0.20
  13  -7  15    4.63    0.93
  15 -13   7    4.64    0.96
  13   7  15    3.60    0.85
  15 -14   7    0.03    0.23
  14  -7  15    0.38    0.26
  14   7  15   -0.43    0.21
  15   0   8    0.07    0.20
  15  -1   8   25.41    1.20
  15   1   8   24.21    1.21
  15  -2   8    2.92    0.78
  15   2   8    2.15    0.76
  15  -3   8    4.24    0.79
  15  -3  -8    3.25    0.60
  15   3   8    3.76    0.83
  15  -4   8    5.48    0.86
  15  -4  -8    3.99    0.61
  15   4   8    4.40    0.87
  15  -5   8    5.67    0.86
   5   8  15    3.35    0.57
  15  -5  -8    4.85    0.59
  15   5   8    5.38    0.87
  15  -6   8    4.61    0.85
   6   8  15    4.10    0.63
  15   6   8    4.86    0.85
  15  -6  -8    5.06    0.60
  15  -7   8    4.72    0.86
   7  -8  15    3.81    0.73
   7   8  15    2.41    0.65
  15  -7  -8    2.90    0.56
  15   7   8    4.36    0.88
   8  -8  15    8.07    0.88
  15  -8   8    9.21    0.95
   8   8  15    7.58    0.78
  15  -8  -8    8.83    0.67
  15   8   8    8.91    1.00
  15  -9   8    4.73    0.89
   9  -8  15    2.69    0.79
   9   8  15    1.86    0.73
  15  -9  -8    3.18    0.55
  15   9   8    2.35    0.88
  15 -10   8    2.25    0.87
  10  -8  15    3.50    0.85
  11  -8  15    9.45    0.98
  15 -11   8    8.54    1.01
  11   8  15    8.41    0.88
  12  -8  15    0.26    0.23
  15 -12   8    0.34    0.24
  15 -13   8    8.11    1.04
  13  -8  15    9.99    1.04
  13   8  15    5.63    0.91
  14  -8  15    3.50    0.96
  15 -14   8    2.57    0.94
  15   0   9    2.05    0.77
  15  -1   9   28.65    1.25
  15   1   9   28.12    1.28
  15  -2   9    0.01    0.19
  15   2   9    0.04    0.20
  15  -3   9    4.59    0.78
  15   3   9    4.64    0.85
  15  -3  -9    3.58    0.58
  15  -4   9    2.65    0.82
  15   4   9    2.14    0.81
  15  -5   9   11.81    1.00
  15   5   9   13.05    1.01
  15  -5  -9   10.39    0.70
  15  -6   9    3.84    0.86
   9 -15  -6    3.53    0.50
  15   6   9    3.51    0.86
  15  -6  -9    2.15    0.56
  15  -7   9   36.10    1.42
   7   9  15   36.26    1.20
  15  -7  -9   34.93    1.11
   9 -15  -7   35.32    1.04
  15   7   9   36.34    1.45
   8  -9  15    2.84    0.77
  15  -8   9    4.74    0.86
  15   8   9    3.23    0.89
  15  -9   9   15.76    1.11
   9  -9  15   16.07    1.03
   9   9  15   14.13    0.92
  15   9   9   15.54    1.12
  15 -10   9    0.23    0.23
  10  -9  15    0.00    0.22
  10   9  15   -0.34    0.19
  15  10   9   -0.05    0.23
  11  -9  15    2.79    0.87
  15 -11   9    3.29    0.91
  12  -9  15    2.56    0.89
  15 -12   9    2.89    0.93
  13  -9  15    5.32    0.97
  15 -13   9    4.38    0.98
  13   9  15    2.10    0.89
  15   0  10    3.31    0.83
  15  -1  10    0.06    0.20
  15   1  10    0.12    0.20
  15  -2  10    3.31    0.81
  15   2  10    3.13    0.81
  15  -3  10   -0.03    0.19
  15   3  10   -0.03    0.20
  10 -15  -3   -0.07    0.13
  15  -4  10    8.79    0.91
  10 -15  -4    8.87    0.65
  15   4  10    8.67    0.95
  15  -5  10    0.22    0.22
  10 -15  -5    0.06    0.13
  15   5  10   -0.36    0.20
  15  -6  10    0.47    0.24
  10 -15  -6    0.43    0.14
  15   6  10    0.16    0.22
  15  -7  10   -0.13    0.21
  10 -15  -7   -0.02    0.19
  15   7  10   -0.20    0.21
  15  -8  10    2.49    0.86
   9 -10  15   -0.03    0.21
  15  -9  10   -0.03    0.22
  15   9  10    0.02    0.23
  10 -10  15    3.80    0.87
  15 -10  10    3.85    0.88
  15  10  10    2.47    0.92
  11 -10  15    0.27    0.23
  15 -11  10    0.03    0.23
  11  10  15   -0.49    0.20
  12 -10  15    4.70    0.95
  15 -12  10    4.43    0.99
  15   0  11   23.65    1.24
  11 -15   0   22.31    1.01
  15  -1  11    8.20    0.96
  11 -15  -1    8.53    0.75
  15   1  11    8.51    0.97
  15  -2  11    0.18    0.21
  15   2  11    0.11    0.21
  11 -15  -2    0.04    0.15
  15  -3  11    0.16    0.22
  11 -15  -3    0.11    0.15
  15   3  11    0.14    0.22
  15  -4  11   12.32    1.02
  15   4  11   12.82    1.04
  11 -15  -4   12.66    0.75
  15  -5  11    0.35    0.24
  11 -15  -5    0.31    0.14
  15   5  11    0.19    0.23
  15  -6  11    0.48    0.24
  15   6  11    0.15    0.23
  11 -15  -6    1.45    0.53
  15  -7  11    7.15    0.97
  15   7  11    6.99    0.97
  15  -8  11    8.60    0.98
  15   8  11    9.31    1.01
  15  -9  11    0.49    0.26
   9 -11  15    0.73    0.24
  15   9  11    0.56    0.26
  10 -11  15   -0.08    0.22
  15 -10  11   -0.04    0.23
  15  10  11   -0.46    0.23
  11 -11  15    0.10    0.23
  15 -11  11   -0.04    0.25
  15 -12  11    3.02    0.95
  12 -11  15    0.58    0.26
  15   0  12    2.97    0.88
  12 -15   0    2.81    0.69
  12 -15   1    5.38    0.75
  15  -1  12    7.59    0.96
  15   1  12    5.96    0.94
  12 -15  -1    4.87    0.72
  15  -2  12    7.41    0.91
  12 -15   2    6.91    0.79
  12 -15  -2    6.86    0.73
  15   2  12    6.52    0.93
  12 -15   3    0.56    0.20
  15  -3  12    0.58    0.24
  15   3  12    0.73    0.24
  12 -15  -3    1.79    0.61
  15  -4  12    6.64    0.95
  12 -15   4    4.94    0.80
  15   4  12    3.74    0.90
  12 -15  -4    5.55    0.65
  15  -5  12    0.17    0.24
  12 -15   5    0.17    0.20
  15   5  12    0.10    0.23
  12 -15  -5    1.57    0.55
  15  -6  12    0.43    0.24
  12 -15   6    0.23    0.21
  12 -15  -6    1.73    0.55
  15   6  12    0.18    0.24
  12 -15   7    0.04    0.20
  15  -7  12    0.24    0.24
  15   7  12   -0.05    0.23
  12 -15   8   -0.41    0.20
  15  -8  12   -0.24    0.23
  15   8  12   -0.19    0.22
   9 -12  15    0.73    0.24
  12 -15   9    0.74    0.25
  15  -9  12    0.45    0.27
  15   9  12    0.41    0.26
  12 -15  10    3.86    0.91
  10 -12  15    4.08    0.92
  15 -10  12    3.48    0.98
  11 -12  15    0.47    0.26
  12 -15  11    0.49    0.25
  15 -11  12    0.42    0.26
  15   0  13   17.59    1.17
  13 -15   0   16.47    1.01
  13 -15   1   15.59    1.00
  15  -1  13   16.70    1.14
  13 -15  -1   14.74    0.94
  15   1  13   15.08    1.17
  13 -15   2   -0.01    0.18
  15  -2  13    0.02    0.22
  15   2  13   -0.06    0.22
  13 -15  -2    0.13    0.17
  13 -15   3    0.29    0.21
  15  -3  13    0.51    0.25
  15   3  13    0.24    0.23
  13 -15  -3    1.86    0.66
  13 -15   4    7.15    0.87
  15  -4  13    6.36    0.98
  13 -15  -4    8.57    0.72
  15   4  13    6.44    0.96
  15  -5  13    0.22    0.24
  13 -15   5    0.09    0.21
  15   5  13   -0.27    0.21
  13 -15  -5    1.55    0.57
  13 -15   6   -0.10    0.20
  15  -6  13    0.15    0.24
  15   6  13   -0.21    0.22
  15  -7  13    5.19    1.00
  13 -15   7    4.99    0.91
  15   7  13    3.50    0.92
  13 -15   8    7.17    0.96
  15  -8  13    7.97    1.05
  15   8  13    6.73    0.98
  15  -9  13    4.21    1.01
  13 -15   9    3.77    0.93
  15   9  13    2.18    0.93
  15   0  14    8.59    1.02
  14 -15   0    7.72    0.86
  14 -15   1    0.41    0.21
  15  -1  14    0.20    0.24
  15   1  14    0.20    0.24
  14 -15  -1    0.28    0.19
  15  -2  14    5.66    0.95
  14 -15   2    5.33    0.87
  14 -15  -2    5.86    0.75
  15   2  14    4.81    0.93
  14 -15   3    0.33    0.21
  15  -3  14    0.31    0.24
  14 -15  -3    0.19    0.17
  15   3  14   -0.11    0.22
  15  -4  14    0.23    0.25
  14 -15   4    0.54    0.23
  15   4  14    0.30    0.24
  14 -15  -4    0.42    0.17
  15  -5  14    2.80    0.96
  14 -15   5    2.35    0.86
  14 -15  -5    3.50    0.61
  15  -6  14    2.47    0.90
  14 -15   6    0.24    0.23
  14 -15   7    0.00    0.23
  15  -7  14    0.14    0.26
  15   7  14   -0.21    0.22
  15  -8  14    3.87    1.01
  14 -15   8    2.69    0.91
  15 -15   0    4.44    0.86
  15   0  15    4.24    0.96
  15  -1  15   33.15    1.48
  15 -15   1   32.82    1.37
  15 -15  -1   33.16    1.33
  15   1  15   31.80    1.48
  15  -2  15    0.29    0.24
  15 -15   2    2.06    0.82
  15 -15  -2    0.26    0.18
  15   2  15   -0.16    0.23
  15  -3  15    7.56    1.07
  15 -15   3    6.12    0.96
  15 -15  -3    6.69    0.77
  15   3  15    3.92    0.91
  15  -4  15    0.52    0.27
  15 -15   4    0.41    0.23
  15  -5  15    5.57    1.03
  15 -15   5    4.78    0.93
  15 -15  -5    5.98    0.72
  15   5  15    3.34    0.90
  15 -15   6    0.47    0.25
  15  -6  15    3.12    0.96
   0   0  16  161.32    3.31
  16   0   0  160.68    3.69
  16  -1   0   16.81    1.03
  16   1   0   16.14    1.06
  -1   0  16   13.45    0.65
   1   0  16   13.88    0.72
  16  -2   0   55.54    1.67
   2   0  16   52.82    1.40
  16   2   0   53.20    1.69
   3   0  16    4.90    0.60
  16   3   0    4.05    0.85
  16  -3   0    5.02    0.79
  16  -4   0   14.05    0.94
  16   4   0   14.78    1.04
   4   0  16   14.05    0.75
   5   0  16    6.28    0.65
  16   5   0    4.91    0.86
  16  -5   0    5.71    0.77
   6   0  16    9.57    0.72
  16   6   0    8.64    0.92
  16  -6   0    7.41    0.83
  16   7   0    8.01    0.91
  16  -7   0    7.09    0.81
   7   0  16    7.78    0.73
   8   0  16   37.71    1.29
  16  -8   0   35.98    1.36
   9   0  16    4.19    0.74
  16  -9   0    3.29    0.76
  10   0  16   32.69    1.30
  16 -10   0   32.58    1.30
  11   0  16    0.17    0.20
  16 -11   0    0.25    0.20
  12   0  16   15.88    1.08
  16 -12   0   12.97    0.97
  13   0  16    2.02    0.87
  14   0  16   32.54    1.46
  16 -14   0   32.05    1.34
  16 -15   0    3.54    0.86
  15   0  16    3.63    0.95
   0  -1  16   16.36    0.70
   0   1  16   16.59    0.68
  16   0  -1   16.35    1.03
  16   0   1   17.91    1.05
  16   1  -1    4.54    0.82
   1  -1  16    4.29    0.56
  16  -1   1    4.76    0.79
  -1   1  16    5.05    0.48
  16  -1  -1    5.78    0.82
  16   1   1    5.80    0.89
   2  -1  16    4.51    0.59
  16   2  -1    3.66    0.83
  16  -2   1    5.01    0.77
  16   2   1    4.57    0.82
  16  -2  -1    4.75    0.77
   3  -1  16   16.45    0.80
  16  -3   1   16.12    0.98
  16   3  -1   16.82    1.07
  16   3   1   17.41    1.06
  16  -3  -1   16.78    0.96
   3   1  16   15.91    0.77
  16  -4   1    4.93    0.79
  16   4  -1    5.11    0.88
   4  -1  16    5.45    0.63
  16  -4  -1    5.20    0.75
  16   4   1    4.44    0.86
   4   1  16    4.37    0.61
  16  -5   1    4.43    0.76
  16   5  -1    3.88    0.84
   5  -1  16    4.84    0.65
  16   5   1    5.19    0.84
  16  -5  -1    4.20    0.72
   5   1  16    4.77    0.63
   6  -1  16    2.49    0.64
  16   6  -1    2.16    0.79
   6   1  16    3.13    0.62
  16  -6  -1    2.53    0.70
  16   6   1    2.79    0.80
  16  -7   1    0.08    0.18
   7  -1  16    0.27    0.17
  16  -7  -1    0.01    0.17
   7   1  16    0.25    0.16
  16   7   1    0.03    0.21
   8  -1  16    2.26    0.71
  16  -8   1    3.06    0.76
   8   1  16    2.44    0.67
  16  -8  -1    3.25    0.74
   9  -1  16    4.20    0.78
  16  -9   1    5.33    0.81
  16  -9  -1    4.40    0.76
   9   1  16    5.39    0.76
  16 -10   1    4.64    0.82
  10  -1  16    4.79    0.83
  10   1  16    3.45    0.79
  16 -10  -1    4.93    0.80
  16 -11   1    4.23    0.84
  11  -1  16    5.46    0.88
  11   1  16    4.05    0.79
  16 -11  -1    4.98    0.80
  16 -12   1    5.92    0.85
  12  -1  16    7.27    0.90
  12   1  16    5.98    0.85
  16 -12  -1    6.18    0.85
  16 -13   1    5.72    0.85
  13  -1  16    5.74    0.94
  16 -13  -1    5.52    0.83
  13   1  16    6.70    0.94
  14  -1  16    3.32    0.90
  16 -14   1    3.99    0.89
  14   1  16    3.08    0.96
  16 -14  -1    2.43    0.80
  15  -1  16    7.42    1.07
  16 -15   1    7.95    0.93
  15   1  16    6.51    1.03
  16 -15  -1    7.96    0.89
  16   0   2   53.64    1.73
   0   2  16   55.27    1.31
  16   0  -2   55.41    1.69
  16  -1   2    4.79    0.80
  16   1  -2    4.70    0.81
   1   2  16    3.87    0.49
  16   1   2    4.01    0.81
  16  -1  -2    4.56    0.78
  16   2  -2    9.12    0.90
   2  -2  16    9.33    0.65
  16  -2   2    9.77    0.89
  16  -2  -2    9.84    0.85
   2   2  16    9.25    0.61
  16   2   2   10.03    0.95
  16  -3   2    3.83    0.79
  16   3  -2    4.48    0.83
   3  -2  16    4.46    0.60
  16  -3  -2    4.63    0.73
  16   3   2    3.98    0.83
   3   2  16    3.83    0.55
  16  -4   2    0.10    0.18
   4  -2  16    0.07    0.15
  16   4  -2   -0.15    0.20
   4   2  16   -0.05    0.13
  16   4   2    0.04    0.19
  16  -4  -2   -0.05    0.16
   5  -2  16    0.24    0.16
  16   5  -2    0.23    0.21
  16  -5   2    0.26    0.20
  16   5   2    0.35    0.21
   5   2  16    0.40    0.15
  16  -5  -2    0.23    0.17
   6  -2  16    6.97    0.70
  16  -6   2    5.76    0.81
  16   6   2    6.69    0.90
  16  -6  -2    6.30    0.75
   6   2  16    7.05    0.66
  16  -7   2    5.64    0.82
   7  -2  16    5.40    0.71
   7   2  16    6.02    0.69
  16   7   2    4.67    0.86
  16  -7  -2    4.64    0.71
   8  -2  16   25.50    1.12
  16  -8   2   27.05    1.23
  16   8   2   26.39    1.25
  16  -8  -2   26.62    1.12
   8   2  16   26.30    1.08
   9  -2  16    4.11    0.79
  16  -9   2    3.90    0.81
   9   2  16    4.26    0.75
  16  -9  -2    2.72    0.71
  10  -2  16    2.98    0.78
  16 -10   2    3.92    0.84
  16 -10  -2    2.75    0.72
  10   2  16    2.92    0.76
  11  -2  16    4.70    0.85
  16 -11   2    5.18    0.83
  11   2  16    5.29    0.85
  16 -11  -2    5.72    0.79
  16 -12   2    0.38    0.22
  12  -2  16    0.17    0.23
  12   2  16    0.23    0.21
  16 -12  -2    0.09    0.18
  16 -13   2    0.18    0.21
  13  -2  16    0.10    0.24
  13   2  16    0.10    0.22
  16 -13  -2    0.32    0.19
  16 -14   2    9.45    0.99
  14  -2  16    8.17    1.07
  16 -14  -2    8.30    0.84
  14   2  16    7.26    0.96
  15  -2  16    2.96    0.94
  16 -15   2    3.61    0.87
  16 -15  -2    3.45    0.78
  16   0  -3    5.33    0.79
  16   0   3    6.15    0.86
  16   1  -3   17.01    1.02
  16  -1   3   16.72    1.04
  16  -1  -3   17.44    0.98
  16   1   3   18.57    1.08
   1   3  16   16.48    0.65
  16   2  -3    4.83    0.81
  16  -2   3    4.39    0.82
  16   2   3    3.48    0.80
  16  -2  -3    3.66    0.73
   2   3  16    4.00    0.50
  16   3  -3    5.24    0.82
  16  -3   3    5.35    0.82
   3  -3  16    5.56    0.61
   3   3  16    5.33    0.54
  16  -3  -3    5.00    0.72
  16   3   3    4.67    0.84
  16  -4   3    4.34    0.77
   4  -3  16    4.07    0.61
  16   4  -3    4.00    0.80
  16   4   3    4.33    0.81
  16  -4  -3    3.38    0.66
   4   3  16    4.65    0.56
   5  -3  16    0.42    0.17
  16  -5   3    0.34    0.20
  16   5   3    0.35    0.21
   5   3  16    0.37    0.15
  16  -5  -3    0.38    0.17
  16  -6   3    0.20    0.20
   6  -3  16    0.24    0.17
  16   6   3    0.06    0.21
   6   3  16    0.24    0.15
  16  -6  -3    0.14    0.16
   7  -3  16    6.15    0.75
  16  -7   3    5.68    0.81
   7   3  16    6.19    0.69
  16   7   3    6.10    0.91
  16  -7  -3    5.89    0.72
  16  -8   3    1.85    0.77
   8  -3  16    0.40    0.19
  16  -8  -3    0.36    0.17
   8   3  16    0.49    0.18
  16   8   3    0.26    0.23
  16  -9   3    1.85    0.78
   9  -3  16    3.34    0.78
  16  -9  -3    3.09    0.69
   9   3  16    3.22    0.72
  16 -10   3    0.34    0.21
  10  -3  16    0.32    0.21
  10   3  16    0.46    0.21
  16 -10  -3    1.92    0.66
  16 -11   3    8.69    0.91
  11  -3  16    7.17    0.95
  16 -11  -3    7.97    0.80
  11   3  16    6.94    0.87
  12  -3  16    5.70    0.96
  16 -12   3    5.14    0.89
  16 -12  -3    6.30    0.77
  12   3  16    4.46    0.83
  16 -13   3    7.72    0.93
  13  -3  16    6.36    1.01
  13   3  16    6.18    0.89
  16 -13  -3    7.58    0.82
  16 -14   3    3.63    0.93
  14  -3  16    3.90    1.01
  16 -14  -3    4.06    0.76
  16 -15   3    3.44    0.93
  15  -3  16    3.48    0.97
  16 -15  -3    4.65    0.76
  15   3  16    2.99    0.92
  16   0  -4   14.83    0.93
  16   0   4   14.71    1.00
  16   1  -4    5.61    0.78
  16  -1   4    5.26    0.83
  16  -1  -4    4.55    0.71
  16   1   4    5.29    0.81
  16   2  -4   -0.17    0.18
  16  -2   4   -0.07    0.18
   2   4  16   -0.12    0.10
  16   2   4   -0.10    0.19
  16  -2  -4   -0.08    0.16
  16   3  -4    4.14    0.79
  16  -3   4    3.56    0.75
   3   4  16    4.31    0.50
  16  -3  -4    3.54    0.68
  16   3   4    3.59    0.83
   4  -4  16   11.71    0.74
  16  -4   4   12.20    0.94
  16  -4  -4   11.56    0.81
  16   4   4   11.61    0.94
   4   4  16   11.88    0.65
  16  -5   4    0.05    0.19
   5  -4  16    0.32    0.16
  16   5   4    0.18    0.20
   5   4  16    0.17    0.14
  16  -5  -4    0.20    0.15
  16  -6   4   20.57    1.12
   6  -4  16   20.52    0.99
  16  -6  -4   19.78    0.94
  16   6   4   18.82    1.15
   6   4  16   20.45    0.87
  16  -7   4    9.08    0.91
   7  -4  16    8.42    0.81
  16   7   4    8.05    0.94
   7   4  16    9.40    0.73
  16  -7  -4    8.96    0.75
   8  -4  16    6.68    0.81
  16  -8   4    7.11    0.89
  16  -8  -4    7.36    0.71
  16   8   4    6.45    0.95
   8   4  16    6.88    0.72
  16  -9   4    0.02    0.20
   9  -4  16    0.02    0.19
  16   9   4   -0.01    0.23
   9   4  16    0.12    0.17
  16  -9  -4    0.11    0.15
  10  -4  16   -0.21    0.20
  16 -10   4    0.02    0.20
  10   4  16   -0.06    0.18
  16 -10  -4    0.05    0.15
  16 -11   4    2.38    0.84
  16 -11  -4    2.59    0.66
  16 -12   4    3.69    0.87
  16 -12  -4    3.35    0.68
  13  -4  16    0.47    0.25
  16 -13   4    0.43    0.23
  16 -13  -4    2.28    0.68
  13   4  16    0.17    0.21
  16 -14   4    3.36    0.88
  16 -14  -4    2.87    0.69
  16   0  -5    4.99    0.76
  16   0   5    6.05    0.81
  16  -1   5    4.60    0.78
  16   1  -5    4.17    0.74
  16  -1  -5    3.82    0.71
  16   1   5    3.82    0.81
  16  -2   5    0.30    0.20
  16   2  -5    0.18    0.19
  16  -2  -5    0.28    0.17
  16   2   5    0.28    0.21
  16  -3   5    0.28    0.20
   3   5  16    0.47    0.13
  16   3   5    0.19    0.20
  16  -3  -5    0.21    0.17
  16  -4   5    0.16    0.20
  16  -4  -5    0.15    0.16
   4   5  16    0.02    0.13
  16   4   5    0.36    0.20
   5  -5  16   22.40    0.99
  16  -5   5   22.44    1.15
   5   5  16   24.58    0.90
  16   5   5   22.99    1.19
  16  -5  -5   23.49    1.01
   6  -5  16    5.32    0.74
  16  -6   5    5.38    0.87
   6   5  16    4.95    0.63
  16  -6  -5    5.44    0.66
  16   6   5    4.59    0.85
   7  -5  16    7.53    0.79
  16  -7   5    8.35    0.89
  16   7   5    7.52    0.96
  16  -7  -5    7.93    0.71
   7   5  16    6.99    0.71
   8  -5  16    0.00    0.19
  16  -8   5    0.06    0.20
  16   8   5   -0.25    0.21
   8   5  16   -0.21    0.16
  16  -8  -5    0.05    0.15
  16  -9   5    1.94    0.81
  16  -9  -5    3.16    0.62
   9   5  16    1.96    0.69
  10  -5  16    0.11    0.21
  16 -10   5    0.50    0.23
  10   5  16    0.43    0.20
  16 -10  -5    0.30    0.16
  11  -5  16    4.99    0.90
  16 -11   5    7.43    0.94
  11   5  16    5.66    0.82
  16 -11  -5    7.06    0.70
  16 -12   5    3.60    0.90
  12  -5  16    3.07    0.92
  16 -12  -5    3.18    0.65
  16 -13   5    3.19    0.88
  16 -13  -5    3.00    0.64
  14  -5  16    0.25    0.26
  16 -14   5    0.20    0.23
  14   5  16   -0.14    0.22
  16 -14  -5    2.14    0.62
  16   0  -6    9.22    0.80
  16   0   6    9.66    0.90
  16   1  -6    2.19    0.70
  16  -1   6    1.79    0.75
  16  -1  -6    2.34    0.66
  16   1   6    2.48    0.75
  16  -2   6    6.68    0.86
  16   2   6    6.59    0.87
  16  -2  -6    6.19    0.72
  16  -3   6    0.09    0.19
  16   3   6    0.07    0.20
   3   6  16   -0.01    0.19
  16  -3  -6   -0.01    0.15
  16  -4   6   20.11    1.10
  16  -4  -6   19.10    0.93
   4   6  16   18.98    0.75
  16   4   6   18.56    1.11
  16  -5   6    5.92    0.87
  16  -5  -6    5.21    0.67
   5   6  16    4.61    0.58
  16   5   6    5.06    0.89
  16  -6   6    0.17    0.21
   6  -6  16    0.20    0.18
   6   6  16    0.30    0.16
  16   6   6    0.25    0.22
  16  -6  -6    0.23    0.15
  16  -7   6    0.07    0.22
   7  -6  16    0.31    0.19
  16   7   6    0.21    0.23
   7   6  16    0.11    0.17
  16  -7  -6    0.20    0.16
  16  -8   6   39.94    1.53
   8  -6  16   38.31    1.42
  16   8   6   39.88    1.57
  16  -8  -6   40.89    1.29
   8   6  16   40.96    1.33
   9  -6  16    5.80    0.89
  16  -9   6    6.28    0.92
  16  -9  -6    6.98    0.69
  16   9   6    4.73    0.94
   9   6  16    7.50    0.79
  16 -10   6   12.21    1.03
  10  -6  16    9.57    1.02
  16 -10  -6   11.72    0.77
  10   6  16   11.15    0.91
  16 -11   6    0.61    0.24
  11  -6  16    0.43    0.23
  11   6  16    0.52    0.21
  16 -11  -6    1.78    0.57
  16 -12   6    0.20    0.23
  12  -6  16   -0.14    0.23
  12   6  16    0.13    0.21
  16 -12  -6    0.25    0.15
  13  -6  16    0.27    0.25
  16 -13   6    0.32    0.24
  13   6  16    0.05    0.21
  14  -6  16    4.71    1.01
  16 -14   6    4.02    0.96
  14   6  16    2.21    0.89
  16   0   7    7.10    0.86
  16   0  -7    7.50    0.75
  16  -1   7   -0.20    0.19
  16  -1  -7    0.12    0.17
  16   1   7    0.05    0.19
  16  -2   7    4.42    0.83
  16  -2  -7    3.90    0.69
  16   2   7    3.97    0.85
  16  -3   7    5.25    0.86
  16   3   7    6.37    0.90
  16  -3  -7    4.94    0.69
  16  -4   7    8.70    0.89
  16  -4  -7    9.46    0.73
  16   4   7    8.70    0.93
  16  -5   7    7.84    0.95
  16  -5  -7    7.17    0.69
  16   5   7    7.79    0.94
   5   7  16    6.59    0.63
   6  -7  16   -0.02    0.17
  16  -6   7    0.07    0.22
  16   6   7    0.00    0.21
  16  -6  -7    0.14    0.15
   6   7  16    0.20    0.15
   7  -7  16   11.38    0.94
  16  -7   7   12.29    1.05
   7   7  16   13.23    0.80
  16  -7  -7   11.73    0.79
  16   7   7   11.02    1.05
  16  -8   7    3.29    0.88
  16  -8  -7    3.04    0.61
   8   7  16    1.64    0.67
   9  -7  16    4.87    0.88
  16  -9   7    6.28    0.93
  16  -9  -7    7.73    0.68
   9   7  16    6.40    0.76
  16   9   7    5.57    0.99
  16 -10   7    6.20    0.97
  10  -7  16    5.33    0.89
  16  10   7    3.86    0.95
  16 -10  -7    6.50    0.65
  10   7  16    5.32    0.79
  11  -7  16    0.17    0.23
  16 -11   7    0.61    0.25
  11   7  16   -0.02    0.20
  12  -7  16    6.58    0.96
  16 -12   7    6.10    0.99
  12   7  16    4.57    0.84
  13  -7  16    0.05    0.23
  16 -13   7    0.17    0.24
  13   7  16   -0.10    0.21
  16   0   8   38.82    1.51
  16  -1   8    2.29    0.80
  16   1   8    2.11    0.83
  16  -2   8   24.73    1.24
  16  -2  -8   25.30    1.05
  16   2   8   25.90    1.26
  16  -3   8    0.51    0.21
  16   3   8    0.31    0.22
  16  -3  -8    0.40    0.17
  16  -4   8    7.27    0.87
  16   4   8    6.48    0.93
  16  -4  -8    6.48    0.69
  16  -5   8   -0.09    0.21
  16   5   8   -0.22    0.21
  16  -5  -8   -0.18    0.15
  16  -6   8   40.25    1.57
  16   6   8   40.96    1.57
   6   8  16   40.14    1.24
  16  -6  -8   41.35    1.27
  16  -7   8    2.75    0.90
   7  -8  16    1.97    0.79
  16  -7  -8    1.54    0.60
  16   7   8    2.37    0.89
   8  -8  16   47.06    1.59
  16  -8   8   48.80    1.73
  16   8   8   48.17    1.74
   8   8  16   45.82    1.47
  16  -8  -8   48.38    1.41
  16  -9   8    2.43    0.85
   9  -8  16    0.44    0.23
   9   8  16   -0.06    0.19
  16   9   8    0.19    0.25
  16  -9  -8    0.41    0.19
  16 -10   8   18.35    1.19
  10  -8  16   18.55    1.15
  10   8  16   17.77    1.04
  16  10   8   15.94    1.17
  16 -11   8    0.65    0.26
  11  -8  16    2.36    0.85
  11   8  16    0.34    0.22
  12  -8  16    3.36    0.89
  16 -12   8    2.29    0.90
  13  -8  16    0.38    0.25
  16 -13   8    0.47    0.26
  13   8  16   -0.47    0.21
  16   0   9    4.47    0.89
  16  -1   9    4.19    0.88
  16   1   9    5.07    0.89
  16  -2   9    4.28    0.87
  16   2   9    3.83    0.86
  16  -3   9    2.76    0.79
  16   3   9    2.06    0.86
  16  -4   9    0.19    0.21
  16   4   9    0.00    0.22
  16  -4  -9   -0.17    0.16
  16  -5   9    0.75    0.24
  16  -5  -9    0.57    0.18
  16   5   9    0.75    0.25
  16  -6   9    6.88    0.93
   9 -16  -6    6.13    0.57
  16  -6  -9    5.42    0.67
  16   6   9    7.47    0.96
  16  -7   9    7.79    0.96
  16   7   9    4.87    0.96
   7   9  16    4.14    0.70
  16  -7  -9    5.53    0.68
   8  -9  16    0.32    0.21
  16  -8   9    0.41    0.25
  16   8   9    0.09    0.25
   8   9  16   -0.10    0.19
   9  -9  16    4.76    0.88
  16  -9   9    5.87    0.96
  16   9   9    4.42    0.97
   9   9  16    2.40    0.75
  10  -9  16    0.67    0.25
  16 -10   9    0.71    0.26
  16  10   9    0.06    0.25
  10   9  16   -0.02    0.21
  11  -9  16    2.91    0.90
  16 -11   9    3.77    0.94
  16 -12   9    2.47    0.95
  12  -9  16    0.44    0.25
  12   9  16   -0.22    0.22
  16   0  10   33.14    1.45
  16  -1  10    4.03    0.86
  16   1  10    3.73    0.90
  16  -2  10    2.67    0.86
  16   2  10    2.41    0.86
  16  -3  10    0.70    0.24
  16   3  10    0.28    0.23
  16  -4  10    0.15    0.23
  16   4  10   -0.18    0.22
  10 -16  -4   -0.28    0.13
  16  -5  10    0.52    0.25
  16  -5 -10   -0.21    0.15
  16   5  10    0.37    0.24
  10 -16  -5    0.32    0.14
  16  -6  10   11.47    1.09
  10 -16  -6   10.48    0.65
  16   6  10   11.35    1.06
  16  -7  10    6.35    1.01
  16   7  10    5.50    0.95
  16  -8  10   16.17    1.19
   8 -10  16   17.47    1.09
  16   8  10   16.70    1.18
  16  -9  10    0.39    0.26
   9 -10  16    0.30    0.23
  16   9  10    0.06    0.24
  10 -10  16    0.59    0.25
  16 -10  10    0.35    0.26
  10  10  16   -0.01    0.21
  16  10  10    0.31    0.26
  11 -10  16    0.73    0.26
  16 -11  10    3.21    0.94
  11  10  16    0.09    0.22
  16   0  11    0.24    0.23
  16  -1  11    4.93    0.92
  11 -16  -1    2.76    0.68
  16   1  11    4.34    0.92
  16  -2  11    4.73    0.89
  11 -16  -2    4.37    0.67
  16   2  11    4.21    0.89
  16  -3  11    7.68    0.94
  11 -16  -3    7.10    0.68
  16   3  11    5.99    0.95
  16  -4  11    0.54    0.26
  11 -16  -4    0.45    0.16
  16   4  11    0.23    0.24
  16  -5  11    5.22    0.98
  16   5  11    4.77    0.95
  11 -16  -5    4.69    0.61
  16  -6  11    0.73    0.27
  16   6  11    0.17    0.24
  11 -16  -6    1.90    0.53
  16  -7  11    0.11    0.25
  16   7  11    0.15    0.24
  16  -8  11    0.38    0.26
  16   8  11    0.39    0.25
  16  -9  11    2.63    0.97
   9 -11  16    2.68    0.87
  16 -10  11    0.39    0.28
  10 -11  16    0.52    0.25
  16  10  11    0.38    0.27
  12 -16   0   13.61    0.93
  16   0  12   16.79    1.17
  16  -1  12    7.16    0.99
  12 -16   1    4.81    0.78
  16   1  12    6.27    0.98
  12 -16  -1    5.52    0.74
  12 -16   2    0.29    0.20
  16  -2  12    0.00    0.22
  16   2  12    0.02    0.22
  12 -16  -2    0.18    0.17
  12 -16   3    4.01    0.82
  16  -3  12    6.32    0.96
  12 -16  -3    5.00    0.69
  16   3  12    3.73    0.92
  16  -4  12    3.48    0.96
  12 -16   4    2.00    0.78
  16   4  12    2.54    0.91
  12 -16  -4    3.35    0.62
  16  -5  12    2.53    0.95
  12 -16  -5    3.53    0.61
  16   5  12    2.28    0.91
  16  -6  12    0.22    0.26
  12 -16   6   -0.14    0.21
  16   6  12   -0.02    0.24
  12 -16   7    4.22    0.89
  16  -7  12    6.91    1.04
  16   7  12    4.18    0.94
  16  -8  12    0.86    0.29
  12 -16   8    0.47    0.25
  16   8  12    0.35    0.26
  12 -16   9    0.17    0.24
   9 -12  16   -0.10    0.23
  16  -9  12    0.18    0.27
  16   9  12   -0.25    0.25
  13 -16   0    0.25    0.20
  16   0  13    0.69    0.26
  13 -16   1    5.17    0.80
  16  -1  13    5.79    0.93
  16   1  13    5.48    1.01
  13 -16  -1    5.08    0.76
  16  -2  13    0.35    0.25
  13 -16   2   -0.04    0.19
  13 -16  -2    0.19    0.18
  16   2  13    0.05    0.23
  16  -3  13    7.11    0.99
  13 -16   3    6.15    0.85
  13 -16  -3    5.83    0.73
  16   3  13    5.26    0.96
  16  -4  13    0.17    0.25
  13 -16   4    0.19    0.21
  16   4  13   -0.08    0.23
  13 -16  -4    2.15    0.63
  13 -16   5    0.37    0.22
  16  -5  13    0.55    0.27
  16   5  13    0.25    0.25
  13 -16  -5    2.53    0.59
  13 -16   6   -0.05    0.22
  16  -6  13    0.17    0.26
  16   6  13   -0.34    0.23
  13 -16   7   -0.27    0.22
  16  -7  13    0.19    0.26
  16   7  13   -0.16    0.24
  13 -16   8    0.06    0.23
  16  -8  13    0.25    0.27
  16   8  13   -0.40    0.23
  16   0  14   32.53    1.51
  14 -16   0   32.27    1.35
  14 -16   1    2.41    0.83
  16  -1  14    3.47    0.95
  14 -16  -1    3.68    0.78
  16  -2  14    7.42    1.04
  14 -16   2    7.08    0.91
  16   2  14    6.42    0.98
  14 -16  -2    8.80    0.83
  16  -3  14    3.08    0.96
  14 -16   3    2.04    0.87
  14 -16  -3    3.51    0.69
  14 -16   4    0.44    0.24
  16  -4  14    0.61    0.28
  14 -16  -4    2.28    0.64
  16   4  14    0.10    0.24
  14 -16   5    0.11    0.22
  16  -5  14    0.00    0.26
  16   5  14   -0.15    0.23
  14 -16  -5    2.56    0.92
  16  -6  14    3.08    1.02
  14 -16   6    3.11    0.90
  16   0  15    3.73    0.96
  15 -16   0    4.48    0.87
  15 -16   1    7.28    0.92
  16  -1  15    6.86    1.02
  15 -16  -1    8.62    0.90
  16   1  15    6.03    1.01
  15 -16   2    3.79    0.86
  16  -2  15    2.20    0.96
  16   2  15    2.19    0.95
  15 -16  -2    3.49    0.78
  16  -3  15    3.66    0.99
  15 -16   3    3.34    0.92
  15 -16  -3    4.69    0.75
   0   0  17    1.45    0.48
   1   0  17   10.67    0.63
  17  -1   0   10.01    0.91
  17   1   0   10.39    0.94
  -1   0  17   10.37    0.56
   2   0  17    2.05    0.52
  17  -2   0    2.08    0.74
  17   2   0    2.42    0.80
  -2   0  17    1.68    0.42
   3   0  17    3.30    0.55
  17  -3   0    3.02    0.74
  17   3   0    3.62    0.83
  17  -4   0    7.93    0.85
  17   4   0    9.57    0.96
   4   0  17    8.66    0.67
  17  -5   0    7.76    0.83
   5   0  17    9.24    0.69
  17   5   0    7.60    0.92
  17   6   0    0.15    0.22
  17  -6   0    0.31    0.19
   6   0  17    0.28    0.16
  17  -7   0    8.10    0.88
   7   0  17    8.25    0.75
  17   7   0    7.46    0.93
   8   0  17    2.35    0.72
  17  -8   0    0.84    0.23
   9   0  17    6.17    0.82
  17  -9   0    6.29    0.88
  17 -10   0    3.86    0.85
  10   0  17    3.80    0.79
  11   0  17    3.32    0.83
  17 -11   0    2.24    0.80
  17 -12   0    0.29    0.22
  12   0  17    0.43    0.22
  13   0  17    4.35    0.91
  17 -13   0    2.73    0.86
  14   0  17    5.85    0.98
  17 -14   0    4.74    0.86
  17   0  -1    9.84    0.92
   0   1  17   10.34    0.56
   0  -1  17    9.20    0.60
  17   0   1   10.43    0.92
  17   1  -1   42.64    1.49
  -1   1  17   42.06    1.09
   1  -1  17   40.80    1.17
  17  -1   1   41.56    1.49
   1   1  17   39.95    1.11
  17   1   1   41.21    1.51
  17  -1  -1   41.97    1.48
  -1  -1  17   39.33    1.08
   2  -1  17    0.37    0.15
  17  -2   1    0.10    0.18
  17   2  -1    0.17    0.20
   2   1  17    1.64    0.49
  17   2   1    0.27    0.21
  17  -2  -1    0.36    0.19
   3  -1  17    6.44    0.61
  17  -3   1    4.68    0.79
  17   3  -1    4.62    0.85
  17  -3  -1    4.90    0.76
  17   3   1    4.85    0.84
   3   1  17    5.74    0.59
  17  -4   1    6.10    0.82
   4  -1  17    7.19    0.64
  17   4  -1    4.63    0.86
  17   4   1    5.05    0.87
  17  -4  -1    5.89    0.78
   4   1  17    7.40    0.62
   5  -1  17    2.60    0.61
   5   1  17    1.95    0.56
  17   5   1    1.89    0.82
  17  -6   1    0.05    0.19
   6  -1  17    0.26    0.16
  17   6  -1   -0.01    0.21
  17   6   1    0.08    0.22
  17  -6  -1   -0.16    0.17
   6   1  17    0.32    0.16
  17  -7   1   14.18    0.97
   7  -1  17   14.80    0.88
  17   7   1   13.95    1.08
  17  -7  -1   13.02    0.93
   7   1  17   15.76    0.87
  17  -8   1    3.26    0.83
   8  -1  17    2.21    0.73
   8   1  17    3.11    0.71
  17  -9   1   23.24    1.20
   9  -1  17   20.71    1.08
  17  -9  -1   21.89    1.10
   9   1  17   20.98    1.06
  17 -10   1    0.30    0.22
  10  -1  17    0.45    0.21
  17 -10  -1    0.02    0.19
  10   1  17    0.17    0.19
  11  -1  17    5.18    0.89
  17 -11   1    3.39    0.83
  11   1  17    4.63    0.84
  17 -11  -1    3.35    0.84
  12  -1  17    2.19    0.86
  17 -12   1    0.22    0.21
  17 -12  -1    0.22    0.21
  12   1  17    0.56    0.22
  17 -13   1    4.37    0.87
  13  -1  17    3.64    0.91
  13   1  17    5.68    0.93
  17 -13  -1    3.88    0.86
  14  -1  17    0.35    0.24
  17 -14   1    0.32    0.23
  14   1  17    0.31    0.24
  17 -14  -1    2.04    0.82
  17   0  -2    2.46    0.75
  17   0   2    3.13    0.81
  17   1  -2    0.41    0.20
  17  -1   2    0.07    0.19
   1  -2  17    0.25    0.14
  17   1   2    0.39    0.21
  17  -1  -2    0.39    0.20
   1   2  17    1.64    0.44
   2  -2  17    1.81    0.52
  17  -2   2    0.85    0.22
  17   2  -2    0.81    0.23
   2   2  17    2.28    0.48
  17  -2  -2    0.60    0.20
  17   2   2    0.66    0.23
   3  -2  17    0.16    0.14
  17  -3   2    0.04    0.19
  17   3  -2    0.19    0.20
  17   3   2    0.01    0.20
  17  -3  -2    0.01    0.17
   3   2  17    0.13    0.12
   4  -2  17    0.43    0.16
  17   4  -2    0.27    0.22
  17  -4   2    0.30    0.20
  17   4   2    0.29    0.21
   4   2  17    0.34    0.14
  17  -4  -2    0.36    0.18
   5  -2  17    0.08    0.16
  17   5  -2   -0.20    0.20
  17  -5   2    0.11    0.18
  17  -5  -2   -0.06    0.16
   5   2  17    0.06    0.14
  17   5   2   -0.16    0.20
  17  -6   2    0.05    0.19
   6  -2  17    0.03    0.16
  17   6   2    0.16    0.22
  17  -6  -2   -0.03    0.16
   6   2  17    0.13    0.15
  17  -7   2    3.81    0.80
   7  -2  17    3.09    0.73
  17   7   2    2.86    0.89
  17  -7  -2    2.33    0.72
   7   2  17    2.27    0.67
  17  -8   2    0.73    0.23
   8  -2  17    0.66    0.21
  17   8   2    0.64    0.25
   8   2  17    2.02    0.68
  17  -8  -2    0.62    0.20
   9  -2  17    0.21    0.20
  17  -9   2    0.09    0.21
   9   2  17    0.09    0.18
  17  -9  -2   -0.08    0.17
  17 -10   2    0.32    0.23
  10  -2  17    2.50    0.81
  10   2  17    0.33    0.20
  17 -10  -2    0.27    0.19
  17 -11   2    0.06    0.22
  11  -2  17    0.24    0.22
  11   2  17    0.05    0.20
  17 -11  -2    0.22    0.19
  12  -2  17    2.57    0.90
  17 -12   2    3.18    0.89
  17 -12  -2    2.05    0.76
  13  -2  17    0.19    0.24
  17 -13   2    0.22    0.23
  17 -13  -2    0.22    0.20
  13   2  17    0.24    0.22
  14  -2  17    2.77    0.96
  17 -14  -2    2.91    0.79
  17   0   3    2.14    0.79
  17   0  -3    3.91    0.74
  17  -1   3    5.12    0.82
  17   1  -3    6.17    0.82
  17  -1  -3    5.72    0.79
  17   1   3    4.94    0.86
  17  -2   3    0.04    0.19
   2  -3  17    0.10    0.14
  17   2  -3    0.06    0.19
  17  -2  -3    0.07    0.17
   2   3  17    0.16    0.11
  17   2   3    0.06    0.20
  17   3  -3    6.42    0.85
  17  -3   3    6.52    0.87
   3  -3  17    6.67    0.65
  17   3   3    5.87    0.87
   3   3  17    7.90    0.57
  17  -3  -3    8.37    0.80
  17   4  -3    0.06    0.21
   4  -3  17    0.44    0.17
  17  -4   3    0.36    0.21
  17   4   3    0.47    0.21
   4   3  17    1.24    0.50
  17  -4  -3    0.29    0.18
  17  -5   3    2.28    0.80
   5  -3  17    3.07    0.67
  17   5   3    3.55    0.87
   5   3  17    3.90    0.58
  17  -5  -3    2.91    0.69
  17  -6   3   -0.08    0.20
   6  -3  17    0.02    0.17
  17   6   3    0.02    0.22
   6   3  17    0.15    0.15
  17  -6  -3    0.07    0.17
   7  -3  17   12.59    0.88
  17  -7   3   12.76    0.97
   7   3  17   12.92    0.84
  17   7   3   12.45    1.08
  17  -7  -3   11.98    0.87
   8  -3  17    9.81    0.87
  17  -8   3    9.23    0.96
   8   3  17    9.45    0.79
  17  -8  -3    8.72    0.80
  17   8   3    9.09    1.01
  17  -9   3   -0.02    0.21
   9  -3  17    0.07    0.19
  17  -9  -3    0.14    0.16
   9   3  17    0.00    0.18
  10  -3  17    2.49    0.84
  17 -10   3    2.06    0.86
  10   3  17    2.17    0.76
  17 -10  -3    2.21    0.69
  17 -11   3    6.28    0.96
  11  -3  17    4.80    0.87
  11   3  17    5.58    0.84
  17 -11  -3    5.49    0.75
  17 -12   3    3.18    0.90
  12  -3  17    3.88    0.88
  12   3  17    2.59    0.80
  17 -12  -3    3.55    0.75
  17 -13   3    2.36    0.87
  17 -13  -3    2.32    0.74
  17   0  -4    8.46    0.84
  17   0   4    8.15    0.90
  17   1  -4    4.93    0.79
  17  -1   4    5.89    0.81
  17   1   4    6.11    0.88
  17  -1  -4    5.46    0.75
  17  -2   4    0.33    0.21
  17   2  -4    0.26    0.19
  17   2   4    0.26    0.21
  17  -2  -4    0.30    0.18
  17   3  -4    0.33    0.21
  17  -3   4    0.27    0.20
   3  -4  17    0.39    0.16
  17  -3  -4    0.37    0.18
   3   4  17    0.50    0.13
  17   3   4    0.47    0.22
   4  -4  17   -0.03    0.15
  17  -4   4    0.09    0.19
  17  -4  -4    0.12    0.16
   4   4  17   -0.04    0.12
  17   4   4    0.20    0.21
  17  -5   4    7.09    0.89
   5  -4  17    7.94    0.75
   5   4  17    9.26    0.65
  17   5   4    8.15    0.97
  17  -5  -4    7.99    0.79
  17  -6   4   23.12    1.19
   6  -4  17   21.52    1.04
   6   4  17   24.09    0.94
  17  -6  -4   23.33    1.04
  17   6   4   22.72    1.27
   7  -4  17    9.63    0.82
  17  -7   4   10.47    0.97
   7   4  17    9.47    0.75
  17  -7  -4    9.33    0.81
  17   7   4    8.70    1.03
   8  -4  17    0.08    0.19
  17  -8   4   -0.06    0.22
  17   8   4    0.09    0.24
   8   4  17   -0.08    0.16
  17  -8  -4   -0.05    0.15
  17  -9   4    0.22    0.22
   9  -4  17    0.15    0.20
   9   4  17    0.13    0.18
  17   9   4   -0.11    0.24
  17  -9  -4    0.11    0.16
  10  -4  17    0.19    0.21
  17 -10   4    0.25    0.22
  17 -10  -4    0.32    0.17
  10   4  17    0.03    0.18
  11  -4  17    3.98    0.91
  17 -11   4    4.52    0.92
  17 -11  -4    5.04    0.74
  11   4  17    3.99    0.79
  12  -4  17    3.17    0.89
  17 -12   4    3.30    0.90
  17 -12  -4    3.06    0.70
  17 -13   4    2.58    0.91
  13  -4  17    2.16    0.90
  17 -13  -4    1.70    0.68
  17   0   5    7.61    0.89
  17   0  -5    8.12    0.83
  17   1  -5    0.67    0.20
  17  -1   5    0.66    0.23
  17   1   5    0.47    0.22
  17  -1  -5    0.41    0.19
  17  -2   5    0.03    0.19
  17   2  -5   -0.12    0.18
  17   2   5   -0.03    0.20
  17  -2  -5   -0.10    0.16
  17  -3   5    3.28    0.82
  17   3   5    3.61    0.84
  17  -3  -5    3.07    0.70
   4  -5  17    8.11    0.72
  17  -4   5    7.68    0.90
  17  -4  -5    7.59    0.78
   4   5  17    9.20    0.72
  17   4   5    7.06    0.92
   5  -5  17   -0.07    0.17
  17  -5   5    0.16    0.21
   5   5  17   -0.07    0.14
  17  -5  -5   -0.11    0.16
  17   5   5   -0.01    0.22
   6  -5  17    0.36    0.19
  17  -6   5    0.26    0.22
  17  -6  -5    0.23    0.17
  17   6   5    0.00    0.23
   6   5  17    0.28    0.16
  17  -7   5    0.53    0.24
   7  -5  17    0.47    0.20
   7   5  17    1.45    0.63
  17  -7  -5    0.62    0.17
  17   7   5    0.22    0.24
   8  -5  17    4.47    0.81
  17  -8   5    4.88    0.89
   8   5  17    3.65    0.71
  17   8   5    4.72    0.96
  17  -8  -5    4.62    0.68
   9  -5  17    1.88    0.81
  17  -9   5    0.62    0.25
  17  -9  -5    0.45    0.17
  17   9   5    0.42    0.25
   9   5  17    0.50    0.20
  10  -5  17    0.00    0.21
  17 -10   5    0.19    0.23
  10   5  17   -0.01    0.18
  17 -10  -5    0.15    0.15
  11  -5  17    0.25    0.23
  17 -11   5    0.32    0.24
  11   5  17    0.14    0.20
  17 -11  -5    0.16    0.16
  17 -12   5    3.83    0.92
  12  -5  17    3.49    0.91
  17 -12  -5    3.46    0.65
  12   5  17    2.29    0.80
  13  -5  17    2.22    0.93
  17 -13  -5    1.69    0.63
  17   0  -6    0.12    0.18
  17   0   6    0.04    0.21
  17   1  -6   -0.13    0.18
  17  -1   6   -0.14    0.20
  17   1   6   -0.10    0.20
  17  -1  -6   -0.01    0.18
  17  -2   6   -0.12    0.20
  17   2   6   -0.17    0.20
  17  -2  -6   -0.21    0.16
  17  -3   6   -0.31    0.19
  17  -3  -6   -0.02    0.16
  17   3   6   -0.19    0.21
  17  -4   6   22.80    1.18
  17   4   6   21.31    1.22
  17  -4  -6   21.74    1.01
  17  -5   6    0.31    0.22
   5  -6  17    0.04    0.17
  17   5   6   -0.06    0.22
  17  -5  -6    0.20    0.17
  17  -6   6   -0.02    0.22
   6  -6  17    0.04    0.18
  17  -6  -6   -0.04    0.15
   6   6  17   -0.17    0.15
  17   6   6   -0.12    0.22
  17  -7   6    0.07    0.23
   7  -6  17    0.16    0.19
  17   7   6   -0.09    0.23
   7   6  17   -0.10    0.16
  17  -7  -6   -0.08    0.15
  17  -8   6    3.35    0.94
   8  -6  17    3.60    0.84
  17  -8  -6    3.46    0.64
  17   8   6    2.85    0.94
   8   6  17    2.92    0.70
  17  -9   6    0.20    0.23
   9  -6  17    0.03    0.21
  17  -9  -6    0.15    0.15
   9   6  17    0.11    0.19
  17   9   6    0.11    0.24
  17 -10   6    2.70    0.91
  17 -10  -6    2.19    0.63
  17 -11   6    2.28    0.91
  17 -11  -6    1.72    0.60
  17 -12   6    0.49    0.25
  12  -6  17    0.45    0.25
  17 -12  -6    0.40    0.20
  12   6  17    0.01    0.21
  17   0   7    6.06    0.93
  17   0  -7    7.09    0.79
  17  -1   7   14.98    1.07
  17   1   7   13.55    1.03
  17  -1  -7   13.78    0.91
  17  -2   7    0.88    0.25
  17  -2  -7    0.74    0.20
  17   2   7    1.90    0.83
  17  -3   7   12.08    1.04
  17   3   7   11.66    1.05
  17  -3  -7   11.17    0.84
  17  -4   7    8.38    0.97
  17  -4  -7    8.66    0.77
  17   4   7    7.99    1.00
  17  -5   7    0.41    0.23
  17  -5  -7    0.34    0.17
  17   5   7    0.38    0.24
   6  -7  17    0.07    0.19
  17  -6   7    0.04    0.23
  17  -6  -7   -0.10    0.16
  17   6   7    0.03    0.23
   7  -7  17   20.13    1.08
  17  -7   7   24.29    1.30
  17  -7  -7   22.20    1.00
   7   7  17   20.23    0.95
  17   7   7   21.28    1.27
   8  -7  17    6.62    0.87
  17  -8   7    7.51    1.03
  17   8   7    5.96    1.00
   8   7  17    5.71    0.75
  17  -8  -7    7.14    0.72
  17  -9   7   28.08    1.39
   9  -7  17   27.76    1.28
  17   9   7   25.71    1.39
  17  -9  -7   27.96    1.09
   9   7  17   27.91    1.15
  10  -7  17    0.05    0.23
  17 -10   7    0.30    0.25
  17 -10  -7   -0.16    0.14
  17  10   7   -0.32    0.24
  10   7  17   -0.14    0.19
  17 -11   7    0.72    0.27
  11  -7  17    2.61    0.87
  11   7  17    0.35    0.21
  12  -7  17    5.34    0.95
  17 -12   7    3.92    0.96
  17   0   8    0.65    0.24
  17  -1   8    0.88    0.25
  17   1   8    2.00    0.84
  17  -2   8    0.68    0.24
  17  -2  -8    0.46    0.19
  17   2   8    0.81    0.25
  17  -3   8    8.57    0.94
  17   3   8    7.51    1.00
  17  -3  -8    7.67    0.76
  17  -4   8   -0.01    0.21
  17  -4  -8   -0.24    0.16
  17   4   8   -0.15    0.23
  17  -5   8    3.07    0.89
  17  -5  -8    3.40    0.68
  17   5   8    3.27    0.92
  17  -6   8    2.42    0.93
  17   6   8    2.40    0.91
  17  -7   8    7.02    1.01
   7  -8  17    7.10    0.85
  17  -7  -8    6.05    0.70
  17   7   8    6.23    1.01
   8  -8  17    0.64    0.24
  17  -8   8    2.60    0.94
  17  -8  -8    0.63    0.18
   8   8  17    0.40    0.21
  17   8   8    0.54    0.27
   9  -8  17    3.87    0.92
  17  -9   8    4.36    0.98
  10  -8  17    2.91    0.92
  17 -10   8    2.34    0.93
  17 -11   8    3.21    0.92
  11  -8  17    3.57    0.90
  17   0   9    7.05    0.99
  17  -1   9   20.69    1.24
  17   1   9   22.91    1.24
  17  -2   9    0.07    0.22
  17   2   9   -0.15    0.21
  17  -3   9   -0.19    0.21
  17   3   9    0.13    0.23
  17  -4   9    0.34    0.23
  17  -4  -9   -0.40    0.16
  17   4   9    0.08    0.23
  17  -5   9    0.22    0.24
  17   5   9    0.44    0.25
  17  -5  -9    0.14    0.17
  17  -6   9    0.27    0.25
  17   6   9    0.09    0.24
  17  -6  -9   -0.19    0.16
  17  -7   9   27.58    1.40
   7  -9  17   25.86    1.21
  17   7   9   27.12    1.38
   8  -9  17    3.05    0.84
  17  -8   9    4.65    0.93
   9  -9  17   11.70    1.02
  17  -9   9   13.14    1.14
  17   9   9    9.97    1.10
  10  -9  17    0.38    0.24
  17 -10   9    0.30    0.26
  17  10   9   -0.44    0.24
  17 -11   9    0.25    0.25
  11  -9  17    0.02    0.24
  11   9  17   -0.41    0.21
  17   0  10    3.13    0.92
  17  -1  10    0.05    0.23
  17   1  10    0.13    0.23
  17  -2  10    0.34    0.24
  17   2  10    0.28    0.24
  17  -3  10    0.55    0.25
  17   3  10    0.39    0.25
  17  -4  10    0.07    0.23
  17   4  10   -0.24    0.23
  10 -17  -4   -0.20    0.14
  17  -5  10   -0.04    0.24
  17   5  10   -0.08    0.23
  10 -17  -5   -0.05    0.13
  17  -6  10    0.26    0.27
  10 -17  -6    0.46    0.24
  17   6  10    0.18    0.24
  17  -7  10   -0.01    0.25
  17   7  10   -0.31    0.22
  17  -8  10    0.69    0.28
   8 -10  17    0.48    0.24
  17   8  10    0.31    0.26
   9 -10  17   -0.16    0.22
  17  -9  10    0.23    0.25
  17   9  10   -0.26    0.24
  10 -10  17    0.28    0.24
  17 -10  10    0.18    0.26
  17  10  10   -0.25    0.25
  17   0  11    2.78    0.93
  17  -1  11    3.78    0.94
  17   1  11    3.79    0.93
  11 -17  -1    2.35    0.69
  17  -2  11    0.24    0.24
  17   2  11   -0.01    0.23
  11 -17  -2   -0.08    0.17
  17  -3  11    4.83    0.92
  17   3  11    3.95    0.91
  11 -17  -3    4.07    0.66
  17  -4  11    3.86    0.95
  17   4  11    4.17    0.96
  11 -17  -4    3.95    0.63
  17  -5  11   -0.13    0.25
  11 -17  -5    0.13    0.14
  17   5  11   -0.23    0.23
  17  -6  11    0.74    0.28
  17   6  11    0.33    0.25
  17  -7  11    0.70    0.29
  17   7  11    0.32    0.26
   8 -11  17    0.76    0.25
  17  -8  11    3.47    1.02
  17   8  11    0.83    0.28
  17  -9  11   -0.01    0.26
   9 -11  17   -0.06    0.23
  17   9  11   -0.21    0.25
  12 -17   0    0.21    0.19
  17   0  12    0.15    0.24
  17  -1  12    0.28    0.25
  12 -17   1   -0.11    0.19
  12 -17  -1    0.05    0.18
  17   1  12    0.13    0.24
  17  -2  12    0.74    0.26
  12 -17   2    0.15    0.20
  17   2  12    0.68    0.26
  12 -17  -2    0.53    0.19
  17  -3  12    2.54    0.95
  17   3  12    2.20    0.92
  12 -17  -3    3.05    0.66
  12 -17   4    0.62    0.23
  17  -4  12    2.24    0.93
  12 -17  -4    2.47    0.62
  17   4  12    0.89    0.27
  17  -5  12    3.01    0.97
  12 -17   5    1.89    0.81
  12 -17  -5    4.33    0.63
  12 -17   6    0.30    0.24
  17  -6  12    0.17    0.26
  17   6  12    0.01    0.24
  12 -17   7    0.79    0.26
  17  -7  12    4.01    1.02
  17   7  12    1.08    0.29
  13 -17   0    2.67    0.79
  17   0  13    4.09    0.99
  17  -1  13    3.89    0.98
  13 -17   1    2.62    0.80
  13 -17  -1    3.85    0.76
  17   1  13    2.86    0.95
  13 -17   2   -0.21    0.20
  17  -2  13    0.25    0.25
  13 -17  -2    0.23    0.18
  17   2  13    0.10    0.25
  17  -3  13    0.18    0.26
  13 -17   3    0.00    0.21
  17   3  13   -0.07    0.25
  13 -17  -3    1.89    0.68
  17  -4  13    0.49    0.27
  13 -17   4    0.22    0.23
  17   4  13    0.23    0.25
  17  -5  13    0.43    0.28
  13 -17   5    0.09    0.22
  17   5  13   -0.31    0.24
  14 -17   0    3.05    0.83
  17   0  14    3.88    0.97
  17  -1  14    0.32    0.26
  14 -17   1    0.03    0.21
  14 -17  -1    0.14    0.20
  17   1  14    0.13    0.26
  17  -2  14    0.46    0.26
  14 -17   2    0.46    0.23
  14 -17  -2    2.29    0.73
  17   2  14    0.11    0.25
   0   0  18   15.49    0.68
  18   0   0   15.07    1.05
   1   0  18    5.12    0.53
  18  -1   0    3.68    0.82
  18   1   0    3.54    0.84
  18   2   0    6.04    0.88
  18  -2   0    7.21    0.86
   2   0  18    6.77    0.57
   3   0  18    1.71    0.53
  18  -3   0   -0.04    0.18
  18   3   0   -0.04    0.21
   4   0  18    2.93    0.59
  18   4   0    0.56    0.24
  18  -5   0    0.15    0.20
   5   0  18    1.69    0.61
  18   5   0    0.34    0.24
  18  -6   0   10.58    0.96
  18   6   0    9.48    1.03
   6   0  18   10.94    0.78
   7   0  18    2.59    0.69
  18  -8   0   19.86    1.12
   8   0  18   20.29    1.06
   9   0  18    2.46    0.74
  18  -9   0    1.96    0.79
  10   0  18    8.57    0.88
  18 -10   0    7.52    0.90
  18 -11   0    0.05    0.21
  11   0  18    0.08    0.21
  18 -12   0    0.35    0.23
  12   0  18   -0.04    0.21
  13   0  18    0.36    0.23
  18 -13   0    0.21    0.23
  18   0  -1    3.22    0.82
   0  -1  18    4.21    0.52
  18   0   1    4.14    0.86
  18   1  -1    0.22    0.21
   1  -1  18    0.36    0.14
  18  -1   1    0.22    0.20
  18   1   1    0.40    0.22
   1   1  18    1.76    0.51
  -1  -1  18    0.20    0.12
  18  -1  -1    0.31    0.21
  18  -2   1    1.98    0.78
   2  -1  18    1.85    0.53
   2   1  18    3.10    0.52
   3  -1  18    0.14    0.14
  18  -3   1   -0.10    0.18
  18   3  -1   -0.20    0.21
   3   1  18    1.33    0.51
  18   3   1   -0.01    0.21
  18  -3  -1   -0.12    0.18
   4  -1  18    1.78    0.58
   4   1  18    2.20    0.54
  18  -4  -1    1.86    0.72
  18  -5   1   -0.09    0.19
   5  -1  18    1.44    0.60
  18   5  -1   -0.01    0.22
   5   1  18    1.58    0.57
  18   5   1    0.16    0.24
  18  -5  -1   -0.02    0.19
   6  -1  18   11.58    0.82
  18   6  -1   11.93    1.05
  18  -6   1   11.46    0.96
  18   6   1   11.71    1.09
   6   1  18   12.68    0.80
  18  -6  -1   11.63    0.96
   7  -1  18    0.47    0.19
  18  -7   1    0.31    0.22
  18  -7  -1    0.32    0.20
   7   1  18    1.98    0.65
  18   7   1    0.23    0.24
   8  -1  18    6.30    0.81
  18  -8   1    7.37    0.93
   8   1  18    6.71    0.78
  18  -8  -1    5.65    0.86
  18  -9   1    0.05    0.21
   9  -1  18    1.81    0.77
  18  -9  -1   -0.03    0.19
   9   1  18    0.11    0.19
  10  -1  18    3.18    0.82
  18 -10   1    2.47    0.84
  10   1  18    2.27    0.77
  18 -10  -1    2.00    0.81
  11  -1  18    0.13    0.21
  18 -11   1    0.19    0.22
  18 -11  -1    0.01    0.20
  11   1  18   -0.13    0.19
  12  -1  18    0.37    0.23
  18 -12   1    0.20    0.23
  18 -12  -1    0.07    0.21
  12   1  18    0.40    0.22
  18   0  -2    5.99    0.84
  18   0   2    6.12    0.89
   0  -2  18    5.84    0.55
  18  -1   2    0.63    0.22
   1  -2  18    1.32    0.52
  18   1  -2    0.45    0.22
  18   1   2    0.54    0.23
  18  -1  -2    0.19    0.20
  18  -2   2    0.18    0.20
   2  -2  18    0.06    0.14
  18   2  -2   -0.03    0.21
  18   2   2    0.04    0.21
  18  -2  -2    0.15    0.19
  18  -3   2    0.31    0.21
   3  -2  18    0.23    0.15
  18   3  -2    0.18    0.22
   3   2  18    1.81    0.50
  18   3   2    0.19    0.21
  18  -3  -2    0.10    0.19
  18   4  -2    2.90    0.88
   4  -2  18    4.65    0.65
  18  -4   2    4.16    0.85
  18   4   2    4.65    0.92
   4   2  18    5.21    0.60
  18  -4  -2    4.34    0.80
   5  -2  18    0.28    0.17
  18  -5   2    0.35    0.22
  18   5  -2    0.35    0.23
  18  -5  -2    0.30    0.19
   5   2  18    2.25    0.60
  18   5   2    0.13    0.24
   6  -2  18    0.16    0.17
  18  -6   2    0.03    0.20
  18  -6  -2    0.16    0.19
  18   6   2   -0.06    0.23
   6   2  18    0.02    0.16
   7  -2  18    2.84    0.71
  18  -7   2    3.00    0.85
   7   2  18    3.30    0.68
  18  -7  -2    2.19    0.73
  18  -8   2    8.94    0.95
   8  -2  18    7.35    0.84
  18  -8  -2    6.91    0.84
   8   2  18    7.26    0.78
  18   8   2    6.96    1.02
  18  -9   2    2.07    0.85
   9  -2  18    2.68    0.80
   9   2  18    1.70    0.74
  18  -9  -2    1.73    0.75
  10  -2  18    0.29    0.21
  18 -10   2    0.20    0.23
  18 -10  -2    0.30    0.20
  10   2  18    0.28    0.20
  18 -11   2    2.15    0.89
  11  -2  18    2.73    0.88
  11   2  18    2.49    0.79
  18 -11  -2    2.24    0.76
  12  -2  18    3.36    0.87
  18 -12   2    4.02    0.91
  18 -12  -2    2.88    0.79
  12   2  18    2.27    0.85
  18   0   3    0.18    0.21
  18   0  -3   -0.10    0.19
  18   1  -3   -0.29    0.19
  18  -1   3    0.11    0.21
   1  -3  18   -0.07    0.14
  18   1   3   -0.07    0.20
  18  -1  -3   -0.04    0.18
   2  -3  18    0.14    0.15
  18   2  -3    0.01    0.21
  18  -2   3    0.16    0.20
  18  -2  -3    0.31    0.19
  18   2   3    0.34    0.22
  18  -3   3    4.39    0.87
   3  -3  18    3.99    0.63
  18   3  -3    4.31    0.86
  18   3   3    3.23    0.85
  18  -3  -3    3.86    0.77
  18   4  -3    0.55    0.23
   4  -3  18    2.20    0.64
  18  -4   3    0.78    0.24
   4   3  18    2.52    0.55
  18  -4  -3    0.59    0.21
  18   4   3    0.40    0.23
  18  -5   3    0.19    0.21
   5  -3  18    0.08    0.17
  18   5   3   -0.29    0.23
   5   3  18    0.17    0.15
  18  -5  -3   -0.07    0.17
  18  -6   3    9.69    0.98
   6  -3  18   10.23    0.84
  18   6   3    9.24    1.08
   6   3  18   10.14    0.75
  18  -6  -3   10.44    0.86
  18  -7   3    2.40    0.83
   7   3  18    1.71    0.65
   8  -3  18    0.31    0.20
  18  -8   3    0.26    0.23
  18   8   3   -0.06    0.25
  18  -8  -3    0.14    0.18
   8   3  18    0.26    0.18
  18  -9   3    3.65    0.92
   9  -3  18    2.70    0.80
  18  -9  -3    2.10    0.73
   9   3  18    2.28    0.74
  18 -10   3    0.51    0.25
  10  -3  18    0.48    0.23
  10   3  18    0.12    0.19
  18 -10  -3    0.20    0.17
  18 -11   3    0.21    0.24
  11  -3  18    0.46    0.24
  11   3  18    0.12    0.20
  18 -11  -3    0.15    0.18
  18 -12   3    2.98    0.92
  12  -3  18    2.34    0.91
  18 -12  -3    1.82    0.73
  18   0   4    0.37    0.22
  18   0  -4    0.35    0.21
  18   1  -4    0.15    0.20
  18  -1   4    0.55    0.22
  18  -1  -4    0.65    0.21
  18   1   4    0.52    0.23
  18   2  -4    5.12    0.85
  18  -2   4    3.10    0.84
  18  -2  -4    4.08    0.78
  18   2   4    3.89    0.90
  18  -3   4    0.47    0.23
  18   3  -4    0.40    0.22
   3  -4  18    1.85    0.61
  18   3   4    0.45    0.23
  18  -3  -4    0.65    0.21
  18  -4   4   16.69    1.10
   4  -4  18   17.37    0.89
  18   4   4   18.03    1.16
  18  -4  -4   16.38    0.98
   5  -4  18    0.36    0.18
  18  -5   4    0.27    0.22
  18   5   4    0.46    0.24
   5   4  18    0.40    0.16
  18  -5  -4    0.23    0.18
  18  -6   4    3.04    0.87
   6  -4  18    2.34    0.70
  18  -6  -4    2.49    0.70
   6   4  18    3.01    0.61
   7  -4  18    4.33    0.77
  18  -7   4    4.21    0.89
  18  -7  -4    2.97    0.71
   7   4  18    3.49    0.66
  18   7   4    3.12    0.96
  18  -8   4    0.37    0.23
   8  -4  18    0.10    0.20
  18   8   4   -0.05    0.25
   8   4  18   -0.02    0.17
  18  -8  -4    0.15    0.17
   9  -4  18    2.63    0.82
  18  -9   4    2.40    0.94
  18  -9  -4    2.37    0.70
   9   4  18    1.68    0.69
  18 -10   4    5.70    0.98
  10  -4  18    4.58    0.84
  18 -10  -4    4.30    0.74
  10   4  18    3.73    0.77
  11  -4  18    2.22    0.90
  18 -11   4    3.17    0.92
  18 -11  -4    2.23    0.70
  18 -12   4    7.48    1.00
  12  -4  18    6.69    1.01
  12   4  18    4.91    0.86
  18 -12  -4    7.12    0.78
  18   0   5    0.07    0.22
  18   0  -5    0.19    0.20
  18   1  -5    0.02    0.20
  18  -1   5    0.06    0.21
  18   1   5    0.01    0.22
  18  -1  -5    0.09    0.19
  18   2  -5    0.23    0.21
  18  -2   5    0.21    0.22
  18   2   5    0.25    0.23
  18  -2  -5    0.21    0.19
  18  -3   5   -0.09    0.21
  18   3   5   -0.01    0.21
  18  -3  -5   -0.13    0.17
   4  -5  18    0.21    0.17
  18  -4   5    0.62    0.24
  18  -4  -5    0.07    0.17
  18   4   5    0.36    0.24
  18  -5   5    0.13    0.22
   5  -5  18    0.05    0.17
  18   5   5   -0.10    0.23
  18  -5  -5   -0.05    0.17
  18  -6   5    0.77    0.25
   6  -5  18    2.48    0.75
  18   6   5    0.87    0.27
  18  -6  -5    2.05    0.70
  18  -7   5   -0.05    0.23
   7  -5  18    0.25    0.20
  18  -7  -5    0.18    0.17
   7   5  18    0.03    0.17
  18   7   5    0.07    0.24
  18  -8   5    5.60    0.94
   8  -5  18    5.78    0.82
  18   8   5    3.58    0.97
   8   5  18    4.53    0.71
  18  -8  -5    4.14    0.70
  18  -9   5    0.22    0.25
   9  -5  18    0.37    0.22
  18  -9  -5    0.17    0.16
  18   9   5   -0.18    0.25
   9   5  18   -0.06    0.18
  18 -10   5    0.43    0.25
  10  -5  18    0.33    0.23
  10   5  18    0.01    0.19
  18 -10  -5    0.24    0.17
  11  -5  18    0.31    0.24
  18 -11   5    0.29    0.25
  18 -11  -5    0.12    0.16
  11   5  18   -0.35    0.19
  18 -12   5    0.25    0.25
  12  -5  18    0.10    0.25
  18 -12  -5    0.19    0.16
  12   5  18   -0.16    0.21
  18   0  -6    9.31    0.91
  18   0   6    8.72    0.99
  18  -1   6   11.61    1.02
  18   1  -6   10.23    0.92
  18  -1  -6   10.94    0.91
  18   1   6   11.42    1.05
  18  -2   6   -0.26    0.21
  18  -2  -6   -0.14    0.18
  18   2   6   -0.11    0.21
  18  -3   6   10.04    1.05
  18   3   6    9.70    1.02
  18  -3  -6   10.01    0.85
  18  -4   6    2.69    0.86
  18  -4  -6    1.97    0.69
  18  -5   6    2.12    0.90
   5  -6  18    2.22    0.71
  18  -5  -6    2.28    0.71
  18  -6   6    0.36    0.25
   6  -6  18    1.73    0.73
  18  -6  -6    0.56    0.19
  18   6   6    0.34    0.25
  18  -7   6   10.67    1.10
   7  -6  18   10.72    0.94
  18  -7  -6   10.99    0.83
  18   7   6    8.71    1.06
  18  -8   6    3.90    0.99
   8  -6  18    3.86    0.81
   8   6  18    2.53    0.71
  18  -8  -6    3.80    0.69
  18   8   6    2.83    0.98
   9  -6  18    2.66    0.83
  18  -9   6    3.28    0.92
  18  -9  -6    1.75    0.65
  10  -6  18    0.24    0.23
  18 -10   6    0.12    0.25
  18 -10  -6   -0.07    0.14
  10   6  18   -0.41    0.19
  11  -6  18    5.15    0.93
  18 -11   6    4.05    0.97
  11   6  18    2.71    0.81
  18 -11  -6    4.35    0.67
  18   0  -7    0.42    0.20
  18   0   7    0.54    0.24
  18  -1   7    0.44    0.24
  18   1   7    0.23    0.23
  18  -1  -7    0.22    0.20
  18  -2   7    0.85    0.26
  18   2   7    2.84    0.93
  18  -2  -7    0.60    0.20
  18  -3   7    0.10    0.23
  18   3   7   -0.05    0.23
  18  -3  -7    0.16    0.19
  18  -4   7    3.19    0.94
  18  -4  -7    3.11    0.72
  18   4   7    3.81    0.95
  18  -5   7    0.27    0.24
   5  -7  18    0.22    0.19
  18   5   7    0.00    0.24
  18  -5  -7    0.04    0.18
  18  -6   7   11.03    1.05
   6  -7  18    9.34    0.89
  18   6   7   11.18    1.11
  18  -6  -7    9.35    0.82
  18  -7   7    4.52    0.98
   7  -7  18    5.35    0.82
  18   7   7    3.46    0.97
  18  -7  -7    3.97    0.71
  18  -8   7    3.79    1.00
   8  -7  18    2.31    0.81
  18  -8  -7    1.87    0.65
   9  -7  18    0.23    0.23
  18  -9   7   -0.02    0.25
  18   9   7   -0.19    0.25
  18  -9  -7    0.08    0.16
  18 -10   7    0.80    0.28
  10  -7  18    0.23    0.24
  18  10   7   -0.02    0.26
  10   7  18    0.09    0.21
  18   0   8   19.69    1.20
  18  -1   8    5.66    0.94
  18   1   8    6.52    1.00
  18  -2   8    6.69    0.96
  18  -2  -8    5.94    0.80
  18   2   8    6.85    0.98
  18  -3   8    0.23    0.23
  18  -3  -8   -0.07    0.18
  18   3   8    0.23    0.25
  18  -4   8   -0.20    0.22
  18   4   8   -0.03    0.24
  18  -4  -8   -0.23    0.17
  18  -5   8    4.20    0.89
  18   5   8    2.98    0.92
  18  -5  -8    3.20    0.70
  18  -6   8    3.86    0.91
   6  -8  18    3.59    0.78
  18   6   8    2.96    0.94
  18  -6  -8    2.04    0.68
  18  -7   8    2.81    0.93
   7  -8  18    2.43    0.78
  18  -7  -8    1.55    0.64
  18  -8   8   26.32    1.41
   8  -8  18   25.47    1.24
  18   8   8   25.36    1.42
  18  -9   8    4.41    1.04
   9  -8  18    3.90    0.88
  18   9   8    2.52    0.99
  10  -8  18    4.26    0.95
  18 -10   8    5.33    0.98
  18   0   9    2.34    0.87
  18  -1   9   -0.07    0.23
  18   1   9    0.05    0.23
  18  -2   9    0.56    0.25
  18   2   9    0.24    0.24
  18  -3   9    0.71    0.26
  18  -3  -9    0.57    0.20
  18   3   9    0.78    0.27
  18  -4   9    2.91    0.93
  18   4   9    0.73    0.27
  18  -4  -9    0.27    0.19
  18  -5   9    0.02    0.24
  18   5   9    0.07    0.25
  18  -5  -9   -0.18    0.17
  18  -6   9    0.66    0.28
  18   6   9    0.82    0.28
  18  -7   9   -0.08    0.25
   7  -9  18    0.00    0.21
  18   7   9   -0.01    0.26
   8  -9  18    3.79    0.89
  18  -8   9    3.87    1.05
   9  -9  18    0.49    0.24
  18  -9   9    2.77    1.01
  18   9   9   -0.15    0.26
  18   0  10    7.77    1.02
  18  -1  10    0.68    0.27
  18   1  10    0.59    0.26
  18  -2  10   -0.09    0.23
  18   2  10    0.00    0.23
  18  -3  10    0.10    0.24
  18   3  10   -0.03    0.24
  18  -4  10    5.10    0.99
  18   4  10    4.71    0.99
  18  -5  10    0.42    0.26
  10 -18  -5    0.11    0.15
  18   5  10    0.17    0.25
  18  -6  10   -0.07    0.25
  18   6  10    0.07    0.24
  18  -7  10    2.44    1.00
  18   7  10    0.21    0.27
   8 -10  18    2.89    0.92
  18  -8  10    4.75    1.04
  18   0  11   -0.17    0.23
  18  -1  11    0.12    0.24
  18   1  11   -0.14    0.23
  18  -2  11    2.48    0.96
  11 -18  -2    0.20    0.18
  18   2  11    0.66    0.27
  18  -3  11    0.02    0.25
  18   3  11    0.07    0.24
  11 -18  -3    0.07    0.16
  18  -4  11    0.40    0.27
  18   4  11    0.27    0.25
  11 -18  -4    0.35    0.16
  18  -5  11    0.11    0.26
  11 -18  -5   -0.01    0.17
  18   5  11   -0.31    0.24
  18  -6  11    3.96    1.05
  18   0  12   -0.01    0.24
  12 -18   0   -0.13    0.19
  12 -18   1   -0.13    0.20
  18  -1  12    0.03    0.25
  12 -18  -1    0.03    0.18
  18   1  12    0.12    0.24
  18  -2  12    0.85    0.29
  12 -18   2    0.52    0.23
  18   2  12    0.67    0.27
  12 -18  -2    2.21    0.67
  18  -3  12    0.23    0.26
  12 -18   3   -0.03    0.21
  18   3  12    0.26    0.26
  12 -18  -3    0.42    0.18
  18  -4  12    7.37    1.09
  12 -18  -4    4.67    0.70
  18   4  12    5.40    1.05
  18  -5  12    0.01    0.26
  18   5  12   -0.34    0.25
  13 -18   0   -0.12    0.20
  18   0  13    0.04    0.25
  19   0   0    8.48    0.97
  19  -1   0    2.09    0.85
   2   0  19    3.30    0.59
  19  -2   0    2.02    0.83
  19  -3   0    2.14    0.81
  19  -4   0    0.40    0.22
  19   4   0    0.31    0.25
   4   0  19    2.07    0.60
   5   0  19   12.08    0.79
  19   5   0    9.73    1.07
  19  -5   0   10.66    1.00
  19   6   0    0.23    0.26
   6   0  19    2.77    0.64
  19  -6   0    0.33    0.21
  19  -7   0   22.43    1.21
   7   0  19   21.25    1.03
  19  -8   0    2.53    0.85
   8   0  19    3.52    0.76
  19  -9   0    3.07    0.86
   9   0  19    3.85    0.77
  19 -10   0    0.13    0.22
  10   0  19    0.29    0.20
  19 -11   0    2.69    0.89
  11   0  19    3.88    0.84
  19   0   1    2.00    0.86
  19   0  -1    0.81    0.24
  19  -1   1   -0.03    0.21
  19   1  -1    0.06    0.22
   1  -1  19    0.14    0.13
  19  -1  -1   -0.03    0.20
  19   1   1   -0.21    0.21
  19   2  -1   -0.03    0.22
  19  -2   1   -0.06    0.21
   2  -1  19    1.27    0.53
  19   2   1   -0.12    0.22
  19  -2  -1   -0.12    0.20
   3  -1  19    1.35    0.57
  19   3  -1   -0.04    0.23
  19  -3   1   -0.11    0.19
  19  -3  -1    0.08    0.21
  19   3   1   -0.09    0.22
  19  -4   1    0.07    0.21
  19   4  -1    0.04    0.24
   4  -1  19    0.22    0.16
  19   4   1    0.02    0.24
  19  -4  -1    0.07    0.20
   5  -1  19    2.61    0.66
  19   5  -1    0.07    0.24
  19  -5   1    0.56    0.23
  19  -5  -1    0.40    0.21
  19   5   1    0.21    0.25
   5   1  19    1.81    0.59
  19   6  -1   -0.16    0.23
   6  -1  19    0.23    0.17
  19  -6   1    0.02    0.20
  19  -6  -1   -0.09    0.20
  19   6   1   -0.35    0.23
   6   1  19    0.30    0.17
   7  -1  19   11.96    0.90
  19  -7   1   12.90    1.03
  19  -7  -1   12.37    1.00
   7   1  19   13.66    0.88
  19   7   1   11.05    1.11
   8  -1  19    6.33    0.83
  19  -8   1    6.31    0.94
  19  -8  -1    5.09    0.84
   8   1  19    6.38    0.80
   9  -1  19    5.41    0.83
  19  -9   1    5.39    0.95
  19  -9  -1    4.47    0.85
   9   1  19    5.02    0.82
  10  -1  19    2.80    0.81
  19 -10   1    0.21    0.23
  10   1  19    0.09    0.20
  19 -10  -1    0.07    0.20
  19 -11   1    3.08    0.89
  11  -1  19    2.67    0.84
  19 -11  -1    2.53    0.85
  11   1  19    2.37    0.84
  19   0  -2    0.50    0.23
   0  -2  19    0.55    0.15
  19   0   2    0.59    0.24
   1  -2  19    0.13    0.14
  19   1  -2   -0.11    0.21
  19  -1   2   -0.12    0.21
  -1  -2  19   -0.06    0.13
  19   1   2   -0.24    0.21
  19  -1  -2   -0.20    0.20
  19   2  -2    4.54    0.91
   2  -2  19    5.40    0.63
  19  -2   2    4.63    0.90
  19  -2  -2    5.01    0.86
  19   2   2    4.43    0.94
  19   3  -2    0.16    0.23
   3  -2  19    0.30    0.16
  19  -3   2    0.20    0.22
  19   3   2    0.17    0.24
  19  -3  -2    0.15    0.20
  19   4  -2    0.55    0.26
   4  -2  19    0.53    0.17
  19  -4   2    0.52    0.23
  19   4   2    0.53    0.26
  19  -4  -2    0.59    0.22
  19  -5   2    0.26    0.22
   5  -2  19    0.21    0.16
  19   5  -2   -0.16    0.23
  19   5   2   -0.08    0.25
  19  -5  -2   -0.04    0.19
   5   2  19    0.09    0.15
   6  -2  19   -0.02    0.17
  19  -6   2   -0.04    0.21
  19   6   2   -0.24    0.24
   6   2  19    0.01    0.16
  19  -6  -2   -0.19    0.18
  19  -7   2    0.44    0.22
   7  -2  19    0.12    0.19
  19   7   2    0.09    0.25
   7   2  19    1.76    0.66
  19  -7  -2    0.28    0.20
   8  -2  19    0.64    0.22
  19  -8   2    0.49    0.24
  19  -8  -2    0.53    0.21
   8   2  19    0.44    0.19
  19   8   2    0.11    0.25
   9  -2  19    2.24    0.80
  19  -9   2    2.16    0.86
  19  -9  -2    2.33    0.79
  10  -2  19    3.22    0.83
  19 -10   2    2.57    0.93
  10   2  19    2.03    0.80
  19 -10  -2    2.55    0.79
  19 -11   2    0.36    0.25
  11  -2  19    0.47    0.23
  19 -11  -2    0.18    0.19
  11   2  19    0.03    0.20
  19   0   3    0.94    0.26
  19   0  -3    0.72    0.24
  19   1  -3   -0.06    0.21
   1  -3  19   -0.16    0.14
  19  -1   3   -0.16    0.21
  19  -1  -3   -0.08    0.20
  19   1   3   -0.01    0.23
   2  -3  19    0.07    0.15
  19   2  -3    0.04    0.22
  19  -2   3    0.33    0.22
  19  -2  -3    0.21    0.21
  19   2   3    0.26    0.24
   3  -3  19   14.36    0.83
  19   3  -3   14.26    1.10
  19  -3   3   12.76    1.05
  19   3   3   13.81    1.10
  19  -3  -3   13.46    1.01
  19  -4   3    5.71    0.95
   4  -3  19    6.23    0.73
  19   4  -3    5.37    0.95
  19  -4  -3    6.08    0.87
  19   4   3    6.06    1.03
   5  -3  19   13.93    0.87
  19  -5   3   13.93    1.09
  19  -5  -3   12.33    0.95
  19   5   3   13.09    1.15
  19  -6   3    0.50    0.23
   6  -3  19    0.20    0.19
  19   6   3   -0.14    0.25
   6   3  19    0.55    0.21
  19  -6  -3    0.44    0.20
   7  -3  19    4.06    0.78
  19  -7   3    5.29    0.95
   7   3  19    4.89    0.71
  19  -7  -3    3.86    0.78
  19   7   3    2.64    1.00
  19  -8   3    0.47    0.25
   8  -3  19    0.04    0.20
   8   3  19    0.30    0.18
  19   8   3    0.04    0.26
  19  -8  -3    0.13    0.19
  19  -9   3    0.47    0.25
   9  -3  19    0.41    0.22
  19  -9  -3    0.34    0.20
   9   3  19    0.31    0.19
  10  -3  19    2.44    0.84
  19 -10  -3    1.78    0.74
  11  -3  19    4.83    0.92
  19 -11   3    4.83    1.00
  19 -11  -3    4.64    0.79
  11   3  19    3.84    0.80
  19   0  -4    0.18    0.22
  19   0   4    0.31    0.23
  19   1  -4   -0.05    0.21
  19  -1   4   -0.10    0.21
  19   1   4   -0.14    0.22
  19  -1  -4   -0.23    0.20
   2  -4  19    0.53    0.18
  19   2  -4    0.37    0.24
  19  -2   4    0.54    0.24
  19   2   4    0.31    0.24
  19  -2  -4    0.51    0.22
  19   3  -4    4.34    0.91
  19  -3   4    5.40    0.95
   3  -4  19    5.26    0.69
  19   3   4    5.79    1.00
  19  -3  -4    4.40    0.84
  19  -4   4    0.11    0.22
   4  -4  19   -0.17    0.17
  19   4   4    0.09    0.24
  19  -4  -4   -0.30    0.18
   5  -4  19    6.34    0.79
  19  -5   4    8.00    1.00
  19  -5  -4    6.71    0.84
  19   5   4    5.08    1.02
  19  -6   4    5.11    0.95
   6  -4  19    4.71    0.81
  19  -6  -4    4.69    0.80
  19   6   4    4.09    1.00
   7  -4  19    6.19    0.82
  19  -7   4    6.43    0.99
  19   7   4    3.76    1.05
  19  -7  -4    5.73    0.81
  19  -8   4    0.36    0.25
   8  -4  19    0.23    0.20
   8   4  19    0.10    0.18
  19   8   4   -0.17    0.25
  19  -8  -4   -0.09    0.17
   9  -4  19    5.59    0.89
  19  -9   4    6.18    1.06
  19  -9  -4    4.80    0.77
   9   4  19    4.71    0.76
  19 -10   4    3.34    0.98
  10  -4  19    3.45    0.87
  19 -10  -4    2.98    0.75
  19   0   5   10.70    1.07
  19   0  -5   10.63    0.96
  19  -1   5    0.15    0.23
  19   1  -5    0.26    0.22
  19   1   5    0.23    0.24
  19  -1  -5    0.16    0.21
  19  -2   5    0.16    0.23
  19   2  -5   -0.24    0.21
  19   2   5   -0.10    0.23
  19  -2  -5   -0.14    0.20
  19  -3   5   13.25    1.13
   3  -5  19   13.18    0.85
  19   3   5   13.28    1.15
  19  -3  -5   12.99    0.96
  19  -4   5    5.70    0.95
   4  -5  19    6.32    0.76
  19  -4  -5    5.69    0.83
  19   4   5    6.89    1.03
   5  -5  19   17.15    0.99
  19  -5   5   17.84    1.21
  19  -5  -5   16.92    1.03
  19   5   5   17.11    1.24
  19  -6   5    0.07    0.24
   6  -5  19    1.81    0.75
  19   6   5    0.20    0.26
  19  -6  -5    0.47    0.20
  19  -7   5    0.18    0.24
   7  -5  19    0.29    0.20
  19  -7  -5   -0.10    0.17
  19   7   5   -0.22    0.25
   8  -5  19    8.97    0.93
  19  -8   5   10.69    1.09
  19  -8  -5    9.69    0.85
  19   8   5    8.53    1.10
  19  -9   5    3.45    1.00
  19  -9  -5    1.84    0.69
  19 -10   5    0.11    0.27
  10  -5  19    2.35    0.87
  10   5  19    0.09    0.20
  19 -10  -5    0.03    0.17
  19   0   6    0.19    0.23
  19   0  -6   -0.24    0.20
  19  -1   6    0.03    0.22
  19   1  -6   -0.48    0.20
  19  -1  -6   -0.44    0.18
  19   1   6   -0.02    0.24
  19  -2   6   -0.11    0.22
  19  -2  -6   -0.18    0.19
  19   2   6   -0.17    0.23
  19  -3   6    0.60    0.25
  19  -3  -6    0.19    0.21
  19   3   6    0.04    0.24
  19  -4   6    4.44    0.98
   4  -6  19    3.26    0.74
  19  -4  -6    3.64    0.77
  19   4   6    4.77    1.01
  19  -5   6    0.40    0.25
   5  -6  19    0.27    0.20
  19  -5  -6    0.21    0.19
  19   5   6    0.33    0.26
   6  -6  19    2.73    0.78
  19  -6   6    0.88    0.28
  19  -6  -6    2.14    0.72
  19   6   6    0.59    0.28
   7  -6  19    0.32    0.22
  19  -7   6    0.32    0.26
  19  -7  -6    0.08    0.18
  19   7   6   -0.11    0.26
  19  -8   6    8.62    1.09
   8  -6  19    8.55    0.94
  19   8   6    5.41    1.07
  19  -8  -6    7.15    0.79
   9  -6  19    0.18    0.22
  19  -9   6    0.40    0.27
  19  -9  -6   -0.09    0.16
  19   9   6   -0.37    0.25
  19   0  -7   20.44    1.12
  19   0   7   22.91    1.33
  19  -1   7   11.21    1.11
  19   1   7   12.52    1.14
  19  -1  -7   10.20    0.95
  19  -2   7    0.14    0.24
  19   2   7    0.06    0.24
  19  -2  -7   -0.09    0.20
  19  -3   7    3.89    0.98
  19   3   7    4.30    1.00
  19  -3  -7    2.00    0.77
  19  -4   7    5.82    1.02
  19   4   7    5.49    1.05
  19  -4  -7    4.53    0.80
   5  -7  19   -0.08    0.19
  19  -5   7   -0.09    0.23
  19  -5  -7   -0.35    0.16
  19   5   7   -0.20    0.24
  19  -6   7    0.23    0.26
   6  -7  19    0.01    0.20
  19   6   7   -0.17    0.25
  19  -6  -7   -0.08    0.18
   7  -7  19    8.12    0.93
  19  -7   7    8.41    1.07
  19  -7  -7    5.69    0.77
  19   7   7    5.44    1.08
  19  -8   7    7.98    1.08
   8  -7  19   10.07    0.98
  19   8   7    8.38    1.10
  19  -8  -7    7.57    0.81
   9  -7  19    4.86    0.88
  19  -9   7    5.74    1.05
  19   0   8    0.74    0.27
  19  -1   8    5.18    1.01
  19   1   8    6.05    1.02
  19  -2   8    0.53    0.26
  19  -2  -8    0.08    0.21
  19   2   8    0.12    0.25
  19  -3   8    0.12    0.25
  19  -3  -8   -0.49    0.18
  19   3   8    0.07    0.25
  19  -4   8    0.12    0.25
  19   4   8    0.01    0.25
  19  -4  -8   -0.28    0.18
   5  -8  19    9.35    0.87
  19  -5   8   10.42    1.12
  19   5   8    8.69    1.08
  19  -5  -8    6.86    0.82
   6  -8  19    6.81    0.88
  19  -6   8    7.26    1.06
  19   6   8    7.15    1.09
  19  -6  -8    6.50    0.80
  19  -7   8    9.90    1.11
   7  -8  19    9.00    0.92
  19  -7  -8    6.27    1.24
  19   7   8    8.58    1.12
  19  -8   8    0.45    0.28
   8  -8  19    2.29    0.87
  19   8   8   -0.08    0.26
  19   0   9    2.69    0.89
  19  -1   9    4.53    0.99
  19   1   9    3.76    0.98
  19  -2   9    0.60    0.26
  19   2   9    0.64    0.27
  19  -3   9    0.15    0.25
  19   3   9    0.26    0.26
  19  -4   9    5.62    1.03
  19   4   9    4.86    0.99
  19  -5   9    2.72    0.99
  19   5   9    0.58    0.28
  19  -5  -9    0.22    0.24
  19  -6   9    0.16    0.26
   6  -9  19   -0.30    0.20
  19   6   9   -0.48    0.24
  19  -7   9    5.18    1.06
   7  -9  19    3.04    0.88
  19   0  10    0.28    0.25
  19  -1  10   -0.31    0.23
  19   1  10    0.13    0.25
  19  -2  10    0.80    0.28
  19   2  10    0.51    0.27
  19  -3  10    0.43    0.27
  19   3  10    0.36    0.26
  19  -4  10    2.24    0.96
  19   4  10    0.86    0.29
  19  -5  10    0.31    0.27
  19   5  10    0.18    0.27
  19   0  11    2.32    0.99
  19   1  11    2.30    0.98
  19  -2  11    0.07    0.25
  11 -19  -2   -0.18    0.17
  19   2  11    0.12    0.26
  19  -3  11    4.19    1.04
  11 -19  -3    2.35    0.70
  19   3  11    2.35    0.99
  20   0   0    0.24    0.23
  20  -1   0   -0.01    0.23
  20   1   0   -0.02    0.23
  20   2   0   -0.17    0.23
  20  -2   0    0.09    0.22
  20   3   0   -0.36    0.24
  20  -3   0   -0.03    0.21
  20   4   0    3.45    0.99
  20  -4   0    4.20    0.88
  20   5   0   -0.15    0.24
   5   0  20    1.84    0.62
  20  -5   0   -0.11    0.20
  20  -6   0   11.48    1.03
  20   6   0   10.52    1.14
   6   0  20   13.22    0.85
  20  -7   0    2.54    0.84
   7   0  20    4.86    0.74
   8   0  20   23.86    1.12
  20  -8   0   23.49    1.25
   9   0  20    5.45    0.83
  20  -9   0    5.42    0.94
  20   0   1   -0.03    0.23
  20   0  -1    0.05    0.23
  20  -1   1    3.14    0.94
  20  -1  -1    2.97    0.91
  20   1   1    2.40    0.93
  20   2  -1    2.40    0.93
  20  -2   1    0.76    0.25
  20  -2  -1    2.41    0.86
  20   2   1    0.94    0.28
  20  -3   1    4.36    0.92
   3  -1  20    5.78    0.70
  20   3  -1    3.11    0.97
  20  -3  -1    3.94    0.90
  20   3   1    2.74    0.98
  20   4  -1    4.54    1.00
  20  -4   1    4.33    0.90
   4  -1  20    6.63    0.69
  20  -4  -1    4.58    0.92
  20   4   1    4.60    1.01
   5  -1  20    1.60    0.63
  20  -5   1   -0.01    0.22
  20   5  -1   -0.51    0.24
  20  -5  -1   -0.01    0.20
  20   5   1   -0.31    0.25
   6  -1  20    5.21    0.74
  20  -6   1    4.26    0.90
  20  -6  -1    4.05    0.88
  20   6   1    2.85    1.00
   6   1  20    4.22    0.86
  20  -7   1    0.13    0.22
   7  -1  20    1.95    0.70
  20  -7  -1   -0.05    0.20
  20   7   1   -0.31    0.25
   7   1  20    0.20    0.17
  20  -8   1    5.76    0.93
   8  -1  20    6.00    0.80
  20  -8  -1    5.48    0.92
   8   1  20    5.86    0.82
  20  -9   1    3.58    0.94
   9  -1  20    3.78    0.85
  20  -9  -1    3.28    0.84
   9   1  20    3.06    0.78
  20   0   2   -0.09    0.23
  20   0  -2   -0.25    0.21
  20   1  -2    0.85    0.26
  20  -1   2    2.72    0.93
  20   1   2    0.86    0.27
  20  -1  -2    0.79    0.25
  20   2  -2   -0.02    0.24
  20  -2   2    0.24    0.23
   2  -2  20    1.40    0.56
  20   2   2    0.01    0.24
  20  -2  -2    0.13    0.22
  20  -3   2    0.22    0.23
  20   3  -2    0.35    0.25
   3  -2  20    2.07    0.62
  20   3   2    0.25    0.26
  20  -3  -2    0.49    0.23
  20  -4   2    3.02    0.90
   4  -2  20    3.48    0.65
  20  -4  -2    2.15    0.86
   5  -2  20    2.17    0.65
  20   5  -2   -0.03    0.25
  20  -5   2    0.33    0.24
  20   5   2    0.40    0.27
  20  -5  -2    0.49    0.22
  20  -6   2    0.01    0.21
   6  -2  20    0.13    0.17
  20  -6  -2   -0.11    0.19
  20   6   2   -0.28    0.26
   7  -2  20    2.27    0.75
  20  -7   2    0.38    0.23
  20   7   2    0.33    0.28
  20  -7  -2    0.51    0.22
  20  -8   2    0.34    0.23
   8  -2  20    0.21    0.20
   8   2  20    0.08    0.18
  20  -8  -2   -0.05    0.20
  20  -9   2    0.25    0.25
   9   2  20    0.10    0.19
  20  -9  -2    0.30    0.21
  20   0   3    0.09    0.24
  20   0  -3   -0.09    0.22
   0  -3  20    0.04    0.18
  20   1  -3    3.99    0.95
  20  -1   3    4.44    0.99
   1  -3  20    5.03    0.63
  20   1   3    4.62    0.97
  20  -1  -3    3.86    0.88
  20  -2   3    0.31    0.24
   2  -3  20    0.34    0.17
  20   2  -3    0.15    0.23
  20  -2  -3    0.30    0.22
  20   2   3    0.24    0.25
  20  -3   3   -0.07    0.23
   3  -3  20    0.16    0.16
  20   3  -3   -0.28    0.24
  20  -3  -3   -0.23    0.20
  20   3   3   -0.16    0.24
   4  -3  20    4.53    0.71
  20   4  -3    2.74    0.94
  20  -4   3    2.43    0.92
  20  -4  -3    2.89    0.83
  20   4   3    2.74    0.99
  20  -5   3    0.09    0.23
   5  -3  20    0.39    0.18
  20  -5  -3   -0.13    0.20
  20   5   3   -0.23    0.26
  20  -6   3    4.27    0.96
   6  -3  20    5.10    0.77
  20   6   3    2.85    1.01
  20  -6  -3    4.07    0.84
   7  -3  20    2.85    0.76
  20  -7   3    3.18    0.92
  20  -7  -3    2.13    0.80
   8  -3  20    4.32    0.81
  20  -8   3    4.27    0.96
  20  -8  -3    3.07    0.80
   9  -3  20    0.39    0.22
  20  -9   3    0.34    0.26
  20  -9  -3    0.13    0.19
   9   3  20   -0.10    0.22
  20   0   4    4.82    1.02
  20   0  -4    4.34    0.92
   1  -4  20    4.38    0.64
  20  -1   4    3.44    0.99
  20   1  -4    3.47    0.90
  20  -1  -4    4.46    0.92
  20   1   4    3.80    1.01
   2  -4  20    3.20    0.64
  20   2   4    2.97    0.99
  20  -2  -4    2.16    0.82
  20   3  -4    2.08    0.89
   3  -4  20    2.98    0.68
  20  -3   4    2.43    0.94
  20   3   4    2.31    1.00
  20  -3  -4    2.33    0.84
  20  -4   4   26.78    1.39
   4  -4  20   25.34    1.11
  20   4   4   26.20    1.44
  20  -4  -4   26.02    1.26
  20  -5   4    2.91    0.95
   5  -4  20    3.58    0.73
  20  -5  -4    2.60    0.83
   6  -4  20   18.61    1.04
  20  -6   4   17.77    1.23
  20   6   4   16.96    1.32
  20  -6  -4   18.02    1.09
  20  -7   4    2.20    0.94
   7  -4  20    3.27    0.77
  20  -7  -4    2.30    0.79
  20  -8   4    2.32    0.98
   8  -4  20    0.61    0.22
  20  -8  -4    0.24    0.19
  20   8   4    0.17    0.27
  20   0  -5   -0.39    0.21
  20   0   5   -0.05    0.23
  20  -1   5   -0.23    0.24
  20   1  -5   -0.23    0.22
  20  -1  -5   -0.04    0.21
  20   1   5   -0.19    0.24
  20  -2   5    0.36    0.25
  20   2  -5    0.25    0.24
   2  -5  20   -0.13    0.17
  20  -2  -5    0.13    0.22
  20   2   5    0.02    0.25
   3  -5  20    0.13    0.18
  20  -3   5    0.14    0.25
  20  -3  -5   -0.05    0.20
  20   3   5    0.00    0.25
   4  -5  20    2.28    0.74
  20  -4   5    4.08    0.97
  20   4   5    2.52    0.99
   5  -5  20    4.93    0.82
  20  -5   5    5.52    1.04
  20  -5  -5    4.00    0.84
  20   5   5    3.75    1.04
  20  -6   5    2.39    0.96
   6  -5  20    2.52    0.76
   7  -5  20    3.64    0.84
  20  -7   5    3.29    0.98
   8  -5  20    0.53    0.23
  20  -8   5    2.58    0.96
  20  -8  -5    0.39    0.20
  20   8   5    0.00    0.27
  20   0   6    9.47    1.10
  20   0  -6    9.74    0.99
  20  -1   6    3.19    0.97
  20   1   6    3.05    0.99
  20  -2   6    0.09    0.24
  20   2   6   -0.05    0.24
  20  -2  -6   -0.03    0.21
   3  -6  20    2.65    0.74
  20  -3   6    4.64    1.01
  20   3   6    2.54    1.02
  20  -3  -6    2.87    0.83
  20  -4   6   18.81    1.28
   4  -6  20   18.42    1.02
  20  -4  -6   17.55    1.08
  20   4   6   17.87    1.28
   5  -6  20    0.37    0.20
  20  -5   6    0.29    0.25
  20   5   6    0.00    0.26
  20  -5  -6    0.25    0.21
  20  -6   6    0.14    0.25
   6  -6  20    0.19    0.20
  20   6   6   -0.29    0.26
  20  -6  -6   -0.01    0.20
  20  -7   6    5.82    1.06
   7  -6  20    5.53    0.87
  20   7   6    3.55    1.08
  20  -7  -6    4.04    0.80
  20   0  -7    0.52    0.24
  20   0   7    0.62    0.27
  20  -1   7   -0.23    0.23
  20  -1  -7   -0.48    0.21
  20   1   7   -0.01    0.24
  20  -2   7    2.82    0.96
  20   2   7    0.50    0.28
  20  -3   7    2.42    0.92
  20  -3  -7    0.62    0.23
  20   3   7    0.89    0.29
  20  -4   7    2.77    1.00
   4  -7  20    0.59    0.21
  20   4   7    0.52    0.27
  20  -4  -7    0.42    0.22
   5  -7  20    1.97    0.76
  20  -5   7    0.68    0.29
  20  -5  -7    0.39    0.21
  20   5   7    0.54    0.29
   6  -7  20    4.63    0.86
  20  -6   7    5.85    1.05
  20   6   7    2.76    1.05
  20  -6  -7    4.12    0.79
  20   0   8   22.47    1.40
  20  -1   8    4.37    1.02
  20   1   8    4.55    1.05
  20  -2   8    0.13    0.26
  20   2   8   -0.15    0.26
  20  -3   8    2.89    1.00
  20  -3  -8    0.61    0.24
  20   3   8    0.86    0.30
  20  -4   8    0.22    0.26
  20   4   8   -0.06    0.26
  20  -4  -8   -0.13    0.20
  20  -5   8    0.42    0.27
   5  -8  20    0.24    0.22
  20  -5  -8    0.11    0.20
  20   5   8    0.14    0.27
  20   0   9    5.47    1.04
  20  -1   9    2.61    0.99
  20   1   9    2.69    0.96
  20  -2   9   -0.02    0.25
  20   2   9   -0.21    0.25
  20  -3   9   -0.02    0.25
  20   3   9   -0.39    0.24
  21   0   0    3.44    0.98
  21  -1   0    0.08    0.23
  21   1   0    0.14    0.25
  21   2   0    2.89    1.02
  21  -2   0    4.58    0.97
  21   3   0    7.81    1.12
  21  -3   0    9.04    1.06
  21   4   0   -0.14    0.26
  21  -4   0    0.30    0.24
  21  -5   0    5.30    0.94
  21   5   0    3.75    1.05
  21   6   0   -0.12    0.27
  21  -6   0    0.09    0.23
  21  -7   0    5.83    0.95
  21   0   1    0.04    0.24
  21   0  -1    0.06    0.24
  21   1  -1    0.18    0.25
  21  -1   1    0.55    0.26
  21  -1  -1    0.26    0.25
  21   1   1    0.18    0.26
  21   2  -1   -0.12    0.25
  21  -2   1   -0.06    0.23
  21   2   1   -0.29    0.24
  21  -2  -1    0.10    0.23
  21   3  -1   -0.29    0.25
  21  -3   1   -0.01    0.23
  21   3   1   -0.29    0.25
  21  -3  -1    0.00    0.23
  21  -4   1    0.07    0.23
  21   4  -1   -0.27    0.26
  21   4   1   -0.25    0.26
  21  -4  -1    0.06    0.22
  21  -5   1    4.69    0.91
  21  -5  -1    2.96    0.92
   6  -1  21    3.20    0.79
  21  -6   1    0.36    0.24
  21  -6  -1    0.17    0.23
   7  -1  21   12.24    0.89
  21  -7   1   11.75    1.09
  21  -7  -1    9.89    1.02
  21   7   1    7.87    1.17
  21   0  -2    4.70    1.01
  21   0   2    4.63    1.04
  21  -1   2   -0.20    0.24
  21   1  -2   -0.40    0.23
  21  -1  -2   -0.10    0.23
  21   1   2    0.02    0.25
  21   2  -2   -0.36    0.24
  21  -2   2   -0.02    0.24
  21  -2  -2   -0.09    0.22
  21   2   2   -0.34    0.23
  21  -3   2   -0.15    0.23
  21   3  -2   -0.25    0.25
  21   3   2   -0.15    0.26
  21  -3  -2   -0.38    0.20
  21   4  -2   -0.44    0.24
  21  -4   2   -0.19    0.22
  21   4   2   -0.35    0.26
  21  -4  -2   -0.02    0.22
  21  -5   2    0.15    0.23
  21   5  -2    0.05    0.27
  21   5   2   -0.31    0.26
  21  -5  -2    0.03    0.22
   6  -2  21    2.70    0.74
  21  -6   2    0.03    0.23
  21  -6  -2   -0.15    0.21
  21   6   2   -0.26    0.26
  21   0  -3    9.03    1.05
  21   0   3   10.02    1.14
  21   1  -3   -0.13    0.24
  21  -1   3   -0.07    0.25
  21  -1  -3   -0.14    0.23
  21   1   3   -0.03    0.25
  21   2  -3   -0.35    0.24
  21  -2   3   -0.11    0.24
  21   2   3   -0.23    0.25
  21  -2  -3   -0.23    0.21
  21  -3   3    3.77    0.99
  21   3   3    2.72    1.01
  21  -3  -3    2.30    0.89
  21  -4   3    3.87    0.97
   4  -3  21    4.24    0.72
  21  -4  -3    2.31    0.86
   5  -3  21   11.70    0.86
  21  -5   3   10.84    1.12
  21   5   3    9.98    1.20
  21  -5  -3   10.30    1.03
   6  -3  21    2.45    0.74
  21  -6   3    0.02    0.23
  21  -6  -3   -0.11    0.20
  21   6   3   -0.13    0.27
  21   0  -4   -0.04    0.24
  21   0   4   -0.14    0.26
  21   1  -4   -0.52    0.22
  21  -1   4   -0.26    0.24
  21   1   4   -0.22    0.25
  21  -1  -4   -0.08    0.22
   2  -4  21    0.13    0.17
  21   2  -4   -0.44    0.23
  21  -2   4   -0.19    0.24
  21   2   4   -0.02    0.26
  21  -2  -4   -0.01    0.23
   3  -4  21    4.38    0.74
  21  -3   4    3.03    0.97
  21   3   4    2.42    0.99
  21  -3  -4    3.41    0.88
   4  -4  21    0.32    0.18
  21  -4   4    0.14    0.25
  21   4   4    0.09    0.27
  21  -4  -4   -0.12    0.21
  21  -5   4    4.08    1.01
   5  -4  21    5.03    0.78
  21   5   4    2.87    1.07
  21  -5  -4    2.50    0.87
  21  -6   4    0.34    0.26
   6  -4  21    2.41    0.74
  21  -6  -4    0.27    0.22
  21   6   4   -0.27    0.27
  21   0  -5    3.48    0.94
  21   0   5    4.15    1.03
  21   1  -5    1.08    0.29
  21  -1   5    3.12    1.04
   1  -5  21    1.88    0.65
  21  -1  -5    2.10    0.90
  21   1   5    3.22    1.00
  21   2  -5   -0.43    0.23
  21  -2   5    0.01    0.26
   2  -5  21   -0.12    0.17
  21   2   5   -0.04    0.26
  21  -2  -5   -0.14    0.22
  21  -3   5    9.76    1.11
   3  -5  21   10.88    0.84
  21   3   5    8.91    1.16
  21  -3  -5    8.75    1.00
  21  -4   5    4.82    1.03
   4  -5  21    4.27    0.77
  21  -4  -5    3.07    0.86
   5  -5  21   10.74    0.89
  21  -5   5   10.09    1.12
  21   5   5    9.28    1.22
  21  -5  -5    9.58    0.97
  21   0   6    0.06    0.27
  21   0  -6   -0.41    0.23
  21   1  -6   -0.33    0.23
  21  -1   6    0.12    0.26
  21  -1  -6   -0.16    0.23
  21   1   6    0.32    0.28
  21  -2   6   -0.11    0.25
   2  -6  21   -0.08    0.18
  21  -2  -6   -0.22    0.21
  21   2   6   -0.17    0.26
   3  -6  21   -0.28    0.18
  21  -3   6    0.06    0.25
  21   3   6   -0.22    0.26
  21  -3  -6   -0.19    0.22
  21  -4   6    0.25    0.26
   4  -6  21    0.06    0.19
  21  -4  -6   -0.09    0.21
  21   4   6    0.23    0.28
  21   0   7    4.93    1.09
  21  -1  -7    6.78    0.99
  21   1   7    8.35    1.16
  22   0   0   31.82    1.54
  22   1   0    0.43    0.29
  22  -1   0    0.59    0.28
  22  -2   0    3.91    0.99
  22  -3   0    0.14    0.25
  22   3   0   -0.18    0.27
  22   0   1    0.40    0.28
  22   0  -1    0.74    0.28
  22   1  -1    0.17    0.28
  22  -1   1    0.53    0.27
  22  -1  -1    0.30    0.26
  22   1   1    0.79    0.29
  22  -2   1    0.51    0.27
  22   2  -1    0.00    0.27
  22   2   1    0.19    0.28
  22  -2  -1    0.60    0.26
  22   0   2    2.75    1.03
  22   1  -2    0.43    0.29
  22  -1   2    0.24    0.27
  22   1   2    0.48    0.28
  22  -1  -2    0.44    0.27
  22   2  -2    0.31    0.28
  22  -2   2    0.61    0.28
  22  -2  -2    0.23    0.25
  22   2   2    0.39    0.28
  22   0   3   -0.11    0.25
  22   0  -3   -0.01    0.26
   0   0   0    0.00    0.00
;
_shelx_hkl_checksum              89824
_shelx_fab_checksum              67721
_shelx_fab_file
;
    0    1    1     70.92      0.00
    1    1    1    -70.35      0.00
    0    0    2     95.91      0.00
    0    1    2     -9.49      0.00
    1    1    2    -15.33      0.00
    0    2    2     -9.57      0.00
    1    2    2     61.30      0.00
    2    2    2    -44.62      0.00
    0    0    3    -45.35      0.00
    0    1    3     20.60      0.00
    1    1    3     -0.44      0.00
    0    2    3     -5.22      0.00
    1    2    3    -20.45      0.00
    2    2    3     23.05      0.00
    0    3    3     10.49      0.00
    1    3    3      3.35      0.00
    2    3    3    -16.37      0.00
    3    3    3    -10.95      0.00
    0    0    4     75.44      0.00
    0    1    4    -31.18      0.00
    1    1    4     19.61      0.00
    0    2    4     14.89      0.00
    1    2    4      2.37      0.00
    2    2    4    -12.33      0.00
    0    3    4    -12.69      0.00
    1    3    4     13.34      0.00
    2    3    4     -7.85      0.00
    3    3    4     17.57      0.00
    0    4    4     29.31      0.00
    1    4    4     -7.94      0.00
    2    4    4      1.91      0.00
    3    4    4    -14.39      0.00
    4    4    4     -0.41      0.00
    0    0    5    -34.10      0.00
    0    1    5     31.47      0.00
    1    1    5    -19.57      0.00
    0    2    5    -14.53      0.00
    1    2    5      0.98      0.00
    2    2    5      0.87      0.00
    0    3    5     23.86      0.00
    1    3    5    -11.06      0.00
    2    3    5      5.76      0.00
    3    3    5    -14.46      0.00
    0    4    5     -5.00      0.00
    1    4    5      7.48      0.00
    2    4    5     -4.95      0.00
    3    4    5     10.64      0.00
    4    4    5     -2.05      0.00
    0    5    5      9.96      0.00
    1    5    5     -0.57      0.00
    2    5    5     -4.29      0.00
    3    5    5     -4.92      0.00
    4    5    5     -4.95      0.00
    5    5    5     13.04      0.00
    0    0    6     35.74      0.00
    0    1    6    -15.09      0.00
    1    1    6     -2.26      0.00
    0    2    6      9.63      0.00
    1    2    6      2.08      0.00
    2    2    6      1.99      0.00
    0    3    6    -16.01      0.00
    1    3    6      3.21      0.00
    2    3    6    -12.54      0.00
    3    3    6     14.46      0.00
    0    4    6     14.89      0.00
    1    4    6     -5.04      0.00
    2    4    6      6.78      0.00
    3    4    6    -12.42      0.00
    4    4    6      5.87      0.00
    0    5    6     -4.03      0.00
    1    5    6     -3.12      0.00
    2    5    6     -3.93      0.00
    3    5    6      3.29      0.00
    4    5    6     -0.44      0.00
    5    5    6     -6.95      0.00
    0    6    6     11.52      0.00
    1    6    6      2.97      0.00
    2    6    6      3.88      0.00
    3    6    6     -7.57      0.00
    4    6    6      3.53      0.00
    5    6    6      4.27      0.00
    6    6    6     -2.17      0.00
    0    0    7     -2.05      0.00
    0    1    7     -5.57      0.00
    1    1    7      5.65      0.00
    0    2    7      6.91      0.00
    1    2    7    -13.15      0.00
    2    2    7     12.34      0.00
    0    3    7      1.09      0.00
    1    3    7     -5.86      0.00
    2    3    7     -2.08      0.00
    3    3    7    -18.35      0.00
    0    4    7     -0.63      0.00
    1    4    7      1.32      0.00
    2    4    7      1.44      0.00
    3    4    7     11.71      0.00
    4    4    7     -3.36      0.00
    0    5    7      2.58      0.00
    1    5    7      2.54      0.00
    2    5    7     -2.74      0.00
    3    5    7     -5.89      0.00
    4    5    7      0.89      0.00
    5    5    7      4.24      0.00
    0    6    7      3.28      0.00
    1    6    7      1.78      0.00
    2    6    7      2.41      0.00
    3    6    7      8.63      0.00
    4    6    7     -2.56      0.00
    5    6    7     -1.33      0.00
    6    6    7     -2.48      0.00
    0    7    7      5.27      0.00
    1    7    7     -3.76      0.00
    2    7    7     -1.17      0.00
    3    7    7     -9.89      0.00
    4    7    7      5.35      0.00
    5    7    7     -3.46      0.00
    6    7    7     -0.34      0.00
    7    7    7     -3.35      0.00
    0    0    8     18.76      0.00
    0    1    8     -1.14      0.00
    1    1    8     -8.38      0.00
    0    2    8     -0.83      0.00
    1    2    8      9.40      0.00
    2    2    8     -5.85      0.00
    0    3    8     -6.43      0.00
    1    3    8     -0.02      0.00
    2    3    8     -1.54      0.00
    3    3    8      9.68      0.00
    0    4    8      9.00      0.00
    1    4    8     -0.87      0.00
    2    4    8      3.34      0.00
    3    4    8     -6.94      0.00
    4    4    8      5.94      0.00
    0    5    8     -1.37      0.00
    1    5    8     -4.62      0.00
    2    5    8      2.66      0.00
    3    5    8      2.23      0.00
    4    5    8     -2.62      0.00
    5    5    8     -3.04      0.00
    0    6    8     10.94      0.00
    1    6    8      2.87      0.00
    2    6    8      1.80      0.00
    3    6    8     -5.05      0.00
    4    6    8      3.94      0.00
    5    6    8     -1.18      0.00
    6    6    8      0.53      0.00
    0    7    8     -2.18      0.00
    1    7    8      1.35      0.00
    2    7    8      2.50      0.00
    3    7    8      6.56      0.00
    4    7    8     -3.97      0.00
    5    7    8      1.31      0.00
    6    7    8     -2.20      0.00
    7    7    8      0.34      0.00
    0    8    8     18.25      0.00
    1    8    8      1.66      0.00
    2    8    8      7.60      0.00
    3    8    8     -3.38      0.00
    4    8    8      9.40      0.00
    5    8    8     -3.24      0.00
    6    8    8      3.09      0.00
    7    8    8     -1.71      0.00
    8    8    8      2.55      0.00
    0    0    9    -22.43      0.00
    0    1    9     15.26      0.00
    1    1    9    -13.38      0.00
    0    2    9    -12.97      0.00
    1    2    9      0.11      0.00
    2    2    9     -1.52      0.00
    0    3    9     17.76      0.00
    1    3    9     -9.47      0.00
    2    3    9      8.04      0.00
    3    3    9    -12.88      0.00
    0    4    9    -13.49      0.00
    1    4    9      6.29      0.00
    2    4    9     -4.23      0.00
    3    4    9     10.84      0.00
    4    4    9     -8.29      0.00
    0    5    9     11.69      0.00
    1    5    9     -1.48      0.00
    2    5    9      0.45      0.00
    3    5    9     -5.14      0.00
    4    5    9      2.50      0.00
    5    5    9     -0.45      0.00
    0    6    9     -2.81      0.00
    1    6    9      5.08      0.00
    2    6    9      3.99      0.00
    3    6    9      5.30      0.00
    4    6    9     -2.91      0.00
    5    6    9     -0.61      0.00
    6    6    9      0.32      0.00
    0    7    9     10.29      0.00
    1    7    9     -0.81      0.00
    2    7    9      1.70      0.00
    3    7    9     -4.25      0.00
    4    7    9      4.48      0.00
    5    7    9     -4.94      0.00
    6    7    9      1.69      0.00
    7    7    9     -0.63      0.00
    0    8    9     -7.05      0.00
    1    8    9      5.95      0.00
    2    8    9      2.44      0.00
    3    8    9      4.70      0.00
    4    8    9     -6.35      0.00
    5    8    9      2.13      0.00
    6    8    9     -3.70      0.00
    7    8    9     -0.68      0.00
    8    8    9     -0.90      0.00
    0    9    9     14.54      0.00
    1    9    9     -7.24      0.00
    2    9    9      2.33      0.00
    3    9    9     -9.28      0.00
    4    9    9      5.48      0.00
    5    9    9     -5.73      0.00
    6    9    9      4.06      0.00
    7    9    9     -4.26      0.00
    8    9    9      3.35      0.00
    9    9    9     -5.56      0.00
    0    0   10     19.79      0.00
    0    1   10    -17.36      0.00
    1    1   10     -0.95      0.00
    0    2   10      3.26      0.00
    1    2   10     -4.08      0.00
    2    2   10     -5.90      0.00
    0    3   10    -11.21      0.00
    1    3   10      6.99      0.00
    2    3   10     -4.62      0.00
    3    3   10      7.64      0.00
    0    4   10     10.77      0.00
    1    4   10     -6.09      0.00
    2    4   10      1.14      0.00
    3    4   10     -8.37      0.00
    4    4   10      3.78      0.00
    0    5   10     -5.59      0.00
    1    5   10      1.47      0.00
    2    5   10      1.49      0.00
    3    5   10      0.64      0.00
    4    5   10     -3.13      0.00
    5    5   10     -2.60      0.00
    0    6   10      4.61      0.00
    1    6   10      1.35      0.00
    2    6   10     -4.87      0.00
    3    6   10     -2.00      0.00
    4    6   10      1.32      0.00
    5    6   10     -0.90      0.00
    6    6   10     -1.40      0.00
    0    7   10     -3.72      0.00
    1    7   10     -0.91      0.00
    2    7   10      5.61      0.00
    3    7   10      0.45      0.00
    4    7   10      0.01      0.00
    5    7   10     -3.52      0.00
    6    7   10      1.35      0.00
    7    7   10     -2.61      0.00
    0    8   10      9.76      0.00
    1    8   10      2.80      0.00
    2    8   10     -0.77      0.00
    3    8   10     -0.47      0.00
    4    8   10      2.77      0.00
    5    8   10     -4.19      0.00
    6    8   10      0.36      0.00
    7    8   10     -1.09      0.00
    8    8   10     -0.02      0.00
    0    9   10     -3.76      0.00
    1    9   10      3.70      0.00
    2    9   10      2.72      0.00
    3    9   10      2.67      0.00
    4    9   10     -3.12      0.00
    5    9   10      4.41      0.00
    6    9   10     -2.06      0.00
    7    9   10     -0.70      0.00
    8    9   10     -2.60      0.00
    9    9   10      4.66      0.00
    0   10   10     11.54      0.00
    1   10   10      3.60      0.00
    2   10   10     -1.38      0.00
    3   10   10      0.98      0.00
    4   10   10      3.13      0.00
    5   10   10     -2.90      0.00
    6   10   10      0.37      0.00
    7   10   10     -1.84      0.00
    8   10   10      1.11      0.00
    9   10   10     -4.16      0.00
   10   10   10      4.14      0.00
    0    0   11     -7.61      0.00
    0    1   11     -0.94      0.00
    1    1   11      6.30      0.00
    0    2   11      2.42      0.00
    1    2   11     -7.56      0.00
    2    2   11     11.44      0.00
    0    3   11      2.17      0.00
    1    3   11      3.79      0.00
    2    3   11     -3.91      0.00
    3    3   11     -3.01      0.00
    0    4   11     -6.38      0.00
    1    4   11      0.14      0.00
    2    4   11      3.93      0.00
    3    4   11      2.15      0.00
    4    4   11     -4.88      0.00
    0    5   11      4.42      0.00
    1    5   11      4.61      0.00
    2    5   11     -3.88      0.00
    3    5   11      0.21      0.00
    4    5   11      0.35      0.00
    5    5   11      0.70      0.00
    0    6   11     -2.50      0.00
    1    6   11      0.59      0.00
    2    6   11      7.18      0.00
    3    6   11     -1.19      0.00
    4    6   11      1.57      0.00
    5    6   11     -1.30      0.00
    6    6   11      2.80      0.00
    0    7   11      1.26      0.00
    1    7   11      6.41      0.00
    2    7   11     -8.21      0.00
    3    7   11      2.99      0.00
    4    7   11     -0.59      0.00
    5    7   11      0.73      0.00
    6    7   11     -3.00      0.00
    7    7   11      3.36      0.00
    0    8   11     -0.83      0.00
    1    8   11     -2.04      0.00
    2    8   11      6.06      0.00
    3    8   11     -1.51      0.00
    4    8   11     -0.85      0.00
    5    8   11     -0.91      0.00
    6    8   11      1.17      0.00
    7    8   11     -4.68      0.00
    8    8   11      2.12      0.00
    0    9   11      4.25      0.00
    1    9   11     -2.38      0.00
    2    9   11     -5.64      0.00
    3    9   11     -1.27      0.00
    4    9   11      0.22      0.00
    5    9   11     -1.35      0.00
    6    9   11      1.04      0.00
    7    9   11      1.75      0.00
    8    9   11     -1.25      0.00
    9    9   11      0.86      0.00
    0   10   11      1.36      0.00
    1   10   11     -3.96      0.00
    2   10   11      6.81      0.00
    3   10   11     -1.36      0.00
    4   10   11     -0.37      0.00
    5   10   11     -2.50      0.00
    6   10   11     -1.80      0.00
    7   10   11     -2.58      0.00
    8   10   11      0.52      0.00
    9   10   11      3.30      0.00
   10   10   11     -3.44      0.00
    0   11   11      0.03      0.00
    1   11   11      5.06      0.00
    2   11   11     -9.27      0.00
    3   11   11      4.56      0.00
    4   11   11     -4.31      0.00
    5   11   11     -1.58      0.00
    6   11   11     -5.29      0.00
    7   11   11      0.93      0.00
    8   11   11     -4.52      0.00
    9   11   11      1.22      0.00
   10   11   11     -1.18      0.00
   11   11   11      2.66      0.00
    0    0   12      6.13      0.00
    0    1   12     -4.74      0.00
    1    1   12     -4.69      0.00
    0    2   12     -3.27      0.00
    1    2   12      7.28      0.00
    2    2   12     -8.28      0.00
    0    3   12     -6.92      0.00
    1    3   12      0.26      0.00
    2    3   12      2.62      0.00
    3    3   12      3.15      0.00
    0    4   12      4.92      0.00
    1    4   12     -2.28      0.00
    2    4   12     -0.34      0.00
    3    4   12     -3.82      0.00
    4    4   12      3.86      0.00
    0    5   12     -8.81      0.00
    1    5   12      2.21      0.00
    2    5   12      1.42      0.00
    3    5   12      3.00      0.00
    4    5   12     -8.00      0.00
    5    5   12      5.70      0.00
    0    6   12      7.25      0.00
    1    6   12      0.56      0.00
    2    6   12     -0.85      0.00
    3    6   12     -2.08      0.00
    4    6   12      3.27      0.00
    5    6   12     -2.48      0.00
    6    6   12      2.18      0.00
    0    7   12     -5.98      0.00
    1    7   12     -0.96      0.00
    2    7   12      1.48      0.00
    3    7   12     -2.73      0.00
    4    7   12     -3.29      0.00
    5    7   12      2.45      0.00
    6    7   12      0.02      0.00
    7    7   12     -2.08      0.00
    0    8   12      8.75      0.00
    1    8   12     -0.97      0.00
    2    8   12     -1.79      0.00
    3    8   12     -1.13      0.00
    4    8   12      1.92      0.00
    5    8   12     -3.24      0.00
    6    8   12      1.94      0.00
    7    8   12      1.79      0.00
    8    8   12     -2.30      0.00
    0    9   12     -6.73      0.00
    1    9   12      3.12      0.00
    2    9   12      2.14      0.00
    3    9   12      3.44      0.00
    4    9   12     -5.17      0.00
    5    9   12      5.40      0.00
    6    9   12      0.68      0.00
    7    9   12      0.01      0.00
    8    9   12      1.38      0.00
    9    9   12      0.42      0.00
    0   10   12      9.87      0.00
    1   10   12      2.90      0.00
    2   10   12      1.15      0.00
    3   10   12      1.38      0.00
    4   10   12      1.79      0.00
    5   10   12     -2.79      0.00
    6   10   12      1.67      0.00
    7   10   12      3.36      0.00
    8   10   12     -0.24      0.00
    9   10   12      0.81      0.00
   10   10   12      0.28      0.00
    0   11   12      1.50      0.00
    1   11   12     -2.49      0.00
    2   11   12      6.51      0.00
    3   11   12     -1.51      0.00
    4   11   12      0.36      0.00
    5   11   12     -1.37      0.00
    6   11   12      0.28      0.00
    7   11   12     -3.33      0.00
    8   11   12      2.78      0.00
    9   11   12     -2.68      0.00
   10   11   12     -1.75      0.00
   11   11   12     -1.95      0.00
    0   12   12      3.96      0.00
    1   12   12      2.69      0.00
    2   12   12     -5.73      0.00
    3   12   12     -0.63      0.00
    4   12   12     -3.23      0.00
    5   12   12     -1.70      0.00
    6   12   12     -5.09      0.00
    7   12   12      2.65      0.00
    8   12   12     -2.46      0.00
    9   12   12      3.17      0.00
   10   12   12     -3.73      0.00
   11   12   12      2.49      0.00
   12   12   12     -9.53      0.00
    0    0   13    -11.33      0.00
    0    1   13     10.58      0.00
    1    1   13     -4.33      0.00
    0    2   13     -4.58      0.00
    1    2   13      2.07      0.00
    2    2   13      2.97      0.00
    0    3   13     11.25      0.00
    1    3   13     -2.92      0.00
    2    3   13      1.93      0.00
    3    3   13     -4.57      0.00
    0    4   13    -11.81      0.00
    1    4   13      4.72      0.00
    2    4   13     -3.79      0.00
    3    4   13      7.06      0.00
    4    4   13    -11.80      0.00
    0    5   13      9.32      0.00
    1    5   13     -7.72      0.00
    2    5   13      0.16      0.00
    3    5   13     -6.55      0.00
    4    5   13      6.04      0.00
    5    5   13     -7.68      0.00
    0    6   13     -6.79      0.00
    1    6   13      6.12      0.00
    2    6   13      2.37      0.00
    3    6   13      2.94      0.00
    4    6   13     -4.54      0.00
    5    6   13      7.72      0.00
    6    6   13     -3.03      0.00
    0    7   13      7.81      0.00
    1    7   13     -1.71      0.00
    2    7   13     -1.76      0.00
    3    7   13     -1.54      0.00
    4    7   13      4.68      0.00
    5    7   13     -3.16      0.00
    6    7   13      1.19      0.00
    7    7   13     -1.64      0.00
    0    8   13     -6.24      0.00
    1    8   13      3.17      0.00
    2    8   13      2.15      0.00
    3    8   13      4.41      0.00
    4    8   13     -5.82      0.00
    5    8   13      5.17      0.00
    6    8   13     -5.98      0.00
    7    8   13     -1.04      0.00
    8    8   13     -1.11      0.00
    0    9   13      8.92      0.00
    1    9   13     -7.79      0.00
    2    9   13      2.73      0.00
    3    9   13     -5.57      0.00
    4    9   13      5.09      0.00
    5    9   13     -7.29      0.00
    6    9   13      2.52      0.00
    7    9   13     -2.55      0.00
    8    9   13      1.93      0.00
    9    9   13      0.81      0.00
    0   10   13     -8.04      0.00
    1   10   13      1.70      0.00
    2   10   13     -0.83      0.00
    3   10   13      0.71      0.00
    4   10   13     -8.45      0.00
    5   10   13      1.50      0.00
    6   10   13     -6.28      0.00
    7   10   13      1.68      0.00
    8   10   13     -1.67      0.00
    9   10   13      6.21      0.00
   10   10   13     -5.76      0.00
    0   11   13      3.11      0.00
    1   11   13      0.21      0.00
    2   11   13     -3.68      0.00
    3   11   13     -1.39      0.00
    4   11   13      2.00      0.00
    5   11   13     -2.11      0.00
    6   11   13      0.67      0.00
    7   11   13     -0.96      0.00
    8   11   13     -0.46      0.00
    9   11   13     -3.87      0.00
   10   11   13     -1.71      0.00
   11   11   13     -3.06      0.00
    0   12   13     -4.77      0.00
    1   12   13      2.06      0.00
    2   12   13      0.71      0.00
    3   12   13      0.87      0.00
    4   12   13     -4.51      0.00
    5   12   13     -0.04      0.00
    6   12   13     -2.82      0.00
    7   12   13     -0.96      0.00
    8   12   13      2.90      0.00
    9   12   13     -0.55      0.00
   10   12   13     -3.85      0.00
   11   12   13      0.45      0.00
   12   12   13     -1.77      0.00
    0   13   13      4.20      0.00
    1   13   13     -2.53      0.00
    2   13   13      3.27      0.00
    3   13   13     -3.81      0.00
    4   13   13      5.08      0.00
    5   13   13     -3.68      0.00
    6   13   13      2.70      0.00
    7   13   13     -1.37      0.00
    8   13   13      2.54      0.00
    9   13   13     -4.12      0.00
   10   13   13     -2.09      0.00
   11   13   13     -2.88      0.00
   12   13   13      2.52      0.00
    0    0   14     21.60      0.00
    0    1   14     -5.81      0.00
    1    1   14      1.19      0.00
    0    2   14      6.20      0.00
    1    2   14      1.41      0.00
    2    2   14     -2.74      0.00
    0    3   14     -5.13      0.00
    1    3   14      3.57      0.00
    2    3   14      2.00      0.00
    3    3   14      2.01      0.00
    0    4   14      8.30      0.00
    1    4   14     -3.73      0.00
    2    4   14     -0.30      0.00
    3    4   14     -2.11      0.00
    4    4   14      1.53      0.00
    0    5   14     -6.12      0.00
    1    5   14     -0.35      0.00
    2    5   14      2.42      0.00
    3    5   14     -0.64      0.00
    4    5   14     -4.12      0.00
    5    5   14     -0.05      0.00
    0    6   14      2.64      0.00
    1    6   14      0.78      0.00
    2    6   14     -3.92      0.00
    3    6   14      2.24      0.00
    4    6   14     -0.16      0.00
    5    6   14      2.31      0.00
    6    6   14     -2.87      0.00
    0    7   14     -1.94      0.00
    1    7   14     -5.38      0.00
    2    7   14      6.53      0.00
    3    7   14     -5.43      0.00
    4    7   14      3.62      0.00
    5    7   14     -0.63      0.00
    6    7   14      5.46      0.00
    7    7   14     -0.33      0.00
    0    8   14      3.26      0.00
    1    8   14     -0.65      0.00
    2    8   14     -2.45      0.00
    3    8   14      2.32      0.00
    4    8   14      1.59      0.00
    5    8   14     -0.82      0.00
    6    8   14      0.13      0.00
    7    8   14      6.05      0.00
    8    8   14      4.18      0.00
    0    9   14     -5.36      0.00
    1    9   14     -0.06      0.00
    2    9   14      3.59      0.00
    3    9   14      2.43      0.00
    4    9   14      0.30      0.00
    5    9   14      5.09      0.00
    6    9   14      2.46      0.00
    7    9   14      1.38      0.00
    8    9   14      4.02      0.00
    9    9   14      7.04      0.00
    0   10   14      3.29      0.00
    1   10   14     -1.76      0.00
    2   10   14     -3.81      0.00
    3   10   14     -2.59      0.00
    4   10   14      1.90      0.00
    5   10   14     -2.93      0.00
    6   10   14      0.70      0.00
    7   10   14      0.17      0.00
    8   10   14      2.69      0.00
    9   10   14      1.02      0.00
   10   10   14      3.30      0.00
    0   11   14     -0.76      0.00
    1   11   14     -1.50      0.00
    2   11   14      3.91      0.00
    3   11   14     -0.27      0.00
    4   11   14      1.65      0.00
    5   11   14      0.76      0.00
    6   11   14      0.19      0.00
    7   11   14     -0.16      0.00
    8   11   14     -3.54      0.00
    9   11   14      0.34      0.00
   10   11   14     -5.60      0.00
   11   11   14     -0.21      0.00
    0   12   14      2.93      0.00
    1   12   14      2.72      0.00
    2   12   14     -4.18      0.00
    3   12   14     -1.08      0.00
    4   12   14     -1.52      0.00
    5   12   14      0.23      0.00
    6   12   14     -1.88      0.00
    7   12   14      0.10      0.00
    8   12   14      0.37      0.00
    9   12   14      2.32      0.00
   10   12   14      1.84      0.00
   11   12   14      0.56      0.00
   12   12   14     -1.14      0.00
    0   13   14     -8.16      0.00
    1   13   14      4.90      0.00
    2   13   14     -1.58      0.00
    3   13   14      3.30      0.00
    4   13   14     -3.80      0.00
    5   13   14      1.32      0.00
    6   13   14     -1.45      0.00
    7   13   14      3.43      0.00
    8   13   14     -3.12      0.00
    9   13   14      2.99      0.00
   10   13   14     -4.95      0.00
   11   13   14      0.33      0.00
    0   14   14      4.23      0.00
    1   14   14     -0.28      0.00
    2   14   14      0.42      0.00
    3   14   14     -3.31      0.00
    4   14   14      0.05      0.00
    5   14   14     -0.99      0.00
    6   14   14      3.85      0.00
    7   14   14     -2.51      0.00
    8   14   14      1.17      0.00
    9   14   14      1.46      0.00
   10   14   14      2.42      0.00
    0    0   15      0.36      0.00
    0    1   15      7.54      0.00
    1    1   15     -1.74      0.00
    0    2   15      1.63      0.00
    1    2   15     -1.83      0.00
    2    2   15      9.37      0.00
    0    3   15      6.48      0.00
    1    3   15      0.07      0.00
    2    3   15     -1.00      0.00
    3    3   15      0.46      0.00
    0    4   15     -3.17      0.00
    1    4   15      0.73      0.00
    2    4   15      4.98      0.00
    3    4   15      1.61      0.00
    4    4   15     -2.82      0.00
    0    5   15      4.35      0.00
    1    5   15      0.13      0.00
    2    5   15     -1.56      0.00
    3    5   15      3.37      0.00
    4    5   15     -1.29      0.00
    5    5   15     -0.91      0.00
    0    6   15     -2.45      0.00
    1    6   15     -2.01      0.00
    2    6   15      8.55      0.00
    3    6   15     -1.79      0.00
    4    6   15      5.96      0.00
    5    6   15     -4.77      0.00
    6    6   15      4.11      0.00
    0    7   15     -1.75      0.00
    1    7   15      3.57      0.00
    2    7   15     -4.60      0.00
    3    7   15      5.91      0.00
    4    7   15     -1.09      0.00
    5    7   15      3.45      0.00
    6    7   15     -6.31      0.00
    7    7   15      5.31      0.00
    0    8   15     -0.58      0.00
    1    8   15     -4.06      0.00
    2    8   15      5.69      0.00
    3    8   15     -2.82      0.00
    4    8   15      0.81      0.00
    5    8   15     -2.74      0.00
    6    8   15      2.39      0.00
    7    8   15     -4.13      0.00
    8    8   15      4.23      0.00
    0    9   15      3.55      0.00
    1    9   15     -0.23      0.00
    2    9   15     -0.12      0.00
    3    9   15      1.74      0.00
    4    9   15      2.78      0.00
    5    9   15      1.84      0.00
    6    9   15      0.04      0.00
    7    9   15      3.10      0.00
    8    9   15     -2.16      0.00
    9    9   15      2.03      0.00
    0   10   15     -2.76      0.00
    1   10   15     -1.53      0.00
    2   10   15      2.07      0.00
    3   10   15     -2.04      0.00
    4   10   15     -0.04      0.00
    5   10   15     -1.17      0.00
    6   10   15      2.72      0.00
    7   10   15      1.49      0.00
    8   10   15      0.46      0.00
    9   10   15     -2.89      0.00
   10   10   15     -3.09      0.00
    0   11   15      0.66      0.00
    1   11   15      3.15      0.00
    2   11   15     -2.99      0.00
    3   11   15      3.80      0.00
    4   11   15     -0.92      0.00
    5   11   15      1.96      0.00
    6   11   15     -0.56      0.00
    7   11   15      1.94      0.00
    8   11   15     -3.30      0.00
    9   11   15     -2.96      0.00
   10   11   15     -5.34      0.00
   11   11   15     -1.77      0.00
    0   12   15     -0.55      0.00
    1   12   15     -2.74      0.00
    2   12   15      2.93      0.00
    3   12   15     -2.47      0.00
    4   12   15      1.50      0.00
    5   12   15     -3.39      0.00
    6   12   15      2.62      0.00
    7   12   15     -1.35      0.00
    8   12   15      0.27      0.00
    9   12   15     -2.63      0.00
   10   12   15      1.37      0.00
   11   12   15     -1.97      0.00
    0   13   15      1.76      0.00
    1   13   15      0.22      0.00
    2   13   15     -0.55      0.00
    3   13   15      0.66      0.00
    4   13   15     -0.43      0.00
    5   13   15      0.40      0.00
    6   13   15     -1.38      0.00
    7   13   15     -1.03      0.00
    8   13   15     -2.23      0.00
    9   13   15     -0.00      0.00
    0   14   15     -2.58      0.00
    1   14   15      2.26      0.00
    2   14   15      0.38      0.00
    3   14   15     -0.58      0.00
    4   14   15      3.01      0.00
    5   14   15     -3.86      0.00
    6   14   15      0.74      0.00
    7   14   15      1.07      0.00
    8   14   15     -5.16      0.00
    0   15   15     -0.95      0.00
    1   15   15      1.37      0.00
    2   15   15     -6.98      0.00
    3   15   15      2.49      0.00
    4   15   15     -5.35      0.00
    5   15   15      4.20      0.00
    6   15   15     -4.92      0.00
    0    0   16     15.55      0.00
    0    1   16     -2.63      0.00
    1    1   16     -1.18      0.00
    0    2   16      3.98      0.00
    1    2   16      3.75      0.00
    2    2   16     -1.45      0.00
    0    3   16     -5.19      0.00
    1    3   16     -1.05      0.00
    2    3   16      1.50      0.00
    3    3   16     -0.57      0.00
    0    4   16      5.78      0.00
    1    4   16     -3.07      0.00
    2    4   16      0.38      0.00
    3    4   16     -2.95      0.00
    4    4   16      0.84      0.00
    0    5   16     -6.29      0.00
    1    5   16      0.77      0.00
    2    5   16     -0.99      0.00
    3    5   16      3.03      0.00
    4    5   16     -5.45      0.00
    5    5   16      2.27      0.00
    0    6   16      4.24      0.00
    1    6   16     -1.30      0.00
    2    6   16      0.19      0.00
    3    6   16     -0.65      0.00
    4    6   16      3.22      0.00
    5    6   16     -0.75      0.00
    6    6   16      1.03      0.00
    0    7   16     -2.06      0.00
    1    7   16      0.47      0.00
    2    7   16      1.33      0.00
    3    7   16     -0.71      0.00
    4    7   16     -1.08      0.00
    5    7   16      2.91      0.00
    6    7   16      1.02      0.00
    7    7   16      1.13      0.00
    0    8   16      2.77      0.00
    1    8   16     -2.55      0.00
    2    8   16     -1.37      0.00
    3    8   16     -4.37      0.00
    4    8   16      2.59      0.00
    5    8   16     -1.77      0.00
    6    8   16      3.46      0.00
    7    8   16      0.75      0.00
    8    8   16      4.39      0.00
    0    9   16     -5.29      0.00
    1    9   16      0.18      0.00
    2    9   16      0.27      0.00
    3    9   16     -0.28      0.00
    4    9   16     -0.85      0.00
    5    9   16      3.07      0.00
    6    9   16      0.91      0.00
    7    9   16      0.59      0.00
    8    9   16      4.83      0.00
    9    9   16      1.60      0.00
    0   10   16      3.90      0.00
    1   10   16     -2.26      0.00
    2   10   16     -0.48      0.00
    3   10   16     -4.97      0.00
    4   10   16      2.07      0.00
    5   10   16     -2.68      0.00
    6   10   16      2.27      0.00
    7   10   16      1.29      0.00
    8   10   16      4.13      0.00
    9   10   16      3.11      0.00
   10   10   16     -0.18      0.00
    0   11   16     -1.06      0.00
    1   11   16     -1.00      0.00
    2   11   16      1.64      0.00
    3   11   16     -1.43      0.00
    4   11   16     -2.27      0.00
    5   11   16     -1.15      0.00
    6   11   16     -1.67      0.00
    7   11   16      0.51      0.00
    8   11   16     -1.80      0.00
    9   11   16     -2.81      0.00
   10   11   16      0.06      0.00
    0   12   16     -0.77      0.00
    1   12   16      0.13      0.00
    2   12   16     -5.17      0.00
    3   12   16     -1.94      0.00
    4   12   16     -3.17      0.00
    5   12   16      2.31      0.00
    6   12   16     -2.04      0.00
    7   12   16     -0.86      0.00
    8   12   16     -2.31      0.00
    9   12   16      1.94      0.00
    0   13   16     -2.77      0.00
    1   13   16      0.20      0.00
    2   13   16     -0.82      0.00
    3   13   16      1.76      0.00
    4   13   16     -0.50      0.00
    5   13   16      0.84      0.00
    6   13   16     -1.23      0.00
    7   13   16      2.02      0.00
    8   13   16     -0.25      0.00
    0   14   16      0.89      0.00
    1   14   16     -1.29      0.00
    2   14   16      1.19      0.00
    3   14   16      2.22      0.00
    4   14   16      3.12      0.00
    5   14   16      3.48      0.00
    6   14   16      3.37      0.00
    0   15   16     -1.11      0.00
    1   15   16     -3.39      0.00
    2   15   16     -1.33      0.00
    3   15   16     -3.17      0.00
    0    0   17     -3.53      0.00
    0    1   17      1.55      0.00
    1    1   17      3.31      0.00
    0    2   17      2.84      0.00
    1    2   17      0.12      0.00
    2    2   17     10.22      0.00
    0    3   17      1.65      0.00
    1    3   17      1.53      0.00
    2    3   17     -2.14      0.00
    3    3   17     -4.62      0.00
    0    4   17     -3.11      0.00
    1    4   17      1.29      0.00
    2    4   17      1.35      0.00
    3    4   17      1.26      0.00
    4    4   17     -9.81      0.00
    0    5   17      2.38      0.00
    1    5   17     -3.19      0.00
    2    5   17     -0.13      0.00
    3    5   17     -1.64      0.00
    4    5   17      2.93      0.00
    5    5   17     -2.92      0.00
    0    6   17     -6.14      0.00
    1    6   17      2.10      0.00
    2    6   17      0.09      0.00
    3    6   17      4.86      0.00
    4    6   17     -3.38      0.00
    5    6   17      3.98      0.00
    6    6   17     -3.18      0.00
    0    7   17      1.59      0.00
    1    7   17      0.08      0.00
    2    7   17      1.55      0.00
    3    7   17     -1.83      0.00
    4    7   17      2.18      0.00
    5    7   17     -4.22      0.00
    6    7   17      2.88      0.00
    7    7   17     -2.05      0.00
    0    8   17     -0.65      0.00
    1    8   17      1.36      0.00
    2    8   17      1.72      0.00
    3    8   17      1.70      0.00
    4    8   17     -2.32      0.00
    5    8   17      2.60      0.00
    6    8   17     -0.57      0.00
    7    8   17      2.17      0.00
    8    8   17      1.66      0.00
    0    9   17      1.22      0.00
    1    9   17     -2.00      0.00
    2    9   17      1.36      0.00
    3    9   17     -3.40      0.00
    4    9   17      1.17      0.00
    5    9   17     -3.44      0.00
    6    9   17      0.26      0.00
    7    9   17     -0.07      0.00
    8    9   17      1.94      0.00
    9    9   17      1.21      0.00
    0   10   17     -2.70      0.00
    1   10   17      1.39      0.00
    2   10   17      1.11      0.00
    3   10   17     -0.59      0.00
    4   10   17      0.16      0.00
    5   10   17      0.43      0.00
    6   10   17      0.48      0.00
    7   10   17      2.96      0.00
    8   10   17      1.60      0.00
    9   10   17     -1.36      0.00
   10   10   17     -0.74      0.00
    0   11   17      0.64      0.00
    1   11   17     -0.27      0.00
    2   11   17      0.68      0.00
    3   11   17     -0.19      0.00
    4   11   17      2.44      0.00
    5   11   17      2.21      0.00
    6   11   17      2.46      0.00
    7   11   17     -1.40      0.00
    8   11   17      0.49      0.00
    9   11   17     -2.37      0.00
    0   12   17      2.92      0.00
    1   12   17     -2.47      0.00
    2   12   17      2.21      0.00
    3   12   17     -0.63      0.00
    4   12   17      1.33      0.00
    5   12   17      2.76      0.00
    6   12   17      2.24      0.00
    7   12   17     -1.51      0.00
    0   13   17      0.37      0.00
    1   13   17     -1.03      0.00
    2   13   17     -0.25      0.00
    3   13   17     -1.37      0.00
    4   13   17      0.29      0.00
    5   13   17     -0.21      0.00
    0   14   17     -3.19      0.00
    1   14   17      1.11      0.00
    2   14   17     -0.63      0.00
    0    0   18      7.06      0.00
    0    1   18     -2.22      0.00
    1    1   18     -1.66      0.00
    0    2   18     -0.06      0.00
    1    2   18      4.22      0.00
    2    2   18     -1.14      0.00
    0    3   18     -2.88      0.00
    1    3   18      2.45      0.00
    2    3   18      0.05      0.00
    3    3   18      2.01      0.00
    0    4   18      2.31      0.00
    1    4   18      0.10      0.00
    2    4   18     -0.12      0.00
    3    4   18     -3.84      0.00
    4    4   18     -2.43      0.00
    0    5   18     -5.17      0.00
    1    5   18     -1.07      0.00
    2    5   18     -2.54      0.00
    3    5   18      3.31      0.00
    4    5   18     -4.66      0.00
    5    5   18      1.54      0.00
    0    6   18     -0.55      0.00
    1    6   18     -0.87      0.00
    2    6   18      0.06      0.00
    3    6   18      0.27      0.00
    4    6   18      1.24      0.00
    5    6   18     -2.93      0.00
    6    6   18     -0.12      0.00
    0    7   18     -2.02      0.00
    1    7   18     -2.78      0.00
    2    7   18      0.91      0.00
    3    7   18      2.35      0.00
    4    7   18     -1.35      0.00
    5    7   18     -0.48      0.00
    6    7   18     -0.38      0.00
    7    7   18      2.67      0.00
    0    8   18      0.31      0.00
    1    8   18     -0.98      0.00
    2    8   18     -0.45      0.00
    3    8   18     -0.78      0.00
    4    8   18      2.56      0.00
    5    8   18     -1.33      0.00
    6    8   18      2.88      0.00
    7    8   18      1.03      0.00
    8    8   18      1.01      0.00
    0    9   18     -3.41      0.00
    1    9   18     -1.91      0.00
    2    9   18      0.74      0.00
    3    9   18     -2.60      0.00
    4    9   18      0.24      0.00
    5    9   18     -4.11      0.00
    6    9   18      3.06      0.00
    7    9   18      1.89      0.00
    8    9   18      1.92      0.00
    9    9   18     -0.18      0.00
    0   10   18      2.12      0.00
    1   10   18      0.34      0.00
    2   10   18      1.05      0.00
    3   10   18     -2.69      0.00
    4   10   18     -0.80      0.00
    5   10   18     -0.89      0.00
    6   10   18      1.12      0.00
    7   10   18      3.12      0.00
    8   10   18      3.68      0.00
    0   11   18     -2.02      0.00
    1   11   18     -1.64      0.00
    2   11   18      0.71      0.00
    3   11   18     -0.44      0.00
    4   11   18     -0.98      0.00
    5   11   18     -0.88      0.00
    6   11   18      3.14      0.00
    0   12   18      1.87      0.00
    1   12   18      2.61      0.00
    2   12   18      0.06      0.00
    3   12   18      0.28      0.00
    4   12   18     -2.97      0.00
    5   12   18      2.32      0.00
    0   13   18     -1.03      0.00
    0    0   19      1.94      0.00
    0    1   19      5.52      0.00
    1    1   19     -0.86      0.00
    0    2   19     -0.85      0.00
    1    2   19      1.61      0.00
    2    2   19     -0.59      0.00
    0    3   19      6.50      0.00
    1    3   19      0.41      0.00
    2    3   19      1.55      0.00
    3    3   19     -2.35      0.00
    0    4   19     -4.33      0.00
    1    4   19      0.34      0.00
    2    4   19     -3.05      0.00
    3    4   19      3.52      0.00
    4    4   19     -2.80      0.00
    0    5   19      0.68      0.00
    1    5   19     -2.87      0.00
    2    5   19     -3.09      0.00
    3    5   19     -0.54      0.00
    4    5   19      1.52      0.00
    5    5   19      2.77      0.00
    0    6   19     -0.94      0.00
    1    6   19     -1.21      0.00
    2    6   19      0.18      0.00
    3    6   19      1.01      0.00
    4    6   19      1.31      0.00
    5    6   19     -0.57      0.00
    6    6   19      1.74      0.00
    0    7   19     -1.37      0.00
    1    7   19      0.46      0.00
    2    7   19     -1.35      0.00
    3    7   19     -0.29      0.00
    4    7   19      1.41      0.00
    5    7   19     -0.48      0.00
    6    7   19      2.62      0.00
    7    7   19      2.58      0.00
    0    8   19      0.27      0.00
    1    8   19     -1.80      0.00
    2    8   19     -2.23      0.00
    3    8   19      0.04      0.00
    4    8   19      1.45      0.00
    5    8   19     -0.66      0.00
    6    8   19      1.61      0.00
    7    8   19      0.58      0.00
    8    8   19     -1.96      0.00
    0    9   19      1.47      0.00
    1    9   19      0.25      0.00
    2    9   19      1.12      0.00
    3    9   19      0.08      0.00
    4    9   19      3.07      0.00
    5    9   19      1.88      0.00
    6    9   19      0.99      0.00
    7    9   19      2.91      0.00
    0   10   19     -1.00      0.00
    1   10   19      1.27      0.00
    2   10   19      0.99      0.00
    3   10   19      0.50      0.00
    4   10   19      2.67      0.00
    5   10   19     -1.29      0.00
    0   11   19     -3.11      0.00
    1   11   19     -5.20      0.00
    2   11   19     -0.72      0.00
    3   11   19     -2.52      0.00
    0    0   20      8.04      0.00
    0    1   20     -4.00      0.00
    1    1   20      0.02      0.00
    0    2   20      5.28      0.00
    1    2   20      4.71      0.00
    2    2   20      1.27      0.00
    0    3   20      0.01      0.00
    1    3   20      3.52      0.00
    2    3   20      0.09      0.00
    3    3   20      1.24      0.00
    0    4   20      1.70      0.00
    1    4   20     -1.71      0.00
    2    4   20     -0.97      0.00
    3    4   20     -1.40      0.00
    4    4   20     -3.15      0.00
    0    5   20     -1.76      0.00
    1    5   20     -0.62      0.00
    2    5   20     -0.37      0.00
    3    5   20     -1.88      0.00
    4    5   20      1.24      0.00
    5    5   20     -1.43      0.00
    0    6   20     -0.14      0.00
    1    6   20      0.94      0.00
    2    6   20     -0.47      0.00
    3    6   20     -1.19      0.00
    4    6   20     -2.62      0.00
    5    6   20      0.25      0.00
    6    6   20     -2.03      0.00
    0    7   20      0.99      0.00
    1    7   20     -0.76      0.00
    2    7   20      3.53      0.00
    3    7   20     -0.17      0.00
    4    7   20      1.83      0.00
    5    7   20     -2.47      0.00
    6    7   20      1.27      0.00
    0    8   20      0.65      0.00
    1    8   20     -2.12      0.00
    2    8   20     -1.31      0.00
    3    8   20     -2.78      0.00
    4    8   20      0.03      0.00
    5    8   20     -2.29      0.00
    0    9   20     -2.38      0.00
    1    9   20      0.42      0.00
    2    9   20      0.30      0.00
    3    9   20      0.09      0.00
    0    0   21     -5.76      0.00
    0    1   21      3.52      0.00
    1    1   21     -2.39      0.00
    0    2   21     -0.56      0.00
    1    2   21      1.82      0.00
    2    2   21      2.23      0.00
    0    3   21     -0.76      0.00
    1    3   21     -4.08      0.00
    2    3   21     -1.13      0.00
    3    3   21     -1.45      0.00
    0    4   21     -6.35      0.00
    1    4   21     -0.85      0.00
    2    4   21      0.60      0.00
    3    4   21      2.00      0.00
    4    4   21     -0.96      0.00
    0    5   21      3.62      0.00
    1    5   21     -2.66      0.00
    2    5   21      1.19      0.00
    3    5   21     -2.48      0.00
    4    5   21      0.03      0.00
    5    5   21      0.98      0.00
    0    6   21      0.51      0.00
    1    6   21      1.16      0.00
    2    6   21      0.08      0.00
    3    6   21     -4.46      0.00
    4    6   21     -1.85      0.00
    0    7   21      3.09      0.00
    1    7   21      2.83      0.00
    0    0   22     12.11      0.00
    0    1   22      0.73      0.00
    1    1   22      3.38      0.00
    0    2   22      4.48      0.00
    1    2   22      3.19      0.00
    2    2   22     -1.57      0.00
    0    3   22     -3.23      0.00
    0    0    1    -42.31      0.00
   10   13   15     -3.36      0.00
    7   15   15     -2.36      0.00
   11   11   16     -0.75      0.00
   10   12   16     -0.60      0.00
    7   14   16      0.24      0.00
    4   15   16      5.71      0.00
    8   12   17     -0.21      0.00
    6   13   17      0.17      0.00
    3   14   17      3.10      0.00
    4   14   17     -0.56      0.00
    7   11   18      2.33      0.00
    1   13   18     -2.07      0.00
    2   13   18     -0.56      0.00
    6   10   19      1.72      0.00
    4   11   19     -0.13      0.00
    7    7   20      0.62      0.00
    6    8   20     -1.86      0.00
    4    9   20      2.27      0.00
    0   10   20      0.75      0.00
    1   10   20      0.83      0.00
    2    7   21      1.87      0.00
    3    7   21     -0.62      0.00
    1    3   22     -1.67      0.00
    2    3   22     -2.46      0.00
    0    4   22      1.73      0.00
    1    4   22     -2.44      0.00
    0    0    0      0.00      0.00
# SQUEEZE RESULTS (Version =  11015)
# Note: Data are Listed for all Voids in the P1 Unit Cell
# i.e. Centre of Gravity, Solvent Accessible Volume,
# Recovered number of Electrons in the Void and
# Details about the Squeezed Material
loop_
  _platon_squeeze_void_nr
  _platon_squeeze_void_average_x
  _platon_squeeze_void_average_y
  _platon_squeeze_void_average_z
  _platon_squeeze_void_volume
  _platon_squeeze_void_count_electrons
  _platon_squeeze_void_content
   1 -0.002 -0.001 -0.001      3019       126 ' '
   2  0.500  0.500  0.500       921       144 ' '
# Missing Reflections Below sin(th)/lambda = 0.25
loop_
  _platon_missing_refln_index_h
  _platon_missing_refln_index_k
  _platon_missing_refln_index_l
  _platon_missing_refln_theta
    0    0    1     1.092
_platon_squeeze_void_probe_radius                  1.20
_platon_squeeze_details
)
TITL djx044_0m P m -3 m     R = 0.14
CELL   18.6522   18.6522   18.6522     90.00     90.00     90.00
SPGR Pm-3m
# Solvent Accessible Volume =    3941.2
# Electrons Found in S.A.V. =     261.8
# Note: Atoms in Void as Cxxx and Qxxx all others
C101 0.500 0.500 0.500 !       6.55 eA-3
C102 0.500 0.504 0.266 !       5.51 eA-3
C103 0.500 0.188 0.505 !       3.93 eA-3
Q104 0.129 0.500 0.500 !       2.10 eA-3
C105 0.423 0.297 0.495 !       1.68 eA-3
C106 0.500 1.000 0.000 !       1.33 eA-3
C107 0.059 0.059 0.059 !       1.24 eA-3
Q108 0.370 0.500 0.000 !       1.23 eA-3
C109 1.000 0.125 0.000 !       1.19 eA-3
Q110 1.000 0.496 0.125 !       1.07 eA-3
Q111 0.500 0.234-0.001 !       0.84 eA-3
Q112 0.793 1.004 0.437 !       0.77 eA-3
Q113 0.500 0.283 0.168 !       0.73 eA-3
Q114 0.127 0.507 0.250 !       0.71 eA-3
Q115 0.437 1.000 0.500 !       0.67 eA-3
Q116 0.356 0.182 0.343 !       0.60 eA-3
C117 1.000 1.000 0.438 !       0.60 eA-3
C118 0.048 0.050 0.439 !       0.54 eA-3
C119 0.500 0.356 0.426 !       0.51 eA-3
Q120 0.765 0.998 0.375 !       0.50 eA-3
)
;
_shelx_shelxl_version_number     2014/7
_olex2_submission_special_instructions 'No special instructions were received'
loop_
_space_group_symop_operation_xyz
'x, y, z'
'-y, x, z'
'-x, -y, z'
'y, -x, z'
'x, -z, y'
'x, -y, -z'
'x, z, -y'
'z, y, -x'
'-x, y, -z'
'-z, y, x'
'z, x, y'
'y, z, x'
'-y, -z, x'
'z, -x, -y'
'-y, z, -x'
'-z, -x, y'
'-z, x, -y'
'y, -z, -x'
'y, x, -z'
'-y, -x, -z'
'-x, z, y'
'-x, -z, -y'
'z, -y, x'
'-z, -y, -x'
'-x, -y, -z'
'y, -x, -z'
'x, y, -z'
'-y, x, -z'
'-x, z, -y'
'-x, y, z'
'-x, -z, y'
'-z, -y, x'
'x, -y, z'
'z, -y, -x'
'-z, -x, -y'
'-y, -z, -x'
'y, z, -x'
'-z, x, y'
'y, -z, x'
'z, x, -y'
'z, -x, y'
'-y, z, x'
'-y, -x, z'
'y, x, z'
'x, -z, -y'
'x, z, y'
'-z, y, -x'
'z, y, x'
loop_
_atom_site_label
_atom_site_type_symbol
_atom_site_fract_x
_atom_site_fract_y
_atom_site_fract_z
_atom_site_U_iso_or_equiv
_atom_site_adp_type
_atom_site_occupancy
_atom_site_site_symmetry_order
_atom_site_calc_flag
_atom_site_refinement_flags_posn
_atom_site_refinement_flags_adp
_atom_site_refinement_flags_occupancy
_atom_site_disorder_assembly
_atom_site_disorder_group
Co1 Co 0.5000 0.0000 0.37226(4) 0.0243(3) Uani 1 4 d S T P . .
Cl1 Cl 0.5000 0.0000 0.5000 0.0276(6) Uani 1 16 d S T P . .
O1 O 0.5000 0.0000 0.2460(10) 0.108(6) Uani 0.42 4 d S T P . .
N1 N 0.42456(12) 0.07238(11) 0.37319(12) 0.0236(5) Uani 1 1 d . . . . .
C2 C 0.35194(16) 0.1632(2) 0.35194(16) 0.0299(10) Uani 1 2 d S T P . .
C3 C 0.31974(15) 0.2279(2) 0.31974(15) 0.0277(9) Uani 1 2 d S T P . .
C4 C 0.25857(16) 0.25857(16) 0.3493(2) 0.0290(10) Uani 1 2 d S T P . .
H4 H 0.2373 0.2373 0.3904 0.035 Uiso 1 2 calc RS T P A .
Co2 Co 0.5000 0.1461(9) 0.2707(7) 0.062(4) Uani 0.06 2 d S T P A 2
N2 N 0.41188(14) 0.12768(14) 0.32927(15) 0.0292(6) Uani 0.333 1 d . . . A 2
C1 C 0.41188(14) 0.12768(14) 0.32927(15) 0.0292(6) Uani 0.667 1 d . . . A 3
H1 H 0.4401 0.1403 0.2888 0.035 Uiso 0.667 1 calc R . . A 3
loop_
_atom_site_aniso_label
_atom_site_aniso_U_11
_atom_site_aniso_U_22
_atom_site_aniso_U_33
_atom_site_aniso_U_23
_atom_site_aniso_U_13
_atom_site_aniso_U_12
Co1 0.0234(4) 0.0164(4) 0.0332(5) 0.000 0.000 0.000
Cl1 0.0294(9) 0.0238(14) 0.0294(9) 0.000 0.000 0.000
O1 0.059(10) 0.159(18) 0.106(15) 0.000 0.000 0.000
N1 0.0254(12) 0.0166(11) 0.0288(13) 0.0048(10) 0.0004(10) 0.0003(9)
C2 0.0328(14) 0.024(2) 0.0328(14) 0.0031(13) 0.0023(19) 0.0031(13)
C3 0.0280(13) 0.027(2) 0.0280(13) 0.0046(13) 0.0033(18) 0.0046(13)
C4 0.0301(14) 0.0301(14) 0.027(2) 0.0086(13) 0.0086(13) 0.0023(18)
Co2 0.022(5) 0.112(12) 0.054(8) 0.032(8) 0.000 0.000
N2 0.0291(15) 0.0257(14) 0.0328(15) 0.0095(12) 0.0012(12) -0.0003(12)
C1 0.0291(15) 0.0257(14) 0.0328(15) 0.0095(12) 0.0012(12) -0.0003(12)
loop_
_atom_type_symbol
_atom_type_description
_atom_type_scat_dispersion_real
_atom_type_scat_dispersion_imag
_atom_type_scat_source
C C 0.0033 0.0016 'International Tables Vol C Tables 4.2.6.8 and 6.1.1.4'
H H 0.0000 0.0000 'International Tables Vol C Tables 4.2.6.8 and 6.1.1.4'
Cl Cl 0.1484 0.1585 'International Tables Vol C Tables 4.2.6.8 and 6.1.1.4'
Co Co 0.3494 0.9721 'International Tables Vol C Tables 4.2.6.8 and 6.1.1.4'
N N 0.0061 0.0033 'International Tables Vol C Tables 4.2.6.8 and 6.1.1.4'
O O 0.0106 0.0060 'International Tables Vol C Tables 4.2.6.8 and 6.1.1.4'
loop_
_geom_angle_atom_site_label_1
_geom_angle_atom_site_label_2
_geom_angle_atom_site_label_3
_geom_angle
_geom_angle_site_symmetry_1
_geom_angle_site_symmetry_3
O1 Co1 Cl1 180.0 . .
N1 Co1 Cl1 89.49(7) 33 .
N1 Co1 Cl1 89.49(7) 30_655 .
N1 Co1 Cl1 89.49(7) . .
N1 Co1 Cl1 89.49(7) 3_655 .
N1 Co1 O1 90.51(7) 33 .
N1 Co1 O1 90.51(7) . .
N1 Co1 O1 90.51(7) 30_655 .
N1 Co1 O1 90.51(7) 3_655 .
N1 Co1 N1 87.63(13) 33 .
N1 Co1 N1 87.63(13) 30_655 3_655
N1 Co1 N1 92.36(13) 33 3_655
N1 Co1 N1 92.36(13) 30_655 .
N1 Co1 N1 178.98(14) 33 30_655
N1 Co1 N1 178.98(14) 3_655 .
Co1 Cl1 Co1 180.0 32_655 8_556
Co1 Cl1 Co1 90.0 32_655 .
Co1 Cl1 Co1 90.0 8_556 25_656
Co1 Cl1 Co1 180.0 25_656 .
Co1 Cl1 Co1 90.0 8_556 .
Co1 Cl1 Co1 90.0 32_655 25_656
N1 N1 Co1 121.10(7) 48 .
N2 N1 Co1 130.97(19) . .
N2 N1 N1 107.93(15) . 48
C1 N1 Co1 130.97(19) . .
C1 N1 N1 107.93(15) . 48
N2 C2 C3 127.13(17) 48 .
N2 C2 C3 127.13(17) . .
N2 C2 N2 105.7(3) . 48
C1 C2 C3 127.13(17) 48 .
C1 C2 C3 127.13(17) . .
C1 C2 C1 105.7(3) . 48
C4 C3 C2 120.6(2) . .
C4 C3 C2 120.6(2) 11 .
C4 C3 C4 118.8(4) . 11
C3 C4 C3 121.2(4) 12 .
C3 C4 H4 119.4 12 .
C3 C4 H4 119.4 . .
N2 Co2 N2 110.3(6) 30_655 .
N1 N2 C2 109.2(2) . .
N1 N2 Co2 108.7(4) . .
C2 N2 Co2 139.2(5) . .
N1 C1 C2 109.2(2) . .
N1 C1 H1 125.4 . .
C2 C1 H1 125.4 . .
loop_
_geom_bond_atom_site_label_1
_geom_bond_atom_site_label_2
_geom_bond_distance
_geom_bond_site_symmetry_2
Co1 Cl1 2.3826(8) .
Co1 O1 2.354(19) .
Co1 N1 1.950(2) .
Co1 N1 1.950(2) 30_655
Co1 N1 1.950(2) 3_655
Co1 N1 1.950(2) 33
Cl1 Co1 2.3826(8) 32_655
Cl1 Co1 2.3826(8) 25_656
Cl1 Co1 2.3826(8) 8_556
N1 N1 1.355(4) 48
N1 N2 1.338(3) .
N1 C1 1.338(3) .
C2 C3 1.475(6) .
C2 N2 1.367(4) .
C2 N2 1.367(4) 48
C2 C1 1.367(4) .
C2 C1 1.367(4) 48
C3 C4 1.390(3) 11
C3 C4 1.390(3) .
C4 C3 1.390(3) 12
C4 H4 0.9500 .
Co2 N2 2.003(8) 30_655
Co2 N2 2.003(8) .
C1 H1 0.9500 .
loop_
_geom_torsion_atom_site_label_1
_geom_torsion_atom_site_label_2
_geom_torsion_atom_site_label_3
_geom_torsion_atom_site_label_4
_geom_torsion
_geom_torsion_site_symmetry_1
_geom_torsion_site_symmetry_4
Co1 N1 N2 C2 179.7(2) . .
Co1 N1 N2 Co2 -15.6(6) . .
Co1 N1 C1 C2 179.7(2) . .
N1 N1 N2 C2 -0.4(3) 48 .
N1 N1 N2 Co2 164.2(5) 48 .
N1 N1 C1 C2 -0.4(3) 48 .
C2 C3 C4 C3 179.6(3) . 12
C3 C2 N2 N1 178.9(4) . .
C3 C2 N2 Co2 21.5(9) . .
C3 C2 C1 N1 178.9(4) . .
C4 C3 C4 C3 -1.5(9) 11 12
N2 C2 C3 C4 179.5(4) 48 11
N2 C2 C3 C4 1.7(7) . 11
N2 C2 C3 C4 -179.5(4) . .
N2 C2 C3 C4 -1.7(7) 48 .
N2 C2 N2 N1 0.7(5) 48 .
N2 C2 N2 Co2 -156.7(6) 48 .
C1 C2 C3 C4 -1.7(7) 48 .
C1 C2 C3 C4 1.7(7) . 11
C1 C2 C3 C4 179.5(4) 48 11
C1 C2 C3 C4 -179.5(4) . .
C1 C2 C1 N1 0.7(5) 48 .
