#------------------------------------------------------------------------------
#$Date: 2019-11-25 13:26:52 +0200 (Mon, 25 Nov 2019) $
#$Revision: 240971 $
#$URL: file:///home/coder/svn-repositories/cod/cif/4/13/05/4130562.cif $
#------------------------------------------------------------------------------
#
# This file is available in the Crystallography Open Database (COD),
# http://www.crystallography.net/
#
# All data on this site have been placed in the public domain by the
# contributors.
#
data_4130562
loop_
_publ_author_name
'Mon, Marta'
'Ferrando-Soria, Jes\'us'
'Grancha, Thais'
'Fortea-P\'erez, Francisco R'
'Gascon, Jorge'
'Leyva-P\'erez, Antonio'
'Armentano, Donatella'
'Pardo, Emilio'
_publ_section_title
;
 Selective Gold Recovery and Catalysis in a Highly Flexible
 Methionine-Decorated Metal-Organic Framework.
;
_journal_issue                   25
_journal_name_full               'Journal of the American Chemical Society'
_journal_page_first              7864
_journal_page_last               7867
_journal_paper_doi               10.1021/jacs.6b04635
_journal_volume                  138
_journal_year                    2016
_chemical_formula_sum            'C39 H70 Au2 Ca Cl2 Cu6 N6 O27 S6'
_chemical_formula_weight         2133.52
_space_group_crystal_system      hexagonal
_space_group_IT_number           173
_space_group_name_Hall           'P 6c'
_space_group_name_H-M_alt        'P 63'
_atom_sites_solution_hydrogens   geom
_audit_creation_method           SHELXL-2013
_cell_angle_alpha                90
_cell_angle_beta                 90
_cell_angle_gamma                120
_cell_formula_units_Z            2
_cell_length_a                   17.7487(12)
_cell_length_b                   17.7487(12)
_cell_length_c                   12.6950(12)
_cell_measurement_reflns_used    929
_cell_measurement_temperature    90(2)
_cell_measurement_theta_max      19.32
_cell_measurement_theta_min      2.3
_cell_volume                     3463.4(5)
_computing_cell_refinement       'Bruker APEX'
_computing_data_collection       'Bruker APEX'
_computing_data_reduction        'Bruker SAINT'
_computing_molecular_graphics    'Bruker SHELXTL'
_computing_publication_material  'Bruker SHELXTL'
_computing_structure_refinement  'SHELXL-2013 (Sheldrick, 2013)'
_computing_structure_solution    'SHELXS-2013 (Sheldrick, 2013)'
_diffrn_ambient_temperature      90(2)
_diffrn_measured_fraction_theta_full 0.586
_diffrn_measured_fraction_theta_max 0.998
_diffrn_measurement_device_type  'CCD area detector'
_diffrn_measurement_method       'phi and omega scans'
_diffrn_radiation_type           MoK\a
_diffrn_radiation_wavelength     0.71073
_diffrn_reflns_av_R_equivalents  0.1605
_diffrn_reflns_av_unetI/netI     0.1059
_diffrn_reflns_Laue_measured_fraction_full 0.586
_diffrn_reflns_Laue_measured_fraction_max 0.998
_diffrn_reflns_limit_h_max       17
_diffrn_reflns_limit_h_min       -16
_diffrn_reflns_limit_k_max       17
_diffrn_reflns_limit_k_min       -17
_diffrn_reflns_limit_l_max       12
_diffrn_reflns_limit_l_min       -12
_diffrn_reflns_number            17758
_diffrn_reflns_point_group_measured_fraction_full 0.579
_diffrn_reflns_point_group_measured_fraction_max 0.996
_diffrn_reflns_theta_full        25.242
_diffrn_reflns_theta_max         20.877
_diffrn_reflns_theta_min         1.325
_diffrn_source                   'fine-focus sealed tube'
_exptl_absorpt_coefficient_mu    6.433
_exptl_absorpt_correction_T_max  0.610
_exptl_absorpt_correction_T_min  0.540
_exptl_absorpt_correction_type   multi-scan
_exptl_absorpt_process_details   sadabs
_exptl_crystal_colour            green
_exptl_crystal_density_diffrn    2.046
_exptl_crystal_description       hexagonal-prism
_exptl_crystal_F_000             2088
_exptl_crystal_size_max          0.10
_exptl_crystal_size_mid          0.08
_exptl_crystal_size_min          0.08
_refine_diff_density_max         1.959
_refine_diff_density_min         -2.018
_refine_diff_density_rms         0.355
_refine_ls_abs_structure_details
;
 Flack x determined using 532 quotients [(I+)-(I-)]/[(I+)+(I-)]
 (Parsons and Flack (2004), Acta Cryst. A60, s61).
;
_refine_ls_abs_structure_Flack   0.472(17)
_refine_ls_extinction_coef       0.016(4)
_refine_ls_extinction_expression Fc^*^=kFc[1+0.001xFc^2^\l^3^/sin(2\q)]^-1/4^
_refine_ls_extinction_method     SHELXL
_refine_ls_goodness_of_fit_ref   1.065
_refine_ls_hydrogen_treatment    constr
_refine_ls_matrix_type           full
_refine_ls_number_parameters     104
_refine_ls_number_reflns         2429
_refine_ls_number_restraints     11
_refine_ls_restrained_S_all      1.075
_refine_ls_R_factor_all          0.1772
_refine_ls_R_factor_gt           0.1162
_refine_ls_shift/su_max          0.000
_refine_ls_shift/su_mean         0.000
_refine_ls_structure_factor_coef Fsqd
_refine_ls_weighting_details
'w=1/[\s^2^(Fo^2^)+(0.1971P)^2^+113.5977P] where P=(Fo^2^+2Fc^2^)/3'
_refine_ls_weighting_scheme      calc
_refine_ls_wR_factor_gt          0.3188
_refine_ls_wR_factor_ref         0.3687
_reflns_Friedel_coverage         0.884
_reflns_Friedel_fraction_full    0.572
_reflns_Friedel_fraction_max     0.993
_reflns_number_gt                1461
_reflns_number_total             2429
_reflns_threshold_expression     'I > 2\s(I)'
_cod_data_source_file            ja6b04635_si_003.cif
_cod_data_source_block           AuI_1
_cod_original_cell_volume        3463.3(6)
_cod_database_code               4130562
_shelx_space_group_comment
;
The symmetry employed for this shelxl refinement is uniquely defined
by the following loop, which should always be used as a source of
symmetry information in preference to the above space-group names.
They are only intended as comments.
;
_shelxl_version_number           2013-4
_shelx_res_file
;
TITL MARMON37_1_0m in P6(3)
CELL 0.71073  17.7487  17.7487  12.6950  90.000  90.000 120.000
ZERR    2.00   0.0012   0.0012   0.0012   0.000   0.000   0.000
LATT -1
SYMM -Y, X-Y, Z
SYMM -X+Y, -X, Z
SYMM -X, -Y, 0.5+Z
SYMM Y, -X+Y, 0.5+Z
SYMM X-Y, X, 0.5+Z
SFAC C  H  N  O  S  Ca Cu Au Cl
UNIT 78  140  12  54  12  2  12  4  4
L.S. 5
ACTA
FMAP 2
PLAN 30
DFIX 1.54 0.03 C1S C2  C1S C2S  C6 C4S  C4S C5S
DFIX 1.82 0.03 C2S S1  C3S S1  C5S S2  C6S S2
DFIX 2.3 0.03 C5S C6S
DFIX 2.70 0.03 AU2 S2
TEMP -183
WGHT    0.197100  113.597702
EXTI    0.015836
FVAR       0.09375   0.09355
CU1   7    0.445456    0.582873    0.662317    11.00000    0.01960    0.02121 =
         0.02325    0.00364   -0.00040    0.01188
CU2   7    0.444907    0.582222    0.400418    11.00000    0.02619    0.02858 =
         0.01896   -0.00626   -0.00095    0.02166
CA1   6    0.333333    0.666667    0.529255    10.33333    0.00981    0.00981 =
         0.00931    0.00000    0.00000    0.00491
O1H   4    0.465936    0.643075    0.538347    11.00000    0.01182
O1    4    0.325496    0.561120    0.669549    11.00000    0.00962
O2    4    0.553014    0.573951    0.673033    11.00000    0.01868
O3    4    0.323726    0.563027    0.404475    11.00000    0.02272
O4    4    0.516483    0.715391    0.315291    11.00000    0.01453
O5    4    0.556662    0.579450    0.378411    11.00000    0.03585
O6    4    0.197961    0.500266    0.761981    11.00000    0.05681
N1    3    0.401614    0.505296    0.778512    11.00000    0.04601
N2    3    0.405650    0.495191    0.295002    11.00000    0.00357
C1    1    0.280871    0.510574    0.726947    11.00000    0.05202
C2    1    0.321406    0.471858    0.810302    11.00000    0.03847
AFIX  13
H2A   2    0.318621    0.490692    0.883745    11.00000   -1.20000
AFIX   0
C3    1    0.535282    0.519049    0.315135    11.00000    0.01986
C4    1    0.449311    0.472473    0.260950    11.00000    0.01525
C5    1    0.270191    0.503894    0.321134    11.00000    0.01157
C6    1    0.300772    0.448413    0.269667    11.00000    0.02214
AFIX  13
H6A   2    0.291396    0.447046    0.191856    11.00000   -1.20000
AFIX   0
C1S   1    0.255377    0.373114    0.794317    11.00000    0.09480
AFIX  23
H1SA  2    0.293468    0.351726    0.766770    11.00000   -1.20000
H1SB  2    0.242939    0.351946    0.867923    11.00000   -1.20000
AFIX   1
C2S   1    0.169440    0.312370    0.740140    11.00000    0.59915
AFIX  23
H2SA  2    0.166217    0.333888    0.669284    11.00000   -1.20000
H2SB  2    0.119144    0.304100    0.782756    11.00000   -1.20000
AFIX   1
S1    5    0.175170    0.211550    0.732460    11.00000    0.38880
C3S   1    0.087200    0.101670    0.697260    11.00000    0.41975
AFIX  33
H3SA  2    0.043089    0.079548    0.752998    11.00000   -1.50000
H3SB  2    0.111183    0.062817    0.689327    11.00000   -1.50000
H3SC  2    0.060546    0.104211    0.630735    11.00000   -1.50000
AFIX   1
C4S   1    0.258670    0.354720    0.312550    11.00000    0.10299
AFIX  23
H4SA  2    0.279760    0.322965    0.268595    11.00000   -1.20000
H4SB  2    0.195215    0.327070    0.300467    11.00000   -1.20000
AFIX   1
C5S   1    0.272020    0.338600    0.429300    11.00000    0.22509
AFIX  23
H5SA  2    0.272406    0.283127    0.424371    11.00000   -1.20000
H5SB  2    0.214595    0.322313    0.460048    11.00000   -1.20000
AFIX   1
S2    5    0.346430    0.392290    0.544560    11.00000    0.29591
C6S   1    0.233060    0.341460    0.598950    11.00000    0.16673
AFIX  33
H6SA  2    0.214993    0.385315    0.602573    11.00000   -1.50000
H6SB  2    0.231812    0.318820    0.669728    11.00000   -1.50000
H6SC  2    0.193193    0.293710    0.552942    11.00000   -1.50000
AFIX   0
CL1   9    0.309678    0.209149    0.385626    10.66666    0.23182
AFIX   1
AU1   8    0.207480    0.165000    0.551940    10.33333    0.46685
AU2   8    0.404680    0.266360    0.531360    10.33333    0.47948
AFIX   0
O1M   4    0.016591    0.325235    0.529924    11.00000    0.14824
C1M   1    0.019220    0.263004    0.612823    11.00000    0.08987
O1W   4    0.395675    0.632171    0.088834    11.00000    0.10921

HKLF 4

REM  MARMON37_1_0m in P6(3)
REM R1 =  0.1162 for    1461 Fo > 4sig(Fo)  and  0.1772 for all    2429 data
REM    104 parameters refined using     11 restraints

END

WGHT      0.2000      0.0000

REM Highest difference peak  1.959,  deepest hole -2.018,  1-sigma level  0.355
Q1    1   0.1708  0.2827  0.1445  11.00000  0.05    1.41
Q2    1   0.0000  0.0000  0.8989  10.33333  0.05    1.35
Q3    1   0.0000  0.0000  0.6675  10.33333  0.05    1.25
Q4    1   0.2743  0.1154  0.4234  11.00000  0.05    1.20
Q5    1   0.3262  0.5107  0.9375  11.00000  0.05    1.20
Q6    1   0.3213  0.5087  0.1342  11.00000  0.05    1.18
Q7    1   0.0262  0.2532  0.4240  11.00000  0.05    1.11
Q8    1   0.0000  0.0000  0.7632  10.33333  0.05    1.09
Q9    1   0.0747  0.1843  0.5361  11.00000  0.05    1.02
Q10   1   0.0631  0.3516  0.5420  11.00000  0.05    1.02
Q11   1   0.3008  0.1478  0.5316  11.00000  0.05    1.01
Q12   1   0.0497  0.1563  0.6781  11.00000  0.05    0.98
Q13   1  -0.0341  0.3088  0.5352  11.00000  0.05    0.97
Q14   1   0.1660  0.3455  0.5766  11.00000  0.05    0.96
Q15   1   0.1718  0.2822  0.4028  11.00000  0.05    0.96
Q16   1   0.1638  0.2807  0.6565  11.00000  0.05    0.92
Q17   1   0.3236  0.4745  1.0350  11.00000  0.05    0.90
Q18   1   0.2095  0.3588  0.5380  11.00000  0.05    0.90
Q19   1   0.2825  0.3275  0.1744  11.00000  0.05    0.88
Q20   1   0.0839  0.2168  0.6611  11.00000  0.05    0.87
Q21   1   0.3765  0.4860  1.0435  11.00000  0.05    0.86
Q22   1   0.0707  0.0565  0.8360  11.00000  0.05    0.86
Q23   1   0.3740  0.3001  0.6736  11.00000  0.05    0.85
Q24   1   0.0918  0.2352  0.3956  11.00000  0.05    0.85
Q25   1   0.2857  0.4459  0.9128  11.00000  0.05    0.85
Q26   1  -0.0153  0.0602  0.8004  11.00000  0.05    0.84
Q27   1   0.1143  0.0732  0.5408  11.00000  0.05    0.81
Q28   1   0.3706  0.2954  0.3959  11.00000  0.05    0.81
Q29   1   0.0657  0.0763  0.7826  11.00000  0.05    0.81
Q30   1   0.1200  0.3582  0.6385  11.00000  0.05    0.79
;
_shelx_res_checksum              95535
_shelx_hkl_file
;
   1   0   0   -0.15    0.14
   1   0   0    0.14    0.47
   1   0   0    0.07    0.24
   0  -1   0   -0.16    0.07
   0  -1   0   -0.15    0.12
  -1   1   0   -0.06    0.12
   1  -1   0    0.16    0.79
  -1   0   0   -0.56    0.65
   0   1   0   -0.13    0.86
  -1   0   0    0.51    0.56
  -1   0   0    0.13    0.56
  -1  -1   0   51.48    4.36
  -2   2   0   97.73    5.33
  -2   2   0   97.49    4.25
   2   0   0  100.26    5.38
   0  -2   0   91.25    5.39
   0  -2   0   88.00    5.94
   2   0   0  100.60    6.00
  -2   0   0  106.99    6.33
  -2   0   0  105.26    5.75
  -2   0   0  112.00    4.53
   0   2   0   92.13    6.14
   2  -2   0   96.84    5.75
   1   2   0   47.87    5.38
   2  -3   0   53.47    3.73
  -3   1   0   52.80    4.53
  -3   1   0   57.62    3.26
  -3   1   0   52.54    4.28
  -2   3   0   59.97    4.95
   3  -1   0   58.08    3.18
   3  -1   0   56.04    4.56
  -1  -2   0   55.20    5.21
  -1  -2   0   50.15    5.20
   3  -1   0   52.14    4.41
  -3   2   0   25.10    2.49
   1  -3   0   27.63    3.41
   2   1   0   19.60    4.55
   2   1   0   24.68    4.28
   1  -3   0   24.67    3.75
  -3   2   0   26.49    2.71
  -1   3   0   28.59    3.81
   3  -2   0   30.20    4.55
  -2  -1   0   26.69    4.10
   3  -2   0   26.50    2.70
   3  -2   0   23.98    2.41
  -2  -1   0   23.43    4.13
   3  -2   0   24.77    2.85
   0  -3   0  214.38   11.61
   0  -3   0  221.03   11.11
   3   0   0  234.30   10.28
  -3   3   0  232.93   10.46
   3   0   0  241.09   11.11
  -3   3   0  217.94    8.86
  -3   0   0  218.24   10.37
   0   3   0  210.70   11.63
  -3   0   0  209.29   10.37
  -3   0   0  227.87    8.73
   3  -3   0  222.77   10.89
  -4   1   0  157.12    8.38
   1   3   0  149.18   11.26
  -4   1   0  160.94    6.74
   3  -4   0  169.95    8.57
   3  -4   0  171.89    6.79
  -4   1   0  151.42    9.14
   4  -1   0  179.86    6.86
   4  -1   0  166.43    8.28
   4  -1   0  154.33    9.86
  -3   4   0  162.64    9.58
  -1  -3   0  168.31   11.24
  -1  -3   0  151.53   10.86
   2  -4   0   26.73    4.38
   2  -4   0   26.93    3.72
  -4   2   0   30.82    4.13
   2   2   0   23.92    5.65
  -4   2   0   31.65    2.65
  -2  -2   0   28.62    5.18
   4  -2   0   29.55    2.75
   4  -2   0   27.98    4.09
  -2   4   0   32.17    4.07
   4  -2   0   33.45    4.22
   4  -2   0   29.22    2.56
  -2  -2   0   30.57    5.35
   1  -4   0  403.80   16.63
  -4   3   0  395.85   16.01
  -4   3   0  406.58   14.31
   1  -4   0  410.33   15.96
   3   1   0  373.68   17.33
  -3  -1   0  370.63   16.79
  -3  -1   0  387.50   14.42
   4  -3   0  386.15   14.90
   4  -3   0  372.73   14.20
  -3  -1   0  379.19   16.71
   4  -3   0  392.85   16.16
  -1   4   0  376.58   15.72
   4   0   0   12.30    4.80
  -4   4   0    3.46    2.51
  -4   4   0    7.95    4.96
   0  -4   0   -1.04    4.49
   0  -4   0   -1.10    4.70
   0   4   0    3.57    5.25
  -4   0   0   -2.57    4.66
   4  -4   0    5.93    5.14
  -4   0   0    9.28    3.56
  -4   0   0   -0.52    4.32
  -5   1   0    0.41    4.18
   4  -5   0    5.63    3.43
   1   4   0    3.77    5.83
  -5   1   0   -1.73    4.54
  -5   1   0    1.09    3.04
   4  -5   0   -0.51    5.38
  -1  -4   0    8.44    5.32
   5  -1   0   -2.31    2.96
  -1  -4   0    2.34    4.84
   5  -1   0    2.55    4.14
  -4   5   0    0.45    5.29
   3  -5   0    4.34    3.98
  -5   2   0    2.95    3.05
  -5   2   0    3.49    4.27
  -5   2   0    2.05    2.42
   3  -5   0    0.86    2.97
   2   3   0    4.61    5.76
   5  -2   0    6.16    2.53
  -2  -3   0   11.80    5.32
   5  -2   0    3.88    3.95
  -2  -3   0   10.16    5.18
   5  -2   0    0.78    2.87
   5  -2   0    3.61    4.56
   2  -5   0   35.75    5.44
   2  -5   0   24.41    4.42
   3   2   0   26.89    6.54
  -5   3   0   29.85    4.15
   5  -3   0   31.38    3.26
   5  -3   0   33.24    4.28
   5  -3   0   27.46    2.87
  -3  -2   0   20.85    5.89
   5  -3   0   27.11    2.36
   5  -3   0   22.54    6.24
  -2   5   0   31.43    5.01
   5  -3   0   29.69    3.34
  -3  -2   0   27.97    6.03
   5  -3   0   25.45    4.13
   4   1   0   53.15    7.43
   1  -5   0   51.45    6.01
   1  -5   0   54.02    6.98
  -5   4   0   59.46    4.51
  -5   4   0   38.48    6.44
   5  -4   0   48.41    6.98
  -4  -1   0   61.73    7.12
  -4  -1   0   53.09    6.85
  -1   5   0   53.26    6.75
   5  -4   0   58.74    4.59
   5  -4   0   55.44    3.87
  -4  -1   0   53.36    5.65
  -5   5   0    8.96    2.95
   0  -5   0    4.60    4.81
  -5   5   0    9.64    5.55
   0  -5   0   13.96    5.49
  -5   5   0    8.86    3.85
   5   0   0   10.34    5.23
  -5   0   0    9.96    5.04
  -5   0   0    8.75    5.65
   5  -5   0   10.44    2.95
   5  -5   0    1.76    5.76
   0   5   0   10.89    5.89
  -5   0   0   11.41    3.90
  -6   1   0   -1.99    4.45
   5  -6   0    9.64    5.91
  -6   1   0    2.26    3.42
   5  -6   0    2.16    3.57
  -6   1   0    4.65    5.45
   1   5   0   17.35    6.49
  -5   6   0   -3.23    2.37
  -1  -5   0   17.82    5.94
  -5   6   0   -3.92    5.34
   6  -1   0    0.54    4.42
  -1  -5   0   10.92    5.89
  -6   2   0   70.35    7.22
   4  -6   0   71.85    5.59
  -6   2   0   61.13    4.80
   4  -6   0   67.70    6.17
  -6   2   0   73.29    5.56
   2   4   0   51.01    8.34
  -2  -4   0   59.77    7.88
  -4   6   0   52.95    7.22
  -2  -4   0   72.27    8.09
   6  -2   0   77.43    6.95
   6  -2   0   69.66    4.87
   3  -6   0  190.93    9.32
   3   3   0  163.78   13.63
   3  -6   0  187.54   10.81
  -6   3   0  181.89    9.44
   6  -3   0  162.51    8.33
  -3  -3   0  179.30   12.45
  -3   6   0  164.51    9.26
   6  -3   0  166.87    9.78
  -3  -3   0  158.86   12.71
   6  -3   0  186.40    7.11
   6  -3   0  175.63    9.73
   2  -6   0   53.89    5.60
   2  -6   0   51.96    6.66
   4   2   0   35.47    7.37
  -6   4   0   41.69    4.27
  -4  -2   0   44.71    7.14
   6  -4   0   44.12    4.58
  -4  -2   0   36.52    6.73
  -4  -2   0   54.45    6.42
   6  -4   0   47.68    4.86
   6  -4   0   45.14    7.27
  -2   6   0   51.21    6.34
   6  -4   0   40.39    3.78
  -6   5   0   48.97    7.24
   5   1   0   73.22    8.50
   1  -6   0   55.64    6.77
  -6   5   0   63.75    5.03
   1  -6   0   52.34    7.32
  -5  -1   0   64.58    8.02
   6  -5   0   52.19    7.47
   6  -5   0   58.25    4.73
  -1   6   0   60.69    7.87
  -5  -1   0   65.15    7.49
   6  -5   0   54.27    4.62
  -5  -1   0   71.63    6.52
  -6   6   0    7.60    5.73
   6   0   0    1.73    5.17
   0  -6   0    4.02    5.35
  -6   6   0    5.16    3.09
   0  -6   0  -10.48    5.03
  -6   6   0    3.26    3.64
  -6   0   0   -0.60    3.91
   6  -6   0    2.99    2.84
  -6   0   0    3.95    5.22
  -6   0   0    1.26    5.75
   0   6   0    1.29    6.05
   6  -6   0   -5.58    5.88
  -7   1   0   62.05    7.05
  -7   1   0   55.03    5.59
   1   6   0   65.57    9.39
   6  -7   0   68.69    5.55
  -7   1   0   66.47    8.27
   6  -7   0   62.57    8.70
  -6   7   0   61.17    5.10
  -1  -6   0   54.30    7.72
  -1  -6   0   58.24    8.54
  -6   7   0   62.47    8.56
   7  -1   0   67.58    7.82
   5  -7   0  441.40   18.10
   5  -7   0  440.88   15.88
  -7   2   0  436.36   17.86
  -7   2   0  451.15   15.62
  -7   2   0  446.80   19.51
   2   5   0  437.17   21.40
  -2  -5   0  475.07   21.42
  -5   7   0  427.51   19.82
   7  -2   0  444.53   15.56
  -2  -5   0  465.35   21.30
   7  -2   0  466.94   19.10
  -7   3   0  188.57   10.93
   3   4   0  180.20   14.33
  -7   3   0  213.36    9.06
   4  -7   0  202.33   11.97
   4  -7   0  201.14    9.15
  -4   7   0  191.30   13.39
  -3  -4   0  205.72   14.33
   7  -3   0  204.52    8.02
  -3  -4   0  197.03   12.63
   7  -3   0  179.97   10.65
   7  -3   0  206.73   11.52
   3  -7   0   21.65    4.76
  -7   4   0   13.19    4.28
   4   3   0   20.62    7.27
   3  -7   0   12.17    5.38
   7  -4   0   20.89    3.03
   7  -4   0   16.30    6.76
  -4  -3   0   16.42    6.27
   7  -4   0   16.14    3.30
  -4  -3   0   15.80    6.41
   7  -4   0   18.18    4.24
  -3   7   0   20.00    5.24
   7  -4   0   18.18    4.35
   2  -7   0   52.75    6.32
   5   2   0   43.03    8.34
   2  -7   0   42.67    7.13
  -5  -2   0   49.03    7.61
  -2   7   0   43.92    6.95
  -5  -2   0   47.02    6.68
  -5  -2   0   47.00    7.75
   7  -5   0   99.44    9.09
  -7   6   0  226.63   11.12
   6   1   0  262.42   15.16
   1  -7   0  226.31   14.56
   1  -7   0  241.88   14.01
  -7   6   0  242.73   14.06
  -1   7   0  243.13   14.96
  -6  -1   0  199.80   13.86
   7  -6   0  231.16   14.39
  -6  -1   0  209.77   14.73
  -6  -1   0  240.10   11.70
   7  -6   0  216.79    8.95
   0  -7   0  360.73   16.90
   0  -7   0  363.96   18.73
   7   0   0  333.79   17.52
  -7   7   0  349.28   14.92
  -7   7   0  358.78   17.35
  -7   0   0  358.60   14.21
  -7   0   0  335.09   16.79
  -7   0   0  314.52   17.47
   7  -7   0  346.25   13.21
   0   7   0  322.86   18.31
   7  -7   0  317.05   17.53
   7  -8   0    1.66    6.77
  -8   1   0   -4.61    6.14
  -8   1   0   -0.85    4.01
  -8   1   0   -1.86    5.07
   1   7   0    0.40    6.88
   7  -8   0    2.94    3.75
   8  -1   0    4.28    5.60
  -7   8   0    2.18    6.62
  -1  -7   0   -2.66    6.03
  -1  -7   0    5.59    5.96
  -7   8   0   -5.73    2.70
   6  -8   0  270.26   13.13
  -8   2   0  276.55   10.86
   2   6   0  255.63   16.71
  -8   2   0  277.19   14.83
  -8   2   0  283.11   13.36
   8  -2   0  272.07   14.10
  -2  -6   0  263.31   16.55
  -2  -6   0  257.63   15.21
   8  -2   0  253.41   15.97
  -6   8   0  261.68   15.41
  -8   3   0    0.51    2.81
  -8   3   0    1.39    3.46
   3   5   0    5.36    7.02
   5  -8   0   -0.43    3.00
   5  -8   0   -2.72    4.40
  -8   3   0    0.76    3.21
  -8   3   0   -3.89    4.93
   8  -3   0   -3.49    4.31
  -3  -5   0    2.93    5.90
   8  -3   0    0.91    2.88
  -5   8   0    8.05    5.99
   8  -3   0    2.96    4.32
  -3  -5   0    5.58    6.07
   4  -8   0  103.63    7.00
   4  -8   0  111.53    8.82
   4   4   0   83.16   10.29
  -8   4   0   95.14    7.95
  -4  -4   0   98.61    9.96
   8  -4   0   96.21    5.41
  -4  -4   0   70.04    9.12
   8  -4   0  102.38    7.67
   8  -4   0   96.25    6.90
   8  -4   0   95.75    7.85
   3  -8   0   47.15    5.90
   3  -8   0   50.36    7.11
   5   3   0   27.82    8.17
   8  -5   0   37.19    7.77
   8  -5   0   36.97    3.65
   8  -5   0   42.19    4.09
   8  -5   0   43.53    5.31
  -3   8   0   35.64    6.52
  -5  -3   0   40.20    7.77
  -5  -3   0   38.05    7.65
   8  -5   0   29.17    4.87
  -5  -3   0   44.63    7.06
   2  -8   0   80.10    8.82
   2  -8   0   98.45    8.34
   6   2   0  105.05   10.95
  -8   6   0   87.88    7.10
  -6  -2   0   87.37   10.27
  -2   8   0   90.42    9.48
  -6  -2   0   87.06    9.22
   8  -6   0   90.60   10.31
  -6  -2   0   97.70    8.50
   8  -6   0   84.02    7.05
   8  -6   0   87.85    5.74
   1  -8   0  162.59   13.36
  -8   7   0  156.43    9.80
   7   1   0  177.88   13.85
  -8   7   0  157.52   12.39
   1  -8   0  162.69   11.29
  -7  -1   0  149.86   12.84
   8  -7   0  175.43   13.26
  -1   8   0  168.84   13.81
  -7  -1   0  148.50   11.98
  -7  -1   0  165.76   10.17
  -8   8   0   37.81    5.53
   0  -8   0   23.19    7.28
   0  -8   0   36.27    6.93
   8   0   0   42.78    7.61
  -8   8   0   49.62    8.11
  -8   0   0   38.99    6.99
   8  -8   0   46.32    8.72
   8  -8   0   32.81    3.66
   0   8   0   24.90    8.33
  -8   0   0   28.21    5.34
  -8   0   0   31.89    7.77
  -9   1   0   59.97    3.59
  -9   1   0   53.93    8.62
   8  -9   0   59.26    5.21
  -9   1   0   56.21    5.91
  -9   1   0   75.39    8.09
   1   8   0   50.25    9.59
   8  -9   0   51.62    9.13
   9  -1   0   53.89    7.94
  -1  -8   0   61.84    8.63
  -8   9   0   60.38    6.71
  -9   2   0  310.30   16.61
   2   7   0  308.06   18.78
   7  -9   0  305.27   14.29
  -9   2   0  313.88   14.82
  -9   2   0  310.55   12.27
  -2  -7   0  297.78   16.93
   9  -2   0  320.59   15.98
  -7   9   0  295.17   16.75
   9  -2   0  288.31   17.56
  -7   9   0  297.38   11.84
  -9   3   0    5.65    5.49
  -9   3   0    7.58    4.00
  -9   3   0    0.91    3.34
   3   6   0   -2.82    7.43
   6  -9   0    4.93    4.69
   6  -9   0    5.41    2.86
  -6   9   0    3.23    6.02
   9  -3   0   10.34    3.58
  -3  -6   0    6.39    6.40
   9  -3   0    3.33    4.74
   9  -3   0    3.69    5.17
  -3  -6   0    1.15    6.14
   4   5   0   -1.09    7.14
   5  -9   0   -2.44    3.49
   5  -9   0    4.47    5.05
  -9   4   0    2.66    5.12
  -5   9   0    5.30    5.78
   9  -4   0    2.76    4.54
   9  -4   0    2.31    4.39
  -4  -5   0    4.44    6.39
   9  -4   0    4.71    3.02
  -4  -5   0    0.94    6.05
   9  -4   0    1.11    3.50
   5   4   0   -5.09    6.87
  -9   5   0    9.79    4.37
   4  -9   0   -3.60    4.97
   4  -9   0   -2.59    4.05
  -5  -4   0   -1.98    5.62
  -5  -4   0   -0.42    6.21
  -4   9   0  -11.42    4.69
   9  -5   0    3.82    2.24
   9  -5   0    0.44    2.75
   9  -5   0   -9.53    3.72
   9  -5   0   -0.02    7.25
  -5  -4   0    6.34    6.21
   9  -5   0    6.71    4.16
   9  -5   0    0.40    3.18
   3  -9   0   65.61    7.28
   6   3   0   91.00   10.88
   3  -9   0   78.88    8.82
  -6  -3   0   69.65    9.92
   9  -6   0   80.23    5.73
   9  -6   0   66.29    5.00
  -6  -3   0   72.08    8.38
   9  -6   0   68.84    6.50
   9  -6   0   61.90    9.77
  -3   9   0   93.21    8.94
   9  -6   0   57.74    5.85
  -6  -3   0   52.93    8.77
   7   2   0   16.23    7.67
   2  -9   0   17.75    6.47
  -9   7   0   12.19    4.08
   2  -9   0   15.87    5.68
   9  -7   0   21.45    7.74
  -7  -2   0    6.50    5.38
  -7  -2   0   23.91    7.60
  -2   9   0   12.08    7.07
  -7  -2   0   18.32    6.89
   1  -9   0   15.90    6.81
  -9   8   0   20.07    4.55
   8   1   0   23.48    7.43
   1  -9   0    9.07    5.85
  -8  -1   0   10.29    6.40
  -1   9   0   16.41    7.82
  -8  -1   0    6.09    6.66
   9  -8   0   11.65    7.66
  -8  -1   0   18.04    5.43
  -9   9   0  185.79   10.87
   0  -9   0  182.85   12.88
   9   0   0  174.14   13.26
  -9   0   0  186.02   13.06
  -9   0   0  168.40   13.39
   0   9   0  201.65   15.31
   9  -9   0  190.21   15.17
   9  -9   0  170.48    7.93
  -9   0   0  173.45   10.15
 -10   1   0    4.17    5.46
   9 -10   0   -0.02    3.51
   1   9   0    5.62    8.16
 -10   1   0    2.85    1.84
 -10   1   0    1.10    4.25
  10  -1   0    5.60    5.87
  -9  10   0    0.73    3.75
  10  -1   0    2.75    7.68
   8 -10   0    1.18    4.06
 -10   2   0    7.86    4.99
 -10   2   0    8.82    6.36
   2   8   0    9.88    8.40
 -10   2   0    5.23    3.85
  10  -2   0   -1.12    4.89
  10  -2   0    5.13    7.11
 -10   3   0  209.79   10.98
   3   7   0  210.25   16.12
 -10   3   0  206.69   13.27
   7 -10   0  214.48   11.96
 -10   3   0  203.72    9.14
  10  -3   0  201.26   12.48
  10  -3   0  189.13   13.63
   6 -10   0   61.23    5.37
   6 -10   0   67.64    7.62
   4   6   0   49.13    9.91
 -10   4   0   66.65    8.10
  10  -4   0   65.44    7.25
  10  -4   0   69.16    5.09
  10  -4   0   67.92    8.00
   5 -10   0   69.15    8.20
   5 -10   0   71.83    6.43
 -10   5   0   69.75    7.41
   5   5   0   74.10   10.57
  10  -5   0   65.85    5.49
  10  -5   0   77.48    7.76
  10  -5   0   70.77    6.97
  10  -5   0   69.99   10.24
  10  -5   0   71.26    5.07
   6   4   0  389.64   21.25
   4 -10   0  360.88   16.20
   4 -10   0  360.45   18.61
  10  -6   0  373.22   13.06
  -6  -4   0  369.22   17.57
  -4  10   0  369.27   17.40
  10  -6   0  356.96   16.84
  -6  -4   0  370.76   19.94
  10  -6   0  386.87   20.09
  10  -6   0  352.26   14.33
  10  -6   0  352.49   15.43
   7   3   0  142.51   13.53
   3 -10   0  154.72   12.09
   3 -10   0  136.33    9.77
  10  -7   0  133.56   12.88
  10  -7   0  128.77    7.29
  10  -7   0  122.25    8.76
  -3  10   0  138.49   11.60
  10  -7   0  101.63    7.52
  -7  -3   0  133.17   12.19
  -7  -3   0  136.26   10.69
  10  -7   0  136.20    6.80
   2 -10   0   49.98    7.34
 -10   8   0   58.20    5.36
   8   2   0   39.13    9.23
  10  -8   0   49.83    9.65
  -8  -2   0   43.05    7.28
  -2  10   0   65.98    9.73
  -8  -2   0   57.12    9.14
   9   1   0  157.54   13.62
 -10   9   0  157.96    9.58
   1 -10   0  170.28   12.11
  -1  10   0  158.66   14.28
  10  -9   0  165.97   14.30
  -9  -1   0  158.47   12.82
  -9  -1   0  142.75   10.29
 -10  10   0   50.93    6.25
  10   0   0   55.00    8.99
  10 -10   0   50.83   10.46
 -10   0   0   51.60    7.97
  10 -10   0   49.00    4.19
 -10   0   0   40.34    6.44
   0  10   0   59.31   10.63
   1  10   0   17.29    9.21
  10 -11   0   17.49    3.83
 -11   1   0   15.83    6.09
 -11   1   0   12.20    5.01
  11  -1   0   12.67    6.65
 -10  11   0   15.76    4.88
  11  -1   0   13.90    8.88
   2   9   0    8.29    8.85
 -11   2   0   -0.17    4.13
 -11   2   0    9.00    5.17
   9 -11   0    6.11    4.31
  -9  11   0    5.79    4.62
  11  -2   0    9.29    8.00
  11  -2   0   14.52    6.38
 -11   3   0   65.43    6.67
 -11   3   0   61.42    5.57
 -11   3   0   62.69    8.94
   3   8   0   82.23   11.83
   8 -11   0   76.35    7.31
  11  -3   0   69.50    8.62
  11  -3   0   60.65    9.13
   7 -11   0    1.81    3.13
   4   7   0   10.48    8.66
   7 -11   0    0.13    4.83
 -11   4   0    5.11    5.96
  11  -4   0    5.27    4.91
  11  -4   0   -2.50    4.84
 -11   5   0   93.58    9.01
   6 -11   0   95.97    7.17
   6 -11   0   97.33    9.24
   5   6   0  107.87   12.60
  11  -5   0   86.08    7.22
  11  -5   0   89.26    9.01
  11  -5   0   86.48    5.82
  11  -5   0  101.80    8.63
   6   5   0  151.89   14.41
   5 -11   0  153.95    9.54
   5 -11   0  147.29   11.84
  11  -6   0  156.43   10.68
  11  -6   0  167.49   14.42
  -6  -5   0  138.70   11.90
  11  -6   0  166.26    7.28
  11  -6   0  160.75    8.55
  11  -6   0  120.01    9.58
   4 -11   0   -4.16    5.28
   4 -11   0    6.10    4.93
   7   4   0   18.07    8.57
  11  -7   0    9.57    3.30
  -7  -4   0   -5.82    5.58
  -4  11   0    0.95    5.84
  11  -7   0   21.16    8.72
  11  -7   0   17.15    4.17
  11  -7   0   29.67    5.32
   3 -11   0   44.78    6.99
   8   3   0   34.35    9.44
  11  -8   0   40.75    4.51
  11  -8   0   36.18    4.10
  11  -8   0   49.52    5.16
  -3  11   0   36.11    8.30
  -8  -3   0   47.22    7.94
  11  -8   0   28.58    9.24
   2 -11   0   54.38    8.03
 -11   9   0   67.52    5.97
   9   2   0   63.15   10.73
  -2  11   0   56.90   10.07
  -9  -2   0   46.94    7.40
  11  -9   0   66.09   10.85
 -11  10   0  354.19   15.66
  10   1   0  368.83   20.66
 -10  -1   0  373.39   19.07
  -1  11   0  348.19   20.79
  11 -10   0  361.00   21.45
 -10  -1   0  330.33   15.99
  11   0   0   60.07    9.96
 -11  11   0   39.98    5.81
  11   0   0   36.23   10.80
  11 -11   0   45.38    3.74
   0  11   0   52.28   11.16
 -11   0   0   53.14    4.47
 -11   0   0   52.06    8.26
 -11   0   0   47.67    7.07
  11 -11   0   32.90   10.17
 -12   1   0   64.53    8.35
   1  11   0   69.78   12.19
  11 -12   0   66.98    5.61
 -12   1   0   61.58    6.83
  12  -1   0   86.22   12.58
  12  -1   0   58.96    9.80
 -11  12   0   62.17    7.04
 -12   2   0   77.42    8.47
   2  10   0   54.67   11.59
 -12   2   0   79.78    6.74
  10 -12   0   69.64    6.52
  12  -2   0   73.52    9.69
 -10  12   0   74.06    7.56
  12  -2   0   98.49   12.49
 -12   3   0   16.29    3.93
   9 -12   0   20.88    5.28
 -12   3   0   20.12    4.80
   3   9   0   20.74    9.99
  12  -3   0   16.44    6.57
  12  -3   0   14.47    7.73
   4   8   0    7.72    9.08
 -12   4   0    8.53    6.25
   8 -12   0    8.94    5.02
  12  -4   0    8.25    6.95
  12  -4   0    6.52    5.85
   5   7   0   35.66   10.46
   7 -12   0   42.82    4.92
   7 -12   0   49.18    7.11
 -12   5   0   60.80    7.87
  12  -5   0   50.78    7.84
  12  -5   0   46.04    6.94
  12  -5   0   35.79    5.04
   6 -12   0   -2.42    3.95
   6 -12   0   -3.43    5.11
   6   6   0   -0.35    8.07
  12  -6   0    1.50    3.04
  12  -6   0   -2.06    4.31
  12  -6   0   -2.33    3.43
  12  -6   0   -4.33    4.72
  12  -6   0    6.52    8.58
  -6  -6   0   13.91    7.08
   7   5   0   25.71    9.43
   5 -12   0   34.59    6.22
  12  -7   0   28.36    5.29
  12  -7   0   41.04   10.21
  12  -7   0   23.81    6.00
  12  -7   0   39.82    4.22
  -7  -5   0   33.58    7.95
   8   4   0   -6.10    7.88
   4 -12   0    4.60    5.21
  -8  -4   0    5.23    6.42
  12  -8   0    0.21    3.22
  12  -8   0    1.52    9.03
  12  -8   0   -3.77    3.30
  12  -8   0    7.33    4.88
   9   3   0    3.93    8.53
   3 -12   0    9.54    5.94
  12  -9   0    0.92    4.11
  12  -9   0    1.81    8.70
  12  -9   0    6.73    3.79
  -3  12   0    7.30    7.20
  -9  -3   0    4.86    6.46
  10   2   0   12.94    8.91
 -12  10   0   15.99    4.07
 -10  -2   0    6.74    6.03
  12 -10   0   12.13    9.88
  -2  12   0   14.75    8.84
  11   1   0   84.69   11.94
 -12  11   0   71.09    6.71
  12 -11   0   81.28   12.62
  -1  12   0   86.26   12.16
 -11  -1   0   68.77    8.47
  12   0   0   16.50   10.19
  12   0   0    8.62    8.43
 -12  12   0    8.70    4.27
 -12   0   0    3.16    5.36
 -12   0   0    4.43    2.85
  12 -12   0    3.94    9.14
   0  12   0   19.76    9.70
   1  12   0    4.49   11.06
 -13   1   0    9.09    4.98
  12 -13   0   12.91    3.75
 -12  13   0    8.29    4.97
  13  -1   0   13.71   10.05
  13  -1   0   32.45    9.44
 -13   2   0    6.09    5.33
  11 -13   0    5.67    4.08
 -13   2   0   13.63    4.40
   2  11   0   -4.66    9.54
  13  -2   0    6.59    9.37
 -11  13   0   13.95    4.90
  13  -2   0   13.88    7.44
  10 -13   0   74.69    7.30
   3  10   0   84.67   13.22
 -13   3   0   77.88    6.40
 -13   3   0   85.86    7.45
  13  -3   0   68.30   11.10
  13  -3   0   81.20   10.26
   9 -13   0   23.45    5.78
   4   9   0   23.67   10.35
  13  -4   0   32.96    9.08
  13  -4   0   23.56    7.01
   5   8   0  198.90   18.01
   8 -13   0  214.48   12.90
 -13   5   0  221.63   14.07
  -5  -8   0  219.27   15.39
  13  -5   0  221.29   11.38
  13  -5   0  218.73   13.82
  13  -5   0  240.93   15.45
   7 -13   0   20.03    6.47
   7 -13   0   19.05    4.63
   6   7   0   30.87   10.70
  13  -6   0   40.95    7.49
  -6  -7   0   35.61    8.61
  13  -6   0   28.77   10.27
  13  -6   0   16.21    4.29
  13  -6   0   11.05    5.29
   6 -13   0    4.28    4.45
   7   6   0   -7.99    8.21
  -7  -6   0    4.67    7.14
  13  -7   0   -9.33    8.92
  13  -7   0    0.42    3.15
  13  -7   0   -7.02    4.06
  13  -7   0   10.76    5.61
   5 -13   0   23.03    6.09
   8   5   0   30.34   10.13
  -8  -5   0   20.62    7.86
  13  -8   0   28.18    3.45
  13  -8   0   38.64    6.70
  13  -8   0   28.08    3.93
  13  -8   0   15.62    4.55
  13  -8   0   28.40   10.01
   4 -13   0   40.11    7.13
   9   4   0   35.46   10.71
  13  -9   0   37.63   11.26
  -9  -4   0   52.83    8.66
  13  -9   0   48.10    4.87
  10   3   0   27.49   10.49
  13 -10   0   45.39   11.34
  13 -10   0   28.92    4.64
 -10  -3   0   16.65    6.68
  13 -10   0   16.11    4.94
  -3  13   0   34.16    8.81
  11   2   0   -8.82    8.71
  -2  13   0    9.37    8.21
  13 -11   0   -7.30    9.37
 -11  -2   0    2.55    6.38
  12   1   0   59.12   12.11
 -13  12   0   58.19    6.38
  12   1   0   61.45   13.46
 -12  -1   0   63.81    8.65
  13 -12   0   52.05   12.82
  -1  13   0   56.61   12.21
  13   0   0   -0.07    9.91
  13   0   0   25.72   10.09
 -13  13   0   16.40    4.33
   0  13   0   -9.66    9.76
 -13   0   0    4.12    5.70
 -13   0   0   -0.39    2.42
 -14   1   0   -4.57    4.37
   1  13   0   20.26   11.27
  14  -1   0   13.09    8.78
  14  -1   0   22.42   11.37
 -14   2   0   29.87    5.56
  12 -14   0   23.72    4.81
   2  12   0   37.98   12.48
 -14   2   0   29.25    6.25
  14  -2   0   26.89    8.93
  14  -2   0   43.59   12.14
 -14   3   0   20.41    4.45
  11 -14   0   15.44    5.09
   3  11   0   62.82   13.17
 -14   3   0   33.51    4.69
  14  -3   0   16.61    7.19
  14  -3   0   18.88   10.11
   4  10   0    2.99   10.25
  10 -14   0    0.41    5.00
  14  -4   0   -3.58    6.34
  14  -4   0    7.20    8.58
   5   9   0   12.52   10.12
   9 -14   0    9.17    5.66
  14  -5   0   14.89    5.08
  14  -5   0   15.93    6.37
  14  -5   0   16.91    8.06
  -5  -9   0   14.23    8.35
   6   8   0   81.36   13.80
  14  -6   0  101.60   11.34
  14  -6   0   96.54    8.18
  14  -6   0  103.16   13.99
  14  -6   0  112.57   10.32
  -6  -8   0  103.47   12.38
   7   7   0   98.62   14.16
   7 -14   0  113.99    8.60
  14  -7   0  106.83   14.22
  14  -7   0  102.26    9.34
  -7  -7   0  105.95   12.12
  14  -7   0  114.22   11.21
  14  -7   0   93.95    6.68
   6 -14   0   51.36    6.90
   8   6   0   48.34   11.87
  14  -8   0   34.34    5.78
  14  -8   0   37.79    4.05
  -8  -6   0   33.62    9.01
  14  -8   0   33.58   10.96
  14  -8   0   49.22    8.01
   5 -14   0  141.86   11.15
   9   5   0  134.80   16.07
  14  -9   0  180.45   17.48
  -9  -5   0  139.85   13.02
  14  -9   0  141.51    7.44
  14  -9   0  152.07    7.52
  14  -9   0  167.45   12.44
  10   4   0    4.79    9.96
  14 -10   0    7.65    4.08
 -10  -4   0   -0.72    7.21
  14 -10   0    0.40   10.36
  11   3   0   17.67   10.82
  -3  14   0    7.48    7.71
  14 -11   0    4.90   10.91
 -11  -3   0   10.38    7.17
  14 -11   0   -7.86    4.53
  14 -11   0   11.66    4.38
  12   2   0   25.69   11.48
  12   2   0   13.95   11.53
  -2  14   0   32.87    9.57
 -12  -2   0   20.73    7.05
  14 -12   0   -1.63   10.72
  13   1   0   26.67   11.05
  13   1   0   56.92   13.66
 -13  -1   0   56.91    5.17
  14 -13   0   44.86   13.03
  -1  14   0   44.92   10.83
 -13  -1   0   54.31    8.20
  14   0   0   32.41   10.76
  14   0   0   29.73   12.01
 -14   0   0   19.14    6.74
   0  14   0   24.24   11.49
 -15   1   0   37.13    6.31
   1  14   0   26.78   12.37
  15  -1   0   47.02   11.96
  15  -1   0   26.30   12.47
   2  13   0    0.20   11.22
 -15   2   0    1.22    4.34
  15  -2   0   -1.04   10.24
  15  -2   0   30.25    9.56
 -15   3   0   -2.08    3.68
   3  12   0    5.09   10.82
  15  -3   0   -3.59    9.60
  15  -3   0  -14.30    6.68
   4  11   0   18.18   11.46
  15  -4   0    4.01    7.07
  15  -4   0    4.72    9.55
  10 -15   0    0.28    4.69
   5  10   0   14.87   11.15
  -5 -10   0  -16.48    7.41
  15  -5   0   -2.56    4.71
  15  -5   0   -6.08    5.93
  15  -5   0    4.42    8.23
   6   9   0   85.31   14.42
  15  -6   0   75.79   13.48
  15  -6   0   61.63    8.94
  15  -6   0   72.53   11.46
  15  -6   0   58.32    6.34
  -6  -9   0   66.44   11.84
   7   8   0    6.73   10.57
  15  -7   0   32.51    8.65
  15  -7   0   24.16    4.56
  15  -7   0   38.09   12.31
  15  -7   0   23.33    6.64
  -7  -8   0   31.20    9.28
   7 -15   0   -2.62    4.75
   8   7   0    5.38   10.26
  15  -8   0   12.78    7.23
  15  -8   0    6.36   10.67
  -8  -7   0   -2.83    7.61
  15  -8   0    2.10    4.56
   9   6   0   41.76   12.10
   6 -15   0   22.48    6.33
  -9  -6   0   35.31    9.17
  15  -9   0   45.42    8.20
  15  -9   0   37.84   12.33
  15  -9   0   31.32    3.80
  10   5   0   21.26   11.44
  15 -10   0   17.57    3.99
  15 -10   0   23.54   11.55
 -10  -5   0   15.53    8.10
  15 -10   0   26.54    4.24
  11   4   0   -3.81    9.88
 -11  -4   0   10.30    6.87
  15 -11   0  -15.60    9.98
  15 -11   0    2.57    4.67
  12   3   0   -2.80   11.04
  12   3   0   13.26   10.83
  15 -12   0    4.74   11.01
 -12  -3   0    7.36    6.93
  13   2   0   41.01   12.53
  13   2   0   27.60   12.56
 -13  -2   0   40.98    8.41
  15 -13   0   31.24   12.50
  -2  15   0   24.86    9.92
  14   1   0    1.35   10.50
  14   1   0    5.20   11.04
  -1  15   0   -7.60    8.99
  15 -14   0   -3.69   10.66
 -14  -1   0    1.38    6.51
  15   0   0   17.88   11.85
  15   0   0   -6.22   11.08
   0  15   0   -7.09   10.37
 -15   0   0   -4.20    6.10
   2  14   0  103.97   16.69
  16  -2   0   92.12   15.48
  16  -2   0  128.69   15.07
   3  13   0   48.98   13.68
  16  -3   0   25.48   11.89
  16  -3   0   40.38   10.19
   4  12   0   24.17   12.28
  16  -4   0   48.36   12.07
  16  -4   0   16.56    8.13
  -4 -12   0   11.18    9.43
   5  11   0    8.34   11.90
  16  -5   0   12.15    5.48
  16  -5   0    7.73    7.00
  -5 -11   0    8.39    9.01
  16  -5   0    3.61    9.07
   6  10   0   26.96   12.68
  16  -6   0   16.73    6.44
  16  -6   0   24.59    5.25
  -6 -10   0   16.40    9.40
  16  -6   0   30.47    9.78
  16  -6   0   15.89   11.50
   7   9   0    5.75   10.91
  16  -7   0    6.04    5.46
  16  -7   0    1.12    3.97
  -7  -9   0    2.20    8.08
  16  -7   0    7.51    7.98
  16  -7   0   -8.94   10.37
   8   8   0    9.74   11.10
  -8  -8   0   17.08    8.93
  16  -8   0   13.33    8.01
  16  -8   0   10.37   10.75
  16  -8   0    7.14    5.23
   9   7   0   93.72   15.19
  16  -9   0  115.69   11.82
  16  -9   0  116.48   15.56
  -9  -7   0  102.56   12.60
  10   6   0    1.34   10.61
 -10  -6   0    0.82    7.65
  16 -10   0   -9.26   11.26
  11   5   0   14.68   11.59
  16 -11   0   26.19   12.02
 -11  -5   0   35.31    8.82
  12   4   0   22.78   13.16
  12   4   0   11.58   11.55
  16 -12   0   24.54    5.86
 -12  -4   0    2.68    7.44
  16 -12   0  -12.31   11.06
  13   3   0    8.30   12.01
  13   3   0  -20.34   10.17
  16 -13   0    6.04   11.79
 -13  -3   0  -11.86    5.99
  14   2   0   -4.50   11.62
  14   2   0    8.95   11.93
  16 -14   0   -0.09   11.83
 -14  -2   0   14.11    7.94
   5  12   0   38.84   14.15
  17  -5   0   20.78    8.31
  17  -5   0   34.78   11.67
  -5 -12   0   16.29   10.30
   6  11   0  160.57   18.98
  -6 -11   0  117.44   15.08
  17  -6   0  143.28   16.03
  17  -6   0  178.74   13.74
  17  -6   0  116.60   17.69
   7  10   0   24.53   12.94
  -7 -10   0    8.74    9.25
  17  -7   0   13.88   12.75
  17  -7   0   18.15    9.37
  17  -7   0   23.45    7.07
   8   9   0   33.43   13.34
  17  -8   0   32.53   13.52
  17  -8   0   51.22   10.29
  -8  -9   0   44.79   10.80
  17  -8   0   55.83    8.20
   9   8   0   65.50   14.94
  17  -9   0   76.47   10.99
  -9  -8   0   72.30   11.72
  17  -9   0   46.11   14.16
  10   7   0   19.75   12.45
  17 -10   0   19.10    7.53
  17 -10   0   -3.89   11.74
 -10  -7   0    4.84    8.47
  11   6   0    7.72   11.93
  17 -11   0   12.88   11.97
 -11  -6   0    6.79    7.68
  12   5   0   23.53   14.02
  12   5   0   38.88   13.51
 -12  -5   0   41.45    9.59
  17 -12   0   34.36   13.69
   0   0  -1   -0.11    0.87
   0   0  -1    1.36    1.05
   0   0  -1   -0.43    0.88
   0   0   1   -1.45    0.50
   1   0  -1   72.48    3.57
  -1   2  -1    2.97    2.25
  -1   2  -1    1.94    2.45
   2  -1  -1   -0.01    1.53
   2  -1  -1    3.36    2.00
  -1  -1  -1    1.51    2.31
   2  -1  -1    2.22    2.15
   1  -2   1    0.76    2.17
  -2   1   1    2.79    1.92
   1  -2   1    1.40    1.96
   1   1   1   -0.93    2.62
  -2   1   1    3.43    2.29
   3  -2  -1  131.44    7.27
  -1   3  -1  143.68    7.08
  -2  -1  -1  143.56    9.23
  -2  -1  -1  126.92    8.86
  -1   3  -1  144.16    8.11
   3  -2  -1  144.55    8.30
   2   1   1  127.82    8.98
   1  -3   1  133.81    7.59
   2   1   1  130.47    8.81
  -2   0  -1   57.81    4.58
   2  -2  -1   63.03    4.80
   2  -2  -1   61.31    4.83
   0   2  -1   60.26    5.08
   0   2  -1   60.42    4.82
   0   2  -1   62.27    4.77
  -2   0  -1   52.01    4.66
   0  -2   1   70.61    4.77
   0  -2   1   70.24    5.43
   2   0   1   59.25    4.99
  -2   2   1   64.65    4.76
  -2   2   1   68.93    5.17
  -2   1  -1    2.71    1.33
   1   1  -1    7.48    2.81
   1  -2  -1    2.42    1.55
   1   1  -1    0.30    2.64
  -2   1  -1    0.53    1.15
  -2   1  -1    1.32    0.96
   1   1  -1   -0.43    2.17
  -2   1  -1    4.65    2.52
  -2   1  -1    5.23    1.85
  -1  -1   1    2.25    2.17
   2  -1   1    2.73    1.61
  -1   2   1    2.08    2.58
  -1  -1   1    0.18    2.46
   2   0  -1   55.36    4.03
   2   0  -1   64.72    4.18
   2   0  -1   60.03    4.96
   0  -2  -1   58.85    4.27
   2   0  -1   64.46    5.03
  -2   2  -1   64.31    4.77
  -2   2  -1   56.54    3.53
  -2   0   1   63.54    4.34
   0   2   1   68.64    5.42
   2  -2   1   68.72    4.93
  -2   0   1   67.09    4.25
   2  -2   1   62.01    3.38
   2  -2   1   68.41    4.28
   3  -1  -1   35.88    2.59
   3  -1  -1   31.24    3.90
  -2   3  -1   26.11    3.68
   3  -1  -1   29.95    3.48
  -2   3  -1   24.73    3.89
   3  -1  -1   29.25    3.28
  -1  -2  -1   24.19    4.29
   2  -3   1   30.10    3.54
  -3   1   1   30.25    2.66
   1   2   1   30.89    4.83
   1   2   1   28.79    4.45
  -3   1   1   30.79    3.39
  -2  -2  -1   35.23    5.57
   4  -2  -1   33.65    4.50
   4  -2  -1   35.53    3.65
   4  -2  -1   28.13    2.68
  -2   4  -1   31.68    3.91
  -2   4  -1   27.82    5.01
   2   2   1   31.49    5.72
   2  -4   1   30.32    4.56
   2   2   1   29.99    5.79
  -2   5  -1   53.45    6.53
   5  -3  -1   60.80    5.25
   5  -3  -1   58.83    4.97
   5  -3  -1   54.88    5.27
   5  -3  -1   52.91    7.12
  -3  -2  -1   54.78    7.00
   5  -3  -1   47.89    4.37
  -2   5  -1   53.06    5.51
   3   2   1   50.32    7.38
   3   2   1   58.25    7.66
   2  -5   1   61.51    5.19
   2  -5   1   62.64    6.40
  -1   4  -1   -1.52    4.57
  -3  -1  -1   -4.75    4.39
   4  -3  -1    8.27    5.00
  -1   4  -1    4.35    4.01
   1  -4   1    0.59    4.23
   1  -4   1    2.52    3.64
  -4   3   1   11.04    4.50
   3   1   1   -0.74    5.14
   3   1   1    6.14    4.66
  -4   3   1   11.67    3.71
   3  -3  -1  254.50   12.11
  -3   0  -1  258.73   12.94
   3  -3  -1  257.12   10.88
  -3   0  -1  257.34   12.32
   0   3  -1  272.48   12.24
   0   3  -1  260.49   11.54
  -3   3   1  264.62   11.57
   3   0   1  268.19   12.35
   0  -3   1  253.59   11.44
   3   0   1  254.44   12.54
  -3   3   1  247.62   11.59
   0  -3   1  266.29   11.90
   0  -3   1  266.15   11.32
  -3   1  -1   27.82    2.57
   2  -3  -1   27.87    2.13
   1   2  -1   24.52    4.59
   1   2  -1   26.07    4.53
   1   2  -1   28.15    4.09
  -3   1  -1   24.04    3.96
  -3   1  -1   27.38    4.11
   3  -1   1   28.66    4.34
  -1  -2   1   25.55    4.25
   3  -1   1   30.65    2.53
  -2   3   1   31.56    4.34
  -1  -2   1   33.25    4.56
  -1  -2   1   27.00    4.12
  -2   3   1   28.97    4.53
  -3   2  -1  142.03    7.73
   2   1  -1  139.42    8.11
   2   1  -1  137.42    6.81
   2   1  -1  135.50    8.00
   3  -2   1  138.03    4.65
   3  -2   1  136.21    7.56
  -2  -1   1  123.70    7.63
  -2  -1   1  134.11    8.21
  -2  -1   1  142.12    6.98
   3  -2   1  128.05    6.10
  -1   3   1  139.63    7.39
   3   0  -1  266.29   12.30
  -3   3  -1  265.48   11.94
   3   0  -1  280.05   11.73
  -3   3  -1  268.98   10.53
   3   0  -1  291.29   10.49
   0  -3  -1  278.26   12.62
   3  -3   1  263.67   12.04
  -3   0   1  277.08   10.03
  -3   0   1  272.43   11.90
  -3   0   1  279.08   12.06
  -3   0   1  283.94   10.57
   0   3   1  270.33   12.73
  -1  -3  -1   33.09    5.54
  -3   4  -1   23.40    4.09
   4  -1  -1   30.26    4.20
  -3   4  -1   29.97    5.11
   4  -1  -1   35.04    3.93
   4  -1  -1   34.77    2.84
   4  -1  -1   39.73    5.11
  -4   1   1   38.47    4.17
   3  -4   1   35.73    4.14
   1   3   1   38.08    6.13
  -4   1   1   38.30    3.03
   5  -2  -1   71.08    5.40
   5  -2  -1   70.17    6.39
  -3   5  -1   64.69    4.87
   5  -2  -1   63.73    5.23
  -2  -3  -1   68.06    7.57
  -3   5  -1   60.75    6.32
   5  -2  -1   62.83    3.77
  -5   2   1   73.35    5.63
   2   3   1   69.81    7.98
   3  -5   1   69.94    5.94
  -5   2   1   62.77    4.93
   6  -3  -1   14.72    2.44
  -3   6  -1   10.62    4.42
  -3  -3  -1   13.03    6.07
   6  -3  -1   13.24    4.28
   6  -3  -1   15.71    3.70
  -3   6  -1    7.63    5.77
   6  -3  -1   13.10    3.61
   6  -3  -1   15.66    4.65
   3  -6   1   17.41    4.94
   3   3   1    9.27    6.59
   7  -4  -1  245.74   10.10
  -3   7  -1  244.04   12.93
  -4  -3  -1  216.29   15.03
   7  -4  -1  260.64   14.44
   7  -4  -1  246.88   11.95
   7  -4  -1  250.05   10.26
  -3   7  -1  238.67   14.80
  -4  -3  -1  238.20   15.56
   7  -4  -1  226.02   11.53
   3  -7   1  250.59   11.39
   3  -7   1  240.68   12.95
   4   3   1  262.46   15.91
   6  -4  -1   15.71    4.09
  -4  -2  -1    9.99    5.92
   6  -4  -1    8.79    6.04
   6  -4  -1   16.45    3.80
  -2   6  -1    8.81    5.17
  -2   6  -1   16.44    6.34
   4   2   1   11.41    6.54
   2  -6   1    7.48    4.22
   2  -6   1   13.46    5.50
  -4  -1  -1   23.41    6.02
   5  -4  -1   32.74    4.16
  -1   5  -1   22.71    5.49
   5  -4  -1   36.29    6.80
  -1   5  -1   30.11    6.38
   1  -5   1   28.28    5.08
   4   1   1   25.83    6.28
   4   1   1   24.09    6.53
  -5   4   1   28.12    4.43
   1  -5   1   22.27    5.74
  -5   4   1   22.98    6.11
   0   4  -1  159.51   11.35
   0   4  -1  157.33    9.81
   4  -4  -1  161.12   10.61
  -4   0  -1  163.67   11.14
   0  -4   1  173.50    9.83
  -4   4   1  158.32    9.69
   4   0   1  175.84   10.85
   0  -4   1  150.66   10.46
  -4   4   1  151.17    9.77
   4   0   1  178.44   10.78
  -4   1  -1   36.18    5.15
   1   3  -1   31.72    5.82
   1   3  -1   33.97    5.53
  -4   1  -1   35.14    5.58
  -4   1  -1   33.27    2.85
  -1  -3   1   39.95    5.75
  -1  -3   1   31.45    5.34
  -3   4   1   32.37    4.74
   4  -1   1   35.47    4.89
   4  -1   1   41.02    5.62
  -1  -3   1   34.40    5.66
  -3   4   1   28.87    5.38
  -4   2  -1   31.28    4.36
   2   2  -1   28.44    4.66
   2   2  -1   48.44    5.91
   2   2  -1   28.08    5.46
  -4   2  -1   32.71    4.78
  -4   2  -1   38.58    3.13
  -2   4   1   36.73    3.35
  -2  -2   1   28.71    4.93
  -2  -2   1   27.87    5.25
   4  -2   1   31.51    3.04
   4  -2   1   28.07    4.65
  -2  -2   1   37.50    5.70
   1  -4  -1   10.00    4.07
  -4   3  -1    7.81    3.82
   3   1  -1    3.53    3.37
  -4   3  -1   10.51    2.96
   3   1  -1   -1.15    4.30
  -4   3  -1    8.93    4.43
   3   1  -1    2.89    4.81
   4  -3   1    5.21    2.99
  -1   4   1   11.63    4.09
  -3  -1   1    3.76    4.49
  -3  -1   1    1.52    4.40
   4  -3   1    3.90    4.78
  -3  -1   1    0.96    3.75
   0  -4  -1  183.63   11.12
   4   0  -1  186.65   10.28
  -4   4  -1  170.47    7.94
   4   0  -1  170.30    8.02
  -4   4  -1  172.30   10.23
   4   0  -1  176.05    9.46
  -4   0   1  186.55   10.43
   0   4   1  162.23   11.05
   4  -4   1  182.32   10.66
  -4   0   1  180.40   10.25
  -4   0   1  167.11    8.49
  -4   0   1  181.72    7.90
  -4   5  -1   32.74    5.98
  -4   5  -1   27.73    2.63
   5  -1  -1   22.52    4.94
  -4   5  -1   14.82    4.36
  -1  -4  -1   27.68    5.66
   5  -1  -1   17.23    4.11
   5  -1  -1   15.07    3.71
   4  -5   1   22.65    4.02
  -5   1   1   18.64    4.57
  -5   1   1   23.63    2.87
  -5   1   1   29.40    5.58
  -5   1   1   21.35    4.12
   1   4   1   19.05    6.36
  -2  -4  -1  185.36   13.12
  -4   6  -1  181.12   12.30
   6  -2  -1  177.09    8.97
   6  -2  -1  195.62    8.58
  -4   6  -1  173.01    8.86
  -4   6  -1  170.39   11.36
   6  -2  -1  183.64    6.78
   6  -2  -1  196.92   10.45
   4  -6   1  172.52    9.35
   2   4   1  146.04   12.68
  -6   2   1  191.13    8.82
  -6   2   1  185.92   10.36
  -3  -4  -1  213.06   14.31
   7  -3  -1  199.56   10.89
   7  -3  -1  195.60    9.43
  -4   7  -1  203.50   10.44
   7  -3  -1  201.46    9.04
   7  -3  -1  191.66    7.25
   3   4   1  221.38   14.98
   4  -7   1  204.03   10.85
   8  -4  -1   15.17    5.00
   8  -4  -1   17.09    4.52
   8  -4  -1    8.24    3.67
  -4  -4  -1   18.35    7.01
  -4   8  -1   21.09    5.22
   8  -4  -1   20.87    2.42
   8  -4  -1   18.54    3.81
  -4  -4  -1   19.33    6.78
   4  -8   1   17.04    4.05
   4   4   1   10.55    7.27
   4  -8   1    8.55    5.24
   9  -5  -1   15.78    3.43
   9  -5  -1   16.20    4.83
   9  -5  -1   20.43    4.63
   9  -5  -1   18.45    5.27
  -5  -4  -1   16.37    7.10
  -5  -4  -1   18.80    6.82
   9  -5  -1   11.13    3.92
   9  -5  -1   14.69    8.09
  -4   9  -1   15.44    5.66
   4  -9   1   13.54    4.45
   5   4   1   15.59    7.74
   4  -9   1   14.12    5.89
  -5  -3  -1    2.51    6.22
   8  -5  -1   10.08    3.90
  -5  -3  -1    8.44    6.08
   8  -5  -1    0.77    3.57
  -3   8  -1   -3.44    5.34
   8  -5  -1    2.27    6.57
   8  -5  -1    3.59    2.91
   8  -5  -1   -2.96    4.19
   8  -5  -1   -2.87    3.49
   5   3   1   -0.34    6.65
   3  -8   1   -0.15    5.23
   3  -8   1   -1.10    4.08
   7  -5  -1  250.46   14.51
  -2   7  -1  209.96   12.84
  -2   7  -1  221.15   14.85
   7  -5  -1  234.97   10.59
  -5  -2  -1  233.53   14.56
   7  -5  -1  223.88   10.71
  -5  -2  -1  218.45   14.74
   7  -5  -1  236.73   11.21
   2  -7   1  223.06   13.11
   5   2   1  207.24   15.04
   2  -7   1  221.75   11.67
   6  -5  -1   45.13    4.04
  -1   6  -1   42.19    6.93
   6  -5  -1   47.63    7.65
   6  -5  -1   40.52    4.84
  -5  -1  -1   44.52    6.64
  -5  -1  -1   46.99    7.49
  -1   6  -1   45.92    7.78
   1  -6   1   45.79    7.00
   5   1   1   66.85    8.40
  -6   5   1   50.34    5.30
   5   1   1   47.38    7.57
  -6   5   1   73.31    8.01
   1  -6   1   49.02    6.48
   5  -5  -1   68.73    8.18
  -5   0  -1   85.04    8.32
   0   5  -1   71.53    8.32
   0   5  -1   81.40    8.09
   5   0   1   68.96    7.53
  -5   5   1   87.98    6.78
   0  -5   1   85.43    8.24
   0  -5   1   64.11    7.04
   5   0   1   69.06    7.86
  -5   5   1   75.87    7.70
  -5   1  -1   23.14    2.73
   1   4  -1   33.04    6.56
   4  -5  -1   17.38    5.78
   1   4  -1   29.40    6.44
  -5   1  -1   21.71    5.74
  -5   1  -1   21.52    3.29
  -1  -4   1   27.27    6.29
  -4   5   1   11.51    5.56
   5  -1   1   11.89    5.36
  -1  -4   1   26.55    5.79
  -4   5   1   23.82    4.92
  -1  -4   1   31.40    6.04
   5  -1   1   27.00    5.42
  -5   2  -1   63.99    6.52
   2   3  -1   64.46    7.34
   2   3  -1   76.77    8.09
  -5   2  -1   63.37    6.44
  -5   2  -1   61.82    3.65
  -2  -3   1   68.34    6.92
  -3   5   1   66.07    4.40
   5  -2   1   72.52    5.82
   5  -2   1   63.95    6.75
  -2  -3   1   63.12    7.08
   5  -2   1   57.69    3.85
  -3   5   1   61.81    6.60
  -2  -3   1   54.94    7.11
   3   2  -1   57.49    7.16
  -5   3  -1   55.98    6.03
   3   2  -1   60.74    7.06
  -5   3  -1   59.56    5.40
   2  -5  -1   59.00    5.71
   5  -3   1   58.40    6.97
  -3  -2   1   53.77    6.89
   5  -3   1   56.52    3.97
   5  -3   1   55.15    5.83
  -3  -2   1   61.47    6.42
  -3  -2   1   52.55    6.91
   4   1  -1   36.08    6.54
  -5   4  -1   31.20    5.86
   1  -5  -1   27.28    5.27
  -5   4  -1   28.05    2.52
   4   1  -1   38.13    5.90
  -5   4  -1   31.14    3.51
   4   1  -1   27.78    4.44
  -5   4  -1   25.39    4.53
  -4  -1   1   25.59    4.99
  -4  -1   1   18.94    5.62
   5  -4   1   24.26    6.14
  -4  -1   1   20.42    5.89
  -5   5  -1   78.71    5.24
   0  -5  -1   84.69    7.90
   5   0  -1   81.82    6.88
  -5   5  -1   93.06    8.04
   5   0  -1   76.99    6.02
   5   0  -1   84.96    7.70
  -5   0   1   80.36    6.57
  -5   0   1   81.00    7.94
  -5   0   1   79.11    5.03
   5  -5   1   78.87    8.08
  -5   0   1   81.23    7.40
   0   5   1   83.26    8.67
  -1  -5  -1   10.72    5.81
  -5   6  -1    3.63    5.26
   6  -1  -1    3.23    3.89
   6  -1  -1    0.99    3.45
   6  -1  -1    7.71    4.44
  -6   1   1    5.44    3.74
  -6   1   1    5.12    5.25
   5  -6   1    4.21    3.66
  -6   1   1    8.24    4.44
  -6   1   1    7.36    2.54
   1   5   1    9.43    6.58
   7  -2  -1    3.66    3.77
  -2  -5  -1    9.82    6.11
   7  -2  -1    5.32    4.44
  -5   7  -1   10.00    3.00
  -5   7  -1    9.35    6.02
   7  -2  -1    4.61    3.63
  -7   2   1    4.05    4.98
   2   5   1    9.42    6.96
  -7   2   1    3.40    3.89
  -7   2   1    6.73    3.83
   5  -7   1   10.04    4.12
  -5   8  -1  214.50   15.24
  -5   8  -1  252.78   11.39
  -3  -5  -1  253.73   16.02
  -3  -5  -1  262.80   16.09
   8  -3  -1  277.23   11.71
   8  -3  -1  250.87   10.87
   5  -8   1  252.52   12.40
  -8   3   1  246.13   11.98
  -8   3   1  243.25   10.91
   3   5   1  262.21   16.81
   9  -4  -1    4.47    4.51
   9  -4  -1   -3.61    3.49
   9  -4  -1   -6.55    4.40
  -5   9  -1    3.81    5.81
   9  -4  -1   -5.52    3.49
  -4  -5  -1    4.61    6.22
  -5   9  -1    3.74    4.35
  -4  -5  -1   -1.08    5.86
   4   5   1    2.58    7.82
   5  -9   1   -1.45    4.61
  10  -5  -1   31.00    8.87
  -5  10  -1   43.54    6.10
  10  -5  -1   29.43    5.76
  10  -5  -1   18.27    5.82
  10  -5  -1   30.60    4.37
  10  -5  -1   32.98    5.30
  10  -5  -1   39.57    4.85
   5   5   1   32.25    9.10
   5 -10   1   33.61    6.67
  11  -6  -1   48.87    5.17
  -5  11  -1   44.55    6.38
  11  -6  -1   48.72    6.54
  11  -6  -1   37.38    9.47
  11  -6  -1   39.10    2.84
  11  -6  -1   32.29    4.21
  11  -6  -1   29.04    6.26
  11  -6  -1   39.32    5.47
   6   5   1   39.38   10.27
   5 -11   1   36.73    5.62
   5 -11   1   44.71    7.43
  10  -6  -1    4.54    7.34
  10  -6  -1   -2.36    3.50
  -4  10  -1    2.17    5.91
  10  -6  -1    9.35    4.13
  10  -6  -1   -4.03    4.56
  10  -6  -1    2.86    4.01
  10  -6  -1   -2.06    2.67
   6   4   1   -6.08    7.58
   4 -10   1   -0.90    5.55
   9  -6  -1    8.25    3.84
   9  -6  -1   12.00    3.94
  -3   9  -1   13.43    6.40
   9  -6  -1    9.29    4.24
   9  -6  -1   10.63    7.64
   9  -6  -1   10.27    4.39
   9  -6  -1   12.61    4.01
  -6  -3  -1   11.33    6.72
  -6  -3  -1    7.77    6.19
   9  -6  -1    7.08    2.70
   3  -9   1   16.12    5.14
   3  -9   1   10.71    6.04
   6   3   1    9.48    7.46
   8  -6  -1   -2.14    3.33
  -6  -2  -1   -4.58    6.13
  -6  -2  -1    2.57    5.56
   8  -6  -1   -0.16    3.61
   8  -6  -1    0.83    6.80
   8  -6  -1   -4.95    2.90
  -2   8  -1    2.37    6.15
   2  -8   1   -0.56    5.50
   2  -8   1    0.78    4.81
   6   2   1    7.17    6.87
   6   2   1   -3.13    6.81
   7  -6  -1   53.05    4.36
  -6  -1  -1   45.49    7.26
   7  -6  -1   54.57    4.75
   7  -6  -1   57.25    8.28
  -6  -1  -1   58.05    8.40
  -1   7  -1   55.85    8.22
  -1   7  -1   74.74    9.46
  -7   6   1   57.49    6.09
   6   1   1   73.43    9.33
   1  -7   1   63.16    8.05
  -7   6   1   80.30    8.84
   6   1   1   61.11    8.91
   1  -7   1   61.03    7.09
  -6   0  -1   92.42    6.79
  -6   0  -1   98.01    9.53
  -6   0  -1   82.66    7.68
   0   6  -1   98.93   10.02
   6  -6  -1   87.04    9.24
   0   6  -1   95.01    9.48
   0  -6   1   86.06    8.43
  -6   6   1   82.00    7.23
   6   0   1   93.23    9.53
   0  -6   1   89.10    9.03
  -6   6   1   82.29    8.74
   6   0   1   93.12    8.98
   5  -6  -1    6.92    6.11
  -6   1  -1    8.18    3.22
   1   5  -1    9.10    6.17
   1   5  -1   10.04    6.63
  -6   1  -1    4.81    4.51
  -6   1  -1    4.89    5.53
   6  -1   1   -0.97    5.24
  -1  -5   1   -0.46    5.27
  -5   6   1    2.52    5.28
  -1  -5   1   12.38    6.23
  -5   6   1    4.91    4.37
   6  -1   1   11.42    4.88
   2   4  -1  167.34   12.60
  -6   2  -1  153.34    9.41
  -6   2  -1  164.91    6.38
  -6   2  -1  161.17    6.57
   2   4  -1  170.39   12.76
  -6   2  -1  171.38   11.99
  -2  -4   1  184.70   11.48
  -4   6   1  167.70   11.35
  -2  -4   1  180.22   12.33
  -2  -4   1  189.41   10.96
   6  -2   1  185.15   10.11
   6  -2   1  169.34   11.73
   3  -6  -1   15.17    4.30
   3   3  -1   11.68    6.13
   3   3  -1   12.44    6.13
  -6   3  -1   20.64    5.51
  -6   3  -1   12.55    4.83
   6  -3   1   16.68    4.98
  -3  -3   1   15.35    6.07
  -3  -3   1   21.17    5.61
  -3  -3   1   17.92    6.00
   6  -3   1   10.36    2.45
   6  -3   1   12.40    3.76
  -6   4  -1    7.45    4.43
   2  -6  -1   18.62    4.92
   4   2  -1   20.70    6.24
   4   2  -1    7.56    5.92
  -6   4  -1    9.18    4.15
   6  -4   1   13.62    3.34
   6  -4   1   27.40    6.45
  -4  -2   1    6.65    5.74
  -4  -2   1   11.99    5.79
  -4  -2   1   11.14    5.17
   6  -4   1   24.33    4.83
  -6   5  -1   46.40    3.87
   5   1  -1   46.21    5.33
   5   1  -1   40.89    6.68
  -6   5  -1   51.04    5.63
  -6   5  -1   45.66    3.97
  -6   5  -1   50.73    7.16
   5   1  -1   41.94    7.25
   1  -6  -1   53.47    6.52
  -5  -1   1   53.76    7.16
  -5  -1   1   56.81    6.20
  -5  -1   1   51.37    7.57
   6  -5   1   52.97    7.52
  -6   6  -1   93.95    8.98
   0  -6  -1   86.88    8.46
   6   0  -1   89.13    6.54
   6   0  -1   95.44    7.81
   6   0  -1  103.16    9.10
  -6   6  -1   94.55    6.70
   0   6   1   88.29    9.43
   6  -6   1  106.56    9.59
  -6   0   1   79.20    7.88
  -6   0   1   84.72    7.05
  -6   0   1   85.12    8.88
  -6   0   1   91.19    5.63
   7  -1  -1   -0.80    3.89
   7  -1  -1   -2.63    3.53
   7  -1  -1    2.32    4.51
  -1  -6  -1   17.53    6.18
  -6   7  -1    2.40    5.90
   6  -7   1    1.55    3.62
  -7   1   1    1.93    4.63
  -7   1   1   -4.86    2.49
   1   6   1   23.45    7.79
  -7   1   1   -5.23    3.75
  -7   1   1   -1.07    5.33
   8  -2  -1   56.66    5.94
  -2  -6  -1   46.91    7.76
   8  -2  -1   44.12    5.25
  -2  -6  -1   58.10    8.28
  -6   8  -1   48.84    7.81
   8  -2  -1   56.74    6.84
  -8   2   1   34.94    5.23
  -8   2   1   48.33    6.28
   2   6   1   48.88    9.28
  -8   2   1   58.14    7.56
   6  -8   1   39.80    5.26
   9  -3  -1   91.88    8.66
   9  -3  -1   94.59    7.03
   9  -3  -1   93.50    7.14
  -3  -6  -1  105.97   10.68
  -3  -6  -1   96.96   10.34
  -6   9  -1  106.07    9.92
  -9   3   1   93.62    7.57
   6  -9   1   99.92    7.90
  -9   3   1  117.25    9.70
  -9   3   1   94.58    7.13
   3   6   1   97.81   11.79
  10  -4  -1   25.25    4.56
  10  -4  -1   12.40    4.08
  -6  10  -1   23.90    4.09
  10  -4  -1   20.36    5.55
   6 -10   1   26.57    5.72
   4   6   1   18.62    8.89
  11  -5  -1    4.81    3.99
  11  -5  -1   -8.16    4.65
  11  -5  -1    1.23    7.85
  11  -5  -1    0.75    4.41
  -6  11  -1   -4.32    3.64
  11  -5  -1    6.07    5.08
   6 -11   1    2.09    5.07
   5   6   1   -5.70    7.79
  12  -6  -1   14.60    5.76
  -6  12  -1   30.53    5.38
  12  -6  -1   24.48    9.52
  12  -6  -1   27.28    5.39
  12  -6  -1   31.90    6.32
  12  -6  -1   21.07    4.82
   6 -12   1   27.02    6.60
   6   6   1   15.11    9.58
  13  -7  -1    8.10    4.40
  13  -7  -1   14.80    9.61
  13  -7  -1   -1.43    5.55
  13  -7  -1   16.73    4.95
  13  -7  -1   12.25    5.33
   7   6   1    5.65    9.05
  12  -7  -1    9.50    4.18
  -5  12  -1   -6.91    5.12
  12  -7  -1    0.38    5.12
  12  -7  -1   10.32    8.84
  12  -7  -1   -3.34    3.71
  12  -7  -1    3.16    2.47
  12  -7  -1    4.48    3.96
   7   5   1    3.14    8.61
   5 -12   1    1.71    4.73
  -4  11  -1   95.66    9.38
  11  -7  -1  103.27    8.15
  11  -7  -1   89.55    7.90
  11  -7  -1   81.18    6.81
  11  -7  -1  108.87    7.10
  11  -7  -1  103.10   12.30
   4 -11   1  108.28   10.43
   4 -11   1   87.45    8.30
   7   4   1   95.68   12.43
  10  -7  -1   46.17    5.48
  10  -7  -1   24.93    4.92
  10  -7  -1   52.59    5.36
  -7  -3  -1   49.24    8.11
  10  -7  -1   61.95   10.19
  10  -7  -1   41.15    5.49
  -3  10  -1   61.73    8.58
  10  -7  -1   49.09    5.83
   3 -10   1   57.96    7.11
   3 -10   1   39.25    7.76
   7   3   1   52.97   10.11
   7   3   1   35.52    9.46
   9  -7  -1    9.01    7.26
   9  -7  -1    4.28    3.53
  -7  -2  -1   17.72    6.93
  -7  -2  -1    0.18    5.85
  -7  -2  -1   15.41    5.47
  -2   9  -1   12.07    6.94
   9  -7  -1    9.70    3.26
   2  -9   1    3.59    5.72
  -9   7   1    6.12    4.42
   7   2   1   10.49    7.52
   2  -9   1    2.87    5.10
   7   2   1    5.22    7.34
  -1   8  -1  154.46   12.19
  -7  -1  -1  142.21   12.12
  -7  -1  -1  115.39   10.32
   8  -7  -1  128.38    6.98
   8  -7  -1  122.21   11.98
  -7  -1  -1  122.47    8.88
   8  -7  -1  137.07    6.96
   7   1   1  144.74   12.46
  -8   7   1  120.05    9.67
  -8   7   1  125.68   11.25
   1  -8   1  144.12   10.36
   1  -8   1  132.00   11.45
   7   1   1  123.80   12.08
  -7   0  -1   23.87    6.18
   0   7  -1   23.05    7.99
  -7   0  -1   30.33    5.00
  -7   0  -1   21.94    7.10
   7  -7  -1   14.56    7.14
   0   7  -1   37.43    7.85
   7   0   1   25.35    6.94
   0  -7   1   37.14    7.57
   0  -7   1   34.94    7.01
  -7   7   1   20.09    5.13
   7   0   1   31.71    7.46
  -7   7   1   27.03    6.99
   1   6  -1   -1.81    6.47
   1   6  -1    2.02    6.51
  -7   1  -1   -2.99    4.80
  -7   1  -1    2.74    6.07
  -7   1  -1   -0.79    3.43
   6  -7  -1   -1.27    6.32
   7  -1   1    3.15    5.00
  -6   7   1   -0.29    4.34
  -1  -6   1    5.60    6.16
  -6   7   1    2.85    6.18
  -1  -6   1    2.43    5.62
   7  -1   1   -3.71    5.68
   5  -7  -1   10.69    3.38
  -7   2  -1    9.27    2.67
  -7   2  -1    8.22    4.48
   2   5  -1    7.33    6.60
  -7   2  -1    6.80    1.97
  -7   2  -1    8.87    5.74
   2   5  -1    8.44    6.69
   7  -2   1    6.85    5.61
  -2  -5   1    6.87    6.27
   7  -2   1   10.13    4.60
  -5   7   1    4.21    5.93
  -2  -5   1    7.73    5.66
  -2  -5   1    8.32    5.95
   3   4  -1  211.72   13.91
  -7   3  -1  187.01   12.33
  -7   3  -1  183.48    9.68
   3   4  -1  182.14   13.57
   4  -7  -1  180.95   10.20
  -4   7   1  190.74    8.87
  -4   7   1  211.82   13.34
   7  -3   1  192.33   10.37
  -3  -4   1  203.01   13.42
  -3  -4   1  194.02   12.52
  -3  -4   1  206.95   12.29
   7  -3   1  227.17   12.50
   4   3  -1  265.06   15.46
   3  -7  -1  249.34   12.09
   4   3  -1  233.17   14.96
  -4  -3   1  231.59   12.74
  -4  -3   1  234.91   14.55
  -4  -3   1  213.88   13.77
   5   2  -1  211.02   13.83
  -7   5  -1  214.41    9.83
  -7   5  -1  209.52   11.95
   2  -7  -1  232.84   12.99
   5   2  -1  226.40   14.79
  -5  -2   1  228.21   13.79
   7  -5   1  221.09   13.58
  -5  -2   1  226.35   13.94
  -5  -2   1  229.56   12.00
   1  -7  -1   63.50    7.68
  -7   6  -1   49.43    4.44
   6   1  -1   55.08    7.33
   6   1  -1   54.18    7.77
  -7   6  -1   61.69    7.97
  -7   6  -1   50.31    5.95
  -6  -1   1   60.69    8.47
  -1   7   1   57.50    8.49
   7  -6   1   54.55    8.28
  -6  -1   1   61.55    6.71
  -6  -1   1   53.96    7.52
  -7   7  -1   26.04    4.47
   7   0  -1   17.65    6.17
   7   0  -1   33.10    5.78
  -7   7  -1   37.47    7.03
   7   0  -1   26.74    4.39
   0  -7  -1   25.38    6.96
  -7   0   1   30.84    3.98
  -7   0   1   35.29    6.89
  -7   0   1   18.30    6.77
   0   7   1   28.37    7.84
   7  -7   1   41.47    7.96
  -7   0   1   31.31    5.44
   8  -1  -1   20.71    5.68
  -1  -7  -1    9.24    6.41
   8  -1  -1   18.63    4.94
  -7   8  -1    5.02    6.42
   8  -1  -1   10.66    4.01
  -1  -7  -1   19.78    6.55
  -8   1   1   16.67    5.75
   7  -8   1    8.52    3.94
  -8   1   1   17.49    2.99
  -8   1   1   25.06    6.97
   1   7   1   19.45    8.04
  -8   1   1   10.22    4.68
  -2  -7  -1   13.01    6.58
   9  -2  -1   14.92    5.76
  -7   9  -1   21.80    6.82
   9  -2  -1    2.62    3.85
   9  -2  -1   10.23    4.37
  -9   2   1   21.58    5.57
   7  -9   1   16.02    4.34
  -9   2   1   11.89    4.46
   2   7   1   20.60    8.48
  -9   2   1   13.56    6.46
  10  -3  -1   53.66    5.96
  10  -3  -1   53.26    5.80
  10  -3  -1   45.65    7.43
 -10   3   1   55.30    5.77
   3   7   1   57.86   10.66
 -10   3   1   43.80    6.11
 -10   3   1   45.95    7.74
   7 -10   1   47.77    6.12
  11  -4  -1    9.94    4.32
  11  -4  -1   -6.38    5.83
  11  -4  -1    2.39    5.06
  11  -4  -1   -4.76    3.54
   7 -11   1   -6.03    4.25
   4   7   1   10.13    8.87
  12  -5  -1   17.53    5.97
  12  -5  -1   12.31    5.26
  12  -5  -1   10.75    5.90
  12  -5  -1   25.84    4.89
   5   7   1    8.60    9.29
   7 -12   1   16.84    5.72
  13  -6  -1   55.69    6.83
  13  -6  -1   55.39    7.99
  13  -6  -1   54.98   11.94
  13  -6  -1   62.75    6.17
  13  -6  -1   70.42    8.70
   7 -13   1   67.32    8.36
   6   7   1   48.82   11.98
  14  -7  -1    3.49    4.19
  14  -7  -1    7.81    4.98
  14  -7  -1  -10.27    4.85
  14  -7  -1   -2.21    4.98
  14  -7  -1    8.48   10.20
   7   7   1    0.00    9.88
  15  -8  -1    2.15    4.43
  15  -8  -1    1.28   10.60
  15  -8  -1   -0.44    4.30
  15  -8  -1   -0.23    5.91
  -8  -7  -1   -2.07    7.52
  15  -8  -1   -6.42    5.65
   8   7   1   -4.84   10.46
   8   7   1   14.69   11.10
  14  -8  -1    2.27   10.27
  14  -8  -1    3.28    4.31
  14  -8  -1   -4.78    4.56
  -8  -6  -1    3.82    6.87
  14  -8  -1    4.15    4.36
   8   6   1   -5.42    9.95
   8   6   1   -0.03    9.61
  13  -8  -1   12.95   10.11
  13  -8  -1   17.64    4.58
  13  -8  -1   13.11    5.28
  -8  -5  -1   12.68    7.02
  13  -8  -1   18.55    5.86
  -5  13  -1   18.63    6.29
   8   5   1    9.91    9.99
   5 -13   1   27.78    5.86
   8   5   1   23.52    9.91
  12  -8  -1    8.20    5.00
  -8  -4  -1    3.18    6.33
  12  -8  -1    8.92    4.47
  -4  12  -1    5.24    6.54
  12  -8  -1    4.23    4.46
  12  -8  -1   10.34    9.11
   8   4   1   -2.14    8.77
   8   4   1    4.99    9.27
   4 -12   1    8.48    5.44
  -8  -3  -1   13.33    6.16
  11  -8  -1    5.13    4.33
  11  -8  -1   11.28    8.37
  11  -8  -1   17.89    5.11
  11  -8  -1   10.09    3.72
  11  -8  -1   13.97    4.40
  -3  11  -1    2.41    7.06
   3 -11   1   20.40    5.85
   8   3   1    2.24    8.18
   8   3   1   16.71    8.76
  -8  -2  -1    9.04    6.18
  10  -8  -1    1.67    7.51
  -8  -2  -1    2.14    5.15
  -2  10  -1   19.43    7.60
  10  -8  -1    1.70    3.04
  10  -8  -1   -0.18    3.55
   8   2   1    5.70    7.75
   8   2   1    7.80    7.69
 -10   8   1    8.86    4.33
   2 -10   1    2.11    5.34
   9  -8  -1   57.99    4.69
  -8  -1  -1   45.61    8.12
   9  -8  -1   59.75    9.86
  -8  -1  -1   53.13    9.28
  -1   9  -1   61.21    9.65
  -8  -1  -1   51.24    6.87
   1  -9   1   61.61    8.97
   1  -9   1   58.13    7.82
  -9   8   1   49.06    6.42
  -8   0  -1    9.41    6.66
   8  -8  -1   18.53    2.84
   0   8  -1   10.07    7.57
  -8   0  -1    8.49    4.49
   8  -8  -1   10.58    7.66
  -8   0  -1   18.76    6.40
   0  -8   1   16.84    6.92
   8   0   1   11.02    6.91
  -8   8   1   16.68    6.68
   0  -8   1   11.35    6.03
   8   0   1   11.50    6.17
  -8   8   1    9.87    4.87
  -8   1  -1    3.05    3.85
   7  -8  -1    8.03    6.81
  -8   1  -1   17.53    5.86
  -8   1  -1    3.58    5.96
   1   7  -1   14.54    7.48
   8  -1   1    2.73    6.41
   8  -1   1   12.19    5.72
  -1  -7   1   10.83    6.32
  -7   8   1   14.06    6.66
  -1  -7   1   16.83    7.00
  -7   8   1   14.58    5.43
   2   6  -1   55.78    9.00
  -8   2  -1   46.32    7.81
   2   6  -1   55.26    9.13
  -8   2  -1   53.05    6.25
   6  -8  -1   48.97    4.47
  -8   2  -1   51.37    4.18
   8  -2   1   46.21    6.66
  -2  -6   1   57.49    8.70
   8  -2   1   56.21    8.15
  -2  -6   1   34.11    7.45
  -6   8   1   39.75    7.98
   3   5  -1  236.92   15.82
  -8   3  -1  251.39   14.49
   3   5  -1  268.24   16.24
   5  -8  -1  257.51   11.66
  -8   3  -1  250.13    8.77
  -8   3  -1  238.07   11.85
   8  -3   1  229.73   12.72
   8  -3   1  256.55   14.45
  -3  -5   1  234.94   15.61
  -3  -5   1  248.58   14.95
  -5   8   1  255.06   14.61
  -3  -5   1  251.05   14.02
  -5   8   1  263.62    9.81
  -8   4  -1   22.13    3.11
   4   4  -1   10.48    7.04
  -8   4  -1   23.37    5.46
   4   4  -1   13.48    7.40
   4  -8  -1   19.12    4.89
   8  -4   1   17.84    4.29
   8  -4   1   12.07    2.47
  -4  -4   1   17.66    6.47
  -4  -4   1   22.86    6.84
  -4  -4   1   20.39    6.92
   8  -4   1   15.66    5.39
   5   3  -1    4.35    6.73
   3  -8  -1    3.42    5.00
   5   3  -1    8.98    6.74
  -8   5  -1    3.55    4.03
  -8   5  -1    0.33    5.11
   8  -5   1    7.16    6.68
   8  -5   1    6.36    4.82
  -5  -3   1    1.13    5.62
  -5  -3   1    3.75    6.13
   8  -5   1    3.69    3.07
  -5  -3   1    5.19    6.08
  -8   6  -1    0.32    2.52
  -8   6  -1   -1.69    4.43
   6   2  -1   -3.18    6.40
   2  -8  -1   -6.31    4.79
   6   2  -1    4.72    6.16
  -8   6  -1    4.15    3.17
  -6  -2   1    3.98    6.07
  -6  -2   1    7.31    6.12
   8  -6   1   -2.43    6.73
  -6  -2   1    0.46    5.11
   7   1  -1  124.15   10.23
   1  -8  -1  132.74   11.11
   1  -8  -1  131.61   10.62
  -8   7  -1  146.72   11.75
  -8   7  -1  116.96    9.44
   7   1  -1  132.34   11.52
  -8   7  -1  130.76    7.74
  -7  -1   1  105.67   11.32
  -1   8   1  133.12   11.71
  -7  -1   1  132.30    9.40
  -7  -1   1  125.88   10.92
   8  -7   1  119.00   11.32
  -8   8  -1   21.68    4.51
   0  -8  -1   19.13    6.69
   0  -8  -1   20.26    6.72
   8   0  -1   26.61    6.64
  -8   8  -1   27.36    7.12
   8   0  -1   22.88    5.66
   0   8   1   13.65    7.84
  -8   0   1   13.82    3.72
   8  -8   1   15.14    7.46
  -8   0   1   16.68    6.86
  -8   0   1   12.48    5.06
  -8   0   1   16.64    6.35
   9  -1  -1   13.52    4.22
  -8   9  -1    5.98    3.84
   9  -1  -1   10.69    4.75
  -1  -8  -1   20.91    6.85
   9  -1  -1   15.43    6.00
  -9   1   1    9.52    5.67
   8  -9   1    9.44    3.72
  -9   1   1    5.75    4.50
  -9   1   1   13.61    2.79
  -9   1   1    8.52    6.37
   1   8   1   22.39    8.67
  10  -2  -1  102.53    7.76
  10  -2  -1   99.27   10.03
  10  -2  -1   96.53    8.27
 -10   2   1  116.43    9.35
 -10   2   1  108.91    7.95
 -10   2   1  119.86   11.37
   8 -10   1  115.76    7.97
   2   8   1   83.05   12.02
  11  -3  -1   -0.86    5.18
  11  -3  -1   17.56    4.82
 -11   3   1    8.94    4.45
   3   8   1   18.49    9.35
 -11   3   1    9.97    6.05
   8 -11   1   10.56    4.48
  12  -4  -1   20.64    6.70
  12  -4  -1   14.66    7.57
   4   8   1    7.78    9.45
   8 -12   1   14.08    5.42
  13  -5  -1    4.00    4.44
  13  -5  -1   -1.07    5.08
  13  -5  -1    1.97    5.76
  13  -5  -1    0.14    5.69
   5   8   1   -5.10    9.04
   8 -13   1    7.85    5.11
  14  -6  -1   79.53   12.86
  14  -6  -1   75.37    6.81
  14  -6  -1   78.70    9.38
  14  -6  -1   85.66   10.11
  14  -6  -1   80.98    7.73
   8 -14   1   60.20    8.06
   6   8   1   70.03   13.72
  15  -7  -1   17.64    6.62
  15  -7  -1   13.95    4.88
  15  -7  -1   14.73   11.73
  15  -7  -1   22.35    7.30
  15  -7  -1   27.69    5.91
   7   8   1   27.51   12.10
   7   8   1   16.88   12.26
  16  -8  -1   31.30    8.16
  16  -8  -1   14.87   11.73
  16  -8  -1   20.16    7.15
  16  -8  -1   33.66    5.49
  -8  -8  -1   35.30    9.66
   8   8   1   45.87   13.06
   8   8   1   38.86   13.34
  17  -9  -1   48.56    8.95
  17  -9  -1   19.24    6.51
  17  -9  -1   23.55   12.55
  -9  -8  -1   32.78    9.77
   9   8   1   59.25   14.54
   9   8   1   43.25   13.85
  16  -9  -1   -9.05    5.10
  -9  -7  -1   -3.23    7.38
  16  -9  -1   -4.54   11.23
   9   7   1   24.67   11.99
   9   7   1   16.42   12.16
  15  -9  -1    5.27    4.56
  -9  -6  -1   15.40    7.92
  15  -9  -1   -2.85    5.21
  15  -9  -1   -8.98   10.50
  15  -9  -1  -18.21    4.73
   9   6   1    2.86   10.37
   9   6   1    0.40   10.50
  14  -9  -1  -20.00    4.45
  14  -9  -1  -12.40    9.97
  -9  -5  -1    8.27    7.14
  -5  14  -1    6.37    6.37
  14  -9  -1    1.51    4.40
  14  -9  -1   -2.03    4.55
   9   5   1    2.52    9.81
   5 -14   1   -2.28    5.13
   9   5   1   -6.11    9.53
  -4  13  -1   12.70    6.99
  13  -9  -1   12.64    5.10
  13  -9  -1   17.72    4.93
  13  -9  -1    6.44    9.89
  -9  -4  -1   19.10    6.74
  13  -9  -1   15.30    4.72
   4 -13   1    8.09    5.64
   9   4   1    1.12    9.44
   9   4   1   22.80   10.37
  12  -9  -1    6.40    5.11
  12  -9  -1   -0.39    4.16
  12  -9  -1    0.49    4.13
  12  -9  -1    0.95    3.60
  12  -9  -1   -4.60    8.43
  -9  -3  -1    1.68    5.75
  -3  12  -1   -7.67    6.03
   3 -12   1    4.93    5.48
   9   3   1  -12.03    8.56
   9   3   1    8.57    8.80
  -2  11  -1   85.00   11.08
  11  -9  -1  105.13    7.25
  11  -9  -1  136.12   13.49
  -9  -2  -1   83.33    8.88
   9   2   1   84.52   12.44
   9   2   1   81.69   11.93
   2 -11   1   91.50    9.64
  10  -9  -1  234.59   16.32
  -9  -1  -1  185.99   11.27
  10  -9  -1  200.42    8.65
  -1  10  -1  199.23   15.03
  -9  -1  -1  213.93   14.64
   9   1   1  218.43   16.54
   1 -10   1  188.37   13.11
 -10   9   1  209.75   11.52
   9   1   1  176.20   15.86
   9  -9  -1   -1.30    7.08
   0   9  -1    7.67    7.84
  -9   0  -1    6.60    4.57
  -9   0  -1   -2.26    5.47
   0  -9   1    6.96    6.06
   9   0   1   -2.49    6.75
  -9   9   1   -0.84    4.62
   9   0   1    0.49    6.43
   1   8  -1    9.30    7.59
  -9   1  -1    8.83    4.09
  -9   1  -1   12.02    6.26
   8  -9  -1   -2.35    6.64
  -9   1  -1    5.62    5.38
   9  -1   1   12.23    6.06
  -1  -8   1   18.79    6.73
  -8   9   1    9.06    5.06
   9  -1   1    7.62    6.88
   7  -9  -1   16.64    3.29
   2   7  -1   29.36    8.28
  -9   2  -1   13.28    5.05
  -9   2  -1    8.24    3.23
  -9   2  -1   18.98    6.49
   9  -2   1   31.27    7.55
  -2  -7   1    7.29    6.24
   9  -2   1   19.65    6.07
  -7   9   1   13.65    5.75
  -9   3  -1   94.25    9.50
  -9   3  -1   95.86    7.19
   3   6  -1   95.88   10.98
  -9   3  -1   85.68    4.91
   6  -9  -1   94.58    7.20
   3   6  -1  105.86   11.53
   9  -3   1  101.22    8.57
  -3  -6   1   83.65   10.27
  -6   9   1   97.88    9.96
  -3  -6   1   78.15    9.59
   9  -3   1   89.34    9.46
  -3  -6   1  102.10   10.81
  -9   4  -1    7.47    5.30
   5  -9  -1   -3.08    3.93
   4   5  -1    2.06    7.08
  -9   4  -1    2.97    3.21
   4   5  -1    2.64    6.98
  -4  -5   1   -7.14    6.18
  -5   9   1   -0.65    5.72
  -5   9   1    1.86    3.42
   9  -4   1    6.72    5.71
  -4  -5   1    0.06    6.01
   9  -4   1   -0.29    3.91
   9  -4   1    1.26    2.21
  -4  -5   1    1.44    6.04
   5   4  -1   11.81    7.51
   5   4  -1   15.69    7.67
   4  -9  -1   17.37    5.25
  -9   5  -1   16.31    5.05
   9  -5   1   16.60    7.96
   9  -5   1   25.26    5.77
   9  -5   1   14.63    2.90
  -5  -4   1   10.77    6.42
  -5  -4   1   19.33    7.07
  -5  -4   1   15.74    6.81
   3  -9  -1    7.38    5.84
   6   3  -1   19.59    7.81
   3  -9  -1    1.92    5.26
   6   3  -1    6.82    6.81
  -9   6  -1    9.98    4.09
   9  -6   1   10.17    2.13
   9  -6   1   14.60    5.28
   9  -6   1   14.41    3.64
   9  -6   1    8.98    7.67
  -6  -3   1   16.89    7.00
  -6  -3   1    7.38    5.83
  -6  -3   1    8.52    6.84
   7   2  -1   11.58    6.32
  -9   7  -1   11.18    5.11
  -9   7  -1    2.96    2.76
   2  -9  -1    5.33    5.70
   7   2  -1   11.38    7.15
   2  -9  -1    3.32    5.46
  -7  -2   1    7.97    6.66
  -7  -2   1    7.85    6.34
   9  -7   1   15.34    7.69
  -7  -2   1   -3.55    5.16
   1  -9  -1   61.33    8.29
   8   1  -1   47.80    8.38
  -9   8  -1   64.63    6.56
   8   1  -1   61.12    7.89
  -9   8  -1   57.30    5.22
  -8  -1   1   80.84    9.18
  -8  -1   1   57.21    7.27
  -1   9   1   53.50    9.66
   9  -8   1   58.03    9.79
   0  -9  -1   -3.62    5.74
   9   0  -1   -0.63    5.55
   9   0  -1    0.92    4.77
  -9   9  -1   -0.97    3.62
  -9   9  -1    1.73    3.50
  -9   0   1    3.59    5.78
  -9   0   1    0.70    3.31
   9  -9   1    0.69    7.78
  -9   0   1    1.33    4.59
   0   9   1  -10.38    7.11
  10  -1  -1   55.22    7.15
  -9  10  -1   58.54    5.45
  10  -1  -1   66.71    8.96
 -10   1   1   48.11    6.45
   9 -10   1   56.68    5.13
   1   9   1   72.01   11.05
 -10   1   1   55.36    3.78
 -10   1   1   51.74    7.65
  11  -2  -1    6.43    5.99
  -9  11  -1    3.18    2.93
 -11   2   1    5.11    4.45
   9 -11   1    4.83    4.19
 -11   2   1    3.84    5.00
   2   9   1    3.22    8.84
  12  -3  -1    4.85    5.65
  12  -3  -1   -4.63    4.53
   9 -12   1    6.02    4.48
 -12   3   1   -0.96    4.39
   3   9   1    5.52    9.32
  13  -4  -1   -5.74    6.83
  13  -4  -1    2.01    6.21
  13  -4  -1    3.17    4.66
   9 -13   1    5.36    4.66
   4   9   1  -10.28    9.02
  14  -5  -1   45.68    8.93
  14  -5  -1   35.96    8.00
  14  -5  -1   38.02    6.76
   9 -14   1   19.33    5.98
   5   9   1   35.20   12.17
  15  -6  -1    9.28    7.63
  15  -6  -1   -1.93    6.14
  15  -6  -1    0.78    4.56
  15  -6  -1   -1.79    5.06
  15  -6  -1   -8.66    9.91
   6   9   1  -13.34   10.24
  16  -7  -1    5.99    6.19
  -7  -9  -1   15.20    8.53
  16  -7  -1   -3.78    5.17
  16  -7  -1   -8.73   10.39
  16  -7  -1   19.00    7.61
   7   9   1    1.36   10.61
   7   9   1    0.06   11.29
  17  -8  -1    7.71   11.46
  17  -8  -1   13.26    8.01
  -8  -9  -1   -9.37    7.94
  17  -8  -1  -10.15    5.14
   8   9   1    4.86   11.79
   8   9   1   17.94   12.20
 -10  -7  -1   21.91    9.22
  17 -10  -1   48.08   14.36
  17 -10  -1   48.65    8.49
  17 -10  -1   19.79    5.90
  10   7   1   35.84   13.36
  10   7   1   28.05   12.92
 -10  -6  -1    3.70    7.87
  16 -10  -1  -10.06    4.34
  16 -10  -1   19.46    6.26
  16 -10  -1   10.85   11.95
  10   6   1    1.35   11.11
  10   6   1    2.84   11.32
  15 -10  -1  -12.15    4.45
 -10  -5  -1    7.14    7.33
  -5  15  -1   33.44    7.79
  15 -10  -1   21.77   11.72
  15 -10  -1   36.01    6.36
  15 -10  -1   10.05    4.67
  10   5   1   -5.67   10.30
   5 -15   1    9.06    5.69
  10   5   1   23.29   11.79
 -10  -4  -1   37.07    8.33
  -4  14  -1   47.11    9.25
  14 -10  -1   51.74    6.33
  14 -10  -1   17.97    5.46
  14 -10  -1   49.17   12.59
  10   4   1   36.72   11.63
  10   4   1   34.45   12.03
 -10  -3  -1   15.41    6.73
  13 -10  -1   -0.96    5.26
  -3  13  -1   12.93    7.67
  13 -10  -1   10.38    4.82
  13 -10  -1    6.35    3.87
  13 -10  -1    3.28    9.84
  10   3   1   15.36    9.93
  10   3   1   18.53   10.06
  12 -10  -1   58.45   11.30
  12 -10  -1   43.66    4.03
  -2  12  -1   70.71   10.84
 -10  -2  -1   41.66    7.37
  10   2   1   62.33   11.42
  10   2   1   43.18   10.50
 -10  -1  -1    4.30    5.34
  -1  11  -1    1.40    7.80
 -10  -1  -1   12.54    6.02
  11 -10  -1    6.53    2.91
  11 -10  -1   16.74    9.15
 -11  10   1   11.21    4.33
  10   1   1    2.28    8.10
  10   1   1    9.23    8.40
  10 -10  -1  144.52   14.32
 -10   0  -1  151.88   12.68
   0  10  -1  141.95   13.59
 -10   0  -1  131.49    9.08
  10 -10  -1  131.43    8.38
  10   0   1  128.51   13.62
 -10  10   1  133.02   10.34
  10   0   1  140.71   13.15
   1   9  -1   52.94   10.29
 -10   1  -1   54.16    7.62
 -10   1  -1   49.68    3.66
 -10   1  -1   50.35    5.74
   9 -10  -1   53.15    5.63
  10  -1   1   47.59    9.45
  10  -1   1   65.61    9.20
  -9  10   1   62.05    7.59
   2   8  -1  107.55   12.36
 -10   2  -1  113.15    8.95
 -10   2  -1  104.92   10.63
 -10   2  -1   93.31    6.29
   8 -10  -1   95.29    5.98
  10  -2   1  113.17   11.66
  10  -2   1  105.31   10.13
  -8  10   1  107.10    9.01
 -10   3  -1   47.10    4.13
   7 -10  -1   53.73    4.89
   3   7  -1   58.45   10.40
 -10   3  -1   64.43    6.27
 -10   3  -1   64.63    8.48
  10  -3   1   71.37    9.13
  10  -3   1   45.13    7.11
  -3  -7   1   60.28    9.06
   6 -10  -1   24.02    4.58
   6 -10  -1   22.39    5.81
 -10   4  -1   30.68    6.61
 -10   4  -1   21.15    4.18
   4   6  -1   23.45    8.30
  -6  10   1   27.88    2.92
  10  -4   1   24.57    5.35
  -4  -6   1   34.85    7.77
  10  -4   1   33.08    7.21
 -10   5  -1   37.57    6.53
   5 -10  -1   31.99    6.37
   5 -10  -1   33.59    5.62
   5   5  -1   38.52    9.10
  10  -5   1   32.00    5.25
  -5  -5   1   30.55    7.66
  10  -5   1   40.21    6.81
  10  -5   1   35.15    8.68
   6   4  -1    1.34    7.30
   4 -10  -1    6.84    5.48
   4 -10  -1    0.23    4.91
 -10   6  -1   -1.24    4.18
   6   4  -1   -7.26    6.76
  -6  -4   1    0.99    6.22
  10  -6   1    0.10    2.92
  10  -6   1    5.29    5.16
  10  -6   1   -0.94    6.92
   7   3  -1   53.18    9.32
   3 -10  -1   51.17    7.14
   7   3  -1   40.42    9.18
 -10   7  -1   47.78    4.77
   3 -10  -1   48.64    8.07
  10  -7   1   60.65    5.40
  -7  -3   1   37.79    7.51
  10  -7   1   48.59    9.56
  10  -7   1   52.07    3.86
  -7  -3   1   39.95    8.57
   8   2  -1   16.36    6.67
 -10   8  -1    1.98    2.75
   2 -10  -1    9.27    5.99
   8   2  -1   11.80    7.44
  -8  -2   1   -4.01    5.85
  10  -8   1    6.75    7.87
  -8  -2   1   -0.24    5.42
   1 -10  -1  202.24   14.81
   9   1  -1  206.24   15.89
 -10   9  -1  222.31   10.20
 -10   9  -1  208.81   11.85
  10  -9   1  199.48   15.89
  -9  -1   1  220.44   11.02
  -9  -1   1  186.91   14.98
  -1  10   1  226.06   16.59
  -9  -1   1  198.16   12.15
 -10  10  -1  126.34    8.29
  10   0  -1  120.43   12.11
 -10  10  -1  124.66    8.60
 -10   0   1  124.46    7.05
 -10   0   1  137.62   11.85
  10 -10   1  156.77   13.95
 -10   0   1  120.43    9.32
   0  10   1  137.49   14.03
 -10  11  -1   14.06    3.41
  11  -1  -1   -8.75    5.80
 -10  11  -1    6.82    4.05
 -11   1   1    0.93    4.89
 -11   1   1    7.58    5.57
 -11   1   1    3.23    2.06
   1  10   1    7.29    9.30
  12  -2  -1   26.69    7.67
 -10  12  -1   29.40    3.91
 -12   2   1   32.11    6.50
 -12   2   1   23.21    5.77
   2  10   1   15.90    9.80
  10 -12   1   27.01    4.89
  13  -3  -1    8.33    9.19
  13  -3  -1    6.44    6.16
 -10  13  -1   13.33    2.88
 -13   3   1    3.52    4.30
  10 -13   1    8.66    4.67
   3  10   1   17.25   10.61
  14  -4  -1   15.64    8.74
 -10  14  -1    5.22    2.57
  14  -4  -1   10.11    7.32
   4  10   1   10.25   11.17
  10 -14   1    6.01    5.31
  15  -5  -1    1.21    5.75
  15  -5  -1    2.58    6.17
  15  -5  -1    5.01    7.82
  10 -15   1    3.35    4.76
   5  10   1    8.36   11.20
  16  -6  -1   22.12    6.14
  16  -6  -1   12.62   11.54
  16  -6  -1   20.26    8.60
  16  -6  -1   28.00    7.99
   6  10   1   34.56   13.05
   6  10   1   38.53   13.15
  17  -7  -1   26.81    7.76
  17  -7  -1   38.02    9.83
  17  -7  -1   19.99   12.61
  -7 -10  -1    8.65    8.98
   7  10   1   11.55   12.52
   7  10   1   15.47   12.60
  17 -11  -1   33.69   13.21
 -11  -6  -1   39.08    9.35
  11   6   1   20.37   12.30
  11   6   1   31.25   13.26
 -11  -5  -1  -12.52    6.61
  16 -11  -1   17.18   12.06
  11   5   1   11.26   11.71
  11   5   1  -16.96    9.77
  -4  15  -1    4.91    7.30
  15 -11  -1    5.07   11.03
  15 -11  -1   -4.96    4.75
 -11  -4  -1   16.38    7.13
  11   4   1    7.03   11.05
  11   4   1   21.82   11.12
 -11  -3  -1    1.27    6.32
  14 -11  -1    4.63   10.55
  -3  14  -1   -2.88    7.32
  14 -11  -1    5.87    4.89
  14 -11  -1    0.31    5.30
  11   3   1   17.53   10.94
  11   3   1    2.95   10.17
  -2  13  -1   -3.98    7.40
 -11  -2  -1   12.61    6.13
  13 -11  -1   -2.98    9.38
  11   2   1    8.88    9.50
  11   2   1   17.97   10.08
 -11  -1  -1    8.26    5.77
  -1  12  -1    7.06    8.77
  12 -11  -1   -4.37    9.07
  11   1   1    2.54    9.05
  11   1   1   11.74    8.97
 -12  11   1    5.27    4.20
 -11   0  -1   30.41    7.37
  11 -11  -1   32.76    4.35
 -11   0  -1   38.94    6.16
   0  11  -1   26.19    9.60
  11 -11  -1   33.05    9.81
  11   0   1   39.66    9.95
 -11  11   1   30.06    5.73
  11   0   1   51.75   10.05
 -11   1  -1    8.00    4.47
 -11   1  -1    5.73    2.03
 -11   1  -1    6.07    5.88
   1  10  -1   15.21    8.54
  10 -11  -1   -1.77    3.83
  11  -1   1   14.35    7.12
 -10  11   1   -7.15    4.52
  11  -1   1    3.40    7.89
 -11   2  -1    3.92    3.30
   9 -11  -1    0.02    4.23
   2   9  -1   29.15    9.42
 -11   2  -1    3.63    5.02
  -9  11   1    0.11    5.06
  11  -2   1    0.91    5.83
  11  -2   1    2.80    7.34
   8 -11  -1   13.69    3.17
 -11   3  -1   15.25    3.00
 -11   3  -1    0.59    6.09
   3   8  -1   12.85    8.85
   8 -11  -1    5.55    4.79
 -11   3  -1   18.34    5.30
  11  -3   1    9.86    5.76
  11  -3   1    1.18    7.06
  -8  11   1   16.89    6.22
  -3  -8   1   11.93    7.24
 -11   4  -1    3.01    5.70
 -11   4  -1    3.25    3.30
   7 -11  -1    6.43    3.82
   4   7  -1   -5.88    7.79
   7 -11  -1    2.97    4.71
  11  -4   1   13.68    6.68
  -4  -7   1    6.69    7.16
  11  -4   1    8.71    4.95
 -11   5  -1    0.75    5.52
   6 -11  -1   10.14    5.47
   5   6  -1   -6.67    7.50
   6 -11  -1    2.71    4.29
 -11   5  -1   -7.37    2.04
  11  -5   1    4.66    4.24
  11  -5   1    0.70    5.73
  -6  11   1   -1.72    2.95
  -5  -6   1   -8.33    6.16
  11  -5   1    1.47    2.26
 -11   6  -1   42.04    6.43
   6   5  -1   48.07    9.96
  11  -6   1   41.12    7.42
  -6  -5   1   38.76    8.14
  11  -6   1   45.25   10.11
   4 -11  -1  112.98    9.63
   7   4  -1   88.22   11.91
 -11   7  -1   90.74    6.71
  11  -7   1   94.63    6.35
  11  -7   1  102.91    9.23
  11  -7   1   75.02   11.34
  -7  -4   1   90.73   10.40
   3 -11  -1    9.78    5.98
   8   3  -1   18.33    8.31
  11  -8   1    2.31    8.29
  11  -8   1   12.30    2.84
  -8  -3   1    9.34    6.22
  11  -8   1    9.38    3.13
  11  -8   1   14.80    4.54
   2 -11  -1  101.74    9.86
 -11   9  -1   91.66    6.19
   9   2  -1   83.29   11.59
  -9  -2   1   82.31    8.97
  11  -9   1   95.09   12.14
 -11  10  -1    9.46    3.47
  10   1  -1    1.92    7.21
 -10  -1   1    4.47    3.93
  -1  11   1    2.18    8.51
 -10  -1   1   12.70    6.34
  11 -10   1   11.50    8.67
 -11  11  -1   30.94    4.74
 -11  11  -1   33.73    5.09
  11   0  -1   42.61    9.00
 -11   0   1   34.05    3.95
   0  11   1   43.88   10.84
 -11   0   1   38.65    6.69
 -11   0   1   68.08    8.84
  11 -11   1   29.21    9.83
 -11  12  -1   14.97    3.35
 -11  12  -1   15.63    4.09
  12  -1  -1    9.56    7.15
 -12   1   1   12.99    6.13
   1  11   1    7.41    9.76
 -12   1   1    2.37    5.43
  13  -2  -1   64.22   10.65
 -11  13  -1   65.84    7.25
 -11  13  -1   69.52    5.30
   2  11   1   50.52   12.24
 -13   2   1   68.37    7.23
 -13   2   1   65.00    8.38
  11 -13   1   71.20    6.40
 -11  14  -1   19.40    2.92
  14  -3  -1   31.26   10.62
  14  -3  -1   24.89    8.38
  11 -14   1   18.41    4.96
   3  11   1   20.64   11.70
 -14   3   1   20.35    5.09
  15  -4  -1   -0.73    8.52
  15  -4  -1    9.31    7.19
   4  11   1    0.90   11.17
  16  -5  -1   53.11   11.40
  16  -5  -1   45.17    9.89
  16  -5  -1   49.59    7.94
   5  11   1   77.93   15.53
   5  11   1   79.85   15.23
  -6 -11  -1    2.86    8.72
  17  -6  -1   16.93   12.68
  17  -6  -1   18.16    9.99
  17  -6  -1   -0.34    7.17
   6  11   1    8.56   11.99
   6  11   1   -8.38   10.69
  17 -12  -1   52.54   14.42
 -12  -5  -1   39.68    9.23
  12   5   1   36.93   13.30
  12   5   1   20.63   13.21
 -12  -4  -1   17.63    7.56
  16 -12  -1   11.24   12.08
  -4  16  -1   12.44    8.31
  12   4   1   20.86   12.10
  12   4   1   27.45   12.47
 -12  -3  -1   -2.62    6.19
  15 -12  -1   -4.67   11.06
  -3  15  -1   11.34    7.99
  12   3   1   20.06   11.75
  12   3   1   -0.37   10.29
 -12  -2  -1   19.89    7.21
  -2  14  -1   22.39    9.16
  14 -12  -1   30.11   12.06
  12   2   1   19.52   10.88
  12   2   1   28.11   11.25
  13 -12  -1    5.87   10.42
 -12  -1  -1    0.04    6.01
  -1  13  -1    4.50    9.25
  12   1   1    7.77    9.98
  12   1   1   -5.10    9.70
 -13  12   1   13.23    4.81
  12 -12  -1   17.49    9.78
   0  12  -1    3.73    8.92
  12 -12  -1   -1.30    3.21
 -12   0  -1   -2.62    4.40
  12   0   1   -2.26    8.83
 -12  12   1   -0.18    4.18
  12   0   1    4.35    8.33
 -12   1  -1   17.74    4.47
   1  11  -1    4.01    8.74
  11 -12  -1   15.79    4.51
 -12   1  -1   12.15    5.52
  12  -1   1   24.11    8.13
  12  -1   1   -2.28    8.18
 -11  12   1    5.62    4.64
 -12   2  -1   30.79    6.75
 -12   2  -1   39.00    4.62
  10 -12  -1   24.64    5.26
   2  10  -1   15.64    9.33
  -2 -10   1   18.91    8.40
 -10  12   1   23.67    5.80
  12  -2   1   33.62    9.35
  12  -2   1   24.32    7.35
   3   9  -1    6.61    8.77
 -12   3  -1    5.65    2.87
 -12   3  -1   11.14    4.14
   9 -12  -1   10.47    5.05
  -3  -9   1    6.19    7.44
  12  -3   1   16.25    8.25
  12  -3   1    3.39    5.86
   4   8  -1    9.34    8.95
   8 -12  -1    8.65    3.77
 -12   4  -1   26.33    4.35
 -12   4  -1   11.59    6.55
   8 -12  -1   13.26    5.67
  12  -4   1    7.02    5.69
  -4  -8   1   14.53    8.29
  12  -4   1   25.14    8.11
   7 -12  -1   20.85    4.72
   7 -12  -1   19.30    6.14
 -12   5  -1   17.78    2.99
 -12   5  -1   19.81    6.31
   5   7  -1   28.68   10.04
  12  -5   1   28.01    7.87
  -5  -7   1   15.42    7.68
  12  -5   1   14.93    5.33
  12  -5   1   14.12    3.11
   6 -12  -1   23.17    6.61
 -12   6  -1   21.26    6.10
   6 -12  -1   25.98    5.27
   6   6  -1   36.27    9.94
  12  -6   1   30.70    9.56
  -6  -6   1   19.15    7.97
  -6  12   1   25.65    4.38
  12  -6   1   28.42    7.29
   5 -12  -1   13.91    5.31
   7   5  -1    2.05    7.95
 -12   7  -1    0.14    3.50
  12  -7   1    0.15    2.58
  -7  -5   1   10.65    6.95
  12  -7   1    1.53    7.97
  12  -7   1    8.20    6.16
   8   4  -1   19.46    9.37
   4 -12  -1   11.00    5.89
  12  -8   1   30.26   10.12
  12  -8   1   14.14    4.10
  -8  -4   1    7.24    6.77
   3 -12  -1    9.03    6.02
   9   3  -1    6.64    8.76
  -9  -3   1   -7.76    5.83
  12  -9   1    6.88    2.90
  12  -9   1    1.78    3.28
  12  -9   1   -0.13    4.55
  12  -9   1    9.25    8.94
  10   2  -1   42.24   10.59
 -12  10  -1   52.48    4.69
  12 -10   1   47.68   10.90
 -10  -2   1   47.03    7.96
  11   1  -1   18.80    8.84
 -12  11  -1   14.91    3.72
 -11  -1   1    1.82    5.75
  12 -11   1   20.66    9.38
 -11  -1   1   14.92    4.09
 -12  12  -1   -1.20    3.49
  12   0  -1   -4.75    7.38
 -12   0   1    2.68    5.67
  12 -12   1   -8.34    8.20
 -12   0   1    5.02    2.89
   0  12   1    2.99    9.63
 -12  13  -1    8.57    4.21
  13  -1  -1   -3.98    6.90
   1  12   1   -2.48   10.41
 -13   1   1    0.57    5.91
 -12  14  -1   -2.62    3.67
  14  -2  -1   14.53    8.18
  14  -2  -1    3.90   10.50
 -14   2   1    9.43    4.84
   2  12   1   12.41   11.31
  15  -3  -1    1.57    9.56
  15  -3  -1   -6.28    6.99
   3  12   1   13.18   11.62
 -15   3   1    6.51    5.24
 -15   3   1   -3.93    4.10
  16  -4  -1   12.69    8.36
  16  -4  -1   18.49   10.10
   4  12   1    8.02   11.74
   4  12   1   11.94   11.45
  17  -5  -1   19.36    8.29
  17  -5  -1   20.55   11.34
   5  12   1   17.70   13.25
   5  12   1   19.82   12.91
  -3  16  -1    9.56    8.40
  16 -13  -1   -0.78   11.65
 -13  -3  -1   -0.52    6.80
  13   3   1    2.26   10.98
  13   3   1   10.82   11.54
  15 -13  -1   10.56   11.35
 -13  -2  -1    5.71    6.60
  -2  15  -1   -4.52    7.85
  13   2   1   10.23   11.12
  13   2   1    9.84   11.05
  14 -13  -1   33.71   12.38
 -13  -1  -1   30.81    7.23
  -1  14  -1   33.42   10.25
  13   1   1   50.69   12.11
  13   1   1   30.27   11.84
 -13   0  -1   12.55    5.26
   0  13  -1  -11.65    9.42
  13 -13  -1    3.76    3.16
  13 -13  -1   14.19   10.92
  13   0   1    5.08    9.33
 -13  13   1   17.61    5.05
  13   0   1   13.45   10.43
   1  12  -1   -5.95    9.85
 -13   1  -1    0.55    4.15
  12 -13  -1   -0.27    3.92
  13  -1   1   11.70   10.01
  13  -1   1    8.20    8.81
 -13   2  -1   70.00    6.29
 -13   2  -1   65.58    7.85
  11 -13  -1   68.38    6.81
   2  11  -1   69.66   12.33
  13  -2   1   65.05   11.80
  -2 -11   1   64.68   10.85
  13  -2   1   75.10   10.67
 -13   3  -1   15.98    4.01
 -13   3  -1    4.38    3.15
  10 -13  -1    2.56    4.74
   3  10  -1    7.87    9.17
  -3 -10   1    3.90    7.83
  13  -3   1    4.38    6.56
  13  -3   1   -9.28    8.16
   9 -13  -1    4.27    2.96
   4   9  -1   13.16    9.33
 -13   4  -1    0.05    3.25
   9 -13  -1    7.55    5.20
  13  -4   1    6.46    5.72
  -4  -9   1   -0.09    7.74
  13  -4   1    1.34    7.64
   8 -13  -1    2.60    3.85
 -13   5  -1    4.91    2.81
   5   8  -1  -11.66    8.42
   8 -13  -1    9.23    5.42
 -13   5  -1    0.65    5.67
  13  -5   1   -0.98    4.89
  13  -5   1    4.85    3.07
  -5  -8   1  -12.14    6.90
  13  -5   1    2.51    7.28
 -13   6  -1   53.05    7.90
   6   7  -1   38.43   10.63
   7 -13  -1   56.70    8.07
   7 -13  -1   73.30    6.90
  -6  -7   1   59.62   10.22
  13  -6   1   52.14   11.42
  13  -6   1   69.06    9.87
  -7  13   1   66.55    5.02
  13  -6   1   70.89    7.84
   7   6  -1   17.83    9.33
   6 -13  -1    9.97    5.03
 -13   7  -1    9.99    4.39
  -7  -6   1    9.25    7.66
  13  -7   1   14.17    6.98
  -6  13   1   14.56    4.32
  13  -7   1    9.30    9.15
   5 -13  -1   38.84    6.44
   8   5  -1   11.27    9.17
  -8  -5   1   17.91    8.02
  13  -8   1   21.20    3.58
  13  -8   1   24.71   10.08
   9   4  -1   -1.94    8.66
   4 -13  -1   20.46    6.19
  13  -9   1   20.39   10.23
  13  -9   1   11.84    4.39
  -9  -4   1   12.96    7.35
  10   3  -1   13.57   10.04
  13 -10   1   15.92    9.95
  13 -10   1   12.24    4.04
 -10  -3   1    6.33    6.66
  13 -10   1   11.33    5.27
  13 -10   1    6.71    3.40
  11   2  -1    8.60    9.36
 -11  -2   1   15.79    6.89
  13 -11   1    0.46    9.17
 -11  -2   1    5.33    4.51
  12   1  -1   10.72    9.45
 -13  12  -1    7.09    3.60
 -12  -1   1   11.90    4.05
  13 -12   1    7.32   11.07
 -12  -1   1    6.30    6.51
  13   0  -1    6.69    8.95
 -13  13  -1    8.29    3.97
 -13   0   1    9.14    2.93
 -13   0   1    9.30    6.75
  14  -1  -1    1.88    7.89
  14  -1  -1  -15.13   10.54
 -14   1   1   -3.33    5.49
   1  13   1    2.78   11.10
  15  -2  -1    3.26   10.32
  15  -2  -1    9.40    8.54
   2  13   1   25.33   12.96
 -15   2   1    9.31    5.18
  16  -3  -1    2.49    8.35
  16  -3  -1   16.42   11.40
 -16   3   1    1.41    4.64
 -16   3   1    7.26    5.44
   3  13   1   -2.88   11.67
   3  13   1   -3.60   11.43
  16 -14  -1    7.43   12.24
 -14  -2  -1    6.33    6.77
  -2  16  -1    3.12    8.47
  14   2   1    4.70   11.96
  14   2   1   22.82   12.34
  15 -14  -1    1.10   11.14
  -1  15  -1   24.87   10.46
 -14  -1  -1    7.50    6.53
  14   1   1   22.72   11.21
  14   1   1   31.45   12.57
   0  14  -1   10.93   10.79
 -14   0  -1   10.93    5.27
  14   0   1    7.82    9.26
  14   0   1    1.99   10.54
   0 -14   1   -5.69    8.60
   1  13  -1   -5.90    9.57
 -14   1  -1   -8.75    3.73
  -1 -13   1    1.24    8.66
  14  -1   1   -3.73    9.75
  14  -1   1    8.01    8.85
  12 -14  -1    4.13    4.04
   2  12  -1   -5.70    9.70
 -14   2  -1    1.89    3.76
 -14   2  -1    2.64    4.48
  14  -2   1  -15.84    9.04
  -2 -12   1    2.75    8.27
  14  -2   1    9.80    8.57
 -14   3  -1   14.22    3.79
   3  11  -1   14.52   10.93
  11 -14  -1   28.75    5.52
 -14   3  -1   23.62    4.36
  14  -3   1   22.09    7.97
  -3 -11   1   14.78    9.10
  14  -3   1   29.27   10.52
  10 -14  -1    9.33    5.44
 -14   4  -1   11.59    3.49
   4  10  -1    5.86    9.52
  -4 -10   1    5.44    8.95
  14  -4   1    5.43    9.01
  14  -4   1    0.60    6.54
 -14   5  -1   32.22    4.13
   9 -14  -1   43.63    4.65
   5   9  -1   34.99   11.15
   9 -14  -1   43.51    7.23
  -5  -9   1   38.08    9.85
  14  -5   1   30.71    4.32
  14  -5   1   31.26    6.99
  14  -5   1   62.25   10.95
 -14   6  -1   78.33    9.15
   6   8  -1   78.45   12.98
   8 -14  -1   63.73    6.42
  -6  -8   1   67.93   11.52
  14  -6   1   66.54   10.49
  14  -6   1   76.69    8.68
  14  -6   1   81.61   12.94
   7   7  -1    5.19    9.25
 -14   7  -1   -1.41    3.52
   7 -14  -1   -2.76    4.58
  14  -7   1    1.59    7.47
  -7  14   1    0.31    3.09
  14  -7   1   14.11    9.77
  -7  -7   1   -1.00    7.63
   6 -14  -1    5.01    5.18
   8   6  -1    4.24    9.47
  14  -8   1    6.81    6.98
  14  -8   1    1.27    9.72
  -8  -6   1  -10.85    6.90
  -6  14   1   -5.03    4.15
   9   5  -1    9.24    9.98
  -9  -5   1   -1.69    7.14
  14  -9   1   29.50   10.82
  14  -9   1   16.99    3.92
  10   4  -1   54.26   12.69
 -10  -4   1   34.49    8.94
  14 -10   1   25.93   11.15
  14 -10   1   37.58    5.62
  11   3  -1   -3.78    9.62
  14 -11   1   11.76   10.30
  14 -11   1    0.23    3.50
  14 -11   1   -1.79    5.14
 -11  -3   1   -0.34    6.90
  12   2  -1   28.67   11.00
 -12  -2   1   32.91    5.35
 -12  -2   1    8.45    6.97
  14 -12   1   22.70   11.19
  13   1  -1   61.18   12.76
 -13  -1   1   42.39    4.63
  14 -13   1   32.41   12.35
 -13  -1   1   32.64    7.75
  14   0  -1    3.07   11.61
  14   0  -1    5.74    9.03
 -14   0   1    8.30    6.46
  15  -1  -1   20.67    9.94
  15  -1  -1   26.28   12.50
 -15   1   1   16.56    6.65
  16  -2  -1    6.68   10.90
  16  -2  -1   16.98    9.83
   2  14   1   12.18   11.28
 -16   2   1   -7.00    4.61
 -15   0  -1    2.18    4.46
   0  15  -1   -0.40   10.89
   0 -15   1    8.64   10.00
  15   0   1  -14.61   10.76
  15   0   1    3.20   10.49
   1  14  -1    2.85   11.02
 -15   1  -1   15.84    4.92
  15  -1   1   15.44   11.72
  -1 -14   1   18.27   10.09
  15  -1   1   20.89   10.24
 -15   2  -1   14.87    4.42
   2  13  -1    9.67   10.91
  15  -2   1   21.89    9.75
  -2 -13   1    5.87    8.76
  15  -2   1    2.11   10.59
 -15   3  -1    2.65    3.30
   3  12  -1    2.93   10.32
  15  -3   1    2.36    7.92
  15  -3   1   -3.54    9.48
  -3 -12   1    2.79    8.73
   4  11  -1   -4.13   10.36
  15  -4   1   16.93    7.03
  -4 -11   1    9.70    9.29
  15  -4   1   -7.42    9.22
  10 -15  -1    1.97    4.54
   5  10  -1   13.04   10.63
  15  -5   1    6.49    3.75
  -5 -10   1    0.51    8.26
  15  -5   1    1.52    8.76
  15  -5   1   -4.74    6.01
   9 -15  -1    9.44    4.12
   6   9  -1    4.98    9.94
  -6  -9   1    0.55    8.64
  15  -6   1    9.22    8.38
  15  -6   1    9.44   10.65
  15  -6   1    7.13    6.09
 -15   7  -1   12.96    5.23
   7   8  -1   17.95   10.88
   8 -15  -1   24.11    5.36
  15  -7   1    4.89   10.48
  15  -7   1   20.50    8.80
  -7  -8   1    7.20    8.90
  -8  15   1   20.12    2.87
   7 -15  -1   11.53    5.39
   8   7  -1   -6.01    9.44
  -8  -7   1   18.29    9.31
  -7  15   1    6.25    3.77
  15  -8   1    9.13    7.60
  15  -8   1   -6.31    9.97
   9   6  -1  -14.98    9.22
   6 -15  -1   12.03    5.83
  15  -9   1   -9.96   10.61
  -6  15   1    0.04    4.77
  -9  -6   1   -6.06    7.76
  10   5  -1   16.81   10.84
 -10  -5   1    8.20    7.82
  15 -10   1   17.28    4.25
  -5  15   1   20.76    7.07
  15 -10   1   -1.14   10.48
  11   4  -1    3.55   10.14
 -11  -4   1    1.70    7.16
  -4  15   1   -5.67    6.09
  15 -11   1   11.27   11.43
  15 -11   1    3.75    4.80
  12   3  -1    9.07   11.16
  15 -12   1   -1.75    5.52
 -12  -3   1   -0.18    7.08
  -3  15   1   -0.06    6.87
  15 -12   1   -0.80   10.51
 -12  -3   1    9.62    4.84
  13   2  -1   19.52   11.24
  -2  15   1   20.95    8.09
 -13  -2   1   12.81    7.64
  15 -13   1   20.28   12.28
 -13  -2   1    3.73    3.98
  14   1  -1   -4.34   10.01
  15 -14   1    6.28   11.27
 -14  -1   1    1.17    6.88
  -1  15   1   10.58    8.78
  15   0  -1   12.73   11.14
  15   0  -1    8.34   12.30
   0  15   1   13.25    9.71
 -15   0   1   10.87    6.66
   2  14  -1    5.07   11.30
  16  -2   1   -9.63    8.48
  16  -2   1    8.53   11.23
  -2 -14   1    9.09    9.45
   3  13  -1    7.00   11.23
  16  -3   1   16.68    8.86
  -3 -13   1    9.34    9.93
  16  -3   1   13.72   11.39
   4  12  -1   13.47   11.25
  16  -4   1   18.10    8.51
  -4 -12   1   17.85   10.00
  16  -4   1  -10.06   10.07
   5  11  -1   32.44   12.98
  16  -5   1   56.84   11.95
  -5 -11   1   39.13   11.07
  16  -5   1   56.77    9.84
   6  10  -1   29.58   12.16
  -6 -10   1   23.57   10.12
  16  -6   1   27.52    9.93
  16  -6   1   32.52   11.92
   7   9  -1    1.00   10.59
  -7  -9   1    6.38    8.87
  16  -7   1   -0.24    8.43
  16  -7   1    5.47   10.92
   8   8  -1   -6.16    9.75
  -8  -8   1   23.53    9.60
  16  -8   1   29.57    9.24
  16  -8   1    9.84   10.93
   9   7  -1    5.15   10.43
  -9  -7   1    1.33    8.55
  -7  16   1    0.15    3.61
  16  -9   1    9.56   10.78
  10   6  -1   20.16   10.77
  16 -10   1   -7.91   11.01
 -10  -6   1   13.89    8.35
  -6  16   1    2.35    4.96
  11   5  -1    2.09   10.33
  16 -11   1   14.73   11.36
 -11  -5   1    5.48    7.94
  -5  16   1   15.16    6.35
  12   4  -1   20.13   11.62
 -12  -4   1   37.48    9.01
  -4  16   1   21.52    7.87
  16 -12   1   20.40    5.80
  16 -12   1   33.62   13.07
  13   3  -1    3.51   10.91
 -13  -3   1    2.82    4.15
 -13  -3   1   -2.67    7.13
  16 -13   1    6.50    5.94
  16 -13   1   12.13   11.84
  -3  16   1    1.52    7.39
  14   2  -1    3.01   12.15
  16 -14   1   -5.99   11.19
  16 -14   1    3.56    6.40
 -14  -2   1    9.59    7.43
  -2  16   1    9.32    7.52
   5  12  -1    4.54   11.20
  17  -5   1   34.19    9.13
  -5 -12   1   18.53   10.45
  17  -5   1    8.92   10.98
   6  11  -1    9.14   11.91
  17  -6   1   11.09   10.09
  -6 -11   1    9.50    9.66
  17  -6   1  -22.32   10.60
   7  10  -1   22.60   12.48
  17  -7   1   18.86   11.99
  17  -7   1   19.15   10.04
  -7 -10   1   25.97   10.48
   8   9  -1    2.94   11.17
  17  -8   1    0.32    8.87
  -8  -9   1    9.75    9.55
  17  -8   1    3.47   10.74
   9   8  -1   23.73   12.28
  17  -9   1   32.47    9.45
  -9  -8   1   18.76    9.85
  17  -9   1   41.80   13.40
  10   7  -1   31.04   12.88
  17 -10   1   49.47   13.91
 -10  -7   1   43.77   10.56
  11   6  -1   10.74   12.28
 -11  -6   1   26.99    9.54
  17 -11   1   30.15   12.83
  12   5  -1   25.81   12.96
  -5  17   1   59.70    9.02
 -12  -5   1   30.92    9.60
  17 -12   1   44.30   13.81
   0   0  -2  235.43    9.08
   0   0  -2  236.93    9.14
   0   0  -2  239.76   10.22
   0   0  -2  249.32    9.75
   0   0   2  219.34    9.23
  -1   0  -2   36.64    3.61
  -1   0  -2   30.29    3.64
   0   1  -2   32.58    3.67
   1  -1  -2   32.09    3.30
   1  -1  -2   33.51    3.54
   1  -1  -2   37.23    4.31
   0   1  -2   31.19    3.55
   1   0   2   30.30    3.57
   1   0   2   38.47    3.75
  -1   1   2   31.74    3.22
   0  -1   2   29.48    3.61
   0  -1   2   29.16    3.81
  -1   1   2   32.84    4.15
   1   0  -2   32.99    3.59
   1   0  -2   32.37    3.61
  -1   1  -2   31.18    3.60
   0  -1  -2   33.92    4.13
  -1   1  -2   32.50    2.24
  -1   1  -2   33.55    3.43
  -1   0   2   43.50    4.21
  -1   0   2   39.24    3.90
   1  -1   2   31.67    3.65
   1  -1   2   34.19    3.45
   0   1   2   30.26    4.01
  -1  -1  -2   22.84    4.18
  -1   2  -2   21.50    3.45
  -1  -1  -2   23.03    4.05
   2  -1  -2   19.19    3.22
   2  -1  -2   16.24    3.51
   2  -1  -2   17.65    3.89
  -1   2  -2   16.85    3.62
   1   1   2   19.52    3.72
   1  -2   2   18.83    3.70
  -2   1   2   18.48    3.31
   1  -2   2   17.82    3.32
  -1   3  -2  123.61    7.23
   3  -2  -2  122.02    6.41
   3  -2  -2  106.73    8.40
  -2  -1  -2  109.54    8.73
   3  -2  -2  112.08    7.35
  -1   3  -2  114.07    8.53
   1  -3   2  116.14    8.38
   2   1   2  118.71    8.83
   1  -3   2  118.54    7.10
   2  -2  -2  108.31    8.31
   0   2  -2  109.11    7.74
   0   2  -2   87.93    7.52
  -2   0  -2   92.66    7.63
  -2   0  -2   92.68    6.21
   2  -2  -2   90.83    6.43
   0   2  -2  109.22    6.47
  -2   0  -2  112.29    6.59
   2   0   2  104.04    6.99
   0  -2   2   97.25    6.34
  -2   2   2  116.22    8.02
   0  -2   2  119.04    7.64
  -2   2   2  107.53    6.55
   1  -2  -2   19.07    4.14
   1   1  -2   27.95    3.82
   1   1  -2   18.75    3.49
  -2   1  -2   18.10    3.34
  -2   1  -2   19.83    3.12
  -2   1  -2   17.83    3.04
  -2   1  -2   21.05    2.79
   2  -1   2   19.62    3.48
  -1   2   2   21.39    3.58
  -1  -1   2   16.78    3.61
  -1   2   2   19.16    4.02
  -1  -1   2   17.63    3.59
  -2   2  -2  103.92    5.54
  -2   2  -2  111.91    6.00
   0  -2  -2  124.61    7.84
   2   0  -2  107.89    6.56
  -2   2  -2  109.49    7.08
   2   0  -2   96.14    6.61
   2  -2   2  100.07    6.16
  -2   0   2  103.37    6.14
   0   2   2  138.86    8.12
  -2   0   2   98.28    6.77
   2  -2   2  102.60    5.43
   2  -2   2  102.11    6.74
   3  -1  -2   14.52    3.16
  -2   3  -2   18.64    3.84
  -1  -2  -2   18.02    4.46
   3  -1  -2   11.53    3.48
  -2   3  -2   13.12    3.55
   1   2   2   12.32    4.54
   2  -3   2   21.36    4.19
   2  -3   2   14.77    3.57
  -3   1   2   16.22    4.01
  -3   1   2   17.39    3.57
  -3   1   2   15.34    4.46
  -2  -2  -2    8.61    4.71
   4  -2  -2   14.78    2.97
   4  -2  -2    7.25    3.21
  -2  -2  -2   13.41    4.97
  -2   4  -2   12.43    4.79
   2   2   2   11.90    5.25
   2  -4   2   11.68    4.31
  -3  -2  -2    4.13    5.20
  -2   5  -2   11.93    4.26
   5  -3  -2   10.42    3.85
   5  -3  -2    6.75    3.41
  -2   5  -2   10.62    5.32
   5  -3  -2    4.44    3.92
  -3  -2  -2    4.56    5.39
   5  -3  -2    6.18    5.76
   2  -5   2    7.05    5.00
   3   2   2    7.66    5.57
   2  -5   2   10.10    5.10
   4  -3  -2   32.43    4.81
  -1   4  -2   34.34    5.19
   4  -3  -2   40.15    5.79
  -3  -1  -2   28.03    5.49
  -3  -1  -2   28.28    5.56
  -1   4  -2   30.55    5.63
   1  -4   2   30.36    5.58
  -4   3   2   31.43    5.61
   1  -4   2   34.12    5.71
  -4   3   2   39.84    5.41
   3   1   2   25.96    5.86
  -3   0  -2  190.74   11.31
   3  -3  -2  194.04   11.57
   0   3  -2  204.78   11.53
   0   3  -2  183.78    9.56
   3  -3  -2  225.58   10.55
   3   0   2  206.27    9.53
   0  -3   2  203.54   11.47
   0  -3   2  202.23   10.03
   3   0   2  209.29   11.76
  -3   3   2  201.76   10.21
  -3   3   2  220.64   11.34
   1   2  -2   13.90    4.01
  -3   1  -2   21.01    3.40
   2  -3  -2   17.39    4.54
  -3   1  -2   14.39    4.53
  -3   1  -2   16.67    3.02
   1   2  -2   10.84    4.66
  -2   3   2   21.47    4.71
  -2   3   2   12.92    4.40
  -1  -2   2   19.15    4.78
  -1  -2   2   15.92    4.18
   3  -1   2   14.10    3.19
   3  -1   2   14.76    2.86
  -1  -2   2   15.10    4.19
  -3   2  -2  126.81    5.35
   1  -3  -2  110.40    7.40
   2   1  -2  118.84    7.88
  -3   2  -2  125.06    7.19
   2   1  -2  116.05    8.66
   2   1  -2  109.20    7.19
  -2  -1   2  113.31    7.14
  -2  -1   2  124.09    7.54
   3  -2   2  115.52    5.43
   3  -2   2  119.85    7.05
  -1   3   2  109.38    7.91
   3  -2   2  121.33    7.04
   3  -2   2  113.15    5.74
  -3   3  -2  202.13    8.16
   0  -3  -2  186.40   10.55
   3   0  -2  214.74    9.31
  -3   3  -2  206.09    9.72
   3   0  -2  194.95   10.58
   3   0  -2  193.47    8.80
   3  -3   2  200.57    9.44
  -3   0   2  212.54    9.21
  -3   0   2  190.33    9.51
   0   3   2  188.74   10.49
   3  -3   2  201.09    9.73
   3  -3   2  212.50    8.14
   4  -1  -2    5.65    2.77
  -1  -3  -2   11.44    4.70
  -3   4  -2    4.27    4.29
  -3   4  -2    7.03    3.95
   4  -1  -2   10.79    3.40
   3  -4   2    7.87    4.41
   1   3   2    6.52    4.82
  -4   1   2   -3.11    3.70
   3  -4   2    6.75    3.56
  -4   1   2    7.78    3.36
  -3   5  -2    2.27    4.47
   5  -2  -2    8.82    3.53
   5  -2  -2    7.35    2.63
  -2  -3  -2    7.63    5.26
   3  -5   2   11.47    4.66
  -5   2   2    1.64    3.77
   3  -5   2    4.42    4.48
   2   3   2    2.19    5.30
  -5   2   2    1.30    4.38
  -3   6  -2   10.07    5.22
  -3   6  -2    8.81    4.11
  -3  -3  -2   18.15    5.72
   3   3   2    9.67    5.81
   3  -6   2   12.29    5.06
   3  -6   2   11.52    5.11
   7  -4  -2    2.99    4.25
  -3   7  -2    1.13    4.74
  -4  -3  -2    2.43    5.73
   7  -4  -2   -0.09    2.72
  -3   7  -2    2.72    5.88
   7  -4  -2    2.86    3.93
   7  -4  -2    4.45    4.74
   7  -4  -2    0.05    6.93
   3  -7   2   -1.31    5.59
   4   3   2    0.82    6.72
   3  -7   2   -3.77    5.26
   4   3   2    2.51    6.29
  -2   6  -2    0.92    5.41
   6  -4  -2    7.02    3.90
   6  -4  -2   -2.98    3.20
   6  -4  -2    6.95    6.14
  -4  -2  -2    4.91    5.61
   6  -4  -2   -3.10    3.71
  -2   6  -2    4.30    4.66
   2  -6   2   -0.62    5.07
   2  -6   2   -3.14    5.00
   4   2   2    2.91    5.82
  -1   5  -2   -0.17    4.86
   5  -4  -2    3.91    5.84
   5  -4  -2    0.28    3.68
  -4  -1  -2    3.41    5.09
  -4  -1  -2    5.48    5.29
  -1   5  -2    0.64    5.37
   4   1   2    2.53    5.55
   1  -5   2   -1.93    4.94
   1  -5   2    2.74    5.18
  -5   4   2   -0.51    5.17
  -5   4   2    3.53    4.37
   0   4  -2  127.97    9.31
   4  -4  -2  132.16    9.53
   4  -4  -2  123.72   10.08
  -4   0  -2  148.07   10.68
   0   4  -2  139.14    8.75
   0   4  -2  129.45   10.00
  -4   0  -2  134.23   10.73
   0  -4   2  152.85    9.39
   0  -4   2  142.58   10.57
  -4   4   2  148.76    9.56
   4   0   2  141.44   10.47
  -4   4   2  144.66   10.34
   1   3  -2   13.87    4.48
   3  -4  -2   12.81    4.80
  -4   1  -2   12.84    4.92
   1   3  -2   15.93    5.30
   1   3  -2   21.52    5.38
  -4   1  -2    7.34    3.17
  -3   4   2    4.60    4.49
   4  -1   2    7.78    5.15
  -1  -3   2   14.89    4.90
  -1  -3   2   16.96    5.29
  -3   4   2   18.74    5.28
   4  -1   2    6.11    2.92
  -4   2  -2    7.56    2.34
  -4   2  -2    9.18    3.39
  -4   2  -2   12.77    2.17
   2   2  -2    7.89    4.28
   2  -4  -2   13.94    3.35
  -4   2  -2   18.31    5.09
   2   2  -2    9.27    5.19
   2   2  -2    5.94    4.95
  -2  -2   2   14.09    4.74
   4  -2   2    9.51    3.44
  -2  -2   2    9.56    5.01
  -2   4   2    8.37    4.59
  -2  -2   2    6.24    4.60
   1  -4  -2   29.47    4.50
   3   1  -2   37.89    5.93
  -4   3  -2   35.11    4.37
   3   1  -2   31.35    4.99
  -4   3  -2   34.73    3.15
   3   1  -2   36.50    6.25
  -1   4   2   34.84    4.84
   4  -3   2   29.21    4.25
   4  -3   2   35.40    5.34
  -3  -1   2   38.58    5.19
  -3  -1   2   38.49    5.83
   4  -3   2   35.69    3.06
  -3  -1   2   33.69    4.62
   4   0  -2  131.06    9.37
  -4   4  -2  146.00    9.07
   4   0  -2  149.72    8.05
   0  -4  -2  144.32   10.43
   4   0  -2  148.77    7.69
   4   0  -2  147.67   10.04
   4  -4   2  140.63    8.74
   0   4   2  147.24   10.31
  -4   0   2  129.54    8.47
   4  -4   2  142.48    9.55
  -4   0   2  145.91    8.24
   4  -4   2  146.60    6.89
  -1  -4  -2   19.03    5.52
   5  -1  -2   21.47    5.15
   5  -1  -2   20.21    4.05
  -4   5  -2   19.07    4.40
   5  -1  -2   15.04    4.20
  -4   5  -2   15.80    5.19
   5  -1  -2   18.81    3.25
  -5   1   2   20.18    4.61
   4  -5   2   23.64    4.38
  -5   1   2   13.32    3.70
   1   4   2   15.55    5.73
  -4   6  -2    6.75    4.91
   6  -2  -2    2.80    3.58
   6  -2  -2    5.85    3.98
   6  -2  -2    4.05    4.59
   6  -2  -2    4.65    2.78
  -2  -4  -2    2.78    5.26
  -4   6  -2    2.55    5.14
   4  -6   2    8.46    4.60
  -6   2   2    2.10    4.68
   4  -6   2   12.10    4.75
  -6   2   2    6.59    4.32
   2   4   2    5.41    5.60
   7  -3  -2   -3.30    2.73
   7  -3  -2   -2.77    4.78
  -3  -4  -2   -0.65    5.47
  -4   7  -2    0.85    3.96
  -4   7  -2   -0.39    5.46
   7  -3  -2    7.03    4.03
   7  -3  -2   -0.08    4.03
   4  -7   2   -2.88    5.18
   4  -7   2    2.53    5.02
   3   4   2   -3.99    5.95
   8  -4  -2   12.28    4.46
   8  -4  -2    8.67    4.89
   8  -4  -2    6.39    7.18
   8  -4  -2   11.14    5.40
  -4  -4  -2   16.45    6.59
  -4   8  -2   12.23    4.60
  -4   8  -2    5.25    5.85
   8  -4  -2    8.39    4.25
   8  -4  -2    7.53    2.85
   4  -8   2   11.14    5.50
   4   4   2    1.60    6.39
   4   4   2    9.09    7.82
   9  -5  -2   -2.36    3.83
   9  -5  -2   -1.81    4.97
   9  -5  -2    2.84    4.24
  -4   9  -2   -2.09    6.34
  -4   9  -2   -2.41    5.08
   9  -5  -2   -0.73    3.81
   9  -5  -2   -3.45    7.25
   9  -5  -2    2.95    2.90
   4  -9   2    5.97    5.45
   5   4   2    0.04    7.70
   5   4   2    8.45    7.18
  -3   8  -2   13.80    5.42
   8  -5  -2   11.29    7.11
   8  -5  -2   17.84    5.18
   8  -5  -2   16.38    5.05
   8  -5  -2   20.26    4.78
  -3   8  -2    9.08    6.67
   8  -5  -2   11.27    4.22
  -5  -3  -2   26.98    7.12
   3  -8   2   11.89    6.22
   3  -8   2    7.86    5.58
   5   3   2   17.61    7.87
   5   3   2   21.98    7.19
  -5  -2  -2   54.90    7.79
  -2   7  -2   50.41    6.67
   7  -5  -2   51.01    8.39
   7  -5  -2   39.61    5.33
  -2   7  -2   40.12    7.57
   2  -7   2   47.93    7.50
   2  -7   2   51.79    7.22
   5   2   2   49.33    8.15
   5   2   2   39.90    8.49
   6  -5  -2   -4.52    3.57
  -1   6  -2   -0.79    5.01
   6  -5  -2    3.96    6.38
  -1   6  -2    8.95    5.87
  -5  -1  -2   -4.13    5.13
  -6   5   2   -0.39    5.36
   1  -6   2    3.73    5.52
  -6   5   2    7.42    4.69
   5   1   2   -1.66    5.59
   1  -6   2    1.02    5.58
  -5   0  -2   50.94    7.23
  -5   0  -2   72.31    7.52
   0   5  -2   61.48    7.70
   5  -5  -2   61.36    6.09
   0   5  -2   55.88    6.97
   5  -5  -2   74.09    8.22
   5   0   2   61.16    7.94
   0  -5   2   60.87    7.61
  -5   5   2   70.22    6.74
   0  -5   2   55.19    7.38
  -5   5   2   57.97    7.22
  -5   1  -2   14.30    5.18
  -5   1  -2   15.91    5.35
  -5   1  -2   23.30    3.61
   1   4  -2   24.54    6.06
   4  -5  -2   24.55    6.18
   1   4  -2    9.17    5.90
  -4   5   2   17.60    5.72
  -4   5   2   15.30    5.33
   5  -1   2    9.26    5.55
  -1  -4   2   21.18    5.84
  -1  -4   2   26.14    6.33
  -5   2  -2    6.83    3.23
  -5   2  -2    8.90    4.96
   2   3  -2    7.79    5.41
   2   3  -2   -0.18    5.41
   3  -5  -2    4.43    2.85
  -5   2  -2    7.20    4.46
   2   3  -2    2.48    4.36
   5  -2   2    3.09    3.12
   5  -2   2    1.45    2.13
  -3   5   2    2.90    4.51
  -2  -3   2    0.07    4.84
   5  -2   2    6.00    5.09
  -3   5   2    4.04    5.27
  -2  -3   2    7.43    5.54
   3   2  -2    7.04    5.43
  -5   3  -2    8.85    3.55
   3   2  -2    2.80    5.42
   2  -5  -2    8.53    3.92
  -5   3  -2    4.81    4.73
   3   2  -2    8.32    4.64
  -5   3  -2    7.99    1.86
  -3  -2   2   11.74    4.93
  -2   5   2    7.85    3.71
  -3  -2   2   19.30    4.99
   5  -3   2    8.38    5.16
  -3  -2   2    9.96    5.33
   5  -3   2    8.70    3.61
  -5   4  -2   -1.67    4.90
  -5   4  -2    0.06    4.37
   4   1  -2    3.70    5.66
   4   1  -2   -0.29    4.99
   4   1  -2    8.97    3.89
  -1   5   2   -0.21    4.34
  -4  -1   2    0.83    5.11
  -4  -1   2    1.09    3.85
   5  -4   2    4.14    5.24
   5  -4   2    5.83    2.41
   5  -4   2   10.30    3.98
  -4  -1   2    2.72    4.54
   0  -5  -2   78.43    7.72
   5   0  -2   64.01    6.51
   5   0  -2   69.86    7.85
   5   0  -2   69.16    6.02
  -5   5  -2   61.94    7.19
  -5   5  -2   70.73    5.44
   5  -5   2   72.59    7.51
   5  -5   2   69.39    5.16
  -5   0   2   63.12    6.29
  -5   0   2   71.22    5.45
   5  -5   2   74.20    6.41
   0   5   2   60.86    7.16
  -1  -5  -2   38.55    6.64
  -5   6  -2   34.73    6.36
   6  -1  -2   23.76    5.07
   6  -1  -2   35.53    3.74
   6  -1  -2   38.44    4.91
   6  -1  -2   28.45    5.84
  -5   6  -2   36.72    5.13
   1   5   2   37.53    6.96
   5  -6   2   38.54    5.02
  -6   1   2   37.93    5.45
  -6   1   2   30.84    4.05
  -2  -5  -2    3.34    5.50
  -5   7  -2    8.67    5.59
  -5   7  -2   -0.90    4.74
   7  -2  -2    1.43    4.75
  -5   7  -2    5.19    3.27
   7  -2  -2    8.52    3.94
   7  -2  -2    2.29    2.80
   7  -2  -2    2.63    4.09
  -7   2   2    7.31    4.43
   2   5   2    6.77    6.29
   5  -7   2    3.58    4.61
   5  -7   2    7.87    4.73
  -5   8  -2   34.18    4.83
  -5   8  -2   33.21    7.09
   8  -3  -2   32.77    6.15
  -3  -5  -2   45.18    7.80
  -5   8  -2   41.37    6.85
   8  -3  -2   27.53    5.08
   8  -3  -2   35.32    5.32
   8  -3  -2   36.10    3.68
  -8   3   2   40.33    6.23
   5  -8   2   47.07    6.45
   3   5   2   38.30    8.18
  -8   3   2   34.67    5.21
   3   5   2   47.80    9.07
   9  -4  -2    5.93    4.04
   9  -4  -2   -2.77    4.07
  -5   9  -2    5.39    6.21
   9  -4  -2    1.59    5.13
  -5   9  -2    4.16    5.57
  -5   9  -2    2.57    4.66
  -4  -5  -2   -1.02    6.09
   9  -4  -2    6.01    2.79
   9  -4  -2    2.89    5.05
   4   5   2    6.87    7.11
   5  -9   2    1.01    5.28
   4   5   2   -6.30    7.51
  10  -5  -2   16.29    6.12
  -5  10  -2    9.55    5.03
  10  -5  -2   13.11    4.37
  10  -5  -2   -0.96    7.74
  10  -5  -2   12.10    3.03
  10  -5  -2   15.29    4.53
  -5  10  -2    7.27    6.95
  10  -5  -2   15.76    5.35
   5   5   2   18.14    7.86
   5 -10   2   13.66    5.71
   5   5   2   -0.97    7.99
  11  -6  -2   -2.03    4.06
  11  -6  -2    3.80    8.49
  11  -6  -2    0.21    2.91
  11  -6  -2    6.91    4.19
  -5  11  -2    0.62    5.02
  11  -6  -2    5.50    5.75
  11  -6  -2    7.35    4.91
   6   5   2   -1.11    7.62
   5 -11   2    4.56    5.32
   6   5   2    2.65    8.21
  -4  10  -2   26.94    6.69
  10  -6  -2   12.65    4.54
  10  -6  -2   14.41    8.32
  10  -6  -2   14.96    4.12
  10  -6  -2   27.01    5.11
  -4  10  -2   23.95    7.95
  10  -6  -2   11.54    3.48
  10  -6  -2   22.12    5.73
   6   4   2   12.43    7.67
   4 -10   2   16.60    5.94
   6   4   2   30.93    8.95
   9  -6  -2    4.36    7.51
   9  -6  -2   -3.00    4.60
   9  -6  -2    1.63    3.97
   9  -6  -2   -2.27    3.74
   9  -6  -2   -2.17    4.27
  -3   9  -2    8.67    7.50
  -3   9  -2   -5.76    5.55
   3  -9   2    3.23    5.42
   6   3   2    1.91    7.30
   6   3   2   -1.57    6.45
  -6  -2  -2    1.19    6.18
  -2   8  -2    6.88    7.01
   8  -6  -2    1.51    3.89
  -2   8  -2    8.60    5.87
   8  -6  -2    2.73    7.45
   6   2   2    3.65    6.65
   6   2   2    4.66    7.29
   2  -8   2    4.59    6.16
   2  -8   2    4.77    5.65
  -6  -1  -2    8.59    6.15
  -1   7  -2   14.62    7.00
   7  -6  -2   30.91    7.63
  -1   7  -2    5.32    5.59
   6   1   2   13.95    6.84
   6   1   2   16.89    7.01
   1  -7   2    5.35    6.04
  -7   6   2   35.65    7.26
   1  -7   2    8.38    5.95
   6  -6  -2   30.82    7.68
   0   6  -2   20.35    6.36
   0   6  -2   16.95    7.10
   0  -6   2   25.49    6.82
  -6   6   2   26.66    5.64
   0  -6   2   29.67    5.99
  -6   6   2   16.28    6.25
   0  -6   2   23.07    6.88
   5  -6  -2   38.99    7.12
  -6   1  -2   32.88    6.68
   1   5  -2   31.32    6.64
   1   5  -2   32.14    6.97
  -6   1  -2   38.21    6.73
  -6   1  -2   32.50    3.83
  -1  -5   2   38.22    6.71
  -5   6   2   25.54    6.68
  -1  -5   2   42.52    7.25
  -1  -5   2   25.80    6.04
   6  -1   2   38.71    7.25
  -5   6   2   37.61    6.31
   2   4  -2    7.45    5.88
  -6   2  -2    6.33    4.92
   2   4  -2    6.75    6.02
  -6   2  -2    5.41    3.06
  -6   2  -2    3.99    5.08
  -2  -4   2    1.03    5.40
   6  -2   2   -1.09    5.40
  -4   6   2    4.94    4.84
  -2  -4   2    4.18    5.32
  -2  -4   2    9.75    6.16
   6  -2   2    3.56    2.41
  -4   6   2    9.10    5.66
  -6   3  -2    7.70    4.93
   3   3  -2   11.34    5.13
  -6   3  -2   18.12    3.50
   3   3  -2    6.20    6.01
   3   3  -2   20.71    6.36
  -3  -3   2    9.73    5.42
   6  -3   2    6.65    3.43
  -3  -3   2   15.64    6.28
   6  -3   2   19.20    5.78
  -3  -3   2    7.55    5.55
   4   2  -2    2.15    5.29
  -6   4  -2    2.16    3.71
  -6   4  -2    3.69    4.66
   4   2  -2    0.88    4.07
   4   2  -2    5.72    5.82
   6  -4   2    0.07    3.62
  -4  -2   2   -3.12    4.75
  -4  -2   2    7.06    5.43
   6  -4   2   -1.30    5.37
  -4  -2   2    1.94    4.60
  -2   6   2    4.01    4.18
  -4  -2   2    4.81    5.50
  -6   5  -2    2.61    5.62
  -6   5  -2   -1.14    2.93
  -6   5  -2    1.15    4.48
   5   1  -2    7.24    6.02
   5   1  -2    6.17    5.23
   5   1  -2    6.74    3.94
   1  -6  -2    3.49    5.06
  -5  -1   2    6.62    4.21
   6  -5   2    2.57    5.51
   6  -5   2    5.71    4.06
  -5  -1   2   -0.85    4.57
  -1   6   2   -2.76    4.77
   6  -5   2   -0.68    2.51
  -5  -1   2   -1.24    5.22
  -6   6  -2   19.19    6.50
   6   0  -2   14.19    5.08
   6   0  -2   14.18    5.86
   0  -6  -2   20.62    5.96
   6   0  -2   23.94    4.60
  -6   6  -2   13.80    3.94
   6  -6   2   16.48    6.67
   6  -6   2   11.82    3.79
  -6   0   2   25.60    5.40
  -6   0   2   18.50    4.18
   0   6   2   13.46    5.94
  -6   0   2   26.54    6.28
  -6   7  -2    1.46    4.20
   7  -1  -2    7.66    3.78
   7  -1  -2    3.65    3.85
  -1  -6  -2   -4.09    5.55
   7  -1  -2    3.61    4.61
  -6   7  -2   -3.37    5.35
  -7   1   2   11.84    4.85
   6  -7   2    5.39    4.08
  -7   1   2    0.89    3.22
   1   6   2   -2.62    6.04
   8  -2  -2    7.40    4.27
  -6   8  -2   48.43    6.60
  -2  -6  -2   10.67    6.62
   8  -2  -2    5.41    4.31
   8  -2  -2   11.77    5.59
   2   6   2   15.61    7.40
   9  -3  -2    5.79    4.22
   9  -3  -2    5.44    5.05
  -6   9  -2   -2.77    5.51
  -6   9  -2  -14.11    5.17
   9  -3  -2    1.11    3.77
  -6   9  -2    6.05    4.06
  -3  -6  -2    1.55    6.15
   6  -9   2    7.51    4.92
   3   6   2    3.07    7.88
  -9   3   2    2.09    4.35
  -9   3   2    6.45    5.05
   3   6   2    3.69    7.04
  10  -4  -2   -5.16    4.85
  -6  10  -2    4.64    3.99
  10  -4  -2   -9.60    3.83
  10  -4  -2    5.06    2.47
  10  -4  -2   -1.44    4.37
   4   6   2   -2.55    7.04
   4   6   2   -0.57    8.06
   6 -10   2   10.36    5.70
  -6  11  -2   22.44    5.04
  11  -5  -2   23.92    9.00
  11  -5  -2   23.11    2.83
  11  -5  -2   28.12    6.12
  11  -5  -2   18.99    4.99
  11  -5  -2   13.95    6.09
  11  -5  -2   20.53    5.08
   5   6   2   22.25    8.69
   6 -11   2   17.33    6.51
   5   6   2   21.28    9.21
  -6  12  -2   26.43    5.86
  12  -6  -2   22.05    2.97
  12  -6  -2   18.03    5.87
  12  -6  -2   22.44    5.36
  12  -6  -2   22.69    9.79
  12  -6  -2   21.51    4.73
  12  -6  -2   24.64    7.21
   6 -12   2   13.38    6.35
   6   6   2   22.02   10.19
   6   6   2   22.74    9.22
  13  -7  -2   13.34    2.78
  -6  13  -2   19.47    5.55
  13  -7  -2   12.71    4.55
  13  -7  -2   22.57    5.76
  13  -7  -2   20.26    6.86
  13  -7  -2   11.19    9.18
  13  -7  -2   21.81    5.46
  13  -7  -2   13.34    5.62
   7   6   2   11.07   10.14
   7   6   2   18.55    9.24
  12  -7  -2   -2.84    8.72
  12  -7  -2    1.27    3.15
  12  -7  -2   -0.68    3.64
  -5  12  -2   10.27    5.79
  12  -7  -2   12.47    5.10
  12  -7  -2    2.56    4.61
  12  -7  -2    4.29    5.55
  12  -7  -2   14.07    4.92
   7   5   2   -0.26    8.88
   7   5   2   -1.49    8.36
  11  -7  -2    3.76    4.12
  -4  11  -2    7.66    5.80
  11  -7  -2    6.00    5.10
  11  -7  -2    0.47    3.62
  11  -7  -2   -0.58    7.96
  11  -7  -2   -2.11    4.35
  11  -7  -2    3.66    4.08
   7   4   2   -4.15    7.23
   7   4   2    3.22    8.09
  -3  10  -2   26.23    7.38
  10  -7  -2   33.50    4.84
  -7  -3  -2   27.75    6.96
  10  -7  -2   20.20    5.35
  10  -7  -2   30.10    5.21
  10  -7  -2   21.38    4.90
  10  -7  -2   14.45    8.48
  -3  10  -2   22.09    8.38
  10  -7  -2   16.37    5.40
   7   3   2   18.75    7.87
   3 -10   2   34.35    7.17
   7   3   2   20.18    8.54
  -2   9  -2   -0.87    6.96
   9  -7  -2   17.41    8.36
   9  -7  -2    8.14    4.32
  -2   9  -2    3.16    6.39
   9  -7  -2    6.63    4.02
   9  -7  -2    5.25    3.40
   2  -9   2    9.08    6.80
   7   2   2   16.84    7.87
   2  -9   2   14.20    6.15
   7   2   2   13.53    7.38
   8  -7  -2   60.93    4.62
  -1   8  -2   67.45    9.75
  -7  -1  -2   84.62    9.58
  -1   8  -2   58.29    8.54
   8  -7  -2   66.11    9.57
   1  -8   2   54.46    8.59
   7   1   2   45.85    8.89
  -8   7   2   60.69    8.51
   1  -8   2   54.50    8.22
   7   1   2   56.37    9.28
   1  -8   2   63.99    7.57
  -8   7   2   61.06    6.99
   7  -7  -2   14.61    7.41
   0   7  -2   15.39    6.50
  -7   0  -2    5.61    6.14
   0   7  -2   11.24    7.27
   7   0   2   15.21    6.86
   0  -7   2   15.77    6.56
   0  -7   2   19.31    6.16
   7   0   2   11.51    6.59
  -7   7   2   14.03    6.21
  -7   7   2   23.08    5.78
   0  -7   2   13.76    6.81
  -7   1  -2    2.93    2.98
  -7   1  -2   14.04    6.19
   1   6  -2    5.80    6.28
   6  -7  -2    3.56    6.36
   1   6  -2    1.05    6.25
  -6   7   2    5.36    5.23
  -1  -6   2    6.86    7.83
   7  -1   2    2.27    6.26
  -1  -6   2   -2.54    5.56
  -1  -6   2    0.49    5.20
  -6   7   2    5.23    6.02
  -7   2  -2    2.22    2.55
  -7   2  -2    4.30    5.74
   2   5  -2    6.93    6.23
   2   5  -2    9.66    6.58
  -7   2  -2    5.14    3.00
  -7   2  -2   10.47    5.54
  -2  -5   2   -5.77    5.75
   7  -2   2    3.40    5.91
  -5   7   2    5.62    5.92
  -2  -5   2   -0.46    5.78
  -5   7   2    2.15    5.11
  -2  -5   2    4.12    5.72
   3   4  -2   -2.46    6.16
  -7   3  -2    3.54    3.14
   3   4  -2    1.51    6.18
  -7   3  -2    0.64    4.98
  -7   3  -2    0.17    5.34
  -4   7   2    3.10    6.13
  -3  -4   2    1.59    5.81
  -3  -4   2    0.16    5.99
  -4   7   2   -7.38    5.35
   7  -3   2   -0.25    3.03
   7  -3   2   -3.40    5.76
  -3  -4   2    1.20    6.18
   4   3  -2   -3.19    6.17
   4   3  -2    0.51    4.69
   3  -7  -2   -0.89    4.63
  -7   4  -2    2.42    5.18
  -7   4  -2    3.56    4.63
   4   3  -2   -4.96    5.99
   7  -4   2    0.15    3.58
   7  -4   2    5.91    6.51
  -4  -3   2   -7.58    5.26
  -3   7   2    2.13    3.84
  -4  -3   2  -10.50    5.79
  -4  -3   2   -1.07    5.79
   2  -7  -2   57.03    7.13
  -7   5  -2   54.94    6.80
   5   2  -2   44.89    5.96
   5   2  -2   55.65    7.86
  -7   5  -2   46.60    5.29
   5   2  -2   49.45    8.14
   7  -5   2   44.07    5.09
  -5  -2   2   48.33    7.89
  -5  -2   2   36.01    6.65
  -5  -2   2   62.02    6.65
  -5  -2   2   46.59    7.64
   7  -5   2   41.88    7.66
  -2   7   2   46.70    6.24
   6   1  -2   11.77    4.06
  -7   6  -2   11.89    3.41
   6   1  -2   13.38    5.33
   6   1  -2   10.94    6.19
   1  -7  -2   15.20    5.69
  -7   6  -2   11.20    4.85
  -7   6  -2   12.66    3.20
  -7   6  -2   16.61    6.19
  -1   7   2   18.18    5.92
   7  -6   2   12.71    3.12
   7  -6   2   17.15    4.68
  -6  -1   2    8.40    5.98
   7  -6   2   19.69    6.76
  -6  -1   2   16.89    5.42
  -6  -1   2   18.94    6.17
  -6  -1   2    7.16    4.40
   7   0  -2   19.00    5.39
   7   0  -2   12.15    5.73
  -7   7  -2   11.58    6.25
   7   0  -2   17.73    4.39
  -7   7  -2   21.09    4.28
   0  -7  -2   21.64    6.43
   7  -7   2   16.13    4.15
   0   7   2   18.39    6.65
  -7   0   2   15.71    5.15
   7  -7   2   14.22    6.76
  -7   0   2   17.12    6.22
  -7   0   2   16.77    4.03
  -7   8  -2   26.33    7.05
   8  -1  -2   30.31    4.88
  -7   8  -2   26.68    2.75
   8  -1  -2   34.95    6.67
  -1  -7  -2   34.27    7.40
   8  -1  -2   30.60    5.51
  -7   8  -2   23.25    5.22
   1   7   2   46.24    8.15
  -8   1   2   32.18    4.00
  -8   1   2   18.58    5.50
   9  -2  -2   41.58    5.81
   9  -2  -2   37.56    5.46
  -7   9  -2   36.78    6.42
   9  -2  -2   47.65    7.30
  -2  -7  -2   48.98    8.41
  -7   9  -2   31.73    7.28
  -7   9  -2   45.48    3.67
  -9   2   2   39.30    5.91
   7  -9   2   48.47    6.02
   2   7   2   24.73    8.01
  -7  10  -2    9.85    3.10
  10  -3  -2   10.08    4.74
  10  -3  -2   15.80    4.45
  10  -3  -2   12.93    5.27
   7 -10   2    8.78    5.09
   3   7   2    4.39    7.52
   3   7   2   10.79    8.70
 -10   3   2    7.57    4.60
 -10   3   2    7.15    5.30
  11  -4  -2    3.82    5.29
  -7  11  -2   -3.19    3.39
  11  -4  -2   -1.37    4.45
  11  -4  -2   -6.52    3.97
   4   7   2    4.34    9.11
   4   7   2    8.30    7.94
   7 -11   2    1.07    5.24
  12  -5  -2   -0.25    5.60
  12  -5  -2  -17.79    4.12
  -7  12  -2    3.60    4.12
  12  -5  -2   -0.03    5.49
  12  -5  -2    1.33    4.82
   7 -12   2    5.74    6.00
   5   7   2   -8.02    8.55
   5   7   2   -0.55    8.39
  13  -6  -2   -2.14    4.54
  13  -6  -2    6.42    6.10
  13  -6  -2    5.23    4.83
  -7  13  -2   -0.48    4.10
  13  -6  -2    2.05    9.53
  13  -6  -2   -1.35    5.82
  13  -6  -2    4.46    5.44
   6   7   2    8.94    9.05
   6   7   2   24.59   10.94
   7 -13   2    7.13    6.01
  14  -7  -2   16.67    6.08
  14  -7  -2   -2.02    4.42
  14  -7  -2    2.35    5.64
  14  -7  -2  -10.65    5.95
  14  -7  -2   14.29    5.69
  14  -7  -2    4.10   10.45
  -7  14  -2   12.46    5.03
   7   7   2    5.37    9.55
   7   7   2    7.61   11.03
  15  -8  -2   13.97   11.24
  15  -8  -2   28.11    6.64
  -7  15  -2   12.13    5.22
  15  -8  -2   23.32    6.19
  15  -8  -2    6.26    6.91
  15  -8  -2   16.44    5.85
   8   7   2   14.82   10.79
   8   7   2   -3.34   10.52
  14  -8  -2   -2.37    2.83
  14  -8  -2    5.70    5.25
  14  -8  -2   -4.67    9.56
  14  -8  -2   -1.76    3.70
  14  -8  -2    9.20    5.53
  14  -8  -2    3.37    6.45
  14  -8  -2   -3.75    4.99
  -6  14  -2    4.47    5.78
   8   6   2   -7.52    8.86
   8   6   2    5.99   10.21
  13  -8  -2   12.82    6.15
  13  -8  -2   23.61   10.11
  13  -8  -2   19.75    5.50
  13  -8  -2   19.77    4.07
  -5  13  -2   16.06    6.48
  13  -8  -2   14.97    3.77
  13  -8  -2   19.09    5.32
  13  -8  -2   12.32    5.01
   8   5   2    4.70    9.02
   8   5   2   18.85   10.29
  12  -8  -2    3.91    4.98
  12  -8  -2    3.92    4.56
  12  -8  -2    3.87    9.50
  12  -8  -2   -4.78    3.63
  12  -8  -2    1.54    4.05
  12  -8  -2   -1.60    3.28
  -4  12  -2   -5.66    5.73
   8   4   2  -14.55    8.10
   8   4   2   -1.06    7.72
  11  -8  -2    5.76    8.92
  11  -8  -2   19.02    5.73
  11  -8  -2   21.91    5.13
  -3  11  -2   11.99    7.50
  11  -8  -2   14.60    4.63
  11  -8  -2   19.05    4.33
  11  -8  -2   20.50    5.11
   8   3   2   22.40    9.13
   8   3   2   19.41    8.41
  10  -8  -2   -0.90    7.55
  10  -8  -2   -1.15    2.96
  -2  10  -2   -1.88    6.73
  10  -8  -2    3.81    4.38
  -8  -2  -2    7.15    6.00
  -2  10  -2  -10.41    7.43
   2 -10   2    4.64    6.73
   8   2   2    2.43    7.24
   2 -10   2   -3.11    5.19
   8   2   2   -0.63    7.47
   9  -8  -2   21.98    2.96
  -8  -1  -2   26.01    6.80
  -1   9  -2   26.59    8.64
   9  -8  -2   28.00    8.99
  -1   9  -2   25.47    7.69
   8   1   2   26.17    8.01
   1  -9   2   17.18    7.53
  -9   8   2   24.26    5.76
   8   1   2   37.45    8.73
   1  -9   2   19.36    6.21
   0   8  -2    0.32    7.22
   0   8  -2    5.55    6.66
  -8   0  -2   -1.22    5.99
   8  -8  -2    4.94    7.21
   0  -8   2    1.29    6.08
   8   0   2   44.31    8.33
   0  -8   2    6.89    5.68
  -8   8   2   -3.12    4.75
   0  -8   2    7.88    6.84
   8   0   2   -8.33    6.20
  -8   1  -2   22.46    4.23
   7  -8  -2   19.19    7.49
   1   7  -2   24.05    7.37
   1   7  -2   27.71    8.10
  -8   1  -2   33.24    7.18
  -8   1  -2   28.50    3.70
  -1  -7   2   24.47    7.36
   8  -1   2   47.26    7.37
  -7   8   2   32.32    6.48
  -1  -7   2   36.10    7.15
  -7   8   2   20.33    6.94
   8  -1   2   27.41    7.72
  -1  -7   2   29.65    7.52
  -8   2  -2   22.71    6.87
  -8   2  -2   10.77    3.07
   2   6  -2   10.45    7.09
  -8   2  -2    8.77    3.09
   2   6  -2    6.42    6.80
   8  -2   2   10.36    6.62
  -6   8   2   30.49    7.33
  -2  -6   2   12.66    6.83
  -6   8   2   13.56    5.91
  -2  -6   2   20.00    6.99
  -2  -6   2   11.90    6.89
  -8   3  -2   39.07    3.83
   3   5  -2   37.42    8.16
  -8   3  -2   48.96    7.75
  -8   3  -2   43.29    7.09
   3   5  -2   37.69    8.02
  -5   8   2   50.99    7.87
  -3  -5   2   31.96    7.35
  -5   8   2   44.14    7.17
  -3  -5   2   23.43    7.39
  -3  -5   2   47.93    7.83
   8  -3   2   39.76    7.53
   4  -8  -2    7.49    4.54
  -8   4  -2    9.86    5.40
   4   4  -2    2.00    6.62
  -8   4  -2    3.02    5.53
   4   4  -2   11.52    6.61
   8  -4   2    6.38    3.04
  -4  -4   2   13.50    6.22
  -4   8   2   11.41    3.36
  -4  -4   2   10.31    6.95
   8  -4   2    4.40    5.74
  -4  -4   2    1.21    6.25
   5   3  -2   11.21    6.96
  -8   5  -2   12.10    4.88
   3  -8  -2   16.25    5.43
   5   3  -2    9.83    7.10
  -8   5  -2   14.53    5.76
  -5  -3   2   24.70    7.32
   8  -5   2   11.86    6.75
   8  -5   2   18.37    4.06
  -5  -3   2    9.07    6.50
  -5  -3   2   17.23    6.21
  -3   8   2   15.92    4.70
   6   2  -2   11.27    4.44
  -8   6  -2    4.27    4.04
   6   2  -2    4.52    6.08
   6   2  -2    3.13    6.61
  -8   6  -2    2.96    4.93
  -8   6  -2   -0.52    2.26
   2  -8  -2    0.08    4.99
  -2   8   2    9.47    5.41
  -6  -2   2   12.99    6.53
   8  -6   2    1.78    2.03
  -6  -2   2    7.68    6.44
   8  -6   2   -1.62    4.04
   8  -6   2    0.75    6.65
  -6  -2   2    6.29    5.09
  -6  -2   2    4.47    5.43
  -8   7  -2   60.47    7.06
   7   1  -2   69.53    8.54
  -8   7  -2   60.54    4.57
   1  -8  -2   67.47    8.10
  -8   7  -2   56.60    4.78
   7   1  -2   52.23    7.31
   7   1  -2   67.18    6.67
  -8   7  -2   66.11    8.45
   8  -7   2   58.34    8.86
  -7  -1   2   65.42    8.81
  -1   8   2   56.54    8.05
  -7  -1   2   63.75    8.23
  -7  -1   2   67.85    6.40
   8  -7   2   75.59    6.81
  -7  -1   2   61.00    7.35
   8  -7   2   62.48    4.81
   8   0  -2    6.17    3.94
  -8   8  -2    2.40    5.99
   8   0  -2    7.06    5.52
  -8   8  -2    3.04    4.49
   0  -8  -2    1.61    5.55
   8   0  -2   -1.18    4.42
  -8   0   2   -8.90    5.15
  -8   0   2   -0.64    4.57
  -8   0   2   -1.31    3.60
  -8   0   2    3.82    5.93
   8  -8   2    5.11    3.80
   8  -8   2    0.51    7.10
   0   8   2   -3.07    6.33
  -1  -8  -2    7.00    6.20
   9  -1  -2    2.55    4.55
   9  -1  -2    2.15    3.87
   9  -1  -2    8.61    5.28
  -8   9  -2    4.64    6.14
  -9   1   2   12.12    3.35
  -9   1   2    7.02    4.97
   1   8   2    2.81    6.83
  10  -2  -2   -0.08    4.96
  10  -2  -2    0.65    3.96
  10  -2  -2    4.71    4.72
 -10   2   2    7.99    4.85
   2   8   2    5.57    7.41
  11  -3  -2    2.83    5.19
  11  -3  -2    1.38    4.39
  11  -3  -2   -2.44    4.52
 -11   3   2   -5.26    5.55
   8 -11   2    3.15    4.91
 -11   3   2    7.73    4.96
   3   8   2    8.32    8.96
   3   8   2   -3.00    7.69
  12  -4  -2    3.07    4.29
  12  -4  -2   -3.31    5.08
  12  -4  -2    0.64    4.67
   4   8   2   -0.05    8.51
   4   8   2   -1.25    9.50
   8 -12   2   -0.69    4.88
  13  -5  -2  -10.14    4.04
  13  -5  -2    4.45    5.98
  13  -5  -2    3.36    5.75
  13  -5  -2    2.17    4.91
   5   8   2   -1.74    9.45
   8 -13   2  -10.12    5.04
   5   8   2   -1.64    8.42
  14  -6  -2   -3.38    5.93
  14  -6  -2   -8.26    9.89
  14  -6  -2    1.01    5.58
  14  -6  -2  -16.99    3.96
  14  -6  -2    0.48    6.11
  14  -6  -2   10.76    5.60
   6   8   2    0.51    9.59
   6   8   2    4.27   10.71
  15  -7  -2   11.02    6.15
  15  -7  -2    4.19    5.36
  15  -7  -2    4.01   10.01
  15  -7  -2   13.30    6.18
  15  -7  -2   -7.86    6.12
   7   8   2   19.42   12.03
   7   8   2    3.18   10.38
  16  -8  -2   -1.59   10.69
  16  -8  -2    3.12    5.75
  16  -8  -2  -21.25    6.30
  16  -8  -2    5.04    5.91
   8   8   2   -2.61   11.29
   8   8   2    2.73   10.38
  17  -9  -2   -0.64    5.15
  -9  -8  -2   -6.04    7.81
  17  -9  -2    2.91   11.86
  17  -9  -2    4.74    5.77
   9   8   2    7.42   11.89
   9   8   2    3.20   11.08
   8 -17   2    6.40    8.76
  16  -9  -2    9.92    7.27
  -9  -7  -2    2.92    7.64
  -7  16  -2   19.54    5.73
  16  -9  -2   -0.25   11.24
  16  -9  -2   12.20    5.33
  16  -9  -2   12.34    5.94
   9   7   2   12.55   11.86
   9   7   2    8.54   10.96
  15  -9  -2   22.34    6.08
  15  -9  -2   24.02    7.38
  15  -9  -2    4.84    5.39
  15  -9  -2   10.67   11.41
  -6  15  -2   24.04    6.96
  15  -9  -2   31.89    6.27
   9   6   2   22.77   11.02
   9   6   2   16.68   11.44
  14  -9  -2   27.51    6.95
  14  -9  -2   19.00    5.31
  14  -9  -2    4.81   10.90
  14  -9  -2   -9.47    5.07
  14  -9  -2   13.79    4.34
  14  -9  -2   19.79    5.80
  -5  14  -2   19.96    7.12
   9   5   2   -1.91   10.81
   9   5   2   15.39   10.49
  -4  13  -2   -4.33    5.94
  13  -9  -2    0.84    3.86
  13  -9  -2   -1.82    9.21
  13  -9  -2    3.44    2.85
  13  -9  -2   11.30    5.35
  13  -9  -2   -1.24    4.57
   9   4   2    4.27    9.37
   9   4   2   -5.69    8.35
  12  -9  -2    3.19    4.73
  -3  12  -2   18.22    7.06
  12  -9  -2    0.77    8.86
  12  -9  -2    3.16    5.29
  12  -9  -2    4.43    3.67
  12  -9  -2    6.17    3.27
  12  -9  -2   11.60    4.73
   9   3   2    9.11   10.04
   9   3   2    1.09    8.30
  11  -9  -2   -1.60    2.76
  -2  11  -2   -9.32    7.08
  11  -9  -2    4.92    4.24
  11  -9  -2   10.90    8.80
   9   2   2   -0.77    7.50
   2 -11   2    4.70    5.49
   9   2   2   -3.96    7.82
   2 -11   2   -7.48    6.88
  -9  -1  -2    8.77    5.10
  -1  10  -2    7.00    8.30
  -1  10  -2    3.81    7.76
  10  -9  -2   11.92    4.02
  10  -9  -2   12.37    8.19
  -9  -1  -2    1.42    5.85
 -10   9   2   16.98    5.05
   9   1   2   25.18    8.43
   9   1   2   13.25    7.94
   1 -10   2   -1.32    7.02
   1 -10   2    4.95    5.93
   0   9  -2    3.36    7.06
   9  -9  -2   -2.99    7.50
   0   9  -2   14.62    8.33
  -9   0  -2    8.63    4.72
  -9   0  -2    2.37    5.25
   0  -9   2   11.36    7.34
  -9   9   2    5.20    5.11
   9   0   2    4.21    7.30
   9   0   2    3.98    7.22
   0  -9   2    8.28    6.10
  -9   1  -2    7.84    5.24
   8  -9  -2    6.04    7.33
  -9   1  -2    4.42    3.83
   1   8  -2    3.16    7.37
  -9   1  -2    5.18    6.53
   1   8  -2    3.07    7.20
  -9   1  -2    1.29    2.57
   9  -1   2   12.36    6.43
  -1  -8   2   -0.92    6.70
  -1  -8   2   -0.32    5.85
  -8   9   2   -1.43    4.96
   9  -1   2    0.12    6.74
   2   7  -2   31.59    8.76
  -9   2  -2   43.47    4.07
  -9   2  -2   38.45    7.64
  -9   2  -2   41.28    3.62
   2   7  -2   32.82    8.63
  -9   2  -2   39.90    6.04
  -2  -7   2   43.09    8.26
  -7   9   2   28.57    6.52
  -2  -7   2   33.78    7.91
   9  -2   2   44.21    8.59
  -9   3  -2    6.52    4.31
  -9   3  -2   -4.04    5.42
   3   6  -2    3.52    6.81
   3   6  -2   -8.55    6.55
  -9   3  -2    2.79    2.54
  -3  -6   2    5.82    6.55
   9  -3   2   -1.39    6.11
  -3  -6   2   -0.45    6.14
  -6   9   2    0.36    5.43
   4   5  -2    5.53    7.02
   5  -9  -2    2.23    4.41
  -9   4  -2   -1.69    5.87
   4   5  -2    1.74    6.76
  -9   4  -2    5.45    5.55
  -5   9   2    4.99    6.09
  -4  -5   2    1.16    6.27
  -4  -5   2   12.96    6.90
   9  -4   2    4.80    6.00
  -4  -5   2    3.90    6.46
   4  -9  -2    2.33    4.83
  -9   5  -2    3.91    5.08
   5   4  -2    6.27    7.08
  -9   5  -2    4.13    5.35
   5   4  -2   -1.62    6.52
  -5  -4   2    0.95    6.64
  -5  -4   2   -9.13    5.49
  -4   9   2   -4.10    3.68
   9  -5   2    1.81    7.02
   9  -5   2    5.02    5.79
   9  -5   2    1.33    3.08
   6   3  -2    0.62    6.89
   3  -9  -2    5.17    5.09
   6   3  -2    8.85    6.90
  -9   6  -2   -7.92    4.46
  -9   6  -2    3.39    4.42
  -6  -3   2   -3.37    5.55
  -6  -3   2    4.45    6.62
  -3   9   2   -3.10    4.92
   9  -6   2    0.35    6.69
   9  -6   2    4.33    3.85
   7   2  -2   21.32    6.67
  -9   7  -2   13.98    5.20
   2  -9  -2   10.52    5.64
  -9   7  -2   14.06    4.11
   7   2  -2   14.80    7.05
  -9   7  -2    8.85    1.87
  -7  -2   2   -0.50    6.31
  -2   9   2    4.70    5.83
   9  -7   2    8.09    7.10
  -7  -2   2   18.02    5.62
   9  -7   2   12.92    4.58
   9  -7   2   10.36    2.51
  -7  -2   2    9.88    5.84
   8   1  -2   16.47    6.20
   8   1  -2   29.00    5.26
   1  -9  -2   20.89    6.74
  -9   8  -2   21.71    3.33
  -9   8  -2   25.83    5.55
  -9   8  -2   20.21    7.23
   8   1  -2   12.92    6.48
  -8  -1   2   23.10    4.84
   9  -8   2   30.14    4.02
  -1   9   2   29.71    7.66
   9  -8   2   27.09    7.95
  -8  -1   2   21.73    6.20
   9  -8   2   23.87    5.52
  -8  -1   2   18.02    6.83
   0  -9  -2    2.76    6.14
   9   0  -2    5.45    4.93
   9   0  -2   -9.14    5.06
  -9   9  -2   -2.45    4.31
   9   0  -2    8.71    4.12
   0   9   2    7.47    6.83
  -9   0   2    2.95    5.10
   9  -9   2   13.42    8.17
  -9   0   2    6.06    5.70
  -9   0   2   11.93    3.94
   9  -9   2    5.86    4.17
  10  -1  -2   15.86    4.68
  -9  10  -2   -3.50    4.02
  10  -1  -2   -2.95    5.49
  10  -1  -2    7.12    4.90
   1   9   2    7.94    7.40
 -10   1   2   10.89    5.13
 -10   1   2    8.38    5.59
 -10   1   2   12.38    2.94
  11  -2  -2    7.36    4.92
  11  -2  -2   -1.71    3.85
  11  -2  -2    5.97    5.83
 -11   2   2   11.66    5.14
   2   9   2   11.36    8.17
  12  -3  -2   -4.36    5.44
  12  -3  -2    2.31    4.80
  12  -3  -2    2.80    4.83
 -12   3   2    7.68    5.99
   3   9   2    5.69    8.25
 -12   3   2   -8.68    4.74
   9 -12   2    3.32    4.68
  13  -4  -2    9.54    5.39
  13  -4  -2    0.63    4.86
  13  -4  -2    4.66    6.17
   4   9   2   -8.73    8.56
   4   9   2    2.63    9.99
   9 -13   2   -5.57    4.75
  14  -5  -2   -2.46    4.92
  14  -5  -2  -21.91    7.48
  14  -5  -2    1.75    6.46
  14  -5  -2   -5.59    5.44
  14  -5  -2   -2.16    6.25
   5   9   2   -5.88    9.49
   9 -14   2   -2.82    5.28
   5   9   2   -7.33   10.74
  15  -6  -2    7.80    6.27
  15  -6  -2   17.85   10.60
  15  -6  -2    7.33    5.61
  15  -6  -2   -0.51    7.14
  15  -6  -2    0.03    6.31
   6   9   2   20.94   11.85
   6   9   2   14.37   10.72
  16  -7  -2   -9.38    6.33
  16  -7  -2    1.04    6.46
  16  -7  -2    3.14    6.11
  16  -7  -2   10.63   11.67
   7   9   2  -14.23   10.62
   7   9   2  -22.85    9.36
  17  -8  -2    1.26   11.64
  17  -8  -2   -7.15    6.39
  17  -8  -2    7.03    6.31
  17  -8  -2    4.58    6.15
   8   9   2   -8.00   11.71
   8   9   2   11.19   11.26
  17 -10  -2   -1.73    5.47
  17 -10  -2  -15.94    6.14
  17 -10  -2    2.24   12.34
 -10  -7  -2   -4.24    7.41
   7 -17   2    6.95    9.13
  10   7   2    7.78   11.22
  10   7   2   20.35   12.98
  16 -10  -2   -0.51    6.71
  16 -10  -2    9.44   12.08
  -6  16  -2    6.71    6.28
  16 -10  -2    9.97    5.07
 -10  -6  -2   -5.46    6.85
  10   6   2    5.30   10.70
  10   6   2  -16.41   10.44
   6 -16   2   -0.76    8.62
  15 -10  -2    2.62    4.37
  15 -10  -2    4.60    5.75
 -10  -5  -2   -9.84    5.70
  15 -10  -2   10.15    5.47
  15 -10  -2   10.83   10.85
  -5  15  -2   -5.15    5.91
   5 -15   2   -6.95    8.07
  10   5   2    1.82   10.42
  10   5   2   -3.46    9.74
  14 -10  -2    2.23    5.22
  -4  14  -2    7.53    6.87
 -10  -4  -2   -1.21    6.66
  14 -10  -2    1.79    5.11
  14 -10  -2    0.00    3.97
  14 -10  -2    6.12   10.38
   4 -14   2   -5.20    7.71
  10   4   2   18.11   10.28
  10   4   2   -0.04   10.20
 -10  -3  -2    8.66    6.27
  13 -10  -2    5.39   10.02
  13 -10  -2    6.35    3.43
  13 -10  -2    3.09    5.20
  13 -10  -2   -7.14    5.57
  13 -10  -2   -2.55    4.47
  13 -10  -2   -1.06    2.74
  -3  13  -2  -10.19    6.43
   3 -13   2    3.19    7.94
  10   3   2    3.59    8.86
  10   3   2    9.57    9.76
  12 -10  -2    1.10    3.91
  -2  12  -2   -9.51    6.92
  12 -10  -2   -5.52    8.82
 -10  -2  -2   -0.97    5.40
  10   2   2    4.82    8.93
   2 -12   2   -3.46    7.08
  10   2   2    4.30    8.33
  11 -10  -2    2.11    3.71
  11 -10  -2    6.85    8.56
  -1  11  -2  -10.55    7.27
 -10  -1  -2    1.82    5.13
  10   1   2    3.99    8.25
  10   1   2  -10.64    7.70
   1 -11   2  -13.82    7.04
 -11  10   2    8.61    4.67
 -10   0  -2   30.36    6.95
  10 -10  -2   19.06    9.19
 -10   0  -2   22.11    5.41
   0  10  -2   51.20    9.77
   0 -10   2   19.52    8.39
  10   0   2   24.28    8.83
  10   0   2   44.67    9.13
 -10  10   2   43.36    6.51
 -10   1  -2    7.89    2.67
 -10   1  -2    4.93    4.12
   1   9  -2    4.44    7.68
 -10   1  -2   14.49    5.84
   1   9  -2   11.33    8.45
  -1  -9   2    1.22    7.03
  10  -1   2    2.69    7.29
  10  -1   2   13.39    7.12
  -9  10   2    0.39    5.32
   2   8  -2    1.06    7.49
 -10   2  -2    1.24    2.87
   2   8  -2   -7.84    7.43
 -10   2  -2    4.33    2.30
 -10   2  -2    4.52    4.84
 -10   2  -2   13.27    6.78
  -8  10   2    4.54    5.94
  -2  -8   2   -5.68    6.62
  10  -2   2    7.82    7.19
   3   7  -2    0.06    7.33
 -10   3  -2    2.13    4.54
   7 -10  -2   10.54    4.07
 -10   3  -2   14.24    6.62
 -10   3  -2    5.40    2.01
 -10   3  -2    9.92    2.39
   3   7  -2    1.01    7.59
  10  -3   2    6.37    6.96
  -3  -7   2   13.78    7.53
  -7  10   2    8.98    5.77
 -10   4  -2   -0.27    3.81
   6 -10  -2   -1.00    4.11
   4   6  -2    7.61    7.59
   4   6  -2   -1.12    7.04
 -10   4  -2    6.51    5.94
  10  -4   2    5.15    6.55
  -4  -6   2   -8.93    6.36
 -10   5  -2   19.47    6.07
   5   5  -2   19.00    7.90
 -10   5  -2   18.46    3.09
   5   5  -2    4.16    7.33
   5 -10  -2   15.21    5.06
  -5  10   2   13.55    3.17
  10  -5   2   11.13    6.32
  10  -5   2    8.52    3.03
  10  -5   2   12.18    7.71
  -5  -5   2   13.08    7.18
   6   4  -2   23.22    8.02
 -10   6  -2   22.61    6.62
   4 -10  -2    8.89    5.34
 -10   6  -2   19.22    5.60
   6   4  -2    4.00    7.25
  10  -6   2   23.71    4.19
  10  -6   2   24.97    7.94
  -6  -4   2   20.67    7.11
  -4  10   2   18.37    4.58
 -10   7  -2   30.91    6.37
 -10   7  -2   21.96    4.78
   7   3  -2   23.35    7.96
   7   3  -2   34.97    8.76
   3 -10  -2   25.36    6.52
  -7  -3   2   11.20    6.36
  10  -7   2   17.98    8.23
  -3  10   2   23.42    5.68
  10  -7   2   29.77    4.83
 -10   8  -2    0.95    2.48
   8   2  -2    7.32    7.10
 -10   8  -2   -0.81    1.87
 -10   8  -2    2.01    4.75
   8   2  -2   11.27    6.66
   2 -10  -2    1.76    5.70
  10  -8   2    2.09    2.61
  -8  -2   2    3.83    5.25
  -2  10   2   11.90    6.30
  -8  -2   2   -8.96    5.43
  10  -8   2    7.48    7.54
  10  -8   2   -3.40    4.40
   9   1  -2    9.20    6.37
 -10   9  -2   24.12    3.36
 -10   9  -2   18.11    5.26
   1 -10  -2   22.48    6.82
   9   1  -2   12.31    5.82
  -9  -1   2   13.25    6.71
  -1  10   2   11.52    7.27
  10  -9   2   11.59    3.82
  10  -9   2   12.91    8.22
  10  -9   2   14.88    5.60
  -9  -1   2   14.50    5.82
  -9  -1   2    4.75    4.65
  10   0  -2   34.94    5.72
  10   0  -2   39.76    8.33
 -10  10  -2   30.30    5.69
  10   0  -2   33.96    7.07
   0  10   2   27.77    8.85
 -10   0   2   42.50    8.17
  10 -10   2   41.19    5.40
 -10   0   2   41.26    6.94
  10 -10   2   38.42    9.47
  11  -1  -2    5.71    4.06
 -10  11  -2   16.54    3.86
  11  -1  -2    4.83    6.27
  11  -1  -2   10.10    5.77
   1  10   2    1.42    8.12
 -11   1   2    3.95    5.25
 -11   1   2    0.08    2.75
 -11   1   2  -14.37    4.86
  12  -2  -2   -2.56    4.01
  12  -2  -2   -1.83    5.65
 -10  12  -2    3.35    3.23
  12  -2  -2   11.26    5.45
   2  10   2  -12.12    7.43
 -12   2   2    2.62    5.38
  13  -3  -2  -11.78    4.32
  13  -3  -2   -2.58    5.99
  13  -3  -2   -2.48    4.68
 -13   3   2    1.40    6.24
 -13   3   2    2.73    5.47
   3  10   2   -5.18    8.77
  14  -4  -2    7.39    6.71
  14  -4  -2    3.52    5.66
  10 -14   2   16.22    5.64
   4  10   2   16.45   10.63
  15  -5  -2   -5.58    6.35
  15  -5  -2   -3.02    5.44
  15  -5  -2   -3.91    6.27
  15  -5  -2  -10.74    7.90
   5  10   2    1.25    9.72
  10 -15   2   -5.11    4.78
  16  -6  -2  -12.91    6.26
  16  -6  -2   -9.40   10.34
  16  -6  -2   -3.37    5.95
  16  -6  -2   -6.11    6.83
   6  10   2    5.57   10.97
  17  -7  -2   -2.32    6.12
  17  -7  -2   18.17   12.54
  17  -7  -2    0.60    7.34
  17  -7  -2   -1.46    6.96
   7  10   2    2.90   10.82
  17 -11  -2   30.44    5.97
 -11  -6  -2   11.58    8.07
  17 -11  -2    8.39   12.12
  -6  17  -2   -2.47    5.69
   6 -17   2  -20.53    8.12
  11   6   2   16.12   12.67
  11   6   2  -16.55   10.27
 -11  -5  -2   13.58    7.83
  16 -11  -2    9.63    4.89
  16 -11  -2   -4.30    5.51
  -5  16  -2   13.08    7.41
  16 -11  -2   -6.55   11.43
  11   5   2    6.73   12.00
   5 -16   2  -11.91    8.27
  11   5   2    6.90   10.69
  15 -11  -2   -0.95    5.08
  -4  15  -2   -2.91    6.52
 -11  -4  -2   -0.97    6.43
  15 -11  -2    8.81    5.71
  15 -11  -2    1.40   11.17
  11   4   2   14.35   10.50
   4 -15   2   -3.62    8.61
  11   4   2   -7.23   10.49
  14 -11  -2   17.01   11.26
  -3  14  -2    9.90    7.83
  14 -11  -2   16.87    5.89
  14 -11  -2   15.70    4.78
 -11  -3  -2   -0.55    5.99
  14 -11  -2   29.19    7.13
  11   3   2    7.05   10.44
   3 -14   2    1.40    8.56
  11   3   2   -3.39    9.61
 -11  -2  -2   10.63    6.11
  -2  13  -2   -4.64    6.89
  13 -11  -2   -0.48    3.82
  13 -11  -2    8.56   10.34
  11   2   2   -6.58    9.37
   2 -13   2   16.21    8.80
  11   2   2    5.29    9.45
  12 -11  -2    3.30    3.31
 -11  -1  -2    8.53    5.47
  -1  12  -2   -8.12    7.89
  12 -11  -2   -2.33    9.13
 -12  11   2    8.68    4.53
   1 -12   2    6.76    7.92
  11   1   2    1.86    8.59
  11   1   2   -0.28    8.60
   0  11  -2   11.05    8.52
  11 -11  -2   -1.45    3.12
 -11   0  -2   -3.85    4.13
 -11   0  -2    1.33    5.09
  11 -11  -2   25.86    9.80
 -11  11   2    0.05    4.31
  11   0   2   18.25    8.60
   0 -11   2    0.74    7.51
  11   0   2    2.51    8.27
 -11   1  -2    1.84    2.59
 -11   1  -2    4.82    5.40
 -11   1  -2   10.36    3.84
   1  10  -2    1.08    7.88
  11  -1   2    3.45    7.16
  -1 -10   2    3.26    7.63
 -10  11   2   -2.73    4.85
  11  -1   2   11.71    8.58
 -11   2  -2    0.56    4.92
 -11   2  -2    4.70    3.03
   9 -11  -2    7.59    3.56
   2   9  -2    4.41    8.11
   2   9  -2    5.97    8.14
 -11   2  -2    4.22    1.99
  -2  -9   2    0.35    6.95
  11  -2   2   12.75    6.71
  11  -2   2    8.17    7.94
 -11   3  -2   -6.80    4.31
 -11   3  -2   -3.91    5.60
   3   8  -2   -4.80    7.47
 -11   3  -2    2.80    2.12
   8 -11  -2    4.81    3.95
   3   8  -2    0.47    8.14
  11  -3   2    5.23    7.44
  -3  -8   2    4.46    7.39
   7 -11  -2    7.56    4.30
 -11   4  -2    6.47    3.45
 -11   4  -2   -2.04    5.73
   4   7  -2    5.06    7.61
   4   7  -2    0.57    7.84
  -4  -7   2    1.50    7.15
  11  -4   2    0.69    6.51
   5   6  -2   14.98    8.27
 -11   5  -2   23.90    6.35
   5   6  -2   11.75    8.33
 -11   5  -2   22.92    3.45
  -5  -6   2   17.22    7.79
  11  -5   2   17.51    7.24
 -11   6  -2   11.20    5.01
   6   5  -2  -15.83    7.17
   5 -11  -2   -1.83    4.75
   6   5  -2    1.97    7.75
  11  -6   2    6.10    7.84
  -6  -5   2   -9.45    6.24
  -5  11   2    5.38    3.43
  11  -6   2   10.37    3.03
  11  -6   2   12.12    6.59
 -11   7  -2    0.07    5.73
   4 -11  -2    0.34    5.38
 -11   7  -2    2.20    3.94
   7   4  -2   -0.81    7.54
   7   4  -2    9.50    8.23
  -7  -4   2    0.91    6.33
  -4  11   2   -1.13    4.29
  11  -7   2    7.68    7.89
  11  -7   2   11.74    4.06
 -11   8  -2   15.30    5.90
   3 -11  -2   12.47    6.35
 -11   8  -2   15.59    3.50
   8   3  -2    7.97    7.82
   8   3  -2   24.18    8.96
  11  -8   2   20.67    8.58
  -8  -3   2    3.55    6.47
  -3  11   2   17.11    5.73
  11  -8   2   21.69    4.81
 -11   9  -2    6.02    2.15
 -11   9  -2    0.79    4.76
   9   2  -2   -4.11    7.28
   2 -11  -2    0.64    5.92
   9   2  -2   21.96    7.68
  -2  11   2    2.79    5.83
  -9  -2   2   -1.79    6.05
  11  -9   2    5.54    8.21
  11  -9   2   -2.90    4.59
  11  -9   2   -2.42    2.75
  -9  -2   2    6.15    5.19
  10   1  -2   -0.50    6.55
  10   1  -2    6.72    6.21
 -11  10  -2   -5.87    3.90
 -11  10  -2   -0.24    2.80
  11 -10   2    6.13    5.50
  -1  11   2    0.71    6.49
 -10  -1   2    3.42    5.95
  11 -10   2   -1.28    8.57
  11 -10   2    2.52    3.81
 -10  -1   2    2.69    3.97
  11   0  -2   -5.08    5.23
 -11  11  -2    5.32    3.28
 -11  11  -2    1.84    3.35
  11   0  -2    7.09    6.88
   0  11   2   -3.40    7.39
  11 -11   2    7.14    4.62
 -11   0   2   -3.17    5.11
 -11   0   2   -1.26    3.15
  11 -11   2   -7.02    8.17
  12  -1  -2   -0.38    5.53
 -11  12  -2    0.45    3.26
  12  -1  -2   10.62    7.08
   1  11   2    4.20    8.68
 -12   1   2   11.43    2.71
 -12   1   2    5.97    6.00
  13  -2  -2   15.05    7.91
  13  -2  -2    7.36    5.59
 -11  13  -2    8.63    3.30
 -13   2   2    2.96    5.65
   2  11   2    7.48    9.55
  14  -3  -2    5.69    7.32
  14  -3  -2  -15.74    4.48
 -14   3   2    4.89    5.41
 -14   3   2   -7.24    6.23
   3  11   2    9.24    9.86
  15  -4  -2    8.42    7.58
  15  -4  -2   18.63    6.32
  15  -4  -2   12.83   10.24
   4  11   2   34.50   11.55
  16  -5  -2   -6.08    8.43
  16  -5  -2    3.76    6.86
  16  -5  -2   10.59    7.46
   5  11   2    9.64   11.29
  17  -6  -2   26.99    9.81
  17  -6  -2   -4.87   11.63
  17  -6  -2    4.57    6.50
  17  -6  -2    0.15    7.47
  11 -17   2   -6.75    6.98
   6  11   2    4.69   11.01
  17 -12  -2    1.09   12.41
  -5  17  -2    0.29    7.08
 -12  -5  -2   -8.30    6.53
  12   5   2  -16.37   11.07
  12   5   2    8.14   11.82
   5 -17   2    7.90    9.87
 -12  -4  -2   -2.71    6.49
  16 -12  -2   -9.65   11.81
  -4  16  -2   -9.74    6.98
   4 -16   2    4.98    8.96
  12   4   2   -7.24   10.34
  12   4   2  -17.74   10.32
  15 -12  -2   -0.98   11.35
  -3  15  -2   -1.08    6.88
 -12  -3  -2   -0.53    6.23
   3 -15   2   12.22    8.93
  12   3   2   -9.47    9.67
  12   3   2   -2.91   10.68
  -2  14  -2   -0.56    7.47
  14 -12  -2    0.60   10.38
 -12  -2  -2    6.57    6.05
  12   2   2   16.49   10.94
  12   2   2    7.90   10.35
   2 -14   2   29.35    9.67
  13 -12  -2   -6.46   10.19
  13 -12  -2   -2.92    3.35
  -1  13  -2    6.05    8.66
 -12  -1  -2   -0.93    5.09
   1 -13   2    4.92    8.49
  12   1   2  -14.10    8.94
  12   1   2   14.68   10.29
   0  12  -2   -3.23    8.19
  12 -12  -2    3.35    8.91
 -12   0  -2    1.28    2.60
 -12   0  -2   -3.80    3.73
   0 -12   2    6.88    8.77
  12   0   2   -4.35    8.73
  12   0   2   15.23    9.28
 -12   1  -2   20.71    5.91
   1  11  -2   14.21    9.09
 -12   1  -2    5.93    3.80
 -12   1  -2    2.92    2.29
  12  -1   2   16.24    8.21
  12  -1   2   -2.44    8.59
  -1 -11   2    3.84    7.95
  10 -12  -2    3.25    3.09
 -12   2  -2    0.27    3.02
 -12   2  -2   -3.43    4.62
   2  10  -2    3.31    8.29
  12  -2   2   -9.22    7.81
  -2 -10   2    7.02    8.03
  12  -2   2    8.99    7.24
 -12   3  -2    1.61    3.65
 -12   3  -2    2.15    2.31
   3   9  -2    1.19    8.31
   9 -12  -2    3.93    3.66
  -3  -9   2   -6.86    7.31
  12  -3   2    2.36    8.13
   8 -12  -2   10.02    4.37
 -12   4  -2    1.89    5.85
   4   8  -2    3.84    8.31
 -12   4  -2    9.68    3.48
   4   8  -2    3.61    8.95
  -4  -8   2   14.03    8.28
  12  -4   2    1.23    7.56
   5   7  -2    4.75    8.70
   7 -12  -2    1.38    4.58
   5   7  -2    6.97    8.60
 -12   5  -2    0.04    2.80
 -12   5  -2    0.16    5.87
  -5  -7   2   -1.96    7.48
  12  -5   2   -4.74    7.65
   6   6  -2   27.30    9.57
   6 -12  -2   19.89    5.94
   6   6  -2   20.26    9.24
 -12   6  -2   20.18    6.10
  12  -6   2   15.01    9.22
  12  -6   2   31.94    8.60
  -6  12   2   26.51    3.56
  -6  -6   2   27.04    8.66
   7   5  -2    8.21    8.61
   7   5  -2   -0.64    8.04
   5 -12  -2    9.58    5.63
 -12   7  -2    2.66    3.93
  -5  12   2    4.88    4.20
  -7  -5   2   -0.62    6.92
  12  -7   2    4.63    3.47
  12  -7   2   -2.53    8.27
 -12   8  -2    3.74    3.13
   8   4  -2    6.27    8.48
   4 -12  -2    0.15    5.81
   8   4  -2   -0.37    8.00
  -4  12   2   -5.01    4.63
  -8  -4   2    4.10    7.00
  12  -8   2    0.70    8.63
  12  -8   2   -4.96    3.84
 -12   9  -2    5.01    2.36
 -12   9  -2   -4.20    5.16
   9   3  -2    3.50    7.78
   3 -12  -2    6.85    6.03
   9   3  -2   -3.36    8.23
  -9  -3   2    7.82    6.68
  12  -9   2   -0.60    8.48
  12  -9   2    4.43    4.82
  -3  12   2   15.47    6.22
  -9  -3   2    4.73    6.11
 -12  10  -2    4.68    3.93
  10   2  -2    6.31    7.08
  10   2  -2   12.22    8.34
  12 -10   2   18.06    9.08
  12 -10   2    3.01    3.19
 -10  -2   2   -4.02    4.31
  12 -10   2   -2.52    4.96
 -10  -2   2  -12.46    5.74
  -2  12   2   -0.91    6.25
  11   1  -2    1.92    7.51
 -12  11  -2    3.00    3.47
 -12  11  -2    6.25    2.99
  11   1  -2   13.09    6.99
 -11  -1   2    6.11    3.79
  12 -11   2   -3.11    5.79
  12 -11   2   -4.24    9.08
  -1  12   2   -7.35    6.42
  12 -11   2    4.55    4.00
 -11  -1   2   -0.77    5.56
 -12  12  -2   -0.45    3.22
  12   0  -2    6.00    6.14
 -12  12  -2   -6.16    2.87
  12   0  -2   -0.34    7.02
 -12   0   2    4.04    3.30
 -12   0   2   14.79    6.47
   0  12   2    5.08    7.40
  12 -12   2    5.83    4.89
  13  -1  -2    1.79    7.00
 -12  13  -2    6.21    2.88
 -12  13  -2    0.09    3.65
 -13   1   2    3.11    2.17
   1  12   2    1.37    8.05
 -13   1   2    2.94    5.67
  12 -13   2    0.76    5.54
  14  -2  -2    9.96    7.97
 -14   2   2    0.43    5.85
   2  12   2   -0.01    9.61
  15  -3  -2   13.85    8.61
 -15   3   2    5.98    5.83
   3  12   2   15.55   10.65
 -15   3   2   21.57    7.46
  16  -4  -2  -11.67   10.41
  16  -4  -2   -0.85    7.66
  12 -16   2  -12.68    6.18
   4  12   2   14.34   11.24
  17  -5  -2    2.30    6.77
  17  -5  -2    0.61    7.84
  17  -5  -2   -7.01    9.77
   5  12   2   11.91   11.23
  12 -17   2   -4.11    7.23
  -3  16  -2    5.60    8.29
 -13  -3  -2   11.38    6.88
  16 -13  -2   -9.21   11.30
   3 -16   2  -16.20    8.52
  13   3   2   -3.16   11.56
  13   3   2   -8.42   11.23
 -13  -2  -2    2.31    6.11
  -2  15  -2   -8.31    7.13
  15 -13  -2  -11.22   10.76
  13   2   2    6.45   11.21
  13   2   2   -4.37   10.17
   2 -15   2   -6.53    9.05
  14 -13  -2    2.47   10.44
  -1  14  -2    1.68    8.74
 -13  -1  -2    1.18    5.54
  13   1   2   12.85   10.94
  13   1   2    6.16   10.44
   1 -14   2   14.19    9.50
  13 -13  -2   -4.54   10.24
   0  13  -2    3.59    9.46
 -13   0  -2   -0.32    4.11
  13   0   2    2.51    9.45
   0 -13   2    5.22    9.05
  13   0   2    7.21   10.08
 -13   1  -2    1.86    2.10
 -13   1  -2   -8.77    3.30
   1  12  -2    1.64    8.87
  12 -13  -2   -7.07    4.08
  13  -1   2   -1.69    9.29
  -1 -12   2    9.85    9.07
  13  -1   2   -1.76    8.40
 -13   2  -2    5.63    3.47
  11 -13  -2   11.05    4.99
   2  11  -2    5.96    9.42
 -13   2  -2   15.34    5.02
  -2 -11   2    7.21    8.70
  13  -2   2   16.52    9.74
   3  10  -2   12.03    9.67
  10 -13  -2    6.56    3.32
 -13   3  -2   -1.41    3.05
 -13   3  -2   -4.15    2.36
  -3 -10   2   23.23    8.85
  13  -3   2   -6.09    8.74
 -13   4  -2    5.43    3.29
   4   9  -2    2.53    8.72
   9 -13  -2   10.99    4.18
  13  -4   2   -2.71    7.83
  -4  -9   2    3.27    7.71
 -13   5  -2   -6.85    2.36
   8 -13  -2   -1.87    4.41
   5   8  -2   -0.46    8.73
 -13   5  -2   -1.21    5.42
  -5  -8   2   -1.40    7.83
  13  -5   2   10.85    8.02
 -13   6  -2    2.41    5.26
   6   7  -2   -4.15    8.47
   7 -13  -2    2.88    4.90
  13  -6   2    8.35    7.42
  13  -6   2    9.07    9.23
  -6  -7   2   11.98    8.15
 -13   7  -2   21.31    4.84
   7   6  -2   11.24    9.23
   6 -13  -2    5.65    5.24
   7   6  -2   21.85    9.54
  13  -7   2   17.81    9.22
  -7  -6   2   31.31    8.94
  -6  13   2   22.05    3.84
   8   5  -2    4.89    8.95
   8   5  -2   14.06    9.42
   5 -13  -2   23.99    6.42
 -13   8  -2   14.35    3.96
  -5  13   2   28.47    5.05
  -8  -5   2   11.03    8.00
  13  -8   2    4.58    9.11
  13  -8   2   20.68    4.06
   9   4  -2   -7.46    7.92
 -13   9  -2   -1.43    2.54
   9   4  -2   -1.24    8.62
   4 -13  -2    8.02    6.09
  -4  13   2   10.29    5.70
  13  -9   2   -4.51    8.79
  -9  -4   2   -5.77    6.84
  13  -9   2    2.19    4.44
  10   3  -2    8.10    9.27
  10   3  -2   17.31    9.28
 -10  -3   2   15.58    7.62
  13 -10   2   13.42    5.45
  -3  13   2    8.36    6.17
  13 -10   2   -3.76    9.12
 -10  -3   2   12.46    5.68
  11   2  -2    1.18    8.82
 -11  -2   2   -9.12    4.19
  13 -11   2   -0.81    3.43
 -11  -2   2   -0.92    6.40
  13 -11   2    1.54    5.49
  -2  13   2    8.70    6.80
  13 -11   2    6.94    9.29
 -13  12  -2    0.54    3.21
  12   1  -2   -0.92    8.64
 -13  12  -2    5.76    2.99
  13 -12   2   -0.76    9.81
  -1  13   2   -2.63    7.12
  13 -12   2   -1.16    6.13
  13 -12   2   -2.47    4.25
 -12  -1   2   -1.20    6.36
 -12  -1   2    0.53    3.80
  13   0  -2   19.95    9.53
   0  13   2   -4.00    7.49
  13 -13   2   16.32    5.57
 -13   0   2   23.58    7.06
  14  -1  -2   -1.47    7.45
  13 -14   2    5.45    5.76
 -14   1   2    5.50    6.27
   1  13   2   -5.24    7.82
  15  -2  -2   18.18    9.06
 -15   2   2   23.76    7.01
  13 -15   2    3.66    6.41
   2  13   2   14.71   10.69
  16  -3  -2    1.81    8.53
  16  -3  -2   -5.92   11.43
 -16   3   2   -8.98    5.07
   3  13   2  -12.06    9.72
 -16   3   2    2.78    6.51
  13 -16   2   -0.86    6.52
  -2  16  -2   19.67    9.10
  16 -14  -2    8.25   12.38
 -14  -2  -2    5.85    6.29
  14   2   2    6.21   11.78
   2 -16   2   16.61   10.73
  14   2   2    4.41   11.84
  15 -14  -2   -2.03   11.19
 -14  -1  -2  -11.02    4.81
  -1  15  -2    0.87    8.87
  14   1   2   23.16   11.93
  14   1   2   -0.30   10.64
   1 -15   2   -5.09    9.49
 -14   0  -2    4.10    4.38
   0  14  -2  -12.74    9.24
   0 -14   2   14.45    9.86
  14   0   2    4.14   10.16
  14   0   2    7.05   10.69
 -14   1  -2    9.52    4.01
   1  13  -2   14.57    9.94
  14  -1   2    5.59   10.06
  14  -1   2   11.77    9.73
  -1 -13   2   -5.61    8.42
 -14   2  -2   19.72    4.88
 -14   2  -2    3.21    3.53
   2  12  -2   12.61   10.27
  14  -2   2   13.46    9.98
  -2 -12   2   -4.52    8.25
 -14   3  -2    2.09    2.58
 -14   3  -2   10.75    3.31
   3  11  -2    4.62    9.93
  11 -14  -2   11.09    5.25
  -3 -11   2    5.98    9.42
  14  -3   2   -6.54    9.50
  10 -14  -2    0.81    5.12
  10 -14  -2    2.30    3.58
   4  10  -2    8.60   10.16
 -14   4  -2   11.30    3.05
  -4 -10   2    9.51    8.95
  14  -4   2    4.42    8.73
   5   9  -2    0.33    9.79
   9 -14  -2   -2.77    4.30
 -14   5  -2    7.90    3.10
  -5  -9   2    7.55    9.03
  14  -5   2    5.12    8.70
   6   8  -2   15.34   10.04
 -14   6  -2   -9.32    5.61
 -14   6  -2   -1.64    2.06
   8 -14  -2   -3.77    4.68
  14  -6   2  -10.64    9.21
  -6  -8   2   -2.67    8.35
  14  -6   2    2.95    7.93
   7 -14  -2    9.88    5.46
   7   7  -2   16.24   10.23
 -14   7  -2   -0.33    3.96
  14  -7   2   -5.47    9.22
  14  -7   2   12.80    8.37
  -7  -7   2   -3.59    7.56
 -14   8  -2    3.85    3.50
   8   6  -2    5.62    9.41
   6 -14  -2   -0.57    5.55
  -6  14   2   -0.10    3.65
  14  -8   2    0.86    9.56
  -8  -6   2    7.54    8.36
   5 -14  -2   14.24    6.75
   9   5  -2   21.52   10.97
 -14   9  -2   20.70    3.95
  14  -9   2   26.39    4.74
  -9  -5   2   20.00    8.45
  -5  14   2   21.23    5.84
  14  -9   2    9.61   10.67
  10   4  -2   -2.57    9.41
  14 -10   2    0.49    4.91
 -10  -4   2    6.90    6.81
 -10  -4   2    8.01    7.58
  -4  14   2   -0.78    5.46
  14 -10   2   -4.93    9.55
  11   3  -2   12.99   10.74
  -3  14   2    0.23    6.27
 -11  -3   2   -1.04    4.81
  14 -11   2    2.24    5.70
 -11  -3   2   -2.12    7.04
  14 -11   2   11.13   10.46
  12   2  -2    8.30   10.04
 -12  -2   2   -1.05    7.02
  14 -12   2    2.99   10.36
  14 -12   2   -0.71    5.81
  14 -12   2   -1.34    3.60
 -12  -2   2    2.73    4.21
  -2  14   2    8.01    7.28
  13   1  -2   22.12   10.08
 -13  -1   2    4.51    6.44
  14 -13   2    8.66    4.73
  14 -13   2   -1.28    6.63
  -1  14   2    7.40    7.50
 -13  -1   2   12.37    3.97
  14 -13   2   11.43   10.68
  14   0  -2   20.87   10.23
  14 -14   2    7.41    5.47
   0  14   2   -0.34    8.02
 -14   0   2  -15.71    6.04
  15  -1  -2   -6.78    8.52
 -15   1   2    0.27    6.48
   1  14   2    4.43    8.43
  14 -15   2   -2.06    5.91
  16  -2  -2    4.05    8.57
  16  -2  -2    0.65   12.34
   2  14   2    0.46   10.33
  14 -16   2   11.84    6.97
 -16   2   2   11.55    7.12
   0  15  -2   -8.88    9.98
   0 -15   2   -0.41    9.68
  15   0   2  -12.95   10.80
   1  14  -2   19.80   11.18
  15  -1   2   -1.91   10.53
  -1 -14   2    2.22    9.65
   2  13  -2   17.50   10.68
  15  -2   2   44.33   12.05
  -2 -13   2   33.61   10.71
   3  12  -2   41.32   12.05
  -3 -12   2   15.28    9.93
  15  -3   2   16.63   11.21
   4  11  -2   18.19   10.94
  15  -4   2   12.34    9.79
  -4 -11   2   36.19   10.82
   5  10  -2    8.78   10.46
  -5 -10   2    2.12    9.22
  15  -5   2    4.60    9.03
   6   9  -2    3.70   10.40
  -6  -9   2    0.64    8.70
  15  -6   2   22.71    9.66
  15  -6   2    6.11   10.45
 -15   7  -2   11.71    4.69
   7   8  -2  -17.82    8.92
   8 -15  -2   -3.10    4.55
  -7  -8   2   -0.96    8.34
  15  -7   2   -1.47    8.57
  15  -7   2  -13.08    9.46
   7 -15  -2   10.73    5.81
   8   7  -2   21.90   11.09
  -7  15   2   24.87    3.47
  15  -8   2   26.97   11.24
  -8  -7   2   33.11    9.88
   9   6  -2   22.70   11.18
   6 -15  -2   30.95    6.71
  -6  15   2   26.40    5.18
  15  -9   2   38.84   11.92
  -9  -6   2   27.25    9.66
  10   5  -2    1.85    9.77
  -5  15   2    7.84    5.34
  15 -10   2   22.31   10.90
 -10  -5   2   -1.29    7.73
  15 -10   2   -4.25    3.97
  11   4  -2   10.22   10.41
  -4  15   2    6.41    6.01
  15 -11   2    1.07    5.24
 -11  -4   2   19.28    8.61
  15 -11   2    4.88   10.64
 -11  -4   2    5.47    6.69
  12   3  -2   -7.76   10.03
 -12  -3   2    6.51    4.73
 -12  -3   2   -6.20    7.19
  15 -12   2   13.31   10.76
  15 -12   2    2.10    5.68
  -3  15   2    7.89    6.45
  13   2  -2   28.61   12.20
 -13  -2   2    7.22    4.24
  -2  15   2    5.69    7.14
  15 -13   2   17.41   11.79
  15 -13   2    0.41    6.42
 -13  -2   2   -1.96    7.20
  14   1  -2   -0.55   10.80
 -14  -1   2   -6.89    6.67
  15 -14   2   15.40    7.38
  -1  15   2    4.99    7.65
  15   0  -2   17.84   10.65
  15 -15   2    0.99    7.40
 -15   0   2   -0.79    7.42
   0  15   2   12.98    8.65
   2  14  -2   -4.48   10.56
  16  -2   2   11.50   11.65
  -2 -14   2    0.14    8.84
   3  13  -2  -16.27    9.99
  16  -3   2   13.79   10.93
  -3 -13   2    0.20    9.35
   4  12  -2   17.76   11.03
  16  -4   2  -13.82    9.75
  -4 -12   2   -5.54    9.05
   5  11  -2    8.38   10.94
  16  -5   2   11.72   10.33
  -5 -11   2    3.35    9.23
   6  10  -2  -16.03    9.60
  -6 -10   2    1.63    9.31
  16  -6   2   10.54    9.59
  16  -6   2   23.19   11.17
   7   9  -2    3.81   10.40
  -7  -9   2   -0.46    8.46
  16  -7   2    1.37    8.92
  16  -7   2    5.34   10.78
   8   8  -2   -0.07   10.36
  -8  -8   2   11.77    9.11
  16  -8   2   16.54   10.80
   9   7  -2   14.36   10.98
  -9  -7   2   -2.39    8.31
  16  -9   2    9.44   11.11
  10   6  -2   20.04   11.72
  -6  16   2    6.36    4.53
  16 -10   2    4.85   10.85
 -10  -6   2   -2.44    8.15
  11   5  -2   10.79   11.39
  16 -11   2    0.27   10.43
 -11  -5   2   -2.10    7.83
 -11  -5   2   15.55    7.85
  -5  16   2   -4.58    5.03
  12   4  -2   10.25   11.57
 -12  -4   2    9.74    8.27
 -12  -4   2    0.99    5.43
  -4  16   2    1.22    6.45
  16 -12   2    2.97   11.11
  16 -12   2    3.30    5.43
  13   3  -2    0.06   11.30
  16 -13   2   -4.27   11.11
 -13  -3   2   -3.78    4.22
 -13  -3   2    7.36    7.69
  -3  16   2    4.90    6.21
  16 -13   2   11.79    6.10
  14   2  -2    6.78   11.39
  -2  16   2    4.36    7.77
 -14  -2   2   16.76    7.99
  16 -14   2    6.98    6.78
  16 -14   2   14.87   12.54
   5  12  -2    3.42   10.99
  -5 -12   2   -0.60    9.45
  17  -5   2   -0.87   10.84
   6  11  -2   -3.23   10.96
  -6 -11   2   15.37   10.40
  17  -6   2    9.97   10.07
  17  -6   2  -11.37   10.81
   7  10  -2    6.45   10.86
  17  -7   2   -7.43    9.48
  17  -7   2    3.81   11.11
  -7 -10   2    0.79    9.19
   8   9  -2  -11.22   10.35
  17  -8   2    9.06   11.04
  17  -8   2   18.04    9.64
  -8  -9   2    6.28    9.24
   9   8  -2    8.54   10.99
  -9  -8   2    7.50    9.54
  17  -9   2   11.65   11.67
  10   7  -2   -7.15   10.51
 -10  -7   2    4.11    8.93
  17 -10   2    6.63   11.97
  11   6  -2    5.02   11.29
 -11  -6   2    8.11    8.43
  17 -11   2   19.55   11.79
 -11  -6   2   -0.74    8.46
  12   5  -2    5.98   11.53
 -12  -5   2   -3.57    8.11
  17 -12   2   -8.87   10.98
 -12  -5   2   -3.18    6.59
   0   0  -3   -0.92    3.45
   0   0  -3   -0.75    3.88
   0   0  -3   -1.01    3.47
   0   0  -3    3.62    4.26
   0   0   3   -3.08    3.68
   0   1  -3  279.40   11.65
  -1   0  -3  276.41   11.55
   1  -1  -3  278.99   11.63
   1  -1  -3  274.24   13.22
  -1   0  -3  289.69   12.89
   1  -1  -3  285.32   10.88
   0   1  -3  270.08   12.21
   1   0   3  273.71   11.83
  -1   1   3  274.58   10.76
   1   0   3  298.34   13.19
   0  -1   3  274.87   12.06
   0  -1   3  286.79   11.91
   1   0  -3  275.03   11.61
   0  -1  -3  281.15   11.74
  -1   1  -3  286.46   12.04
  -1   1  -3  297.10   11.37
   0  -1  -3  271.78   13.29
   1   0  -3  293.10   11.76
   1  -1   3  286.32   11.89
  -1   0   3  298.65   12.00
  -1   0   3  279.33   11.72
  -1   0   3  249.62   12.79
   1  -1   3  265.05   11.40
   0   1   3  275.53   13.14
   1  -1   3  275.78   12.22
  -1   2  -3   44.41    5.13
   2  -1  -3   50.88    5.16
  -1   2  -3   40.46    4.74
   2  -1  -3   45.36    6.16
  -1  -1  -3   41.17    5.46
   2  -1  -3   38.33    4.96
  -1  -1  -3   52.58    5.16
   2  -1  -3   46.36    4.92
   2  -1  -3   49.57    5.70
   1  -2   3   47.36    5.24
   1  -2   3   40.34    5.22
  -2   1   3   43.56    5.15
   1   1   3   42.39    5.43
   3  -2  -3  286.63   12.07
   3  -2  -3  299.40   14.53
  -1   3  -3  314.74   12.55
   3  -2  -3  314.55   12.71
  -2  -1  -3  274.74   14.63
  -1   3  -3  285.92   13.23
   3  -2  -3  289.25   13.09
   3  -2  -3  305.27   13.60
   2   1   3  302.56   14.10
   1  -3   3  291.86   12.47
   1  -3   3  316.04   13.48
  -2   0  -3   35.90    5.09
   2  -2  -3   32.12    4.83
  -2   0  -3   48.31    5.05
   0   2  -3   45.14    5.23
   0   2  -3   42.73    5.19
   2  -2  -3   37.65    5.72
   2  -2  -3   38.14    4.85
   2   0   3   39.16    4.78
  -2   2   3   37.81    4.70
   0  -2   3   35.82    5.21
   0  -2   3   36.72    5.08
  -2   2   3   40.78    5.75
   1   1  -3   47.45    5.22
  -2   1  -3   47.44    4.86
  -2   1  -3   43.67    4.97
  -2   1  -3   40.98    4.85
   1  -2  -3   43.38    5.75
   1   1  -3   37.82    4.92
  -2   1  -3   50.19    4.60
  -1   2   3   45.23    5.58
  -1  -1   3   38.84    5.25
  -1   2   3   51.56    4.77
  -1  -1   3   46.01    5.42
   2  -1   3   45.58    5.23
  -2   2  -3   41.75    3.63
   2   0  -3   37.02    4.87
   0  -2  -3   36.84    5.64
  -2   2  -3   40.80    4.32
  -2   2  -3   41.01    5.01
   2   0  -3   43.65    5.20
  -2   0   3   36.53    5.22
   0   2   3   45.02    5.72
   2  -2   3   44.45    4.77
   2  -2   3   43.34    5.29
  -2   0   3   40.59    5.51
  -2   3  -3   34.30    4.98
  -2   3  -3   30.81    4.15
  -2   3  -3   33.00    4.55
   3  -1  -3   38.07    4.73
   3  -1  -3   36.34    5.11
  -1  -2  -3   34.04    5.80
   1   2   3   25.04    5.31
   2  -3   3   24.99    4.47
  -3   1   3   23.92    4.63
  -3   1   3   22.52    4.89
   2  -3   3   34.64    5.31
  -3   1   3   25.24    5.62
  -2   4  -3   28.17    4.95
   4  -2  -3   19.74    5.40
   4  -2  -3   25.85    5.37
   4  -2  -3   20.87    4.00
  -2   4  -3   19.42    5.47
  -2  -2  -3   28.20    5.87
   4  -2  -3   27.77    4.58
   2  -4   3   27.64    5.63
   2  -4   3   25.68    5.12
   2   2   3   35.88    5.76
   2   2   3   28.00    6.11
   5  -3  -3   -1.17    4.15
   5  -3  -3    8.93    3.64
  -2   5  -3    4.99    4.48
   5  -3  -3    1.93    3.15
  -3  -2  -3   -0.83    4.97
   5  -3  -3    0.66    4.65
  -2   5  -3    3.61    5.05
   5  -3  -3    2.31    3.80
   2  -5   3   -6.98    4.47
   3   2   3    0.63    5.49
   2  -5   3    6.93    5.44
   4  -3  -3  189.76    9.48
  -1   4  -3  190.34   11.86
  -1   4  -3  208.40   10.46
  -3  -1  -3  192.41   12.07
   4  -3  -3  194.67   11.64
   4  -3  -3  192.53   10.73
   3   1   3  189.17   12.81
   3   1   3  212.41   11.26
   1  -4   3  205.15   10.61
   1  -4   3  209.80   11.59
   3  -3  -3  234.98   12.80
   0   3  -3  218.03   10.89
   0   3  -3  215.35   12.83
  -3   0  -3  221.91   13.22
   3  -3  -3  217.45   11.08
  -3   0  -3  218.30   10.18
  -3   3   3  230.57   11.04
  -3   3   3  209.20   12.59
   0  -3   3  236.61   12.03
   0  -3   3  228.68   10.99
   3   0   3  222.04   11.21
  -3   1  -3   29.97    4.28
  -3   1  -3   24.13    4.43
   2  -3  -3   21.26    5.44
   3  -1   3   29.70    4.46
   3  -1   3   29.78    4.59
  -2   3   3   17.84    4.83
  -2   3   3   34.22    5.65
  -3   2  -3  280.14   12.37
  -3   2  -3  290.95   12.41
   1  -3  -3  305.28   14.13
   2   1  -3  288.89   12.56
   2   1  -3  290.70   12.35
  -3   2  -3  287.75   11.07
  -2  -1   3  292.13   13.03
   3  -2   3  279.10   11.51
   3  -2   3  292.33   12.16
  -1   3   3  297.77   14.29
  -2  -1   3  300.08   12.89
  -3   3  -3  223.16   11.15
  -3   3  -3  218.35    9.61
  -3   3  -3  223.36   10.25
   3   0  -3  232.83   10.87
   3   0  -3  222.50   10.78
   0  -3  -3  263.22   12.53
  -3   0   3  247.10   10.78
   3  -3   3  240.58   10.01
   3  -3   3  230.16   11.34
   3  -3   3  215.61   11.01
  -3   0   3  223.19   11.25
   4  -1  -3   -1.62    3.80
   4  -1  -3   -0.39    3.33
  -3   4  -3    3.51    3.72
  -1  -3  -3   -4.05    4.44
  -3   4  -3    5.02    4.22
   1   3   3    4.92    5.12
  -4   1   3   -3.78    4.35
   1   3   3   10.94    5.17
   3  -4   3    6.39    4.59
  -4   1   3   -4.48    4.74
   3  -4   3    7.55    3.85
  -4   1   3    7.57    4.08
  -3   5  -3    4.34    4.81
   5  -2  -3    6.10    3.10
  -3   5  -3    1.01    4.12
   5  -2  -3    0.86    3.56
  -2  -3  -3    6.92    4.98
  -5   2   3    9.22    4.47
   3  -5   3    4.49    5.07
   2   3   3    7.29    5.71
  -5   2   3   13.80    5.31
   3  -5   3    5.46    4.40
  -3  -3  -3    1.28    5.31
   6  -3  -3    6.54    2.90
   6  -3  -3   12.02    5.40
  -3   6  -3    0.37    5.28
   6  -3  -3    6.43    3.61
  -3  -3  -3    5.71    5.39
   6  -3  -3    0.85    4.38
   3   3   3   -0.33    5.73
   3  -6   3    5.88    4.97
  -3   7  -3  125.03    9.06
  -4  -3  -3  148.98   11.49
   7  -4  -3  124.07    9.42
   7  -4  -3  123.07   10.64
   7  -4  -3  115.33    6.72
   7  -4  -3  118.02    7.77
  -3   7  -3  132.16   10.98
   4   3   3  130.77   11.58
   3  -7   3  147.17   10.84
   3  -7   3  132.55   10.14
  -2   6  -3   12.65    5.05
  -4  -2  -3   11.74    5.88
  -4  -2  -3   14.60    5.77
  -2   6  -3   11.32    5.75
   4   2   3   -0.12    5.94
   2  -6   3   -0.88    5.12
   2  -6   3    7.24    5.54
  -1   5  -3   27.70    5.55
   5  -4  -3   28.70    5.75
  -4  -1  -3   13.58    5.81
   5  -4  -3   15.77    5.04
  -4  -1  -3   16.19    5.77
  -1   5  -3   16.98    6.04
   1  -5   3   27.10    6.19
   1  -5   3   13.45    5.44
  -5   4   3   18.55    5.77
   4   1   3   20.91    6.53
  -5   4   3   16.65    5.62
   1  -5   3   24.21    6.01
   4  -4  -3  277.02   12.84
   4  -4  -3  245.24   13.73
   0   4  -3  267.05   12.22
  -4   0  -3  266.01   14.46
  -4   0  -3  268.71   11.42
   0   4  -3  259.46   14.04
  -4   4   3  258.46   13.89
   0  -4   3  259.57   12.78
   4   0   3  246.61   14.60
  -4   4   3  260.74   12.84
   4   0   3  237.46   12.28
   0  -4   3  257.43   12.92
   3  -4  -3   -1.19    4.88
  -4   1  -3   -5.61    4.76
  -4   1  -3   -4.05    3.49
   1   3  -3    1.21    4.26
   1   3  -3   -0.36    5.14
   4  -1   3    0.39    3.24
  -3   4   3   -2.76    4.75
  -1  -3   3    0.97    4.87
  -1  -3   3    6.11    5.01
  -3   4   3    0.95    4.92
  -4   2  -3   29.93    4.65
  -4   2  -3   28.28    3.94
  -4   2  -3   22.83    3.43
   2   2  -3   25.70    5.08
   2   2  -3   28.27    6.12
  -4   2  -3   22.77    5.77
   2  -4  -3   27.87    6.07
   2   2  -3   22.02    4.92
   4  -2   3   29.61    4.76
  -2   4   3   25.76    5.48
  -2  -2   3   34.05    5.60
  -2  -2   3   28.97    5.45
  -2   4   3   30.23    6.17
  -4   3  -3  197.13    8.22
   1  -4  -3  186.01   10.90
  -4   3  -3  167.39   10.25
   3   1  -3  209.43   10.55
   3   1  -3  201.52   10.64
   3   1  -3  179.81   11.90
   4  -3   3  185.39    9.61
  -3  -1   3  210.55   10.60
  -3  -1   3  195.74   10.54
  -1   4   3  164.10   12.28
   4  -3   3  188.92    8.48
   4  -3   3  208.54   10.26
   4  -3   3  187.68    8.98
  -4   4  -3  260.44   10.56
   4   0  -3  258.11   13.59
  -4   4  -3  253.11   12.20
   4   0  -3  257.48   11.50
   0  -4  -3  242.83   13.47
   4   0  -3  270.31   11.97
  -4   4  -3  278.06   12.05
   4  -4   3  252.71   13.06
   0   4   3  242.11   13.63
  -4   0   3  280.32   11.76
   4  -4   3  260.64   11.99
   0   4   3  260.76   14.21
   4  -4   3  274.36   10.62
  -4   0   3  264.22   12.64
  -4   5  -3   79.96    6.26
  -4   5  -3   70.31    6.87
  -1  -4  -3   76.38    7.54
   5  -1  -3   69.14    6.22
  -4   5  -3   78.12    7.08
   5  -1  -3   86.62    5.88
   4  -5   3   80.22    6.33
   4  -5   3   76.71    7.39
  -5   1   3   71.85    7.05
   1   4   3   87.19    8.66
  -5   1   3   95.96    6.54
  -2  -4  -3   26.11    6.32
  -4   6  -3   22.33    5.48
  -4   6  -3   32.92    5.83
   6  -2  -3   19.30    4.19
  -2  -4  -3   29.64    6.47
   6  -2  -3   19.23    3.66
   2   4   3   21.81    6.62
   4  -6   3   22.39    5.98
   4  -6   3   24.69    5.08
  -6   2   3   28.37    5.63
  -6   2   3   22.62    4.35
  -6   2   3   37.27    6.58
   7  -3  -3   83.50    5.67
  -4   7  -3   81.19    8.02
   7  -3  -3   91.25    6.89
  -4   7  -3   79.28    7.85
  -3  -4  -3   86.96    9.28
   4  -7   3   92.52    8.31
   3   4   3   94.62   10.22
   8  -4  -3   13.66    5.31
  -4   8  -3    6.19    5.81
   8  -4  -3   10.27    5.02
   8  -4  -3   -5.30    5.71
  -4  -4  -3    8.84    6.03
   8  -4  -3    0.95    3.70
   8  -4  -3    7.88    2.82
  -4   8  -3    6.10    4.58
   4   4   3    5.87    6.84
   4  -8   3    8.94    5.89
   4  -8   3    7.81    5.81
   9  -5  -3   84.84    8.56
  -4   9  -3   84.19    7.97
   9  -5  -3   81.15   10.18
  -4   9  -3   74.96    9.21
   9  -5  -3   74.57    7.26
   9  -5  -3   81.33    7.67
   9  -5  -3   84.61    5.56
   5   4   3  102.33   11.59
   4  -9   3   80.27    8.96
   4  -9   3   71.30    8.98
  -3   8  -3    5.17    5.19
  -3   8  -3   10.33    6.44
   8  -5  -3    4.77    6.43
  -5  -3  -3    5.42    6.26
   8  -5  -3   10.02    4.37
   8  -5  -3   11.97    4.25
   8  -5  -3    6.43    2.96
   8  -5  -3   21.51    5.10
   3  -8   3    9.60    6.23
   3  -8   3   13.43    6.52
   5   3   3   -1.13    6.66
   7  -5  -3  120.62   10.51
  -5  -2  -3  119.96   10.57
  -2   7  -3  113.14    9.19
  -2   7  -3  111.87   10.26
   7  -5  -3  108.28    7.34
  -5  -2  -3  113.38   11.08
   7  -5  -3  108.14    8.99
   7  -5  -3  116.42    8.04
   2  -7   3  116.40   10.21
   2  -7   3  129.97   10.75
   5   2   3  109.34   11.04
  -1   6  -3   -4.30    5.72
   6  -5  -3    6.06    4.48
  -5  -1  -3   -0.41    5.64
  -5  -1  -3    1.36    5.35
  -1   6  -3    0.65    5.25
   6  -5  -3   -1.70    5.16
  -6   5   3   -3.60    5.04
   1  -6   3   -7.86    5.34
  -6   5   3    1.15    5.75
   5   1   3    5.09    6.35
   1  -6   3   -3.51    5.65
   5  -5  -3  118.36    9.97
   0   5  -3  114.18    9.80
   5  -5  -3  127.07    9.72
   0   5  -3  114.46    9.93
   0   5  -3  125.22    9.31
  -5   0  -3  118.64    7.81
  -5   0  -3  122.62    9.68
  -5   0  -3  108.22    9.82
   5   0   3  120.82   10.36
   5   0   3  119.73    8.58
  -5   5   3  120.11    9.28
   0  -5   3  128.86   10.11
   0  -5   3  127.64   10.57
  -5   5   3  118.63    9.83
   4  -5  -3   78.76    7.47
  -5   1  -3   61.76    7.68
   1   4  -3   77.82    8.27
   4  -5  -3   67.21    7.36
   1   4  -3   73.59    8.21
   1   4  -3   73.63    7.27
  -5   1  -3   70.09    5.76
  -1  -4   3   58.49    7.23
  -4   5   3   73.26    7.65
  -1  -4   3   86.06    8.76
  -4   5   3   72.83    7.79
  -1  -4   3   71.55    7.85
   5  -1   3   76.05    8.47
   5  -1   3   81.86    5.68
  -5   2  -3   -2.99    4.89
   2   3  -3   11.33    5.88
   3  -5  -3   -0.95    3.30
  -5   2  -3   12.74    3.99
  -5   2  -3    7.22    2.99
   2   3  -3   12.78    5.97
  -5   2  -3    8.20    2.77
   2   3  -3    7.63    4.84
  -2  -3   3    5.81    5.04
  -3   5   3   12.44    5.40
  -2  -3   3    3.10    4.97
   5  -2   3    9.09    3.90
  -3   5   3   -1.09    5.26
  -5   3  -3   -3.27    3.71
   3   2  -3   -1.87    5.25
   3   2  -3    6.29    4.76
  -5   3  -3    3.70    4.98
   3   2  -3    3.45    5.48
   2  -5  -3    2.29    4.00
  -5   3  -3    4.18    2.88
  -5   3  -3    1.10    2.57
  -3  -2   3    3.73    4.74
   5  -3   3    0.78    4.08
  -3  -2   3    2.11    4.66
   5  -3   3   -0.51    4.81
  -2   5   3   -1.68    5.06
   4   1  -3   14.12    4.78
  -5   4  -3   14.70    3.39
   4   1  -3   12.86    6.23
   1  -5  -3   22.14    4.98
   4   1  -3   25.05    4.65
  -5   4  -3   13.67    4.59
   4   1  -3   20.60    5.96
   5  -4   3   15.56    4.55
  -4  -1   3   21.49    5.09
   5  -4   3   20.18    3.44
  -1   5   3   15.60    5.68
   5  -4   3   21.61    5.31
  -4  -1   3   13.50    4.91
  -5   5  -3  126.67    9.28
  -5   5  -3  120.28    7.10
   5   0  -3  122.63    9.60
   5   0  -3  118.83   10.12
   5   0  -3  135.53    7.59
   0  -5  -3  105.01    8.76
   5   0  -3  132.22    8.17
   5  -5   3  120.44    8.80
  -5   0   3  136.06    8.89
   0   5   3  107.26    9.14
   5  -5   3  113.83    6.78
   5  -5   3  121.20    9.04
  -5   0   3  123.73    9.43
  -5   6  -3   55.45    6.19
   6  -1  -3   52.60    6.39
  -5   6  -3   63.67    7.39
  -1  -5  -3   69.13    8.13
   6  -1  -3   70.78    7.80
   6  -1  -3   51.25    5.78
   6  -1  -3   58.27    5.01
   1   5   3   66.24    8.31
   5  -6   3   44.98    5.55
  -6   1   3   47.02    6.75
  -6   1   3   52.16    5.57
   5  -6   3   55.81    6.79
   7  -2  -3   -5.57    4.21
  -5   7  -3    1.30    5.47
   7  -2  -3   -2.53    3.81
  -2  -5  -3    4.66    6.02
  -5   7  -3    0.79    4.84
   7  -2  -3    6.93    3.04
   7  -2  -3    4.03    3.84
   5  -7   3    2.36    5.46
   2   5   3   -2.82    6.12
  -7   2   3    8.24    5.69
  -7   2   3    6.42    4.89
  -7   2   3    4.92    3.80
   5  -7   3    4.52    4.64
  -5   8  -3  124.69   10.41
   8  -3  -3  120.82    7.84
   8  -3  -3  116.84    9.81
  -5   8  -3  127.92    9.99
  -3  -5  -3  117.79   10.73
   8  -3  -3  127.02    6.86
  -5   8  -3  115.33    7.78
   8  -3  -3  112.38    8.54
   3   5   3  106.94   11.34
   5  -8   3  112.55    9.12
  -5   9  -3   -0.03    6.05
   9  -4  -3   17.15    4.82
  -5   9  -3    5.50    5.61
   9  -4  -3   25.26    5.97
   9  -4  -3   26.98    3.72
  -5   9  -3    2.82    4.38
   9  -4  -3   21.85    5.45
   9  -4  -3   17.26    4.43
   4   5   3    1.03    7.13
   5  -9   3    7.47    5.70
   5  -9   3   -3.57    5.30
  -5  10  -3  125.64    8.69
  10  -5  -3  125.90   10.87
  10  -5  -3  115.61    8.97
  10  -5  -3  122.38   12.93
  10  -5  -3  103.14    8.68
  10  -5  -3  131.59   10.59
  -5  10  -3  129.19   11.54
  10  -5  -3  116.82    6.78
   5 -10   3  111.93   10.59
   5   5   3  139.33   13.45
   5 -10   3  121.91   10.94
  11  -6  -3  152.68   11.92
  11  -6  -3  153.28   11.26
  -5  11  -3  190.49   14.59
  -5  11  -3  143.60   10.52
  11  -6  -3  165.36    9.80
  11  -6  -3  146.39    7.91
  11  -6  -3  157.37    9.99
  11  -6  -3  171.36   14.75
   6   5   3  157.08   15.28
   5 -11   3  155.96   12.68
   5 -11   3  170.61   12.86
  10  -6  -3    4.65    2.85
  -4  10  -3    0.84    5.41
  10  -6  -3   -3.76    7.72
  -4  10  -3    4.74    6.83
  10  -6  -3    1.60    4.29
  10  -6  -3   -1.10    4.47
  10  -6  -3    4.84    5.58
   4 -10   3    0.43    6.11
   6   4   3    0.30    7.40
   4 -10   3   -1.27    6.10
   9  -6  -3   40.09    6.03
   9  -6  -3   41.60    8.87
  -3   9  -3   44.72    7.29
   9  -6  -3   59.60    6.87
   9  -6  -3   48.41    6.15
  -3   9  -3   38.67    8.22
   3  -9   3   24.87    7.45
   3  -9   3   57.02    8.53
   6   3   3   54.02    9.32
  -2   8  -3   15.20    6.17
  -2   8  -3   17.83    6.90
   8  -6  -3   22.52    7.63
  -6  -2  -3    9.62    6.45
   8  -6  -3   16.09    4.84
   2  -8   3    6.04    6.09
   6   2   3   17.68    7.54
   2  -8   3    2.96    6.26
  -1   7  -3  365.81   18.46
  -6  -1  -3  353.71   18.28
   7  -6  -3  369.49   18.22
   7  -6  -3  342.26   16.66
  -6  -1  -3  347.39   19.58
  -1   7  -3  342.45   17.16
  -7   6   3  316.04   17.18
   1  -7   3  351.39   17.21
  -7   6   3  359.51   17.79
   6   1   3  357.33   19.73
   1  -7   3  368.46   18.93
   6  -6  -3   58.19    6.93
  -6   0  -3   72.90    8.18
  -6   0  -3   77.00    8.80
   6  -6  -3   92.79    9.16
   0   6  -3   73.61    9.07
  -6   0  -3   66.62    5.85
   0   6  -3   75.94    8.65
  -6   6   3   78.44    8.60
   0  -6   3   76.99    8.81
  -6   6   3   67.27    7.57
   6   0   3   60.54    8.83
   0  -6   3   88.18    9.47
  -6   1  -3   58.79    5.23
   1   5  -3   60.54    8.39
   5  -6  -3   63.36    7.38
   5  -6  -3   62.75    7.69
   1   5  -3   76.83    7.73
  -6   1  -3   60.07    7.50
  -6   1  -3   47.81    7.61
   1   5  -3   62.50    8.50
   6  -1   3   65.45    8.48
  -5   6   3   39.81    7.41
  -5   6   3   69.22    7.87
   6  -1   3   60.26    5.48
  -1  -5   3   54.36    8.41
  -1  -5   3   45.95    7.66
   4  -6  -3   26.28    4.08
   2   4  -3   38.28    6.29
  -6   2  -3   25.09    6.41
   2   4  -3   20.45    6.69
  -6   2  -3   24.73    4.41
   2   4  -3   20.32    6.73
  -6   2  -3   30.05    6.14
  -4   6   3   30.80    6.58
  -2  -4   3   29.67    6.61
  -4   6   3   32.96    6.78
  -2  -4   3   19.36    6.12
  -2  -4   3   28.67    7.05
   6  -2   3   25.92    3.54
   3   3  -3    4.74    4.88
  -6   3  -3    5.72    2.30
  -6   3  -3    7.94    3.88
   3   3  -3   -7.52    5.42
  -6   3  -3    3.42    5.15
   3   3  -3    5.95    5.85
   3  -6  -3    3.36    3.73
  -3  -3   3    8.08    5.26
  -3   6   3   -4.95    5.07
  -3  -3   3    4.97    5.76
  -3   6   3   -2.33    5.07
   6  -3   3    3.97    3.73
  -3  -3   3   10.75    5.47
  -6   4  -3    8.19    2.63
  -6   4  -3   11.08    2.72
  -6   4  -3    7.01    5.40
  -6   4  -3    4.27    4.16
   4   2  -3    7.92    6.19
   2  -6  -3    6.70    4.40
   4   2  -3    6.64    4.88
   4   2  -3    5.83    6.01
  -4  -2   3   10.54    5.06
   6  -4   3    4.20    5.40
  -4  -2   3    9.26    5.22
  -2   6   3   13.07    5.95
   6  -4   3   13.32    4.47
   1  -6  -3   -0.32    4.94
   5   1  -3   -0.16    4.11
   5   1  -3    3.06    6.16
   5   1  -3    8.22    5.85
   6  -5   3   -2.21    5.54
  -5  -1   3   -2.49    5.01
   6  -5   3    2.74    4.35
   6  -5   3    7.62    3.07
  -1   6   3   -8.26    4.63
  -5  -1   3    3.69    4.68
   6   0  -3   77.76    7.04
   6   0  -3   64.67    8.19
   0  -6  -3   78.73    8.53
  -6   6  -3   76.54    6.40
  -6   6  -3   80.30    8.13
   6   0  -3   68.51    7.71
   6  -6   3   79.91    8.52
  -6   0   3   81.32    7.81
   0   6   3   76.55    8.51
  -6   0   3   89.07    6.94
   6  -6   3   81.68    5.92
   6  -6   3   81.87    7.35
   7  -1  -3   62.37    8.03
   7  -1  -3   71.02    6.89
  -1  -6  -3   73.07    8.84
   7  -1  -3   66.13    5.30
   7  -1  -3   55.35    6.98
  -6   7  -3   62.78    8.01
  -6   7  -3   56.20    6.29
  -7   1   3   69.27    7.69
   1   6   3   68.86    8.90
  -7   1   3   63.25    6.01
   6  -7   3   62.74    7.62
   6  -7   3   63.37    6.23
  -6   8  -3    0.96    5.59
   8  -2  -3    3.88    3.11
   8  -2  -3    6.93    3.98
  -6   8  -3    3.20    5.08
  -2  -6  -3    5.21    5.92
  -8   2   3   -6.57    5.36
   6  -8   3    2.63    4.76
  -8   2   3    2.22    3.65
  -8   2   3    1.86    5.10
   2   6   3   10.29    6.95
   9  -3  -3   85.10    7.53
  -6   9  -3   78.25    6.47
  -6   9  -3   88.83    8.73
   9  -3  -3  103.33    9.78
   9  -3  -3   92.25    7.99
   9  -3  -3   83.96    6.23
  -6   9  -3   96.70    9.41
  -9   3   3   92.90    9.14
  -9   3   3   82.61    7.95
   6  -9   3   82.20    8.21
   3   6   3   91.43   10.96
  10  -4  -3   40.98    6.16
  10  -4  -3   49.82    4.69
  10  -4  -3   43.59    7.31
  10  -4  -3   44.01    6.29
  -6  10  -3   42.70    7.88
  -6  10  -3   45.74    5.40
   6 -10   3   56.78    7.79
   4   6   3   51.94    9.90
   6 -10   3   69.51    7.90
  11  -5  -3    8.07    5.17
  -6  11  -3    5.29    4.32
  11  -5  -3   -6.41    5.73
  -6  11  -3   15.00    7.10
  11  -5  -3    9.32    3.53
  11  -5  -3    7.17    4.87
  11  -5  -3    9.04    8.52
  11  -5  -3   15.84    5.83
   6 -11   3   -3.31    6.04
   6 -11   3    9.34    5.87
   5   6   3   -0.70    8.05
  -6  12  -3   12.71    7.44
  -6  12  -3    4.54    4.77
  12  -6  -3   20.23    3.90
  12  -6  -3   22.25    9.85
  12  -6  -3   13.72    5.24
  12  -6  -3   10.67    6.75
  12  -6  -3    9.82    5.12
  12  -6  -3   24.38    6.07
   6 -12   3    7.65    6.84
   6 -12   3   12.55    6.25
   6   6   3    6.23    8.77
  13  -7  -3    3.80    6.52
  13  -7  -3   -6.53    4.68
  13  -7  -3    4.62    5.30
  -6  13  -3    3.59    5.11
  13  -7  -3    3.02    5.04
  13  -7  -3   14.59    9.65
  13  -7  -3    3.71    3.55
   6 -13   3   14.97    7.69
   7   6   3   19.46   10.01
  12  -7  -3   18.79    5.16
  12  -7  -3   20.25    5.61
  12  -7  -3   10.10    6.42
  -5  12  -3   22.02    6.02
  12  -7  -3   16.51    9.72
  -5  12  -3   20.53    8.67
  12  -7  -3   17.93    4.11
  12  -7  -3   22.06    5.48
   7   5   3   29.19    9.90
   5 -12   3   23.65    7.94
  11  -7  -3  147.39   10.64
  -4  11  -3  130.15   12.92
  11  -7  -3  127.56    9.36
  11  -7  -3  135.14    7.40
  11  -7  -3  139.25   14.03
  11  -7  -3  127.77   10.78
  -4  11  -3  128.12   10.58
   7   4   3  114.17   13.55
   4 -11   3  130.04   12.35
  10  -7  -3  154.92    9.67
  -3  10  -3  133.41   11.10
  10  -7  -3  138.01   13.41
  -3  10  -3  128.16   12.38
  10  -7  -3  138.87   10.29
  10  -7  -3  140.13   10.31
  10  -7  -3  125.01   10.09
   7   3   3  133.49   13.60
   3 -10   3  120.42   11.83
   9  -7  -3    7.25    7.66
   9  -7  -3    4.83    4.35
  -2   9  -3    1.47    5.87
  -2   9  -3    0.22    6.88
   2  -9   3    4.88    6.62
   2  -9   3   18.09    6.90
   7   2   3   -8.95    6.63
  -1   8  -3   93.02   10.30
   8  -7  -3   78.51    9.94
   8  -7  -3   73.41    7.41
  -7  -1  -3   89.15    9.67
  -1   8  -3   79.05    9.03
   1  -8   3  105.24   10.84
  -8   7   3   90.69    9.95
  -8   7   3   84.10    8.90
   1  -8   3   59.72    9.27
   7   1   3   80.12   10.47
  -7   0  -3   41.66    8.03
   7  -7  -3   31.81    5.99
   0   7  -3   22.96    7.07
   0   7  -3   48.88    8.63
   7  -7  -3   35.23    8.07
  -7   0  -3   45.40    7.84
  -7   0  -3   50.88    5.25
   0  -7   3   41.91    8.11
  -7   7   3   41.34    7.60
  -7   7   3   43.46    6.75
   7   0   3   30.66    8.05
   0  -7   3   36.23    7.93
  -7   1  -3   67.37    5.57
   6  -7  -3   60.94    8.48
  -7   1  -3   59.26    8.59
   1   6  -3   76.44    9.19
   1   6  -3   56.55    8.85
  -7   1  -3   72.08    8.51
  -6   7   3   66.77    9.03
  -1  -6   3   54.33    8.84
  -6   7   3   66.93    8.16
  -1  -6   3   67.34    9.03
   7  -1   3   70.87    5.89
   7  -1   3   67.35    9.33
   2   5  -3    3.78    5.15
   2   5  -3   -0.70    6.10
   2   5  -3    4.23    6.38
  -7   2  -3    1.95    5.51
  -7   2  -3    2.42    3.61
  -7   2  -3    5.53    5.59
   5  -7  -3    6.43    3.01
   7  -2   3    4.95    3.10
  -2  -5   3   14.24    6.16
   7  -2   3    3.37    6.32
  -5   7   3    8.53    6.26
  -5   7   3   12.84    5.87
  -2  -5   3    6.54    6.33
  -7   3  -3   80.26    8.75
  -7   3  -3   92.98    6.28
  -7   3  -3   89.88    7.90
   3   4  -3   75.25    9.14
   4  -7  -3   83.53    6.91
  -7   3  -3   76.56    4.04
   3   4  -3   86.05    9.79
   3   4  -3   87.25    8.37
  -4   7   3   81.67    8.79
   7  -3   3   81.09    6.10
  -3  -4   3   79.87    8.61
  -3  -4   3   79.58    9.32
  -4   7   3  110.24    9.86
  -3  -4   3   79.63    8.56
  -7   4  -3  116.35    8.31
   4   3  -3  132.67    9.71
  -7   4  -3  112.70    9.69
   4   3  -3  138.31   11.40
   4   3  -3  118.86   11.39
  -7   4  -3  124.13    4.90
   7  -4   3  123.73   10.11
   7  -4   3  113.93    7.52
  -3   7   3  118.97   10.42
  -4  -3   3  132.18   11.47
  -4  -3   3  145.47    9.99
  -4  -3   3  106.53    9.75
   5   2  -3  116.77    8.67
  -7   5  -3  110.80    9.42
   5   2  -3  120.59   11.23
  -7   5  -3  110.67    5.35
   5   2  -3  122.78   10.47
  -5  -2   3  102.49    9.05
   7  -5   3  115.18    9.83
   7  -5   3  123.03    8.52
   7  -5   3  102.48    5.54
   7  -5   3  109.91    5.20
  -2   7   3  108.43    8.88
  -5  -2   3  130.50    9.79
  -5  -2   3  128.77   10.79
  -7   6  -3  348.51   16.82
   6   1  -3  342.35   17.12
   6   1  -3  335.99   17.91
   1  -7  -3  332.17   17.36
  -7   6  -3  313.36   13.84
   6   1  -3  374.94   15.22
   7  -6   3  364.21   16.70
   7  -6   3  323.87   14.62
   7  -6   3  336.22   12.24
  -6  -1   3  343.23   14.80
  -6  -1   3  302.88   15.33
  -1   7   3  331.13   16.92
  -7   7  -3   47.26    7.39
   7   0  -3   42.66    6.02
   0  -7  -3   45.85    7.73
   7   0  -3   37.03    6.47
   7   0  -3   37.06    7.47
  -7   7  -3   35.22    5.20
   0   7   3   45.48    7.94
   7  -7   3   35.09    6.27
   7  -7   3   43.90    4.77
   7  -7   3   45.28    8.00
  -7   0   3   38.48    5.69
  -7   0   3   40.62    6.64
  -1  -7  -3    2.61    5.86
  -7   8  -3    5.37    4.56
  -7   8  -3    4.30    5.82
   8  -1  -3    0.87    4.15
   8  -1  -3    7.39    5.36
   8  -1  -3    3.05    3.78
   7  -8   3    5.89    4.24
   7  -8   3   -2.69    5.07
  -8   1   3   10.51    5.04
  -8   1   3   -3.97    3.80
   1   7   3   -1.91    6.54
   9  -2  -3   -1.72    4.14
  -7   9  -3   -0.68    2.82
   9  -2  -3    3.66    3.95
   9  -2  -3   -1.56    5.09
  -7   9  -3    8.06    6.03
  -7   9  -3   -0.09    4.85
  -9   2   3    6.03    3.61
   7  -9   3   -2.34    4.67
  -9   2   3    0.31    4.74
   2   7   3    3.66    7.00
  10  -3  -3  179.75   12.61
  -7  10  -3  184.44    8.99
  10  -3  -3  183.73   10.49
  -7  10  -3  212.32   12.91
  10  -3  -3  168.40    8.45
  10  -3  -3  198.11   11.36
 -10   3   3  176.39   11.25
   7 -10   3  179.24   11.30
 -10   3   3  179.33   12.55
   3   7   3  184.90   16.29
  -7  11  -3   33.58    4.79
  11  -4  -3   36.30    7.30
  11  -4  -3   35.84    4.41
  11  -4  -3   20.86    5.48
  -7  11  -3   33.65    7.24
  11  -4  -3   36.44    6.36
   7 -11   3   24.21    6.91
   4   7   3   28.80    9.57
  12  -5  -3   35.43    7.21
  12  -5  -3   12.12    5.51
  -7  12  -3   22.66    4.89
  12  -5  -3   20.13    6.69
  12  -5  -3   24.65    6.01
  12  -5  -3    9.77    9.66
  -7  12  -3   22.23    7.02
  12  -5  -3   20.84    3.77
   7 -12   3   20.14    7.24
   7 -12   3   27.61    6.88
   5   7   3   23.64    9.65
  13  -6  -3   11.10    3.52
  13  -6  -3   24.97    6.54
  13  -6  -3   -0.44    6.76
  -7  13  -3    5.28    4.78
  13  -6  -3   12.78    5.71
  13  -6  -3   13.64   10.07
  13  -6  -3   15.37    5.50
   6   7   3    9.85    9.52
   7 -13   3    9.94    7.07
  14  -7  -3    2.68   10.08
  -7  14  -3    2.37    4.88
  14  -7  -3    9.22    5.16
  14  -7  -3    3.52    3.15
  14  -7  -3   13.93    6.49
  14  -7  -3    9.05    5.65
  14  -7  -3    2.20    6.78
   7   7   3   -6.40    9.42
   7 -14   3    7.38    7.93
  15  -8  -3   -5.49    6.70
  -7  15  -3   16.11    5.51
  15  -8  -3   20.20    6.47
  15  -8  -3   12.59    6.11
  15  -8  -3    0.67   10.44
  15  -8  -3    2.55    5.06
  15  -8  -3    0.72    5.88
   7 -15   3    8.76    8.26
   8   7   3    7.64   10.62
  14  -8  -3   31.03    6.84
  14  -8  -3   27.05   11.28
  14  -8  -3   36.12    6.54
  14  -8  -3   47.73    7.41
  14  -8  -3   19.83    5.27
  14  -8  -3   27.82    4.55
  -6  14  -3   25.43    6.73
  14  -8  -3   19.95    7.66
   8   6   3   23.26   11.21
   6 -14   3   41.87    9.60
  13  -8  -3   11.84   10.25
  -5  13  -3    2.72    5.69
  13  -8  -3    1.81    5.04
  13  -8  -3    5.26    3.92
  13  -8  -3    2.89    6.02
  13  -8  -3    0.49    4.64
  13  -8  -3    7.18    4.59
  13  -8  -3   -0.08    5.23
   5 -13   3   10.08    7.92
   8   5   3    7.93    9.14
  12  -8  -3   52.34    6.77
  12  -8  -3   45.05    5.75
  12  -8  -3   43.30    6.71
  12  -8  -3   47.00    5.18
  12  -8  -3   43.12    7.29
  12  -8  -3   34.68   10.79
  -4  12  -3   52.67   10.41
  -4  12  -3   53.77    8.02
   4 -12   3   44.32    9.70
   8   4   3   45.18   10.93
  -3  11  -3    1.98    6.18
  -3  11  -3    2.36    8.17
  11  -8  -3    4.94    4.97
  11  -8  -3   -4.26    5.06
  11  -8  -3   -0.88    5.50
  11  -8  -3    9.25    8.61
  11  -8  -3    0.49    4.30
   8   3   3    0.06    7.84
   3 -11   3   -2.16    6.79
  10  -8  -3   13.37    8.73
  10  -8  -3   17.47    5.03
  -2  10  -3   19.71    7.32
  -2  10  -3   31.46    8.50
   2 -10   3   23.98    8.27
   8   2   3   26.48    8.87
  -1   9  -3   12.72    6.84
  -1   9  -3    7.35    7.56
   9  -8  -3    2.93    7.73
   9  -8  -3    8.49    4.53
   1  -9   3   13.13    7.33
   8   1   3   -2.50    7.12
  -9   8   3   -0.15    5.39
  -8   0  -3   96.19    6.85
   8  -8  -3  100.35   11.15
   0   8  -3  100.65   11.31
   0   8  -3   91.33   10.35
  -8   0  -3   93.11    9.85
   8   0   3   89.06   10.87
  -8   8   3  102.21    9.26
   0  -8   3   81.78   10.51
  -8   1  -3    5.42    5.77
   7  -8  -3    8.71    6.84
  -8   1  -3    1.42    3.45
   1   7  -3   -5.25    6.15
  -8   1  -3    6.94    6.22
   1   7  -3    5.19    7.01
  -1  -7   3    6.74    6.95
   8  -1   3    0.82    6.58
  -7   8   3    6.00    6.23
  -7   8   3    4.24    5.69
  -8   2  -3   -0.80    3.43
  -8   2  -3    3.02    5.83
  -8   2  -3   -6.22    5.42
   2   6  -3    5.63    6.56
   2   6  -3    0.31    6.64
  -6   8   3   -1.81    5.65
  -2  -6   3    2.74    6.36
  -6   8   3   -1.45    5.63
  -2  -6   3    1.15    6.36
   8  -2   3    1.95    3.20
   8  -2   3    4.86    6.59
  -8   3  -3  116.36   10.55
  -8   3  -3  132.87    8.07
   3   5  -3  116.74   11.32
   3   5  -3  128.14   11.85
  -8   3  -3  129.19    9.83
  -8   3  -3  113.46    4.89
  -3  -5   3  131.10   12.17
  -3  -5   3  125.03   11.24
   8  -3   3  138.84   11.63
  -5   8   3  125.29   10.87
  -5   8   3  138.39   11.29
   4   4  -3    7.12    6.75
   4   4  -3    8.74    7.06
  -8   4  -3    3.30    3.75
   4   4  -3    8.45    5.56
  -8   4  -3    1.43    5.29
  -8   4  -3   -0.95    4.90
  -4  -4   3   11.73    6.30
  -4   8   3    2.20    5.72
   8  -4   3    7.70    4.04
  -4  -4   3   15.61    6.34
   8  -4   3   10.73    6.65
  -4  -4   3    9.11    6.53
  -4   8   3    4.17    5.74
  -8   5  -3   17.42    4.88
   5   3  -3    3.67    4.66
  -8   5  -3   14.06    5.80
   5   3  -3   -1.79    6.55
   5   3  -3   11.40    6.98
  -5  -3   3   -2.88    6.20
  -5  -3   3    5.74    6.01
   8  -5   3    8.94    6.55
  -5  -3   3   17.81    5.92
   8  -5   3    4.94    4.30
   6   2  -3   24.63    6.83
   6   2  -3   18.82    7.69
   6   2  -3   24.04    5.26
  -8   6  -3   17.83    5.81
   2  -8  -3   16.33    6.14
   8  -6   3    1.34    6.41
  -6  -2   3    8.62    6.26
   8  -6   3   19.36    2.71
  -6  -2   3   18.59    5.35
   8  -6   3    7.77    4.75
  -2   8   3   26.94    5.79
  -6  -2   3    9.42    5.64
  -8   7  -3   95.85    8.69
   7   1  -3   76.74    9.68
  -8   7  -3   82.27    6.72
   7   1  -3   92.73    8.77
   7   1  -3   82.88    7.64
   1  -8  -3   93.14    9.57
  -7  -1   3   86.89    7.49
  -7  -1   3   73.72    8.43
   8  -7   3   61.83    7.11
  -1   8   3   86.14    9.20
   8  -7   3   72.25    5.27
   8  -7   3   74.51    9.08
   8   0  -3   88.85    8.73
   8   0  -3   95.74    8.28
  -8   8  -3   97.04    9.82
   8   0  -3  110.33   10.62
   0  -8  -3   93.61    9.55
  -8   8  -3   93.18    7.14
  -8   0   3  108.21    7.56
   0   8   3  105.34   10.76
  -8   0   3   89.68    8.75
   8  -8   3   80.96    7.96
   8  -8   3   87.76    6.67
   8  -8   3   88.96   10.30
  -8   9  -3   28.34    7.29
   9  -1  -3   21.61    5.70
   9  -1  -3   40.79    7.71
  -8   9  -3   30.15    5.01
   9  -1  -3   24.96    5.13
  -9   1   3   30.52    6.38
   8  -9   3   26.46    6.32
   8  -9   3   35.23    5.57
   1   8   3   41.22    8.38
  -9   1   3   31.52    4.74
  10  -2  -3  150.87   11.83
  -8  10  -3  137.27   10.50
  -8  10  -3  129.49    6.62
  10  -2  -3  132.76    9.62
  10  -2  -3  131.24    8.96
   8 -10   3  127.18    9.35
 -10   2   3  119.12    6.74
   2   8   3  136.99   13.39
 -10   2   3  139.31   10.02
  11  -3  -3    1.28    4.53
  -8  11  -3    1.21    3.03
  -8  11  -3    3.77    5.09
  11  -3  -3   13.93    6.34
  11  -3  -3   -0.17    4.38
   8 -11   3   -0.54    5.43
   3   8   3    0.79    8.11
 -11   3   3   16.87    5.47
 -11   3   3    1.96    6.06
  12  -4  -3    6.19    5.40
  -8  12  -3   13.21    3.68
  12  -4  -3    2.90    5.56
  12  -4  -3   -4.79    4.26
   8 -12   3    9.35    6.24
   4   8   3   21.25    9.46
  13  -5  -3   -0.40    5.72
  13  -5  -3   -2.36    5.44
  -8  13  -3    3.99    3.82
  13  -5  -3  -16.60    4.11
  13  -5  -3    9.58    6.77
   8 -13   3   15.01    7.03
   8 -13   3   -1.61    5.40
   5   8   3    8.42    9.16
  14  -6  -3   59.30    8.62
  -8  14  -3   45.26    6.06
  14  -6  -3   46.20    7.37
  14  -6  -3   65.20   13.19
  14  -6  -3   39.10    8.65
  14  -6  -3   70.52    8.10
   6   8   3   58.19   12.78
   8 -14   3   59.95    9.65
  15  -7  -3   23.22    6.24
  15  -7  -3   16.86    6.49
  15  -7  -3   28.48    7.44
  -8  15  -3   12.37    5.02
  15  -7  -3   19.13    7.61
  15  -7  -3    4.54    7.80
  15  -7  -3   36.90   12.05
   7   8   3    0.69   10.61
   8 -15   3    9.29    8.00
  16  -8  -3   38.10    6.52
  16  -8  -3   53.12    8.12
  16  -8  -3   38.81    9.36
  -8  16  -3   43.75    6.83
  16  -8  -3   55.64    8.76
  16  -8  -3   55.09   13.60
   8   8   3   24.54   12.32
   8 -16   3   35.49    9.97
  17  -9  -3  100.28   16.56
  17  -9  -3   77.36    9.34
  17  -9  -3  115.84   11.16
  17  -9  -3   86.99   11.57
   8 -17   3   65.46   12.05
   9   8   3   86.45   15.91
  16  -9  -3   15.77   11.46
  16  -9  -3   11.60    6.12
  16  -9  -3    8.78    5.74
  -7  16  -3    4.58    5.42
  16  -9  -3    8.23    7.85
   7 -16   3    3.35    8.58
   9   7   3    2.37   10.67
  15  -9  -3   -0.51    5.12
  15  -9  -3   -4.46    4.88
  15  -9  -3   -2.69   11.23
  15  -9  -3   10.70    6.91
  15  -9  -3    6.92    4.11
  15  -9  -3   -5.12    5.26
  -6  15  -3   15.07    6.33
   9   6   3   23.36   11.35
   6 -15   3   13.74    8.89
  -5  14  -3   11.91    6.93
  14  -9  -3   16.26   11.17
  14  -9  -3   10.10    6.06
  14  -9  -3   14.70    5.19
  14  -9  -3   25.07    5.68
  14  -9  -3   13.61    6.66
  14  -9  -3   25.69    4.98
  14  -9  -3   13.72    4.65
   5 -14   3    8.62    8.92
   9   5   3   -3.33    9.69
  -4  13  -3   81.59    9.96
  13  -9  -3   80.67   13.12
  13  -9  -3   87.42    7.66
  13  -9  -3   87.27    8.70
  13  -9  -3   89.52    8.78
  13  -9  -3   79.22    8.18
  13  -9  -3   66.35    6.38
   4 -13   3   79.42   11.45
   9   4   3   52.65   11.95
  12  -9  -3   16.44    5.96
  12  -9  -3    9.71    6.14
  12  -9  -3   19.22    4.49
  -3  12  -3   22.34    7.20
  12  -9  -3   17.29    5.27
  12  -9  -3   17.21    5.65
  12  -9  -3   34.71   10.75
  -3  12  -3    6.04    8.54
   9   3   3    9.48    8.91
   3 -12   3   14.88    8.24
  -2  11  -3   61.81   11.26
  11  -9  -3   70.77   11.54
  -2  11  -3   66.55   10.15
  11  -9  -3   52.95    5.53
  11  -9  -3   61.87    7.08
   2 -11   3   53.32   10.03
   9   2   3   55.85   11.11
  10  -9  -3   95.21    5.87
  10  -9  -3   93.62   12.11
  -1  10  -3   87.47   11.92
  -1  10  -3  123.35   11.70
   1 -10   3  102.02   11.75
 -10   9   3  118.46   10.27
   9   1   3   92.77   12.19
   9  -9  -3    5.99    8.20
   0   9  -3    6.45    6.75
  -9   0  -3   -2.35    2.96
   0   9  -3    6.26    7.59
   9   0   3   -3.10    7.11
   0  -9   3  -10.24    6.64
  -9   9   3   -0.92    5.22
   1   8  -3   21.97    8.46
  -9   1  -3   37.86    7.37
   1   8  -3   27.69    7.92
   8  -9  -3   31.59    8.55
  -9   1  -3   27.75    3.95
   9  -1   3   26.80    8.22
  -1  -8   3   31.21    8.27
  -8   9   3   34.60    7.11
   2   7  -3    4.00    7.02
   2   7  -3   -4.10    7.03
  -9   2  -3    1.09    3.20
  -9   2  -3   -5.48    5.30
   9  -2   3    4.56    7.04
  -7   9   3    2.26    5.78
  -2  -7   3    2.86    6.71
   9  -2   3   -0.98    3.41
   3   6  -3  100.18   11.29
  -9   3  -3   87.67    9.72
   3   6  -3   80.84   10.44
  -9   3  -3   89.37    6.49
  -9   3  -3   78.28    8.85
  -3  -6   3   80.44   10.24
   9  -3   3   88.47    5.48
   9  -3   3   97.19   10.78
  -6   9   3  109.84   10.19
   4   5  -3    6.03    6.98
  -9   4  -3    6.15    5.89
   4   5  -3   -2.18    6.53
  -9   4  -3    4.86    3.49
  -9   4  -3    4.64    5.51
   9  -4   3    4.74    3.48
  -4  -5   3    6.24    6.60
   5   4  -3   69.38   10.15
  -9   5  -3   84.45    7.78
   4  -9  -3   74.84    8.14
   5   4  -3   81.09   10.21
  -9   5  -3   80.34    8.88
   5   4  -3   79.57    8.57
   9  -5   3   94.25    9.95
  -5  -4   3   77.81    8.95
   9  -5   3   83.48    6.53
  -5  -4   3   91.46    9.74
   3  -9  -3   36.21    6.61
   6   3  -3   57.81    9.46
  -9   6  -3   42.02    7.22
  -9   6  -3   44.20    5.81
   6   3  -3   40.84    8.30
   6   3  -3   53.72    6.95
   9  -6   3   39.59    5.58
   9  -6   3   47.81    8.48
  -6  -3   3   47.21    7.14
  -3   9   3   40.83    5.96
  -6  -3   3   45.09    8.00
   7   2  -3    3.74    6.99
   7   2  -3    5.03    4.22
  -9   7  -3   -1.31    3.57
   2  -9  -3    0.70    5.36
  -9   7  -3    0.29    5.04
  -9   7  -3    2.00    2.76
   7   2  -3   16.58    6.39
  -7  -2   3   11.44    5.34
   9  -7   3    3.28    6.64
  -2   9   3    8.54    5.64
  -7  -2   3    9.90    6.35
   9  -7   3    3.72    4.78
   9  -7   3    4.18    2.40
  -7  -2   3    3.68    5.54
   8   1  -3   19.28    5.75
   8   1  -3    6.93    4.39
  -9   8  -3   10.21    3.25
   8   1  -3    6.48    6.23
  -9   8  -3   14.18    5.71
  -9   8  -3    4.24    3.07
   1  -9  -3    0.24    6.03
   9  -8   3   11.52    3.46
   9  -8   3    5.07    5.07
  -8  -1   3   13.55    6.48
  -8  -1   3    5.97    5.62
  -1   9   3   10.52    6.74
   9  -8   3   -0.74    6.69
  -8  -1   3   12.74    5.11
  -9   9  -3    2.06    4.73
   9   0  -3   -3.73    3.70
   9   0  -3   -3.83    4.43
   9   0  -3    7.11    5.79
  -9   9  -3    1.92    3.35
   0   9   3    4.64    7.02
   9  -9   3    1.42    5.15
  -9   0   3   -1.41    4.44
   9  -9   3    8.33    7.53
  -9   0   3   18.68    5.71
   9  -9   3   -0.18    3.89
  10  -1  -3   18.74    5.50
  -9  10  -3   22.25    2.44
  10  -1  -3   16.01    6.77
  -9  10  -3   11.02    4.51
  10  -1  -3   18.90    4.87
 -10   1   3   27.85    4.21
   9 -10   3   28.65    7.08
 -10   1   3   18.04    6.14
   9 -10   3   14.61    5.15
   1   9   3   19.76    8.24
  11  -2  -3   30.29    5.77
  -9  11  -3   19.40    5.62
  11  -2  -3   21.73    7.01
  11  -2  -3   19.76    5.82
   9 -11   3   25.43    6.18
   2   9   3   28.15    9.61
 -11   2   3   28.16    6.80
  12  -3  -3   -0.27    4.73
  -9  12  -3    2.89    2.22
  12  -3  -3   -0.05    4.43
  12  -3  -3   -4.94    5.45
 -12   3   3   -7.35    6.03
 -12   3   3    4.01    5.39
   3   9   3   14.21    9.07
   9 -12   3   10.68    5.94
  13  -4  -3    0.01    4.68
  13  -4  -3    8.26    5.68
  13  -4  -3    0.09    6.04
  -9  13  -3    2.63    2.61
   4   9   3    3.95    9.14
   9 -13   3    4.52    6.41
  14  -5  -3   31.80    7.14
  14  -5  -3   26.75    7.69
  -9  14  -3   26.79    3.98
  14  -5  -3   21.72    6.25
  14  -5  -3   36.79    8.42
   5   9   3   50.58   12.23
   9 -14   3   38.14    8.42
  15  -6  -3  -14.65    4.78
  15  -6  -3  -10.01    6.03
  15  -6  -3   -5.04    5.62
  -9  15  -3    1.28    3.14
  15  -6  -3    5.73    6.65
  15  -6  -3   -8.32    9.89
   9 -15   3   -4.36    7.03
   6   9   3  -16.94    9.63
  16  -7  -3  -15.12    6.47
  16  -7  -3    3.68   11.74
  16  -7  -3   10.92    7.32
  16  -7  -3   -5.69    7.24
   9 -16   3   11.48    8.46
   7   9   3   12.57   11.65
  17  -8  -3    3.64    6.75
  17  -8  -3    8.38    7.21
  17  -8  -3   25.13   12.71
  17  -8  -3  -19.52    7.28
   9 -17   3   -2.09    8.44
   8   9   3  -11.87   11.49
  17 -10  -3   45.96    9.27
  17 -10  -3   16.23    6.59
  17 -10  -3   44.63    7.31
  17 -10  -3   46.52   14.72
   7 -17   3   35.76   10.98
  10   7   3   55.45   14.39
  16 -10  -3   16.67    7.28
  16 -10  -3    8.00    4.97
  -6  16  -3   -1.54    5.92
  16 -10  -3  -12.62    5.06
  16 -10  -3   24.66   12.80
  10   6   3    6.98   11.14
   6 -16   3   17.59    9.37
  15 -10  -3   71.06    8.83
  15 -10  -3   90.69    9.11
  15 -10  -3   70.47    7.41
  15 -10  -3   63.58    5.67
  15 -10  -3   72.76   14.04
  -5  15  -3   91.82   10.07
   5 -15   3   77.56   12.26
  10   5   3   61.61   13.87
  -4  14  -3   54.89    9.39
  14 -10  -3   64.41    8.24
  14 -10  -3   52.79    7.77
  14 -10  -3   61.33    6.51
  14 -10  -3   52.34   13.40
  14 -10  -3   58.02    5.66
   4 -14   3   49.62   11.41
  10   4   3   49.74   12.65
  13 -10  -3    7.30    5.45
  13 -10  -3    4.23    5.94
  -3  13  -3   10.89    7.12
  13 -10  -3   -2.78    3.30
  13 -10  -3    7.33    6.76
  13 -10  -3   12.98   10.71
  10   3   3   -4.94    8.91
   3 -13   3    1.23    8.42
  -2  12  -3    5.90    7.14
  12 -10  -3   18.73    5.38
  -2  12  -3   16.67    9.30
  12 -10  -3   15.68    3.26
  12 -10  -3    8.92    9.81
   2 -12   3   14.45    8.59
  10   2   3    8.64    9.45
  -1  11  -3   18.61    9.07
  -1  11  -3   -4.02    7.43
  11 -10  -3   22.30    9.50
   1 -11   3    7.65    7.80
  10   1   3   -4.95    8.18
 -10   0  -3  115.33    7.35
  10 -10  -3  121.24   13.79
   0  10  -3  115.14   13.47
   0  10  -3  118.07   12.53
  10   0   3  102.23   13.08
   0 -10   3  108.03   12.61
 -10   1  -3   18.76    3.35
 -10   1  -3    3.86    3.58
   1   9  -3    5.12    8.06
   1   9  -3    6.50    7.20
  -1  -9   3   22.53    8.51
  10  -1   3    8.51    7.96
 -10   2  -3  135.00    6.70
   2   8  -3  131.93   13.09
 -10   2  -3  142.55    7.51
   2   8  -3  125.22   13.06
 -10   2  -3  125.31   11.58
  10  -2   3  132.24   13.23
  -2  -8   3  114.68   12.60
   3   7  -3  202.70   15.98
 -10   3  -3  171.13   13.56
   3   7  -3  180.03   14.65
 -10   3  -3  189.49    8.53
  10  -3   3  171.36    8.40
  10  -3   3  172.21   14.62
  -3  -7   3  192.32   14.43
 -10   4  -3   42.46    4.39
 -10   4  -3   63.09    8.18
   4   6  -3   33.11    8.93
   4   6  -3   24.25    8.28
  10  -4   3   40.06    8.63
  -4  -6   3   51.55    9.31
 -10   5  -3  132.35   11.49
   5 -10  -3  121.69    9.68
   5   5  -3  102.97   11.99
   5   5  -3  120.76   12.43
 -10   5  -3  126.38    9.94
  10  -5   3  119.39   11.51
  10  -5   3  115.83    7.05
  -5  -5   3  119.97   12.12
 -10   6  -3    4.25    4.97
   6   4  -3   -5.94    6.70
   4 -10  -3    5.68    5.33
   6   4  -3    3.73    7.37
 -10   6  -3   -3.67    5.29
  -6  -4   3    6.97    6.66
  10  -6   3    7.25    3.96
  10  -6   3   -9.55    6.51
  -4  10   3    5.27    3.68
  -6  -4   3    0.45    6.38
   7   3  -3  128.62   13.35
   3 -10  -3  140.41   11.48
   7   3  -3  131.76   12.66
 -10   7  -3  135.85   11.83
 -10   7  -3  138.44    6.51
 -10   7  -3  134.87    9.47
  -7  -3   3  148.79   10.72
  -7  -3   3  135.91   12.15
  10  -7   3  147.43    9.33
  10  -7   3  153.88   12.94
  -3  10   3  136.80    9.41
   8   2  -3    9.45    7.57
 -10   8  -3   11.10    3.71
 -10   8  -3   33.27    6.47
   2 -10  -3   23.38    6.52
   8   2  -3   26.43    7.45
 -10   8  -3   18.72    2.88
  -8  -2   3   20.13    6.83
  10  -8   3   19.97    2.74
  -8  -2   3   17.59    5.77
  -2  10   3   28.28    6.93
  10  -8   3   21.07    7.90
  10  -8   3    6.50    5.28
 -10   9  -3   98.90    6.22
   9   1  -3  113.63    9.37
 -10   9  -3  100.89    9.46
 -10   9  -3  106.83    6.74
   9   1  -3  115.57   10.75
   9   1  -3   92.95   11.20
  10  -9   3  111.26   11.73
  10  -9   3  106.69    9.10
  -9  -1   3   78.64    9.40
  -9  -1   3  107.02    8.32
  10  -9   3   93.71    6.18
  -1  10   3  110.82   11.32
 -10  10  -3  120.55   10.06
  10   0  -3  120.49   12.17
  10   0  -3  122.23   10.96
  10   0  -3  124.16    9.30
   0  10   3  113.53   12.53
 -10   0   3  138.37    8.91
  10 -10   3  110.41    7.79
  10 -10   3  119.98   12.48
 -10   0   3  115.20   10.64
  10 -10   3  109.75    9.91
 -10  11  -3   12.37    5.08
  11  -1  -3   17.09    4.87
  11  -1  -3   14.84    6.86
  11  -1  -3    1.50    5.40
 -11   1   3   11.16    3.56
  10 -11   3    8.94    5.12
   1  10   3   21.12    9.04
 -11   1   3    6.96    5.71
  10 -11   3    4.45    6.53
  12  -2  -3   48.98    7.65
  12  -2  -3   59.34    9.46
  12  -2  -3   47.58    6.89
 -12   2   3   49.71    7.93
  10 -12   3   59.91    7.61
   2  10   3   51.29   11.42
  13  -3  -3   -3.29    6.07
  13  -3  -3  -13.29    4.51
  13  -3  -3   -7.17    4.92
 -13   3   3   -3.30    6.72
  10 -13   3   -0.65    6.13
 -13   3   3   -3.45    5.63
   3  10   3   -1.41    9.14
  14  -4  -3   13.06    5.95
  14  -4  -3   14.00    7.59
  14  -4  -3   24.68    6.95
  10 -14   3   20.32    7.35
   4  10   3   23.54   11.34
  15  -5  -3   -7.29    6.22
  15  -5  -3    4.71    6.26
  15  -5  -3   15.09    7.76
  15  -5  -3   -5.40    4.67
   5  10   3    1.10    9.96
  10 -15   3   -5.80    6.83
  16  -6  -3    9.03    9.54
  16  -6  -3   44.72   13.33
  16  -6  -3   39.50    9.54
  16  -6  -3   16.90    6.00
  16  -6  -3   43.02    8.75
  10 -16   3   45.34    9.69
   6  10   3   42.95   13.52
  17  -7  -3   25.41   13.06
  17  -7  -3    4.50    7.25
  17  -7  -3   -2.41    6.81
  17  -7  -3   -0.16    7.19
   7  10   3    2.68   11.52
  10 -17   3    5.39    8.45
 -11  -6  -3    1.97    7.49
  -6  17  -3   23.78    7.54
  17 -11  -3   21.93   13.00
   6 -17   3   20.50   10.34
  11   6   3    1.62   12.31
  16 -11  -3    7.25    6.35
  16 -11  -3   17.25   12.51
 -11  -5  -3    2.65    7.08
  -5  16  -3  -13.76    5.93
  16 -11  -3   -0.04    3.79
   5 -16   3   -7.63    8.89
  11   5   3    3.00   11.07
  15 -11  -3   -2.83    5.41
  15 -11  -3    5.20   11.93
 -11  -4  -3  -14.29    6.15
  -4  15  -3    6.77    6.99
  15 -11  -3   -3.36    3.40
  15 -11  -3   -2.70    5.69
   4 -15   3   -8.16    8.59
  11   4   3  -21.16    9.52
  14 -11  -3    8.06    7.30
  14 -11  -3   17.06    6.56
  14 -11  -3    9.89    5.43
 -11  -3  -3    0.55    6.03
  14 -11  -3   20.22   11.85
  14 -11  -3   17.65    3.81
  -3  14  -3   11.88    7.89
  11   3   3   17.42   10.89
   3 -14   3    7.51    9.35
  13 -11  -3   18.92   11.11
  13 -11  -3    4.10    5.08
 -11  -2  -3    7.42    5.90
  -2  13  -3   11.11    7.85
   2 -13   3   13.27    9.37
  11   2   3   -7.64    9.03
  12 -11  -3    5.26    4.54
  -1  12  -3    9.36    9.85
  -1  12  -3    2.48    8.15
  12 -11  -3   13.81   10.11
 -11  -1  -3   -7.09    4.60
  11   1   3    2.66    9.30
   1 -12   3   11.52    8.63
   0  11  -3   22.71    9.84
  11 -11  -3   22.63    9.45
   0  11  -3    0.34    8.06
 -11   0  -3   15.52    3.84
 -11   0  -3   12.91    4.46
   0 -11   3   13.29    8.84
  11   0   3    2.26    8.81
   1  10  -3   17.17    8.62
   1  10  -3   18.66    9.81
 -11   1  -3   21.14    5.79
 -11   1  -3    7.26    3.87
 -11   1  -3   17.63    3.35
  11  -1   3    5.74    8.38
  -1 -10   3   15.80    8.73
 -11   2  -3   30.96    3.76
 -11   2  -3   22.50    3.49
 -11   2  -3   13.83    5.60
   2   9  -3   31.78    9.66
   2   9  -3   25.76    9.11
  -2  -9   3   15.10    8.36
  11  -2   3   23.44    9.21
 -11   3  -3   -5.37    5.69
 -11   3  -3    3.61    2.68
 -11   3  -3    2.76    1.91
   3   8  -3    3.08    8.02
   3   8  -3    2.82    7.37
  -3  -8   3    3.58    7.50
  11  -3   3    6.14    3.15
  11  -3   3   -3.06    7.48
   7 -11  -3   37.67    6.26
 -11   4  -3   39.44    7.65
   4   7  -3   34.00    9.51
   4   7  -3   29.63    9.22
  11  -4   3   32.19    8.74
  -4  -7   3   38.28    8.87
   5   6  -3   16.02    8.33
   6 -11  -3    7.86    5.00
 -11   5  -3    6.44    5.82
   5   6  -3    1.49    7.66
  -5  -6   3    1.39    7.15
  11  -5   3   -2.79    7.30
   5 -11  -3  152.78   12.47
   6   5  -3  152.20   14.26
   6   5  -3  126.16   13.37
 -11   6  -3  182.92   13.19
 -11   6  -3  176.26   12.03
  11  -6   3  145.59    8.12
  11  -6   3  187.91   14.11
  -6  -5   3  162.65   13.65
 -11   7  -3  129.24    9.76
   4 -11  -3  132.78   10.85
 -11   7  -3  144.72   12.36
   7   4  -3  107.40   12.36
   7   4  -3  114.10   12.98
  11  -7   3  143.51   13.10
  -7  -4   3  147.06   11.57
  -4  11   3  135.44    8.57
  -7  -4   3  152.54   13.18
  11  -7   3  113.22    8.01
   8   3  -3    2.77    7.19
   3 -11  -3    4.26    5.78
   8   3  -3   -5.20    7.19
 -11   8  -3    1.36    3.47
 -11   8  -3   -5.25    5.02
  11  -8   3    5.89    4.75
  -3  11   3    3.72    4.86
  -8  -3   3    1.66    6.39
  11  -8   3    3.36    7.80
  -8  -3   3    0.98    5.95
   9   2  -3   78.36   10.22
   9   2  -3   61.85   11.08
 -11   9  -3   74.69    8.42
 -11   9  -3   68.62    5.19
  11  -9   3   63.06   10.87
  11  -9   3   62.80    7.48
  -2  11   3   69.60    8.95
  -9  -2   3   68.11    9.34
  11  -9   3   53.22    4.20
  -9  -2   3   62.04    7.65
 -11  10  -3    4.80    5.01
  10   1  -3   11.60    7.29
 -11  10  -3    9.10    2.72
  10   1  -3    1.66    5.90
 -10  -1   3    9.26    4.56
  11 -10   3    3.91    8.72
  -1  11   3   10.73    6.83
  11 -10   3   11.55    5.80
  11 -10   3    5.44    3.65
 -10  -1   3    7.56    6.19
  11   0  -3   13.74    6.58
  11   0  -3   18.84    7.47
 -11  11  -3   13.08    4.55
 -11   0   3   21.80    6.93
  11 -11   3    8.22    6.24
 -11   0   3   20.31    4.50
  11 -11   3   18.58    4.85
   0  11   3   19.85    8.00
  12  -1  -3    4.80    5.77
  12  -1  -3   -0.02    6.39
 -11  12  -3    7.30    3.69
  11 -12   3   13.87    6.98
   1  11   3   -0.40    8.81
 -12   1   3    0.00    3.15
  11 -12   3    4.60    5.13
 -12   1   3    2.18    5.96
  13  -2  -3   83.23    9.50
  13  -2  -3   64.62   10.75
 -11  13  -3   83.12    7.51
   2  11   3   76.19   13.50
  11 -13   3   77.91    8.65
 -13   2   3   69.57    9.24
  14  -3  -3   91.18    9.79
  14  -3  -3   77.58   11.48
  11 -14   3   89.33    9.66
 -14   3   3   92.60   10.93
 -14   3   3   92.56    9.77
   3  11   3   84.67   14.26
  15  -4  -3   28.81    6.88
  15  -4  -3   17.34    8.18
  11 -15   3   31.27    8.25
   4  11   3   -1.50   10.93
  16  -5  -3   30.83    6.70
  16  -5  -3   33.70    9.38
  16  -5  -3   44.95    9.30
  11 -16   3   28.54    8.48
   5  11   3   44.64   13.14
  17  -6  -3   10.72    7.64
  17  -6  -3    8.67    7.25
  17  -6  -3  -20.13    7.49
  11 -17   3   -3.90    7.46
   6  11   3    1.81   11.75
  16 -12  -3   10.66   12.80
 -12  -4  -3    3.15    6.48
  -4  16  -3    7.28    7.74
   4 -16   3    9.67   10.18
  12   4   3    4.37   11.64
 -12  -3  -3    7.38    6.57
  -3  15  -3   10.02    7.74
  15 -12  -3   15.24   11.81
  15 -12  -3    7.04    5.20
  12   3   3  -14.99    9.65
   3 -15   3    6.95    9.80
 -12  -2  -3   54.04    8.26
  14 -12  -3   80.74   14.69
  -2  14  -3   51.25   10.25
  14 -12  -3   75.07    6.91
  12   2   3   46.24   13.20
   2 -14   3   82.08   13.09
 -12  -1  -3   -3.88    4.62
  13 -12  -3   -5.80    4.12
  -1  13  -3    8.06    8.51
  13 -12  -3    0.81   10.72
   1 -13   3   -3.94    8.69
  12   1   3  -11.07    9.68
   0  12  -3    9.54   10.43
 -12   0  -3   -2.91    4.20
   0  12  -3    7.20    8.72
  12 -12  -3    6.99    9.91
 -12   0  -3    4.07    3.23
   0 -12   3   13.22    9.42
  12   0   3    4.76   10.01
   1  11  -3   -5.35    9.07
 -12   1  -3    4.35    5.20
 -12   1  -3    5.59    3.71
   1  11  -3   -2.68    7.90
 -12   1  -3   -0.84    2.66
  12  -1   3    1.73    8.84
  -1 -11   3    1.27    8.21
 -12   2  -3   59.23    4.57
   2  10  -3   64.58   11.74
 -12   2  -3   48.63    7.40
   2  10  -3   51.39   10.96
 -12   2  -3   49.02    4.61
  -2 -10   3   34.66   10.18
  12  -2   3   70.10   11.72
 -12   3  -3    3.98    2.59
 -12   3  -3   -0.42    1.88
   3   9  -3   -1.91    8.09
 -12   3  -3    9.93    4.11
   3   9  -3    1.48    8.74
  -3  -9   3    6.62    8.23
  12  -3   3    6.70    8.36
  12  -3   3    1.71    3.21
   8 -12  -3    9.96    4.91
   4   8  -3    7.95    8.87
   4   8  -3   15.93    8.92
 -12   4  -3    7.13    5.98
 -12   4  -3   18.12    4.02
  12  -4   3    8.94    8.09
  -4  -8   3   10.11    8.39
 -12   5  -3   24.82    3.98
   5   7  -3    8.22    8.63
 -12   5  -3   14.32    6.49
   5   7  -3   25.85    9.19
   7 -12  -3   23.08    5.78
  12  -5   3   18.06    8.42
  -5  -7   3   12.15    8.21
   6   6  -3   20.46    9.48
 -12   6  -3   12.27    5.92
   6   6  -3   13.24    8.20
 -12   6  -3   12.16    2.86
  12  -6   3    0.37    8.17
  -6  -6   3   22.04    8.61
   7   5  -3   15.87    8.93
 -12   7  -3   16.80    5.17
   7   5  -3   10.37    8.95
   5 -12  -3   14.41    6.20
  -7  -5   3   15.01    7.67
  12  -7   3   27.59    9.28
  -7  -5   3   10.20    7.49
  12  -7   3   11.71    4.11
   4 -12  -3   59.02    8.39
 -12   8  -3   64.90    6.24
   8   4  -3   54.49   10.43
 -12   8  -3   41.64    7.57
   8   4  -3   37.61    9.97
  -8  -4   3   39.32    8.06
  12  -8   3   64.84   10.98
  -4  12   3   52.39    6.42
  -8  -4   3   50.17    9.26
  12  -8   3   51.97    6.30
   9   3  -3   22.31    9.24
 -12   9  -3   21.78    6.26
   9   3  -3    5.68    8.10
 -12   9  -3   17.48    3.52
  12  -9   3   12.55    5.69
  -9  -3   3    8.10    7.34
  12  -9   3   20.01    9.25
  -3  12   3   16.34    6.22
  -9  -3   3   36.34    7.10
  10   2  -3   19.98    8.35
 -12  10  -3   22.80    6.21
  10   2  -3   30.75    9.54
  12 -10   3   15.56    5.88
  -2  12   3   19.68    7.12
  12 -10   3    5.44    8.65
  12 -10   3   21.24    3.08
 -10  -2   3   21.41    5.69
 -10  -2   3   12.58    6.98
  11   1  -3   12.84    6.82
 -12  11  -3    5.95    4.13
  11   1  -3   17.53    8.32
 -12  11  -3    6.76    2.63
 -11  -1   3    3.42    6.27
  12 -11   3   -0.85    8.94
 -11  -1   3    6.45    4.55
  12 -11   3    0.83    3.75
  -1  12   3   -0.18    6.61
  12 -11   3   -5.02    5.90
  12   0  -3  -10.89    6.80
  12   0  -3   13.41    6.83
 -12  12  -3    0.87    3.27
 -12  12  -3    6.93    3.94
  12 -12   3   -4.89    6.38
 -12   0   3    5.35    7.15
   0  12   3    1.57    7.58
  12 -12   3    0.08    4.81
 -12   0   3    3.17    3.56
  13  -1  -3   63.54    9.38
 -12  13  -3   48.09    5.57
  13  -1  -3   68.58   11.34
 -13   1   3   47.12    4.58
  12 -13   3   41.64    7.00
  12 -13   3   34.85    8.53
   1  12   3   47.70   10.69
 -13   1   3   56.09    8.66
  14  -2  -3   15.00    6.56
  14  -2  -3   18.20    8.18
   2  12   3   24.14   11.14
 -14   2   3   25.06    7.36
  12 -14   3    9.09    6.32
  15  -3  -3    1.23    5.67
  15  -3  -3    0.02    7.16
 -15   3   3    2.85    6.71
  12 -15   3   -2.27    6.35
 -15   3   3    2.34    7.48
   3  12   3   -4.94   10.09
  16  -4  -3   -9.39    6.87
   4  12   3    0.14   10.87
  12 -16   3    4.04    7.13
 -13  -3  -3   -0.86    6.21
  -3  16  -3    0.14    7.53
  16 -13  -3   10.03   12.76
  13   3   3   -4.30   11.73
   3 -16   3  -10.30    9.70
  15 -13  -3   11.26   11.68
 -13  -2  -3    7.65    6.29
  -2  15  -3    7.46    8.14
  13   2   3   13.72   12.09
   2 -15   3    9.09   10.00
  14 -13  -3   52.66   12.99
  -1  14  -3   36.80   10.20
 -13  -1  -3   43.67    6.55
  13   1   3   35.64   12.78
   1 -14   3   61.94   12.70
 -13   0  -3   20.36    4.95
  13 -13  -3   25.74    4.53
   0  13  -3   20.30    9.82
   0 -13   3   30.98   10.62
  13   0   3   15.72   11.10
 -13   1  -3   30.68    5.01
   1  12  -3   31.61   11.06
  13  -1   3   30.19   11.03
  -1 -12   3   48.60   11.78
   2  11  -3   71.84   12.40
 -13   2  -3   75.59    5.64
  11 -13  -3   82.41    6.55
 -13   2  -3   71.13    5.40
   2  11  -3   86.27   13.77
 -13   2  -3   75.27    8.39
  13  -2   3   97.72   14.13
  -2 -11   3   67.57   12.35
   3  10  -3    6.42    9.37
 -13   3  -3    0.45    2.10
   3  10  -3  -12.01    8.01
  10 -13  -3   -0.79    3.90
 -13   3  -3   -1.53    2.79
 -13   3  -3   -1.16    2.07
  -3 -10   3   -0.02    8.39
  13  -3   3   -7.50    8.37
 -13   4  -3    7.58    3.10
   4   9  -3    0.49    9.14
   4   9  -3    0.86    9.04
   9 -13  -3   -0.19    4.62
  -4  -9   3   12.85    8.78
  13  -4   3   15.23    8.79
 -13   5  -3    4.69    2.94
 -13   5  -3   -4.71    5.03
   8 -13  -3    2.38    5.14
   5   8  -3    1.64    9.01
   5   8  -3   -5.90    8.63
  13  -5   3    6.86    8.54
  -5  -8   3    2.82    8.13
 -13   6  -3   15.09    6.11
   6   7  -3   24.62   10.03
   6   7  -3   31.19   10.56
 -13   6  -3   11.21    2.84
   7 -13  -3   14.79    5.84
  -6  -7   3   15.54    8.97
  13  -6   3    7.38    9.06
   6 -13  -3    1.13    5.50
   7   6  -3    7.20    9.52
   7   6  -3    8.92    9.10
 -13   7  -3   -0.78    3.80
  -7  -6   3   -6.43    7.42
  13  -7   3    3.22    8.60
   5 -13  -3    3.24    6.04
   8   5  -3   -3.17    8.91
   8   5  -3    5.39    8.91
 -13   8  -3    7.26    3.62
  -5  13   3    5.66    3.84
  13  -8   3    2.34    4.35
  -8  -5   3   -4.54    7.49
  13  -8   3    2.43    8.87
  -8  -5   3    8.42    7.41
   9   4  -3   91.08   13.00
 -13   9  -3   84.73    6.22
   9   4  -3   92.23   13.89
  13  -9   3   84.10    7.70
  -9  -4   3   81.34    9.86
  13  -9   3   84.47   12.28
  -9  -4   3   68.74   10.89
  -4  13   3   85.16    8.82
 -13  10  -3   -1.62    5.28
  10   3  -3   18.42    9.08
  10   3  -3   18.84   10.51
 -13  10  -3    6.46    2.43
  13 -10   3    2.14    8.93
  13 -10   3    4.71    5.60
  -3  13   3    9.41    6.32
 -10  -3   3   12.71    7.62
 -10  -3   3   -1.74    5.82
  11   2  -3   10.90    9.76
 -13  11  -3   12.16    5.17
  11   2  -3   27.67    9.04
 -11  -2   3    7.73    5.00
  13 -11   3   13.62   10.22
  13 -11   3   11.94    6.48
 -11  -2   3   12.30    7.26
  -2  13   3   18.35    7.40
  12   1  -3   13.79    9.37
 -13  12  -3    7.12    3.43
  12   1  -3    3.14    7.70
 -12  -1   3   -2.53    6.82
  13 -12   3   -4.50    6.35
  13 -12   3    1.75    4.04
  13 -12   3    7.38   10.14
  -1  13   3    8.49    7.74
 -12  -1   3   -2.64    3.99
  13   0  -3   31.04    8.36
  13   0  -3   10.91    8.54
 -13   0   3   27.61    4.33
  13 -13   3   32.70    7.69
   0  13   3   29.29    9.81
  13 -13   3   31.63    5.82
 -13   0   3   23.32    7.85
  14  -1  -3   -1.18    7.59
  14  -1  -3    3.99    6.54
   1  13   3   -3.47    8.11
  13 -14   3    1.33    7.16
  13 -14   3   -6.94    5.47
 -14   1   3   15.32    7.08
  15  -2  -3    0.22    6.27
  15  -2  -3   13.20    9.07
  13 -15   3   -2.62    7.26
 -15   2   3    2.93    7.07
   2  13   3    6.89    9.91
  13 -15   3    3.65    6.36
  16  -3  -3    6.73    8.28
 -16   3   3    3.12    6.58
 -16   3   3    9.92    8.11
  13 -16   3   -4.20    6.62
   3  13   3    9.06   11.85
 -14  -1  -3   27.36    5.93
  -1  15  -3   40.78   10.49
  15 -14  -3   39.01   13.23
  14   1   3   44.39   14.00
   1 -15   3   41.80   12.22
 -14   0  -3   -3.43    3.94
   0  14  -3   11.27    9.70
   0 -14   3    8.17   10.04
  14   0   3   -6.74   10.86
 -14   1  -3   -5.77    3.31
   1  13  -3   21.85   10.52
  14  -1   3   14.81   10.87
  -1 -13   3    6.66    9.58
 -14   2  -3    8.05    3.26
   2  12  -3   21.06   10.46
  -2 -12   3   -8.23    8.65
  14  -2   3   16.99   10.58
 -14   3  -3   77.16    4.58
 -14   3  -3   93.27    6.63
   3  11  -3   62.06   12.64
  14  -3   3   82.40   13.95
  -3 -11   3   81.96   13.03
   4  10  -3   12.37   10.61
 -14   4  -3   24.63    3.55
   4  10  -3   29.15   10.99
  10 -14  -3   17.27    5.18
  -4 -10   3   15.37    9.97
  14  -4   3   33.95   10.42
 -14   5  -3   62.86    5.11
   9 -14  -3   38.54    6.16
   5   9  -3   34.64   11.62
   5   9  -3   40.72   11.52
  14  -5   3   38.29   10.67
  -5  -9   3   25.30   10.41
   6   8  -3   30.75   11.28
 -14   6  -3   60.28    7.96
 -14   6  -3   64.81    4.63
   8 -14  -3   46.97    6.79
   6   8  -3   51.66   12.10
  14  -6   3   20.90   10.36
  -6  -8   3   41.23   10.92
  14  -6   3   38.20   10.13
   7   7  -3    9.07   10.27
   7 -14  -3    8.04    5.65
   7   7  -3   -4.48    9.35
 -14   7  -3    6.61    4.13
  -7  -7   3   -4.53    8.70
  14  -7   3    3.54    9.45
   8   6  -3   40.48   11.53
   6 -14  -3   19.53    6.95
 -14   8  -3   30.20    5.12
   8   6  -3   40.91   11.51
  14  -8   3   24.38    4.42
  -8  -6   3   35.14    9.87
  -8  -6   3   32.87    9.49
  14  -8   3   13.25   10.09
 -14   9  -3   22.37    4.10
   9   5  -3   21.00   10.28
   9   5  -3   -0.08    9.72
  14  -9   3    9.11   10.13
  -9  -5   3    6.22    8.43
  14  -9   3   16.53    4.80
  -5  14   3   12.35    4.27
  -9  -5   3   12.32    8.10
  10   4  -3   50.06   12.82
  10   4  -3   74.43   12.73
  14 -10   3   65.71    7.63
  -4  14   3   69.76    8.46
 -10  -4   3   38.17    9.96
 -10  -4   3   73.19    9.81
  14 -10   3   59.29   12.39
  11   3  -3   17.14   10.14
  11   3  -3   11.82   10.22
  14 -11   3   13.58   10.43
 -11  -3   3   17.55    5.91
  -3  14   3   14.73    7.05
 -11  -3   3   14.82    8.12
  14 -11   3   12.62    6.50
  12   2  -3   90.38   14.51
  12   2  -3   75.30   11.87
  14 -12   3   71.84    8.85
  -2  14   3   72.73   10.89
  14 -12   3   56.70   13.19
 -12  -2   3   83.41    7.82
 -12  -2   3   76.31   10.56
  13   1  -3   67.74   12.65
  13   1  -3   45.04   10.07
 -13  -1   3   44.19    8.96
  14 -13   3   52.23    5.78
  14 -13   3   51.71    8.78
 -13  -1   3   59.61    6.56
  -1  14   3   65.05   10.81
  14 -13   3   51.36   12.85
  14   0  -3    0.92    8.69
  14   0  -3   16.37    7.40
  14 -14   3   -0.34    7.01
   0  14   3    6.66    7.89
 -14   0   3    3.36    7.09
  14 -14   3   -9.40    4.77
  15  -1  -3    3.90    8.79
  14 -15   3   -8.77    5.66
  14 -15   3   11.01    7.69
 -15   1   3   -2.34    6.81
   1  14   3  -12.70    7.22
   1  14  -3    5.88   10.26
  -1 -14   3   -2.10   10.09
  15  -1   3   -0.38   10.80
   2  13  -3    7.09   10.92
  -2 -13   3    7.68    9.99
  15  -2   3    5.80   10.52
   3  12  -3   10.72   10.63
  -3 -12   3   -6.65    9.05
  15  -3   3  -12.27    9.68
   4  11  -3   19.20   10.83
  -4 -11   3   -2.59    9.25
  15  -4   3   19.13   10.36
   5  10  -3   25.77   10.99
  15  -5   3    2.93    9.39
  -5 -10   3    6.70    9.11
   6   9  -3    3.26    9.98
  15  -6   3   -4.78    8.58
  15  -6   3    2.36    9.75
  -6  -9   3   -8.12    9.09
 -15   7  -3   16.91    5.36
   7   8  -3   35.79   11.57
   7   8  -3   22.26   10.69
  -7  -8   3   11.75    9.51
  15  -7   3   13.04   10.29
   8   7  -3   13.07   10.55
   7 -15  -3    3.33    5.57
   8   7  -3   12.53   10.57
  -8  -7   3    8.45    8.82
  15  -8   3    2.12   10.32
   9   6  -3   -2.46    9.98
   9   6  -3    3.55   10.38
  -9  -6   3   -2.36    8.64
  15  -9   3    1.57    3.91
  -9  -6   3   -7.71    7.44
  15  -9   3   17.13   10.68
  10   5  -3   69.17   13.44
  10   5  -3   60.43   13.13
  15 -10   3   76.98    7.06
  15 -10   3   75.54   12.96
  -5  15   3   73.69    7.46
 -10  -5   3   63.44   11.30
 -10  -5   3   69.88    9.84
  11   4  -3   -4.88    9.15
  11   4  -3  -13.85    9.64
 -11  -4   3   18.73    6.93
  15 -11   3   -2.84    5.58
 -11  -4   3    6.06    8.13
  -4  15   3   -0.20    5.34
  15 -11   3   11.43   10.59
  12   3  -3    6.60   10.88
  12   3  -3    8.21   10.03
  15 -12   3    3.44    6.03
  -3  15   3    8.97    6.50
 -12  -3   3    6.42    4.79
  15 -12   3    5.78   10.65
 -12  -3   3    8.40    8.19
  13   2  -3    9.39   10.66
  -2  15   3   12.70    7.22
 -13  -2   3   -1.87    7.24
 -13  -2   3   -1.09    4.21
  15 -13   3    9.93    6.76
  15 -13   3   11.41   11.04
  14   1  -3   53.27   13.13
  15 -14   3   26.81    8.04
 -14  -1   3   53.31   10.11
  -1  15   3   49.78   10.00
   3  13  -3    3.73   10.40
  16  -3   3   -4.63   10.47
  -3 -13   3    9.55   10.23
   4  12  -3   -4.85   10.98
  -4 -12   3    9.98   10.61
  16  -4   3   -0.63   10.73
   5  11  -3   36.71   12.68
  -5 -11   3   38.19   11.53
  16  -5   3   39.09   12.00
   6  10  -3   38.54   12.74
  -6 -10   3   51.92   12.19
  16  -6   3   18.99   11.18
  16  -6   3   43.59   12.08
   7   9  -3   -5.02   10.17
  16  -7   3    5.61   10.73
  -7  -9   3   14.13   10.05
   8   8  -3   53.39   12.94
  -8  -8   3   17.49   10.12
  16  -8   3   45.31   12.70
   9   7  -3    3.79   10.68
  -9  -7   3    3.21    8.57
  16  -9   3    2.67   10.87
  -9  -7   3   -5.64    8.46
  10   6  -3   27.84   12.10
 -10  -6   3    9.74    9.41
 -10  -6   3   22.87    8.73
  16 -10   3   19.81   11.19
  11   5  -3  -12.38   10.40
 -11  -5   3    4.32    7.26
  16 -11   3   10.09   10.81
  -5  16   3    9.29    4.52
 -11  -5   3    0.30    8.08
  12   4  -3   22.14   12.18
 -12  -4   3   10.66    6.80
  -4  16   3   12.13    6.35
  16 -12   3    6.00   10.99
 -12  -4   3   -0.31    8.02
  16 -12   3    4.68    5.98
  13   3  -3   16.38   12.00
  16 -13   3   -1.61    6.35
 -13  -3   3   -0.02    8.26
  -3  16   3    2.62    6.49
  16 -13   3   12.02   10.98
   6  11  -3   22.47   12.44
  -6 -11   3  -11.78    9.62
  17  -6   3   13.56   11.32
   7  10  -3   -2.00   11.07
  17  -7   3   24.28   11.53
  -7 -10   3   15.46   10.83
   8   9  -3    7.66   11.82
  17  -8   3    7.23   10.85
  -8  -9   3    5.12   10.32
   9   8  -3   77.22   15.29
  17  -9   3  110.64   16.00
  -9  -8   3  102.32   14.50
  10   7  -3   25.89   12.52
 -10  -7   3   47.43   11.71
 -10  -7   3   41.22   10.83
  17 -10   3   37.38   12.99
  11   6  -3   20.33   12.76
 -11  -6   3   11.42    7.66
  17 -11   3   23.36   11.97
   0   0  -4  131.07   10.57
   0   0  -4  113.15    8.66
   0   0  -4  123.22    8.46
   0   0  -4  127.57    8.29
   0   0   4  130.41    9.06
  -1   0  -4   38.53    5.57
   0   1  -4   41.01    5.58
  -1   0  -4   39.40    5.86
  -1   0  -4   43.15    5.06
   1  -1  -4   34.13    5.09
   1  -1  -4   36.74    6.19
   1  -1  -4   29.51    4.06
   1  -1  -4   47.58    6.19
   0   1  -4   29.31    5.18
  -1   0  -4   43.51    5.59
   1  -1  -4   40.63    5.44
   1   0   4   34.58    5.63
   0  -1   4   40.93    5.98
   0  -1   4   41.21    6.47
   0  -1   4   30.83    5.61
  -1   1   4   36.96    5.55
  -1   1  -4   32.39    5.09
   0  -1  -4   37.36    5.47
   1   0  -4   33.06    5.20
  -1   1  -4   43.95    5.64
   0  -1  -4   38.43    6.34
   1   0  -4   42.06    4.04
   1   0  -4   37.96    5.34
  -1   0   4   41.35    5.84
  -1   0   4   42.42    6.52
   0   1   4   27.51    6.05
  -1   0   4   35.93    5.45
   0   1   4   35.90    3.67
   1  -1   4   50.82    6.17
  -1   2  -4   22.19    4.92
   2  -1  -4   21.66    6.18
  -1  -1  -4   26.00    5.13
  -1   2  -4   23.52    4.56
   2  -1  -4   21.57    4.41
   2  -1  -4   18.03    5.41
  -1  -1  -4   22.72    5.54
   2  -1  -4   18.20    4.68
   2  -1  -4   28.64    5.17
  -2   1   4   29.68    5.44
   1   1   4   27.48    5.53
   1  -2   4   25.50    5.64
   1  -2   4   14.06    4.81
  -2  -1  -4  120.05    8.43
  -2  -1  -4  122.89    8.99
   3  -2  -4  125.55    9.82
   3  -2  -4  113.21    8.90
   3  -2  -4  120.91    8.50
  -2  -1  -4  118.34    9.49
  -1   3  -4  110.58    8.14
  -1   3  -4  117.67    8.47
   3  -2  -4  116.55    8.30
   3  -2  -4  104.45    8.07
   2   1   4  108.92    8.28
   1  -3   4  118.50    8.53
   1  -3   4  122.34    8.82
   0   2  -4   72.11    6.88
   2  -2  -4   77.94    6.78
   2  -2  -4   60.99    5.57
   2  -2  -4   78.10    7.79
  -2   0  -4   82.22    6.64
  -2   0  -4   68.79    6.78
   0   2  -4   75.49    6.84
  -2   2   4   69.91    5.89
   0  -2   4   68.94    7.09
   0  -2   4   67.55    6.95
   2   0   4   72.20    6.91
   1  -2  -4   28.13    5.04
   1  -2  -4   25.01    5.86
   1   1  -4   21.66    5.07
  -2   1  -4   14.09    4.78
  -2   1  -4   24.30    4.81
   1   1  -4   31.18    5.33
  -2   1  -4   21.34    5.20
  -2   1  -4   18.80    4.53
  -1   2   4   25.07    4.34
  -1  -1   4   24.89    5.54
  -1   2   4   21.91    5.80
  -1  -1   4   34.10    5.87
   2  -1   4   20.88    5.40
  -2   2  -4   70.04    6.54
   2   0  -4   77.98    6.62
  -2   2  -4   80.84    6.23
   0  -2  -4   66.62    7.29
   2   0  -4   66.11    6.56
   2  -2   4   69.59    6.28
  -2   0   4   69.97    7.09
   2  -2   4   64.11    6.91
   0   2   4   69.54    7.07
  -2   0   4   68.95    7.70
   2  -2   4   75.61    6.97
  -2   0   4   72.38    7.10
  -2   3  -4    3.41    4.42
  -1  -2  -4    8.31    5.26
  -1  -2  -4    4.64    5.13
  -2   3  -4   10.70    3.29
   3  -1  -4    4.65    4.32
   3  -1  -4    1.85    4.42
  -2   3  -4   13.23    4.33
   1   2   4   -3.35    4.74
  -3   1   4   11.22    5.43
  -3   1   4    8.55    4.91
  -3   1   4    3.70    4.36
   2  -3   4    7.64    4.45
   2  -3   4    5.60    4.96
  -2   4  -4   23.53    5.58
   4  -2  -4   19.91    5.11
   4  -2  -4   22.54    5.44
   4  -2  -4   26.24    4.84
  -2   4  -4   21.11    4.94
  -2  -2  -4   19.10    6.14
   4  -2  -4   22.29    6.45
   2  -4   4   24.41    5.69
   2  -4   4   20.35    4.96
   2   2   4   23.30    5.88
  -2   5  -4   41.48    6.27
   5  -3  -4   43.35    7.10
   5  -3  -4   47.23    5.62
   5  -3  -4   46.08    6.42
  -3  -2  -4   44.12    7.45
   5  -3  -4   44.00    6.56
  -2   5  -4   41.65    7.07
   5  -3  -4   40.01    5.87
   3   2   4   40.77    6.61
   2  -5   4   42.20    6.93
   2  -5   4   42.62    6.39
  -3  -1  -4  336.96   17.90
  -1   4  -4  369.00   17.13
   4  -3  -4  367.40   14.96
   4  -3  -4  363.10   16.01
  -3  -1  -4  341.72   14.65
   4  -3  -4  355.78   14.83
   4  -3  -4  355.33   15.55
  -1   4  -4  382.34   15.41
   4  -3  -4  369.46   17.77
   1  -4   4  352.87   16.19
   3   1   4  347.46   16.28
   1  -4   4  326.23   15.11
   0   3  -4   88.90    7.64
   3  -3  -4   87.93    8.74
  -3   0  -4   97.10    7.25
   3  -3  -4   79.53    6.76
   3  -3  -4   96.12    7.41
  -3   0  -4   94.16    8.85
   0   3  -4  101.40    8.09
  -3   0  -4   82.21    7.34
   0  -3   4   84.12    7.82
   0  -3   4   99.42    7.96
  -3   3   4   94.24    8.72
  -3   3   4   92.55    7.37
   3   0   4   90.11    7.15
  -3   1  -4    7.77    3.69
   1   2  -4    9.88    4.69
   1   2  -4    8.09    4.65
  -3   1  -4    0.78    4.17
   2  -3  -4    5.74    5.27
  -3   1  -4    6.88    4.21
  -3   1  -4    4.90    4.48
  -2   3   4    0.08    4.38
  -2   3   4    9.21    5.17
   3  -1   4    5.32    4.67
  -1  -2   4    1.30    4.86
  -1  -2   4    6.90    5.02
   2   1  -4  111.65    8.19
  -3   2  -4  118.34    8.73
   1  -3  -4  121.96    9.61
  -3   2  -4  123.18    9.08
  -3   2  -4  112.70    7.35
   2   1  -4  117.60    8.23
   3  -2   4  114.60    6.23
  -1   3   4  110.42    9.17
  -2  -1   4   96.90    8.35
  -1   3   4  109.97    8.70
  -2  -1   4  130.51    8.91
   3  -2   4  106.33    8.35
  -3   3  -4   92.93    7.49
   0  -3  -4  105.03    8.75
  -3   3  -4   93.69    6.77
  -3   3  -4   94.50    6.32
   3   0  -4   86.61    7.51
   0  -3  -4   78.97    8.36
   3   0  -4  108.55    7.58
  -3   0   4   99.97    8.15
   3  -3   4  100.73    7.66
   3  -3   4   87.74    8.02
   0   3   4  106.45    8.64
  -3   0   4  107.95    8.77
   4  -1  -4  302.23   13.42
  -3   4  -4  275.19   12.26
   4  -1  -4  285.09   12.84
  -3   4  -4  291.04   12.44
  -3   4  -4  265.98   13.24
  -1  -3  -4  308.81   15.56
  -4   1   4  297.66   15.42
  -4   1   4  305.89   13.46
   1   3   4  321.81   15.84
   3  -4   4  274.94   13.55
  -4   1   4  283.64   14.05
   3  -4   4  291.62   12.81
  -3   5  -4  177.89   10.94
  -3   5  -4  193.67   12.20
   5  -2  -4  174.44    9.30
  -3   5  -4  170.74   10.08
   5  -2  -4  177.60    9.93
  -2  -3  -4  161.76   12.61
   3  -5   4  205.69   10.54
   3  -5   4  213.53   12.19
  -5   2   4  180.72   10.10
   2   3   4  165.95   13.22
   6  -3  -4  113.18    7.19
  -3   6  -4  119.06    9.66
   6  -3  -4  115.85    8.11
   6  -3  -4  126.43   10.15
  -3   6  -4  119.41    8.77
  -3  -3  -4  127.43   10.60
   6  -3  -4  104.43    9.23
   3  -6   4  109.20    9.67
   3  -6   4  118.83    9.25
   3   3   4  124.51    9.95
   3   3   4  118.13   10.89
   7  -4  -4    6.97    3.92
   7  -4  -4   12.24    5.57
   7  -4  -4   -0.90    4.58
   7  -4  -4    4.05    3.15
  -3   7  -4    4.92    6.19
  -4  -3  -4   12.67    6.27
  -4  -3  -4    7.53    5.95
   3  -7   4    5.75    6.09
   4   3   4   -2.89    6.53
   3  -7   4   12.14    5.80
   6  -4  -4   28.55    5.84
   6  -4  -4   41.72    6.57
   6  -4  -4   28.63    4.90
  -2   6  -4   47.00    6.46
  -2   6  -4   24.93    6.69
  -4  -2  -4   30.49    7.12
   6  -4  -4   33.30    4.82
   6  -4  -4   32.13    5.39
   2  -6   4   36.18    6.65
   4   2   4   39.45    7.78
   4   2   4   31.22    6.22
   2  -6   4   30.73    6.79
  -4  -1  -4  234.63   15.10
   5  -4  -4  254.44   14.61
   5  -4  -4  256.33   11.86
   5  -4  -4  248.31   12.79
  -4  -1  -4  238.49   11.70
  -1   5  -4  226.09   14.30
  -1   5  -4  237.60   12.59
   1  -5   4  249.47   14.10
   4   1   4  246.54   13.22
   1  -5   4  257.40   13.44
   0   4  -4   70.93    7.25
  -4   0  -4   72.83    6.51
   4  -4  -4  100.85    9.04
  -4   0  -4   65.35    8.18
   4  -4  -4   78.00    7.19
   0   4  -4   77.25    8.54
   0  -4   4   67.42    7.50
  -4   4   4   75.13    7.27
  -4   4   4   67.47    8.08
   4   0   4   76.70    7.01
   0  -4   4   69.52    7.44
   3  -4  -4  282.21   15.49
  -4   1  -4  277.09   15.75
   1   3  -4  276.02   15.31
   1   3  -4  281.09   13.16
   1   3  -4  266.97   13.37
  -4   1  -4  278.34   12.81
  -4   1  -4  277.17   12.14
  -3   4   4  275.24   14.69
  -3   4   4  286.25   13.32
   4  -1   4  279.33   13.46
   4  -1   4  264.98   12.32
  -1  -3   4  273.08   13.32
  -1  -3   4  284.50   13.68
  -4   2  -4   22.38    4.65
   2   2  -4   20.84    5.32
   2   2  -4   11.96    4.93
   2   2  -4   12.10    5.81
  -4   2  -4   22.16    3.97
   2  -4  -4   22.89    6.06
  -4   2  -4   30.63    5.16
   4  -2   4   22.62    4.40
  -2  -2   4   15.97    5.43
  -2   4   4   20.67    5.17
  -2  -2   4   18.86    5.47
  -2   4   4   13.89    5.79
   4  -2   4   18.61    5.11
   3   1  -4  366.31   15.29
   1  -4  -4  358.38   17.55
   3   1  -4  385.72   15.55
  -4   3  -4  364.94   13.69
   1  -4  -4  338.13   16.93
  -4   3  -4  347.38   15.05
   4  -3   4  354.62   14.20
  -3  -1   4  370.29   16.04
  -1   4   4  351.62   17.84
   4  -3   4  363.75   14.85
   4  -3   4  361.75   13.85
   4  -3   4  336.32   15.07
  -3  -1   4  366.83   15.92
   4   0  -4   76.16    7.26
   0  -4  -4   78.73    7.81
  -4   4  -4   75.75    5.96
  -4   4  -4   75.58    6.39
   4   0  -4   77.50    6.57
  -4   4  -4   67.78    6.84
   4  -4   4   82.24    6.43
  -4   0   4   70.90    7.68
   0   4   4   90.54    8.53
   4  -4   4   61.48    6.96
  -4   0   4   84.89    7.49
  -4   5  -4   -1.80    4.26
  -1  -4  -4   -3.90    4.97
   5  -1  -4    1.81    3.63
   5  -1  -4    1.18    3.86
  -4   5  -4   -4.80    3.87
  -5   1   4    3.71    5.72
   4  -5   4   -5.71    4.80
  -5   1   4    9.16    5.32
   4  -5   4   -3.29    4.06
  -5   1   4    0.95    4.73
   1   4   4    2.92    5.54
   6  -2  -4    6.80    3.51
  -4   6  -4   12.04    4.98
  -4   6  -4    3.50    4.36
   6  -2  -4   -0.12    3.60
  -2  -4  -4    1.30    5.42
  -4   6  -4    1.85    5.00
  -6   2   4    2.31    4.33
   4  -6   4    8.78    5.68
   2   4   4    8.20    5.99
   2   4   4    5.89    6.17
  -6   2   4   12.71    6.20
   4  -6   4    4.95    4.89
  -6   2   4    4.26    4.87
  -4   7  -4   84.56    8.59
   7  -3  -4   82.64    7.40
   7  -3  -4   77.37    8.34
   7  -3  -4   75.76    6.00
  -3  -4  -4   88.75    9.68
  -4   7  -4   81.50    7.84
  -3  -4  -4   83.54    9.59
   4  -7   4   71.78    8.58
   3   4   4   95.86   10.62
   4  -7   4   71.69    7.82
   8  -4  -4   45.40    5.89
   8  -4  -4   42.36    7.41
  -4  -4  -4   46.06    8.58
   8  -4  -4   47.18    4.89
  -4   8  -4   45.63    7.72
   8  -4  -4   44.27    6.96
   4  -8   4   42.18    7.14
   4   4   4   48.64    9.02
   4  -8   4   45.46    8.02
  -4   9  -4   10.61    6.67
   9  -5  -4    6.87    4.72
   9  -5  -4    2.97    3.78
   9  -5  -4    4.71    5.88
  -4   9  -4    8.21    5.50
   9  -5  -4    7.98    3.39
   5   4   4    4.42    7.54
   4  -9   4    5.32    6.15
   8  -5  -4   -1.18    5.38
   8  -5  -4   -2.95    4.24
   8  -5  -4    6.97    3.94
  -3   8  -4    8.90    5.54
   8  -5  -4   -2.34    2.94
  -3   8  -4   -1.02    5.89
   5   3   4   -1.55    6.77
   3  -8   4    6.72    6.27
   3  -8   4    3.17    5.93
  -5  -2  -4   10.63    6.07
  -5  -2  -4   10.43    6.07
  -2   7  -4   14.64    6.36
   7  -5  -4    2.88    3.81
   7  -5  -4    9.48    4.69
   7  -5  -4   10.46    3.69
   7  -5  -4    4.68    4.91
   7  -5  -4   16.28    6.19
   2  -7   4   19.83    6.61
   5   2   4    1.29    5.24
   2  -7   4    3.96    5.83
   5   2   4   -6.60    6.40
  -1   6  -4  252.36   13.58
  -5  -1  -4  251.01   16.25
   6  -5  -4  272.39   15.29
  -1   6  -4  283.07   16.15
   6  -5  -4  276.57   14.33
   1  -6   4  300.14   15.23
   1  -6   4  269.67   14.61
   5   1   4  278.68   16.93
   5   1   4  267.75   14.60
   0   5  -4  118.16   10.45
  -5   0  -4  113.25   10.45
   5  -5  -4  115.35    9.74
  -5   0  -4  116.87    8.34
   5  -5  -4  113.73    9.27
   0   5  -4  113.74    9.33
  -5   5   4  116.21    9.44
   5   0   4  116.04    8.24
  -5   5   4   98.29    9.43
   0  -5   4  111.63    9.76
   0  -5   4   84.07    8.98
   1   4  -4   -7.93    5.47
   4  -5  -4    4.80    5.74
  -5   1  -4   -7.25    4.97
   1   4  -4    1.29    5.06
  -5   1  -4   -3.79    4.10
  -1  -4   4    2.93    5.42
  -4   5   4    2.85    5.48
  -4   5   4    5.40    5.27
  -1  -4   4    3.76    5.59
   5  -1   4   -5.64    3.81
  -5   2  -4  176.40    9.44
  -5   2  -4  162.75    9.01
   3  -5  -4  159.46   12.34
  -5   2  -4  169.53   10.34
   2   3  -4  183.44   13.32
  -5   2  -4  168.06   13.22
  -5   2  -4  172.92    8.37
   2   3  -4  166.88   10.71
  -3   5   4  168.72   10.99
  -2  -3   4  181.75   12.12
  -3   5   4  177.91   12.74
   5  -2   4  171.17    9.93
  -2  -3   4  188.61   11.41
   3   2  -4   43.93    6.61
   3   2  -4   45.73    6.58
   3   2  -4   43.73    7.87
   2  -5  -4   38.83    6.24
  -5   3  -4   38.49    5.70
  -5   3  -4   48.18    4.62
  -5   3  -4   47.48    5.06
   5  -3   4   34.62    6.09
   5  -3   4   31.27    5.45
  -3  -2   4   32.78    6.65
  -3  -2   4   51.64    6.92
  -2   5   4   33.57    6.99
   1  -5  -4  248.08   13.56
  -5   4  -4  240.15   10.31
  -5   4  -4  250.92   12.39
   4   1  -4  243.78   14.72
   4   1  -4  242.89   12.44
   4   1  -4  230.25   12.62
  -4  -1   4  255.41   13.46
   5  -4   4  227.97   11.13
   5  -4   4  236.32   12.60
   5  -4   4  240.54   11.77
  -1   5   4  258.96   15.42
   5  -4   4  241.74   10.57
  -4  -1   4  262.64   13.36
   5   0  -4  104.41    8.43
   5   0  -4  139.13   10.50
  -5   5  -4  108.92    8.25
   5   0  -4  112.82    7.84
   0  -5  -4  125.71   10.40
  -5   5  -4  101.05    7.24
   5  -5   4   95.36    7.11
  -5   0   4  115.31    9.39
   5  -5   4  120.82    9.06
  -5   0   4  110.59    8.53
   0   5   4  108.97    9.81
  -5   6  -4   15.94    5.56
   6  -1  -4   13.61    5.24
  -5   6  -4   15.70    5.20
  -1  -5  -4   11.06    5.75
   6  -1  -4   16.46    3.95
   6  -1  -4   20.50    4.64
  -5   6  -4    1.14    4.31
   1   5   4   28.77    7.04
   1   5   4   24.80    6.82
  -6   1   4    8.77    5.54
   5  -6   4   17.53    5.70
   5  -6   4    7.75    4.48
  -6   1   4   11.40    4.78
  -5   7  -4  121.94    9.81
  -2  -5  -4  118.44   11.17
  -5   7  -4  135.81   10.36
   7  -2  -4  139.41    8.78
  -2  -5  -4  130.79   11.16
   7  -2  -4  134.65    8.07
   5  -7   4  133.18   10.56
   5  -7   4  144.95    9.32
   2   5   4  132.73   11.61
  -7   2   4  154.46   11.76
  -7   2   4  141.59    8.85
  -7   2   4  152.98   10.85
   8  -3  -4    3.70    3.67
  -5   8  -4   13.02    5.97
  -5   8  -4   11.82    5.67
   5  -8   4    9.09    5.43
   5  -8   4    5.37    5.97
   3   5   4    3.00    6.85
   9  -4  -4   12.31    6.48
  -5   9  -4   12.44    5.95
  -5   9  -4   14.67    5.04
   9  -4  -4    3.26    4.79
  -5   9  -4    3.22    5.98
   9  -4  -4    5.31    3.42
   9  -4  -4    3.24    3.94
   9  -4  -4   14.56    5.54
   5  -9   4    1.14    6.23
   5  -9   4    9.15    6.06
   4   5   4   11.20    7.53
  -5  10  -4   77.75    9.65
  10  -5  -4   88.79    9.28
  -5  10  -4   77.95    7.70
  10  -5  -4   81.37    8.89
  10  -5  -4   74.34    6.07
  10  -5  -4   76.59   10.19
  10  -5  -4   90.59    8.19
   5   5   4   86.02   11.68
   5 -10   4  114.08   10.74
  11  -6  -4   55.15   10.28
  11  -6  -4   58.79    7.30
  11  -6  -4   59.25    7.40
  -5  11  -4   57.08    7.33
  11  -6  -4   55.32    5.40
  11  -6  -4   60.13    8.94
  11  -6  -4   55.26    7.90
  -5  11  -4   71.43   10.39
   6   5   4   53.81   11.51
   5 -11   4   52.82    9.51
  10  -6  -4  335.71   13.84
  -4  10  -4  361.60   16.90
  -4  10  -4  368.35   19.89
  10  -6  -4  356.96   19.52
  10  -6  -4  341.34   15.54
  10  -6  -4  334.35   17.55
   4 -10   4  348.89   18.03
   6   4   4  368.45   21.61
  -3   9  -4  153.24   12.61
   9  -6  -4  131.53    7.96
   9  -6  -4  138.60    9.14
   9  -6  -4  156.25   12.64
   9  -6  -4  141.70   11.11
   9  -6  -4  153.09    9.83
  -3   9  -4  139.94   10.80
   3  -9   4  140.15   12.15
   6   3   4  136.56   13.77
   3  -9   4  129.23   11.71
   8  -6  -4  168.43   10.83
   8  -6  -4  182.96   12.32
   8  -6  -4  180.62   10.15
   8  -6  -4  177.23   12.67
   6   2   4  180.92   14.96
   7  -6  -4  153.28   11.56
  -6  -1  -4  150.21   12.00
   7  -6  -4  152.30   11.96
  -1   7  -4  157.53   13.23
  -1   7  -4  159.87   11.76
   6   1   4  133.74   12.62
   6   1   4  160.87   11.19
   1  -7   4  128.93   11.47
  -7   6   4  166.70   12.69
   1  -7   4  150.21   12.26
   6  -6  -4  293.54   14.93
   6  -6  -4  266.99   15.36
  -6   0  -4  266.23   16.72
  -6   0  -4  283.16   12.65
   0   6  -4  281.01   14.40
   0   6  -4  290.77   16.83
   0   6  -4  278.50   15.46
  -6   0  -4  271.40   16.01
  -6   6   4  281.14   16.29
   0  -6   4  309.78   15.44
   6   0   4  272.58   17.48
  -6   6   4  260.85   14.76
   6   0   4  264.57   13.94
   0  -6   4  271.81   16.06
   1   5  -4   12.41    5.55
   1   5  -4    5.68    6.22
  -6   1  -4   13.17    6.19
   1   5  -4    7.50    6.32
  -6   1  -4    3.88    4.52
   5  -6  -4   17.16    5.87
  -1  -5   4   14.65    6.19
  -1  -5   4   13.94    6.32
   6  -1   4   11.43    4.29
  -5   6   4    9.51    5.84
  -5   6   4   16.62    6.21
  -6   2  -4    4.69    3.03
   2   4  -4    6.14    6.38
  -6   2  -4    4.44    5.52
   2   4  -4    4.17    5.13
  -6   2  -4    1.55    4.16
   2   4  -4   -3.04    5.99
   4  -6  -4    6.81    6.02
  -4   6   4    0.42    5.60
   6  -2   4    3.33    3.59
  -4   6   4    9.26    5.72
  -2  -4   4   -4.64    5.62
  -2  -4   4   10.95    5.81
  -6   3  -4  124.62   10.60
   3  -6  -4  132.85    9.66
   3   3  -4   93.23    8.79
   3   3  -4  109.22   10.59
  -6   3  -4  101.99    6.30
   3   3  -4  121.69   10.81
  -6   3  -4  107.42    7.13
  -6   3  -4  115.87    8.01
  -3  -3   4  104.94    9.25
  -3   6   4  141.97   10.08
   6  -3   4  114.87    8.42
   6  -3   4  115.86    8.91
  -3   6   4  143.55   11.17
  -3  -3   4  122.37   10.04
   2  -6  -4   40.35    6.08
   4   2  -4   45.48    7.89
   4   2  -4   23.59    6.16
  -6   4  -4   28.74    5.67
   4   2  -4   24.10    7.28
  -6   4  -4   26.17    4.12
  -6   4  -4   34.53    4.01
  -2   6   4   31.69    7.15
  -4  -2   4   35.26    6.31
  -4  -2   4   38.15    6.48
   6  -4   4   40.74    6.12
   6  -4   4   29.21    5.80
   5   1  -4  269.32   15.95
   5   1  -4  253.44   13.07
   5   1  -4  269.01   12.81
   1  -6  -4  274.88   14.69
  -6   5  -4  269.22   10.98
  -6   5  -4  247.74   13.36
   5   1  -4  280.05   15.35
   6  -5   4  281.58   13.48
  -5  -1   4  269.79   14.16
  -1   6   4  292.39   15.84
  -5  -1   4  253.27   13.23
   6  -5   4  273.20   11.18
   6  -5   4  260.72   13.32
   6   0  -4  284.09   12.67
   6   0  -4  280.09   15.04
  -6   6  -4  288.74   12.10
   6   0  -4  297.56   13.76
  -6   6  -4  274.87   14.16
   0  -6  -4  274.62   15.58
   6   0  -4  277.86   15.87
   6  -6   4  293.61   14.97
   6  -6   4  279.09   11.93
  -6   0   4  284.18   14.66
   6  -6   4  272.84   13.77
   0   6   4  291.27   15.89
   0   6   4  296.86   16.91
  -6   0   4  283.72   12.99
  -6   7  -4   20.97    6.01
   7  -1  -4   15.91    4.52
   7  -1  -4   20.35    3.99
   7  -1  -4   12.90    5.03
  -6   7  -4   18.20    5.32
  -1  -6  -4   15.13    6.27
   7  -1  -4   22.30    6.33
  -1  -6  -4   16.43    6.73
   6  -7   4   19.40    4.81
   6  -7   4   24.04    6.10
   1   6   4   13.86    6.55
  -7   1   4   16.10    5.86
  -7   1   4   16.05    5.10
   8  -2  -4    0.76    4.98
  -6   8  -4   -0.71    4.98
   8  -2  -4    0.17    3.02
   8  -2  -4    1.27    4.40
   8  -2  -4    2.73    3.83
  -6   8  -4    9.89    5.59
  -8   2   4    0.01    5.92
   6  -8   4   -2.21    5.20
   2   6   4    0.07    6.53
   6  -8   4   -7.37    4.38
  -8   2   4    5.00    5.15
  -8   2   4   -0.54    4.24
   9  -3  -4   23.65    3.97
  -6   9  -4   26.85    6.55
   9  -3  -4   25.35    5.41
   9  -3  -4   28.51    5.31
   9  -3  -4   29.00    6.86
  -6   9  -4   21.15    6.74
   6  -9   4   20.14    6.85
   3   6   4   17.97    8.17
   6  -9   4   23.39    6.30
  10  -4  -4   33.42    6.73
  -6  10  -4   29.13    4.89
  10  -4  -4   18.59    5.37
  -6  10  -4   15.04    6.56
  10  -4  -4   19.74    4.86
  -6  10  -4   22.23    6.99
  10  -4  -4   21.55    6.32
  10  -4  -4   27.22    4.21
   6 -10   4   19.03    6.88
   4   6   4   33.70    9.34
   6 -10   4   23.77    7.39
  11  -5  -4    9.79    5.70
  11  -5  -4    6.54    5.04
  11  -5  -4   17.71    4.13
  -6  11  -4   16.33    7.61
  11  -5  -4   16.89    6.69
  11  -5  -4   24.39    5.83
  11  -5  -4   20.07    8.32
  -6  11  -4   21.12    5.38
   6 -11   4   29.44    7.82
   5   6   4   34.35   10.12
  -6  12  -4   -2.31    4.42
  12  -6  -4   -0.48    4.96
  -6  12  -4   11.48    7.29
  12  -6  -4    5.96    7.04
  12  -6  -4    1.09    5.37
  12  -6  -4    2.89    8.29
  12  -6  -4   -0.99    3.88
  12  -6  -4    1.76    5.37
   6   6   4   11.23    9.51
   6 -12   4    5.13    7.30
  13  -7  -4   10.50    5.96
  13  -7  -4   10.84    5.72
  -6  13  -4    9.23    5.21
  13  -7  -4    9.43    5.86
  13  -7  -4    6.09    7.45
  13  -7  -4    9.02    9.58
  -6  13  -4    8.38    7.33
  13  -7  -4    1.13    4.41
   6 -13   4    9.77    8.19
   7   6   4   -1.62    9.60
  12  -7  -4   62.50    5.78
  12  -7  -4   56.72   11.32
  12  -7  -4   59.59    7.46
  -5  12  -4   62.99   10.41
  12  -7  -4   62.62    7.80
  12  -7  -4   50.63    7.79
  -5  12  -4   52.93    7.63
  12  -7  -4   46.92    8.50
   5 -12   4   31.35    9.04
   7   5   4   56.36   12.20
  11  -7  -4   87.21    6.47
  11  -7  -4   84.92    8.23
  -4  11  -4   82.62    8.79
  11  -7  -4   82.77    8.87
  11  -7  -4   79.46   11.97
  -4  11  -4   69.72   10.49
  11  -7  -4   76.08    9.13
   4 -11   4   79.96   10.95
   7   4   4   62.66   11.60
  10  -7  -4   47.11    6.42
  10  -7  -4   57.77    7.30
  -3  10  -4   36.03    8.53
  10  -7  -4   40.56    9.12
  -3  10  -4   33.01    7.56
  10  -7  -4   33.08    4.81
  10  -7  -4   44.28    7.12
   3 -10   4   19.97    7.77
   7   3   4   41.03    9.84
   9  -7  -4   14.90    4.70
  -2   9  -4   20.69    6.84
   9  -7  -4   17.13    6.98
   9  -7  -4   11.91    5.31
   9  -7  -4    6.18    4.95
  -2   9  -4   13.81    7.36
   7   2   4   10.63    7.75
   2  -9   4   24.86    7.63
   8  -7  -4   54.26    7.41
  -1   8  -4   50.32    9.25
  -1   8  -4   51.52    8.38
   8  -7  -4   49.48    8.39
  -8   7   4   75.31    8.93
   7   1   4   40.93    9.35
   1  -8   4   55.22    8.94
  -7   0  -4  470.45   23.12
   0   7  -4  536.87   24.29
   7  -7  -4  523.58   23.05
   7  -7  -4  508.86   22.49
   0   7  -4  522.44   23.59
  -7   0  -4  510.48   19.39
   0  -7   4  501.93   22.74
   7   0   4  503.97   25.07
  -7   7   4  571.26   23.64
  -7   7   4  490.36   22.64
   0  -7   4  518.98   22.62
   7   0   4  536.32   21.32
   1   6  -4   20.97    7.15
  -7   1  -4   18.78    6.04
  -7   1  -4   17.69    6.54
   1   6  -4   16.41    6.00
   6  -7  -4   24.16    6.22
  -7   1  -4   16.86    4.55
   1   6  -4    6.01    6.95
   7  -1   4   22.92    4.59
  -1  -6   4   11.09    6.67
  -6   7   4   15.23    6.30
  -1  -6   4   10.02    6.62
  -1  -6   4    8.23    6.91
   7  -1   4   15.65    7.25
  -6   7   4   18.64    6.49
   5  -7  -4   92.98    7.89
   2   5  -4  144.08   12.01
   2   5  -4  126.85   10.17
  -7   2  -4  128.38   11.26
  -7   2  -4  126.54    9.02
   2   5  -4  155.43   12.30
  -2  -5   4  125.79   10.72
  -5   7   4  131.23   10.94
  -5   7   4  131.97   10.88
  -2  -5   4  137.44   11.21
   7  -2   4  137.84    8.43
  -7   3  -4   82.11    5.13
   4  -7  -4   87.36    6.99
  -7   3  -4   83.67    9.24
   3   4  -4   73.94    8.32
   3   4  -4   63.86    9.06
   3   4  -4   79.35    9.79
  -7   3  -4   86.08    6.93
  -3  -4   4  105.83   10.01
  -3  -4   4   79.15    8.84
  -4   7   4   94.42    9.69
  -4   7   4   85.60    9.04
   7  -3   4   71.57    6.78
  -7   4  -4   -1.31    2.89
  -7   4  -4    5.74    2.94
   3  -7  -4    4.33    4.61
   4   3  -4   -2.65    6.36
   4   3  -4   12.06    7.02
  -7   4  -4    4.57    5.77
  -7   4  -4    8.53    4.60
   4   3  -4    4.52    5.40
  -3   7   4    5.73    6.30
   7  -4   4    2.28    4.65
  -4  -3   4    6.79    5.80
   7  -4   4    0.84    5.35
  -4  -3   4    8.21    5.56
   5   2  -4    5.43    6.79
   5   2  -4   10.81    6.98
  -7   5  -4    4.17    3.16
  -7   5  -4    4.85    3.08
  -7   5  -4   -3.54    5.23
   2  -7  -4    5.17    4.86
  -7   5  -4   12.95    4.85
   5   2  -4    6.26    5.02
   7  -5   4    5.51    4.98
   7  -5   4   -3.65    5.39
  -5  -2   4    6.48    5.82
  -5  -2   4    9.64    5.41
   6   1  -4  140.56    9.92
   6   1  -4  154.26   12.59
   6   1  -4  135.98   11.45
   1  -7  -4  146.73   11.55
  -6  -1   4  155.70   11.36
   7  -6   4  138.46   10.13
   7  -6   4  143.85    7.69
   7  -6   4  150.49   10.75
  -6  -1   4  176.46   11.06
  -7   7  -4  524.63   22.26
  -7   7  -4  507.49   21.26
   7   0  -4  523.06   24.18
   7   0  -4  540.45   21.15
   0  -7  -4  539.28   24.36
   7   0  -4  534.46   23.19
   0   7   4  519.94   23.91
   7  -7   4  543.22   22.79
  -7   0   4  516.49   21.87
  -7   0   4  545.98   20.16
   7  -7   4  538.63   19.14
   7  -7   4  506.62   20.99
  -7   8  -4   66.60    8.39
   8  -1  -4   83.28    9.70
   8  -1  -4   82.63    6.63
   8  -1  -4   83.92    7.88
   8  -1  -4   80.07    8.59
  -7   8  -4   85.66    7.78
  -8   1   4   76.92    7.04
  -8   1   4   69.18    8.33
   1   7   4   75.06    9.99
   7  -8   4   81.34    7.12
   7  -8   4   77.30    8.44
   9  -2  -4  250.40   11.19
  -7   9  -4  260.75   14.75
   9  -2  -4  244.62   12.78
   9  -2  -4  228.42   13.59
  -7   9  -4  251.35   13.64
   9  -2  -4  248.25   15.25
   2   7   4  270.77   17.76
  -9   2   4  243.93   11.54
   7  -9   4  262.47   12.51
  -9   2   4  262.31   15.80
  -9   2   4  242.31   13.99
   7  -9   4  250.64   14.06
  10  -3  -4   37.79    6.28
  10  -3  -4   33.61    7.44
  10  -3  -4   26.63    4.23
  -7  10  -4   17.87    6.22
  10  -3  -4   29.16    5.47
  -7  10  -4   33.35    4.73
 -10   3   4   33.36    7.85
   7 -10   4   40.11    7.79
 -10   3   4   22.48    6.15
   3   7   4   25.91    9.36
   7 -10   4   24.10    6.58
  11  -4  -4   22.77    5.58
  -7  11  -4   19.55    4.51
  11  -4  -4   24.01    5.55
  11  -4  -4   18.95    4.08
  11  -4  -4   22.02    7.32
  -7  11  -4   33.83    7.11
   4   7   4   19.90    9.40
   7 -11   4   17.68    6.82
   7 -11   4   29.80    8.03
  12  -5  -4    1.44    5.90
  12  -5  -4   -9.73    4.39
  12  -5  -4    5.49    8.39
  -7  12  -4   12.03    6.07
  12  -5  -4    0.02    3.91
  12  -5  -4   -2.75    5.07
  -7  12  -4    2.52    4.12
  12  -5  -4    1.26    5.53
   5   7   4    5.08    9.03
   7 -12   4   -8.39    6.39
  -7  13  -4   31.46    5.86
  13  -6  -4   21.32    8.25
  13  -6  -4   27.60   10.66
  13  -6  -4   44.48    5.29
  -7  13  -4   37.29    8.33
  13  -6  -4   43.20    7.50
  13  -6  -4   48.93    7.66
   7 -13   4   29.07    8.44
   6   7   4   41.83   11.53
  14  -7  -4   53.56    5.59
  -7  14  -4   62.58    9.82
  -7  14  -4   48.38    7.29
  14  -7  -4   54.49    9.96
  14  -7  -4   59.65    8.78
  14  -7  -4   43.81   12.46
  14  -7  -4   45.52    7.89
   7   7   4   86.76   14.60
   7 -14   4   51.18   10.15
  15  -8  -4   13.56    6.41
  15  -8  -4   20.59    6.23
  -7  15  -4   21.44    6.39
  15  -8  -4   20.27   12.08
  15  -8  -4   10.52    8.38
   7 -15   4   19.11    9.43
   8   7   4   17.12   11.68
  14  -8  -4    1.47    4.67
  14  -8  -4    6.11    5.56
  14  -8  -4   -3.89    7.05
  14  -8  -4    6.60   11.19
  -6  14  -4   -2.06    5.68
  -6  14  -4  -11.06    6.92
  14  -8  -4   10.15    5.68
   8   6   4    1.35   10.55
   6 -14   4   13.67    8.81
  13  -8  -4   48.55    7.14
  13  -8  -4   76.37    9.51
  13  -8  -4   55.00    8.22
  -5  13  -4   59.15    8.37
  13  -8  -4   51.41   12.41
  13  -8  -4   64.06    6.47
  -5  13  -4   61.26   11.09
   8   5   4   50.64   12.49
   5 -13   4   53.00   10.64
  12  -8  -4   29.01   10.32
  -4  12  -4   14.00    6.16
  12  -8  -4   14.36    3.89
  12  -8  -4   16.04    6.76
  12  -8  -4   16.21    6.13
  -4  12  -4   16.79    8.53
  12  -8  -4   14.00    5.64
   4 -12   4   21.13    8.81
   8   4   4   18.53    9.94
  -3  11  -4    9.31    7.75
  11  -8  -4   14.45    8.66
  11  -8  -4   12.75    5.88
  11  -8  -4    7.02    3.58
  11  -8  -4    6.66    4.82
  -3  11  -4    4.53    6.11
  11  -8  -4   12.77    5.61
   3 -11   4   11.00    8.18
   8   3   4    3.12    8.07
  -2  10  -4   56.06    9.52
  10  -8  -4   27.29    9.15
  10  -8  -4   19.83    6.14
   8   2   4   17.87    8.64
   9  -8  -4    1.10    4.47
  -1   9  -4    3.59    6.62
  -1   9  -4    2.56    7.19
   9  -8  -4   -6.44    6.76
   1  -9   4    5.70    7.10
   8   1   4    6.57    7.69
   0   8  -4   39.30    8.42
   8  -8  -4   50.56    9.02
   8  -8  -4   45.11    7.18
   0   8  -4   53.59    9.55
  -8   0  -4   60.50    6.04
   8   0   4   38.95    9.03
   8   0   4   48.82    6.40
   0  -8   4   50.77    9.01
   1   7  -4   65.72   10.22
  -8   1  -4   80.00    9.32
  -8   1  -4   81.37    6.75
   1   7  -4   66.40   10.02
   8  -1   4   86.68    6.88
  -1  -7   4   77.95   10.06
   8  -1   4   75.11   10.39
  -1  -7   4   69.59    9.78
   2   6  -4   44.63    8.60
  -8   2  -4   -0.36    5.37
   2   6  -4   20.83    7.34
  -8   2  -4    1.65    4.00
  -6   8   4   -2.83    5.81
  -2  -6   4   26.84    7.23
   8  -2   4    1.42    3.46
  -8   3  -4    1.89    4.11
  -8   3  -4   -6.28    5.38
  -8   3  -4    5.52    5.40
  -8   3  -4    9.47    2.39
   3   5  -4    5.36    6.99
   5  -8  -4   -0.42    3.52
   3   5  -4    4.11    6.71
  -3  -5   4   -7.51    5.61
  -5   8   4    2.54    6.02
  -3  -5   4    5.95    6.39
   4   4  -4   50.19    9.31
  -8   4  -4   44.62    3.40
  -8   4  -4   44.04    7.77
   4   4  -4   38.73    7.08
   4   4  -4   42.25    8.46
   4  -8  -4   58.61    5.96
  -8   4  -4   48.79    5.80
   8  -4   4   43.14    5.76
  -4  -4   4   40.97    7.80
  -4   8   4   44.43    7.74
  -4  -4   4   47.28    7.63
   8  -4   4   55.62    8.20
   3  -8  -4   -0.40    4.65
  -8   5  -4   -1.22    4.38
  -8   5  -4   -2.99    5.35
   5   3  -4    6.73    5.55
   5   3  -4   -1.70    6.53
  -8   5  -4    2.04    2.27
  -8   5  -4   -2.64    2.20
   5   3  -4    3.47    7.21
   8  -5   4    2.91    4.59
   8  -5   4    0.25    5.86
  -5  -3   4   -5.25    5.37
  -5  -3   4    8.91    6.08
  -8   6  -4  167.04    7.72
   6   2  -4  187.99   14.57
   6   2  -4  171.56   10.99
   6   2  -4  193.71   13.90
  -8   6  -4  166.10   12.44
  -6  -2   4  152.46   11.96
  -6  -2   4  152.72   11.62
   8  -6   4  153.41   11.62
   8  -6   4  164.79   10.60
   1  -8  -4   40.44    7.63
   7   1  -4   63.32    7.26
  -8   7  -4   54.24    5.66
   7   1  -4   57.76    9.07
   7   1  -4   48.83    7.86
   8  -7   4   62.08    8.27
  -1   8   4   47.50    7.59
  -7  -1   4   46.97    6.76
   8  -7   4   51.15    4.99
  -7  -1   4   45.66    7.67
   8  -7   4   58.59    7.29
  -8   8  -4   45.56    7.68
   8   0  -4   50.58    6.58
   8   0  -4   46.30    7.29
   8   0  -4   37.18    8.04
  -8   8  -4   35.24    5.30
   0   8   4   34.72    7.91
  -8   0   4   53.13    7.93
  -8   0   4   48.68    6.29
   8  -8   4   56.85    7.40
   8  -8   4   41.60    5.27
  -8   9  -4   -5.11    5.78
   9  -1  -4   10.03    6.45
   9  -1  -4    7.93    5.22
   9  -1  -4   17.70    4.75
  -8   9  -4    8.05    4.40
  -9   1   4   11.58    4.67
  -9   1   4    2.60    5.79
   1   8   4    6.28    7.28
   8  -9   4    2.34    6.03
   8  -9   4    4.22    4.60
  10  -2  -4  137.63   12.38
  -8  10  -4  115.60    9.13
  10  -2  -4  114.49    8.82
  10  -2  -4  119.55   10.28
 -10   2   4  101.56   10.86
   8 -10   4  105.71    8.83
   8 -10   4   95.91   10.23
 -10   2   4  101.46    7.70
   2   8   4  131.25   13.65
 -10   2   4  105.38   10.17
  11  -3  -4  196.03   12.13
  11  -3  -4  189.96   13.84
  -8  11  -4  177.20   12.43
  -8  11  -4  175.34    9.22
  11  -3  -4  183.80   11.22
 -11   3   4  204.13   12.33
   8 -11   4  182.91   11.74
   8 -11   4  182.81   13.38
 -11   3   4  166.55   13.95
   3   8   4  201.37   17.15
  -8  12  -4   24.06    4.52
  12  -4  -4   11.18    3.98
  12  -4  -4   36.98    8.12
  12  -4  -4   20.94    5.99
  -8  12  -4   35.30    7.00
   8 -12   4   25.95    6.98
   8 -12   4    9.44    7.50
   4   8   4   17.45    9.85
  13  -5  -4   75.51    8.85
  -8  13  -4   94.76   10.59
  13  -5  -4   85.01   13.38
  13  -5  -4   88.74   10.89
  -8  13  -4   92.05    7.59
  13  -5  -4   99.15   10.68
  13  -5  -4   99.42    6.99
   5   8   4   81.97   14.00
   8 -13   4   92.19   10.77
  14  -6  -4   39.95    7.30
  -8  14  -4   37.79    5.86
  14  -6  -4   37.09    4.96
  14  -6  -4   17.34   11.80
  -8  14  -4   36.20    8.68
  14  -6  -4   26.51    8.24
  14  -6  -4   38.09    8.40
   8 -14   4   18.74    8.76
   6   8   4   32.18   12.06
  15  -7  -4   -2.47    7.52
  15  -7  -4   -0.84   10.93
  15  -7  -4    9.27    6.21
  -8  15  -4   -7.83    4.20
  15  -7  -4   29.35    7.66
   7   8   4    2.60   10.98
   8 -15   4   -9.35    8.05
  16  -8  -4   15.07    7.01
  16  -8  -4    9.57    5.92
  16  -8  -4    7.24    8.54
  16  -8  -4   -9.61   11.39
   8 -16   4    5.40    8.68
   8   8   4   11.22   12.66
  -7  16  -4   50.05    7.57
  16  -9  -4   44.99    7.90
  16  -9  -4   40.99    8.19
  16  -9  -4   23.79    8.73
  16  -9  -4   31.68   13.38
   7 -16   4   30.45   10.52
   9   7   4   68.55   14.92
  15  -9  -4   33.64    8.50
  15  -9  -4   35.99    6.98
  15  -9  -4   18.20    6.44
  15  -9  -4   20.91   12.33
  -6  15  -4   22.72    6.93
  15  -9  -4   24.43    6.10
   9   6   4   15.99   11.62
   6 -15   4   16.82    9.38
  14  -9  -4  109.98   11.37
  -5  14  -4  117.07   11.26
  14  -9  -4  137.46   11.57
  -5  14  -4  112.95   13.96
  14  -9  -4  120.04    8.37
  14  -9  -4  126.49    9.14
  14  -9  -4  102.53   15.48
   5 -14   4  112.94   13.65
   9   5   4  115.11   15.82
  13  -9  -4    5.36    3.71
  13  -9  -4    2.84    6.79
  13  -9  -4   -3.57   10.43
  13  -9  -4    3.08    5.83
  -4  13  -4    0.04    9.10
  -4  13  -4    1.84    6.28
   9   4   4   19.98   11.22
   4 -13   4    2.91    9.15
  12  -9  -4    8.24    5.00
  -3  12  -4   -3.68    8.38
  12  -9  -4   -6.94    5.47
  12  -9  -4   -1.70    8.89
  -3  12  -4    6.26    6.38
   9   3   4   -4.24    8.61
   3 -12   4   -7.90    7.93
  -2  11  -4   15.90    7.49
  11  -9  -4   13.01    5.33
  -2  11  -4   27.61    9.15
  11  -9  -4   22.40    9.75
   9   2   4   10.98    8.77
   2 -11   4   31.63    9.17
  10  -9  -4   56.53    7.98
  -1  10  -4   65.24   10.17
  10  -9  -4   75.44   11.67
  -1  10  -4   49.81   10.65
   9   1   4   64.79   11.62
   1 -10   4   50.63   10.25
  -9   0  -4  128.87    7.99
   0   9  -4  108.31   11.91
   9  -9  -4  127.16   13.18
   0   9  -4   99.74   12.02
   0  -9   4  124.46   13.11
   9   0   4  118.24    9.70
   9   0   4  111.16   13.31
   1   8  -4    6.91    7.45
  -9   1  -4    8.18    3.69
   1   8  -4  -11.85    6.61
   9  -1   4    5.35    7.36
  -1  -8   4    5.62    7.44
   9  -1   4   -2.38    4.31
   7  -9  -4  238.60   10.22
  -9   2  -4  231.15   15.09
  -9   2  -4  242.17   11.10
   2   7  -4  238.32   16.63
   2   7  -4  226.44   16.06
  -2  -7   4  230.91   15.85
   9  -2   4  241.51   16.70
  -2  -7   4  267.95   16.89
   9  -2   4  233.27   11.50
  -9   3  -4   22.85    2.72
   3   6  -4   31.24    8.58
   6  -9  -4   30.02    4.01
  -9   3  -4   21.84    2.90
   3   6  -4   28.40    8.59
  -9   3  -4   25.00    4.43
  -9   3  -4   28.76    6.93
  -3  -6   4   13.51    7.78
  -3  -6   4   25.74    7.80
  -9   4  -4    4.82    3.72
   4   5  -4    9.53    7.40
   4   5  -4    7.28    7.16
  -9   4  -4    4.86    1.70
  -9   4  -4    1.90    5.27
  -4  -5   4    4.72    6.44
   9  -4   4    3.77    4.17
  -4  -5   4   -4.72    6.29
   5   4  -4    1.44    6.80
  -9   5  -4    5.69    4.20
  -9   5  -4    5.87    5.06
  -9   5  -4   11.39    6.06
   5   4  -4    6.53    7.37
   9  -5   4    0.16    4.36
   9  -5   4    7.81    6.40
  -5  -4   4   10.49    6.81
  -5  -4   4   10.56    6.20
   6   3  -4  153.86   13.82
   6   3  -4  155.44   13.29
  -9   6  -4  143.93   11.82
  -6  -3   4  121.13   11.37
   9  -6   4  135.19   11.55
  -6  -3   4  144.04   10.89
   9  -6   4  146.86    9.55
  -9   7  -4   19.85    6.45
   2  -9  -4   18.51    6.51
  -9   7  -4   16.40    2.61
   7   2  -4   33.39    7.55
   7   2  -4    9.77    7.71
  -7  -2   4    9.72    6.42
  -2   9   4   17.45    6.04
   9  -7   4   16.68    7.13
   9  -7   4   13.18    3.08
   9  -7   4   16.29    5.61
  -7  -2   4   29.42    6.47
   9  -7   4   13.43    3.37
   8   1  -4   -4.23    5.28
   8   1  -4    1.32    5.95
  -9   8  -4   -7.84    3.15
  -9   8  -4    2.44    5.23
  -8  -1   4    7.66    5.89
  -8  -1   4   -8.02    4.94
   9  -8   4   -7.35    6.47
   9  -8   4   -8.09    4.60
  -1   9   4    5.57    5.95
   9  -8   4   -0.40    3.38
   9   0  -4  105.11   10.38
   9   0  -4  123.29   12.34
  -9   9  -4  106.64    8.12
   9  -9   4  107.41    7.43
   0   9   4  131.77   12.29
  -9   0   4  110.96    8.51
  -9   0   4  112.86   10.70
   9  -9   4  108.51    9.55
  -9  10  -4   27.63    5.45
  10  -1  -4   26.52    7.83
  10  -1  -4   30.41    6.68
   9 -10   4   16.28    5.51
   1   9   4   30.70    9.12
 -10   1   4   38.26    5.61
 -10   1   4   27.28    7.30
   9 -10   4   15.34    6.85
  11  -2  -4   19.41    5.86
  -9  11  -4   26.92    3.67
  -9  11  -4   28.18    5.98
  11  -2  -4   27.40    7.80
 -11   2   4   33.08    4.53
 -11   2   4   17.29    6.77
 -11   2   4   15.98    7.60
   9 -11   4   21.63    7.34
   9 -11   4   22.37    6.19
   2   9   4   21.08    9.19
  12  -3  -4   -3.29    4.64
  12  -3  -4   -0.20    5.92
  -9  12  -4    6.66    5.19
  -9  12  -4    3.15    3.04
   9 -12   4   -5.43    5.82
   9 -12   4    7.50    7.11
   3   9   4    6.23    9.29
 -12   3   4   -8.10    6.92
 -12   3   4   -1.53    5.65
  -9  13  -4   29.70    7.44
  13  -4  -4   33.33    8.71
  -9  13  -4   32.94    4.89
  13  -4  -4   26.54    6.40
   9 -13   4   27.12    8.77
   4   9   4   33.06   11.69
   9 -13   4   25.33    7.57
  14  -5  -4   -4.13    4.95
  14  -5  -4   -1.27    6.41
  -9  14  -4   -2.04    3.65
  14  -5  -4   13.66    7.41
  14  -5  -4  -13.55    9.85
   9 -14   4    1.50    7.13
   5   9   4  -11.58    9.76
  15  -6  -4   18.33    7.75
  -9  15  -4   -3.18    3.66
  15  -6  -4   -4.23    6.40
  15  -6  -4  -19.33    4.59
  15  -6  -4    2.04   10.87
   9 -15   4    0.50    7.79
   6   9   4   -7.26   10.53
  16  -7  -4  -19.06   10.55
  16  -7  -4  -22.43    6.44
  16  -7  -4   10.66    7.56
  16  -7  -4   -3.65    6.41
   7   9   4    1.36   11.64
   9 -16   4  -11.66    7.89
  16 -10  -4    5.96    5.47
  16 -10  -4    8.13   12.50
  -6  16  -4   14.30    6.02
  16 -10  -4   -3.92    4.70
  16 -10  -4   -0.41    7.19
   6 -16   4   16.59   10.16
  10   6   4   -0.54   11.38
  -5  15  -4   19.19    7.09
  15 -10  -4    5.45    5.05
  15 -10  -4    6.56    6.81
  15 -10  -4    3.20    4.97
  15 -10  -4    6.59    5.07
  15 -10  -4   11.22   11.16
  10   5   4   16.15   11.50
   5 -15   4   10.69    9.80
  14 -10  -4  112.45    8.31
  14 -10  -4   79.92    8.99
  14 -10  -4   83.87    7.96
  14 -10  -4   83.78   14.79
  -4  14  -4   85.42   10.38
  -4  14  -4   88.42   13.74
  14 -10  -4   86.58    9.78
  10   4   4   75.76   14.36
   4 -14   4   67.24   12.54
  -3  13  -4   54.47    9.33
  13 -10  -4   66.26    8.43
  13 -10  -4   66.49    6.74
  13 -10  -4   54.39    8.02
  -3  13  -4   73.45   12.65
  13 -10  -4   58.11   12.89
   3 -13   4   71.03   12.24
  10   3   4   56.83   12.71
  -2  12  -4   22.43    9.71
  12 -10  -4   38.66   11.05
  -2  12  -4   41.00    8.23
   2 -12   4   22.00    9.76
  10   2   4   13.92    9.68
 -10  -1  -4  249.92   11.90
  -1  11  -4  247.18   16.43
  -1  11  -4  220.88   18.60
  11 -10  -4  226.45   18.61
  11 -10  -4  285.03   10.67
   1 -11   4  197.48   17.29
  10   1   4  213.65   19.14
  10 -10  -4  114.69   13.06
   0  10  -4  105.49   12.80
   0  10  -4   89.48   11.47
 -10   0  -4   86.18    6.99
  10   0   4   83.60   12.66
   0 -10   4   73.71   11.68
   1   9  -4   17.62    8.60
 -10   1  -4   31.98    4.59
   1   9  -4   27.75    9.67
  -1  -9   4   33.74    9.38
  10  -1   4   15.86    9.32
  10  -1   4   28.27    5.59
 -10   2  -4   99.68    7.36
   2   8  -4   87.69   11.62
   2   8  -4  103.46   12.24
  10  -2   4   95.92    8.16
  10  -2   4   99.48   12.02
  -2  -8   4   91.71   11.68
 -10   3  -4   33.14    7.20
   3   7  -4   42.94    9.55
   3   7  -4   26.21    8.53
 -10   3  -4   35.39    4.70
  -3  -7   4   24.20    8.22
  10  -3   4   30.90    3.93
  -3  -7   4   41.31    8.94
 -10   4  -4   34.93    4.73
   4   6  -4   31.15    8.75
 -10   4  -4   32.93    6.46
   4   6  -4   25.47    8.49
  -4  -6   4   25.66    8.30
  -4  -6   4   24.06    8.25
   5   5  -4   78.73   10.63
 -10   5  -4   88.38    6.81
 -10   5  -4   73.30    8.22
   5   5  -4   64.07   10.82
  10  -5   4   69.41    6.60
  -5  -5   4   80.47   10.66
  10  -5   4   82.72   10.25
  -5  -5   4   74.53    9.37
   6   4  -4  365.71   20.89
 -10   6  -4  338.90   16.53
   6   4  -4  357.20   20.12
  10  -6   4  355.97   18.59
  -6  -4   4  340.24   18.37
  -6  -4   4  349.64   17.89
  10  -6   4  326.75   14.68
   7   3  -4   43.22    9.89
 -10   7  -4   30.97    5.76
 -10   7  -4   46.45    7.80
   7   3  -4   20.85    8.70
   3 -10  -4   35.18    7.34
  10  -7   4   43.25    6.60
  -7  -3   4   44.25    7.53
  10  -7   4   35.44    8.28
  -7  -3   4   44.93    8.45
 -10   8  -4   28.53    6.79
   8   2  -4   39.13    8.56
 -10   8  -4   28.32    4.43
 -10   8  -4   19.67    3.71
   8   2  -4   20.33    8.71
  -8  -2   4   28.95    6.51
  10  -8   4   31.05    3.41
  -2  10   4   26.35    6.34
  -8  -2   4   29.88    7.54
  10  -8   4   19.81    3.55
  10  -8   4   29.06    8.26
  10  -8   4   33.99    6.42
   9   1  -4   59.12    9.20
 -10   9  -4   82.00    9.21
   9   1  -4   74.33   10.56
 -10   9  -4   73.10    6.14
  10  -9   4   66.56   10.46
  -9  -1   4   73.11    9.75
  10  -9   4   54.98    7.94
  -9  -1   4   53.73    7.49
  10  -9   4   66.50    5.52
  -1  10   4   66.11    9.17
 -10  10  -4   88.43    7.16
  10   0  -4   93.66   10.24
  10   0  -4   96.06   11.84
 -10  10  -4  102.55    9.79
 -10   0   4   89.88    7.77
  10 -10   4   96.50    7.27
   0  10   4  103.75   12.02
 -10   0   4   76.73    9.51
  10 -10   4   97.11    9.60
 -10  11  -4   10.08    4.39
  11  -1  -4   31.14    8.23
  11  -1  -4   21.73    6.27
   1  10   4   23.08    9.14
  10 -11   4    7.82    6.91
 -11   1   4   16.46    6.92
  10 -11   4   11.44    5.37
 -10  12  -4   33.92    6.09
  12  -2  -4   25.26    6.48
 -10  12  -4   26.78    3.22
  12  -2  -4   10.17    6.87
   2  10   4   21.19   10.13
 -12   2   4   31.37    8.55
  10 -12   4   17.20    6.32
 -12   2   4   23.81    7.47
  10 -12   4   25.88    7.64
  13  -3  -4   93.43   11.91
 -10  13  -4  104.09    9.68
  13  -3  -4   92.06    9.70
 -10  13  -4  107.71    6.29
   3  10   4  104.39   14.69
  10 -13   4  100.88   11.60
 -13   3   4  136.08   11.47
 -13   3   4  119.72   12.41
  10 -13   4   87.05    9.74
  14  -4  -4   -0.07    6.64
  14  -4  -4    4.81    5.83
 -10  14  -4    9.45    2.87
  10 -14   4    8.89    7.03
  10 -14   4   -2.67    7.11
   4  10   4   11.58   11.20
  15  -5  -4   24.72    8.41
  15  -5  -4   22.06    8.74
  15  -5  -4   25.00    6.88
  10 -15   4   20.58    8.24
   5  10   4   39.87   12.94
  16  -6  -4   -1.16    7.05
  16  -6  -4    9.18    7.75
  16  -6  -4   -9.83    5.66
  16  -6  -4    5.62   12.41
  10 -16   4   -0.95    8.03
   6  10   4    5.24   11.59
  16 -11  -4    9.33    7.03
  16 -11  -4   19.28   12.55
  -5  16  -4    3.66    6.64
  11   5   4    1.21   11.66
   5 -16   4    9.30   10.11
  15 -11  -4   34.98    5.91
  15 -11  -4   42.49    7.76
  15 -11  -4   19.84    5.01
  15 -11  -4   37.09   13.16
  -4  15  -4   37.61    8.60
   4 -15   4   29.83   10.91
  11   4   4   17.77   12.30
  14 -11  -4   10.29    6.35
  14 -11  -4   -9.99    3.21
  -3  14  -4    2.54    9.56
  -3  14  -4    6.68    6.82
  14 -11  -4   33.13   12.19
   3 -14   4    3.47    9.58
  11   3   4    6.80   11.09
  -2  13  -4   15.32    7.66
  13 -11  -4   18.35   11.00
  13 -11  -4    7.09    5.77
  -2  13  -4   18.36   10.26
   2 -13   4   10.25   10.03
  11   2   4    9.82   10.13
  -1  12  -4    8.74    9.00
  -1  12  -4   14.68   10.60
 -11  -1  -4   11.98    4.66
  12 -11  -4    5.72   10.46
   1 -12   4   21.47   10.43
  11   1   4   25.42   11.22
   0  11  -4   33.29    9.10
   0  11  -4   32.54   10.40
  11 -11  -4   41.02   10.82
 -11   0  -4   37.16    5.05
  11   0   4   32.02   10.50
   0 -11   4   22.58    9.55
   1  10  -4    8.22    8.13
 -11   1  -4    4.55    3.51
   1  10  -4    0.30    8.46
  -1 -10   4    0.60    8.23
  11  -1   4    4.94    8.96
  11  -1   4   11.08    5.25
   2   9  -4   28.55    9.31
   2   9  -4   20.04    9.38
 -11   2  -4   22.35    3.98
  -2  -9   4   26.18    9.18
  11  -2   4   23.41    9.22
  11  -2   4   25.08    4.68
   3   8  -4  195.42   16.39
   3   8  -4  188.56   15.70
 -11   3  -4  185.29    9.07
 -11   3  -4  170.25    6.94
  11  -3   4  170.83    8.56
  11  -3   4  172.69   15.79
  -3  -8   4  174.65   15.88
 -11   4  -4   13.04    6.48
   4   7  -4   17.47    8.90
   4   7  -4   16.90    9.07
 -11   4  -4   19.19    4.04
  -4  -7   4   11.89    8.01
  -4  -7   4   42.20    9.53
   5   6  -4   22.53    9.14
   5   6  -4   28.90    9.46
 -11   5  -4   32.23    6.63
  -5  -6   4   36.21    9.05
  -5  -6   4   22.30    8.86
  11  -5   4   27.01    8.33
   6   5  -4   60.74   10.74
   6   5  -4   61.37   10.72
 -11   6  -4   47.92    7.28
   5 -11  -4   54.88    7.99
  11  -6   4   59.90    9.69
  11  -6   4   63.39    6.64
  -6  -5   4   57.44    9.53
  -6  -5   4   42.56    9.56
   7   4  -4   76.12   11.37
   4 -11  -4   79.09    9.20
 -11   7  -4   84.78    7.74
   7   4  -4   82.72   12.17
  -7  -4   4   69.21    9.49
  -7  -4   4   63.67   10.17
  11  -7   4   87.55    7.75
  11  -7   4   68.96   10.71
   8   3  -4   14.64    7.98
 -11   8  -4    9.26    2.94
 -11   8  -4    9.21    3.87
   8   3  -4   13.11    9.21
  -8  -3   4    7.76    6.69
  11  -8   4   22.03    8.41
  -8  -3   4    2.52    6.34
  11  -8   4    1.84    5.42
  -3  11   4    9.66    5.14
 -11   9  -4   10.43    5.59
 -11   9  -4   12.02    3.75
   9   2  -4   12.51    8.78
   9   2  -4   15.25    6.94
 -11   9  -4    8.02    2.96
  -2  11   4    7.71    5.38
  11  -9   4   -1.11    7.71
  11  -9   4   20.36    6.28
  -9  -2   4   20.50    7.48
  -9  -2   4   24.35    6.63
  11  -9   4   11.42    3.09
 -11  10  -4  237.62   14.81
  10   1  -4  233.69   17.04
 -11  10  -4  224.40   10.98
  10   1  -4  237.98   15.29
 -11  10  -4  242.06   10.72
  11 -10   4  228.66   13.50
 -10  -1   4  218.83   14.89
  -1  11   4  288.11   17.08
  11 -10   4  238.90   10.26
 -10  -1   4  259.49   13.66
  11 -10   4  245.88   18.76
 -11  11  -4   28.19    6.45
  11   0  -4   37.98    8.03
 -11  11  -4   34.93    3.50
 -11  11  -4   38.19    4.90
  11   0  -4   35.15    8.80
  11 -11   4   33.40    7.60
  11 -11   4   27.05    5.36
   0  11   4   31.76    8.49
 -11   0   4   43.74    8.50
 -11   0   4   37.01    5.53
 -11  12  -4  110.25   10.29
 -11  12  -4   89.78    7.68
  12  -1  -4   90.29   10.79
  12  -1  -4  108.81   13.05
   1  11   4   53.85   11.82
  11 -12   4   87.03   10.63
 -12   1   4   80.50    7.02
 -12   1   4   76.71   10.26
  11 -12   4   85.56    8.37
  13  -2  -4   72.01   10.79
  13  -2  -4   68.27    9.21
  11 -13   4   83.41    8.92
 -13   2   4   98.70   10.69
  11 -13   4   52.13    9.63
 -13   2   4   88.79   11.52
   2  11   4   66.29   13.30
  14  -3  -4   -3.03    5.34
  14  -3  -4   -6.49    6.55
  11 -14   4    1.32    6.53
 -14   3   4    4.79    6.68
 -14   3   4   -0.29    7.78
  11 -14   4    2.31    7.65
   3  11   4    8.07   10.34
  15  -4  -4   -3.64    6.63
  15  -4  -4   -5.66    5.52
  11 -15   4    7.89    7.19
  11 -15   4   -1.69    7.27
   4  11   4   -4.94   10.66
  16  -5  -4   28.78    9.05
  16  -5  -4   16.78    6.51
  16  -5  -4   -2.12    7.90
  11 -16   4   16.20    8.23
   5  11   4    9.32   11.98
 -12  -4  -4    3.48    6.61
  -4  16  -4    5.71    7.42
  16 -12  -4    4.62   12.68
  12   4   4   11.85   12.30
   4 -16   4    2.85   10.25
  -3  15  -4   22.14    8.54
  15 -12  -4   25.77    6.61
 -12  -3  -4   28.27    7.13
  15 -12  -4   11.41   12.42
   3 -15   4   45.30   11.88
  12   3   4   23.70   12.09
 -12  -2  -4   -0.75    5.75
  -2  14  -4   17.33    8.33
  -2  14  -4  -16.95    9.58
  14 -12  -4    2.53    5.60
  14 -12  -4   10.40   11.15
  12   2   4   -1.00   10.36
   2 -14   4   14.79   10.87
  13 -12  -4   27.50   11.27
  -1  13  -4   53.70   10.72
 -12  -1  -4   57.27    6.76
  -1  13  -4   38.95   11.99
   1 -13   4   41.60   11.45
  12   1   4   42.09   12.65
 -12   0  -4    8.45    3.51
  12 -12  -4   -2.33    9.67
   0  12  -4   -2.80    9.71
   0  12  -4   -6.89    8.40
 -12   0  -4   -2.13    4.05
   0 -12   4    6.64    9.66
  12   0   4   -5.89    9.50
 -12   1  -4   86.66    6.76
   1  11  -4   72.82   12.06
   1  11  -4   93.98   14.05
 -12   1  -4   79.52    6.41
  -1 -11   4   84.40   13.22
  12  -1   4   59.86   12.57
  12  -1   4   93.44    8.44
 -12   2  -4   25.13    4.25
   2  10  -4   35.15   10.99
   2  10  -4   28.87    9.82
 -12   2  -4   31.83    4.01
  12  -2   4   42.45   10.90
  12  -2   4   31.15    5.21
  -2 -10   4   11.59    9.35
 -12   3  -4   -0.37    2.80
 -12   3  -4    3.50    2.01
   3   9  -4   -4.58    8.33
   3   9  -4   -3.55    8.57
  -3  -9   4   -4.05    8.05
  12  -3   4    3.10    9.01
  12  -3   4    6.89    3.36
   4   8  -4   22.32    9.44
 -12   4  -4   18.28    3.62
  -4  -8   4   35.77   10.20
   5   7  -4   -4.59    8.40
   5   7  -4    5.56    8.22
 -12   5  -4   14.80    6.61
  12  -5   4    6.58    7.99
  -5  -7   4    9.28    8.46
  -5  -7   4    3.17    8.09
   6   6  -4   12.23    9.46
   6 -12  -4    9.42    5.75
   6   6  -4   -1.67    7.96
 -12   6  -4    2.99    5.47
  -6  -6   4   -5.38    7.21
  -6  -6   4    2.46    7.41
  12  -6   4    1.42    8.00
   7   5  -4   51.58   10.66
   5 -12  -4   68.77    8.88
 -12   7  -4   56.12    6.75
   7   5  -4   63.25   11.35
  12  -7   4   68.91    6.93
  12  -7   4   59.29   10.21
  -7  -5   4   57.38    9.44
  -7  -5   4   57.77   10.63
 -12   8  -4   16.59    2.88
   8   4  -4   19.79    9.49
 -12   8  -4   11.66    4.27
   8   4  -4   14.90    9.31
  12  -8   4   20.59    5.59
  12  -8   4   15.02    8.53
  -8  -4   4   15.53    7.85
  -8  -4   4    8.59    6.99
   9   3  -4    8.65    8.76
 -12   9  -4    1.99    3.26
 -12   9  -4    1.42    2.13
   9   3  -4   11.82    8.47
  -3  12   4    2.43    4.74
  12  -9   4    1.99    8.23
  -9  -3   4   -0.87    7.13
  12  -9   4   10.39    5.92
  -9  -3   4    0.89    6.09
 -12  10  -4   24.89    3.91
 -12  10  -4   29.18    3.32
  10   2  -4   25.80   10.02
  10   2  -4   45.01    9.39
 -10  -2   4   33.52    7.13
  -2  12   4   24.57    6.90
  12 -10   4   38.79    7.34
 -10  -2   4   23.94    7.65
  12 -10   4   16.31    8.87
  11   1  -4   23.04    9.12
  11   1  -4    9.37    7.56
  12 -11   4   11.79    9.39
  -1  12   4   24.16    8.64
  12 -11   4   21.63    4.40
  12 -11   4   23.54    7.42
 -11  -1   4   23.74    5.78
 -11  -1   4   16.28    7.95
 -12  12  -4    3.20    4.35
  12   0  -4    6.80    6.70
  12   0  -4    5.12    7.16
 -12   0   4   -1.12    6.82
   0  12   4    4.14    7.66
  12 -12   4   -1.94    6.44
 -12   0   4    4.10    4.22
  12 -12   4   -5.38    4.44
 -12  13  -4   14.05    4.79
  13  -1  -4   -1.65    7.13
  13  -1  -4    0.02    6.16
   1  12   4    3.84    8.10
  12 -13   4    5.35    5.82
 -13   1   4   -2.25    6.51
 -13   1   4    9.29    3.85
  12 -13   4   -0.04    6.74
  14  -2  -4  111.52   13.39
  14  -2  -4   90.93   10.88
   2  12   4  126.11   15.92
  12 -14   4   77.03   10.61
 -14   2   4   99.98   12.32
 -14   2   4   91.20   11.00
  12 -14   4   88.28    9.47
  15  -3  -4    3.09    7.63
  15  -3  -4   15.83    6.63
   3  12   4   17.88   11.67
  12 -15   4   10.91    7.20
 -15   3   4   -2.23    8.33
  12 -15   4   17.35    8.57
 -15   3   4   14.36    6.95
  16  -4  -4   73.38    9.45
  16  -4  -4   78.95   12.22
  12 -16   4   59.47    9.60
  12 -16   4   35.02    9.88
   4  12   4   58.51   14.75
  -2  15  -4   62.58   11.09
  15 -13  -4   56.85   14.15
 -13  -2  -4   70.86    8.77
   2 -15   4   67.28   13.79
  13   2   4   64.11   14.73
  14 -13  -4   63.43   13.66
  14 -13  -4   51.35    6.78
 -13  -1  -4   44.91    6.32
  -1  14  -4   52.01   10.70
   1 -14   4   51.92   12.76
  13   1   4   63.23   13.67
   0  13  -4    7.76   10.72
   0  13  -4    4.62    9.08
 -13   0  -4    0.21    3.80
  13   0   4   -2.27   10.58
   0 -13   4   -3.83    9.69
   1  12  -4    6.71    9.19
 -13   1  -4    1.83    3.49
   1  12  -4  -17.46    9.18
  13  -1   4   17.40   10.65
  13  -1   4   -5.51    5.26
  -1 -12   4   12.32    9.83
   2  11  -4   61.57   13.15
   2  11  -4   63.78   12.23
 -13   2  -4   75.36    5.38
  13  -2   4   75.73    7.09
  -2 -11   4  102.38   14.31
  13  -2   4   80.45   13.45
   3  10  -4   92.58   14.20
   3  10  -4  106.17   13.91
 -13   3  -4  105.31    6.86
 -13   3  -4  118.54    8.57
  -3 -10   4   84.86   13.58
  13  -3   4  100.24    7.48
  13  -3   4  102.36   14.15
 -13   4  -4   27.24    3.98
   4   9  -4   18.70   10.53
   4   9  -4   31.77   10.44
  13  -4   4   29.47   10.33
  -4  -9   4   14.91    9.97
   5   8  -4   79.08   12.58
   5   8  -4   96.58   13.57
   8 -13  -4   93.07    9.07
  -5  -8   4   63.98   11.84
  -5  -8   4  111.11   13.59
   6   7  -4   32.71   10.93
   7 -13  -4   35.45    7.12
   6   7  -4   29.00   10.56
 -13   6  -4   42.97    7.58
  13  -6   4   45.67    9.93
  -6  -7   4   31.67   10.09
  -6  -7   4   25.68    9.70
   7   6  -4   19.99    9.87
 -13   7  -4   13.64    4.69
   6 -13  -4   -3.60    5.78
   7   6  -4   10.51    9.51
  -7  -6   4   -6.73    7.56
  13  -7   4    7.36    8.32
  -7  -6   4   23.86    9.54
  13  -7   4    8.06    4.59
   8   5  -4   59.44   11.76
 -13   8  -4   77.67    7.12
   8   5  -4   48.66   11.51
 -13   8  -4   53.31    3.98
  -8  -5   4   55.17   10.54
  13  -8   4   59.36   10.95
  13  -8   4   58.08    6.68
  -8  -5   4   39.37    9.17
   9   4  -4    5.25    9.72
   9   4  -4   19.89    9.86
 -13   9  -4    9.16    3.94
  13  -9   4   -0.36    8.58
  -9  -4   4    9.35    8.34
  -9  -4   4   10.77    7.22
  13  -9   4   19.85    6.35
  10   3  -4   43.47   11.06
 -13  10  -4   53.53    5.05
  10   3  -4   48.33   11.82
  13 -10   4   67.28   11.56
 -10  -3   4   47.82   10.00
  13 -10   4   52.87    8.04
  -3  13   4   57.12    8.04
 -10  -3   4   64.79    8.91
  11   2  -4    2.16    9.56
  11   2  -4   21.21    9.34
  13 -11   4    2.36    6.24
 -11  -2   4    1.49    7.52
 -11  -2   4    4.39    5.40
  -2  13   4    2.42    6.38
  13 -11   4   16.49   10.35
  12   1  -4   53.03   10.43
  12   1  -4   51.35   11.52
 -12  -1   4   38.49    9.14
  13 -12   4   48.57    8.54
  13 -12   4   46.32    5.07
 -12  -1   4   52.22    6.51
  -1  13   4   39.23    9.39
  13   0  -4   -4.29    7.33
  13   0  -4    3.42    6.68
 -13   0   4   -1.76    3.37
   0  13   4    6.93    7.72
  13 -13   4    9.16    7.44
 -13   0   4   12.90    7.28
  13 -13   4   -6.13    4.66
  14  -1  -4    3.20    8.25
  14  -1  -4   11.27    6.84
   1  13   4    9.26    9.07
 -14   1   4    4.79    7.18
  13 -14   4    7.36    5.72
  13 -14   4    0.51    7.05
  15  -2  -4   10.54    8.81
  15  -2  -4    9.12    6.74
  13 -15   4   10.13    7.86
 -15   2   4   13.90    7.91
 -15   2   4    9.67    9.11
   2  13   4   11.59   10.34
  13 -15   4    3.39    6.31
  -1  15  -4   10.93    9.77
  15 -14  -4    8.73   11.62
   1 -15   4   17.10   11.81
  14   1   4   23.63   12.64
   0  14  -4   23.30   10.94
  14   0   4   48.91   13.44
   0 -14   4   57.26   13.23
   1  13  -4   22.16   10.36
   1  13  -4   34.01   12.20
  14  -1   4   14.91   11.42
  -1 -13   4    2.47    9.99
   2  12  -4   88.01   14.71
   2  12  -4   93.40   14.21
  14  -2   4   83.70   14.28
  -2 -12   4   87.36   14.35
   3  11  -4    6.32   10.34
   3  11  -4   13.35   10.16
  -3 -11   4    4.97    9.75
  14  -3   4   12.79   10.77
   4  10  -4    0.37    9.63
   4  10  -4   15.35   10.55
  -4 -10   4    9.12    9.88
  14  -4   4   12.93   10.11
   5   9  -4   -7.37    9.78
   9 -14  -4   -7.38    5.02
   5   9  -4   -5.32    9.56
  -5  -9   4    2.53    9.24
   6   8  -4   26.99   10.97
   8 -14  -4   29.92    6.94
   6   8  -4   32.68   11.50
  -6  -8   4   26.82   10.26
  14  -6   4   48.04   11.04
  -6  -8   4   32.52   10.63
   7   7  -4   56.40   12.72
   7   7  -4   54.69   12.16
 -14   7  -4   52.23    7.91
   7 -14  -4   58.95    8.04
  -7  -7   4   75.11   11.75
  14  -7   4   38.35   10.45
  -7  -7   4   36.03   10.91
   8   6  -4    7.63    9.86
   8   6  -4   28.57   11.18
 -14   8  -4   -4.30    3.09
  14  -8   4   -4.09    9.22
  -8  -6   4   -7.24    7.69
  -8  -6   4    7.14   10.93
  14  -8   4   -2.72    4.32
   9   5  -4  100.48   14.71
   9   5  -4  103.26   14.38
  -9  -5   4  121.04   12.21
  14  -9   4  124.10   14.06
  -9  -5   4  105.69   13.31
  14  -9   4  113.23    8.78
  10   4  -4   72.78   13.05
  10   4  -4   94.19   14.38
  -4  14   4   81.37    8.53
  14 -10   4   95.14   13.08
  14 -10   4   93.75    9.04
 -10  -4   4  108.24   11.23
 -10  -4   4   80.67   11.91
  11   3  -4   12.47   10.48
  11   3  -4   -2.45    9.18
  14 -11   4    4.70    9.47
  -3  14   4   11.45    5.38
 -11  -3   4   13.46    8.36
 -11  -3   4   15.28    7.11
  14 -11   4   -2.26    6.44
  12   2  -4    2.04   10.26
  12   2  -4   13.58    9.42
  -2  14   4    8.23    6.18
  14 -12   4   -1.42    9.95
  14 -12   4    0.93    6.62
 -12  -2   4   11.23    5.28
 -12  -2   4    5.17    7.84
  13   1  -4   72.95   11.72
  13   1  -4   81.88   14.08
  -1  14   4   64.09   10.93
 -13  -1   4   48.84    9.84
  14 -13   4   52.61    9.23
 -13  -1   4   72.05    6.68
  14   0  -4   41.04   11.96
  14   0  -4   28.78    8.90
   0  14   4   39.97   10.47
 -14   0   4   49.14    9.52
  14 -14   4   53.95    9.35
  15  -1  -4    2.47    7.17
  15  -1  -4    5.17    8.56
 -15   1   4   -5.50    7.29
   1  14   4    7.29    9.51
  14 -15   4    4.56    7.84
   1  14  -4   -1.72   10.39
  -1 -14   4   -1.83   10.18
  15  -1   4    3.09   11.30
   2  13  -4   14.02   10.97
  15  -2   4   15.09   11.50
  -2 -13   4   11.84   10.69
   3  12  -4   -1.01   10.05
   3  12  -4    2.23   11.20
  -3 -12   4    2.20    9.99
  15  -3   4   18.30   11.53
   4  11  -4   -3.22    9.83
   4  11  -4   10.88   10.80
  15  -4   4   -2.18    9.88
  -4 -11   4    7.04   10.26
   5  10  -4   38.28   12.45
   5  10  -4   25.89   11.75
  -5 -10   4   15.35   10.92
   6   9  -4   13.15   10.85
   6   9  -4   20.43   10.94
  -6  -9   4   -4.00    9.29
  15  -6   4   -4.96    9.31
  -6  -9   4   -8.21    8.89
   7   8  -4    3.93   10.14
   7   8  -4   13.71   10.81
  -7  -8   4    0.94    9.45
  -7  -8   4   -6.31    8.88
  15  -7   4   17.77   10.04
   8   7  -4   10.42   10.94
   8   7  -4   19.91   11.34
  -8  -7   4   22.69    9.73
  -8  -7   4    6.87    9.65
  15  -8   4   12.62   10.29
   9   6  -4   37.90   11.98
   9   6  -4   25.56   11.62
  -9  -6   4   28.11   10.41
  15  -9   4   27.67   11.07
  15  -9   4   32.50    5.56
  -9  -6   4   34.19    9.41
  10   5  -4   12.45   10.82
  10   5  -4    4.27   10.45
 -10  -5   4    6.08    8.40
 -10  -5   4    4.40    7.48
  15 -10   4    6.21    5.53
  15 -10   4   13.83   10.12
  11   4  -4   45.33   11.93
  11   4  -4   18.26   11.88
  -4  15   4   33.61    6.76
  15 -11   4   29.98   11.47
 -11  -4   4   43.95   10.69
  15 -11   4   41.61    7.46
 -11  -4   4   23.44    8.17
  12   3  -4   50.54   12.22
  12   3  -4   28.95   12.29
  15 -12   4   50.72    8.16
 -12  -3   4   23.64    9.34
  15 -12   4   41.22   11.53
 -12  -3   4   34.65    7.62
  -3  15   4   35.00    7.10
  13   2  -4   72.13   12.93
  13   2  -4   69.42   14.51
 -13  -2   4   69.10    8.00
  15 -13   4   75.43    9.84
  15 -13   4   94.23   14.48
  -2  15   4   81.02   10.55
 -13  -2   4   72.41   11.15
  14   1  -4   14.04   10.00
  14   1  -4    6.67   11.23
  -1  15   4   20.49    8.71
 -14  -1   4   11.72    8.15
  15 -14   4    8.06    7.54
   4  12  -4   54.46   13.52
  -4 -12   4   67.33   13.42
  16  -4   4   44.14   12.57
   5  11  -4   11.35   11.65
   5  11  -4   16.17   11.40
  -5 -11   4   16.01   11.21
  16  -5   4   23.58   11.58
   6  10  -4   -3.15   10.87
   6  10  -4    2.09   10.77
  -6 -10   4   15.51   10.49
  16  -6   4   -1.01    9.83
   7   9  -4   14.11   11.20
   7   9  -4   21.55   11.38
  -7  -9   4   10.10    9.45
  -7  -9   4   -8.35    9.22
  16  -7   4  -11.44    9.95
   8   8  -4   18.76   11.37
   8   8  -4   17.19   11.34
  -8  -8   4   12.50   10.50
  -8  -8   4   -1.79    8.82
  16  -8   4    5.63   10.50
   9   7  -4   62.00   13.45
   9   7  -4   52.12   13.12
  16  -9   4   16.44   11.63
  -9  -7   4   56.35   12.31
  -9  -7   4   38.43   10.09
  10   6  -4   -3.28   10.91
  10   6  -4   -7.50   10.43
 -10  -6   4   20.46    8.88
 -10  -6   4    5.40    9.59
  16 -10   4    3.63   10.40
  11   5  -4   -5.06   10.69
  11   5  -4   11.74   11.72
 -11  -5   4   -3.74    8.64
  16 -11   4    5.45   10.50
 -11  -5   4   -0.43    7.11
  12   4  -4    0.36   10.72
  12   4  -4    5.35   11.21
  16 -12   4  -10.36    9.86
 -12  -4   4    7.51    7.08
 -12  -4   4   -6.33    8.07
  -4  16   4    2.17    5.32
  16 -12   4   -3.99    6.04
   0   0  -5    0.00    4.61
   0   0  -5   -0.06    4.38
   0   0  -5   -3.43    5.33
   0   0   5    6.91    5.14
  -1   0  -5    6.83    4.54
  -1   0  -5    8.88    5.14
   1  -1  -5   -2.21    5.09
   1  -1  -5   12.43    5.81
  -1   0  -5   11.77    5.32
   1  -1  -5    2.96    4.55
  -1   0  -5   10.37    4.95
   1  -1  -5    5.57    4.81
   0   1  -5   12.51    4.94
   0   1  -5    9.53    4.74
   0  -1   5   15.80    5.96
   0  -1   5    2.98    4.83
   1   0   5   11.46    5.25
   0  -1   5   14.95    5.55
  -1   1   5    6.01    5.06
  -1   1  -5    8.46    4.60
   1   0  -5    6.20    4.65
   1   0  -5    7.13    4.64
   0  -1  -5    6.13    4.55
  -1   1  -5   12.80    5.71
   0  -1  -5    8.87    4.68
   1   0  -5    9.70    3.18
  -1   1  -5    5.73    4.49
   0  -1  -5    4.64    5.44
   1  -1   5   17.38    5.63
  -1   0   5    2.15    5.13
   0   1   5   10.08    2.84
   2  -1  -5    3.56    4.35
  -1   2  -5    0.91    4.51
   2  -1  -5    4.48    4.06
   2  -1  -5    0.60    4.47
  -1  -1  -5   -2.79    4.46
  -1  -1  -5   -2.74    5.04
   2  -1  -5   -2.08    5.59
  -1   2  -5    4.45    4.46
   1  -2   5   -1.85    5.33
   1  -2   5   -7.04    4.91
   1   1   5    9.93    5.43
   1  -2   5    2.75    4.89
  -2   1   5   -7.17    4.66
  -2  -1  -5   61.46    6.83
   3  -2  -5   40.37    5.67
   3  -2  -5   36.63    7.18
  -2  -1  -5   42.46    6.96
  -1   3  -5   43.99    6.05
   3  -2  -5   55.81    7.55
   3  -2  -5   40.05    6.07
  -1   3  -5   53.29    6.77
   3  -2  -5   55.92    6.84
   1  -3   5   50.05    6.94
   1  -3   5   43.07    6.99
   2   1   5   49.03    6.98
   0   2  -5    1.45    4.43
   2  -2  -5   -6.34    3.53
  -2   0  -5    4.78    5.19
   2  -2  -5   -2.10    5.08
  -2   0  -5   -3.52    4.62
   2  -2  -5   -1.43    5.38
   2  -2  -5    6.48    4.81
   0   2  -5   -2.50    4.36
   2  -2  -5   -0.48    4.46
   0  -2   5   -0.51    4.88
   0  -2   5   -1.20    5.38
  -2   1  -5   -0.93    4.81
   1   1  -5    0.55    4.49
   1  -2  -5    3.61    4.70
  -2   1  -5    5.82    4.27
   1  -2  -5    4.15    5.65
  -2   1  -5    0.69    4.47
   1   1  -5    4.00    4.64
   2  -1   5    5.27    5.08
  -1  -1   5    6.29    5.28
  -1  -1   5   -3.93    5.01
  -1  -1   5    2.95    5.56
  -1   2   5    5.44    3.60
  -1   2   5    0.92    5.30
  -2   2  -5    0.57    4.20
   2   0  -5    8.99    4.80
   0  -2  -5    5.83    4.69
   0  -2  -5    0.07    5.57
  -2   2  -5   -4.46    4.38
   2   0  -5   -1.90    4.45
  -2   0   5    4.80    4.98
   2  -2   5   -2.03    5.22
  -2   0   5    2.16    5.65
   0   2   5    2.70    5.02
   0   2   5   -2.51    3.61
   2  -2   5    5.32    4.53
  -2   0   5    1.46    5.17
   2  -2   5   -3.70    5.03
  -2   3  -5   53.16    6.78
   3  -1  -5   52.89    6.87
  -1  -2  -5   57.50    6.88
  -1  -2  -5   74.62    8.44
   3  -1  -5   56.12    6.64
  -2   3  -5   59.17    6.46
  -2   3  -5   62.15    4.85
   3  -1  -5   63.53    6.34
   1   2   5   53.05    7.21
   2  -3   5   49.45    7.37
   2  -3   5   65.32    7.26
   4  -2  -5    9.96    6.44
  -2   4  -5    7.12    4.59
  -2   4  -5    9.34    5.07
  -2  -2  -5    4.05    5.64
   4  -2  -5    3.15    4.55
   4  -2  -5   12.04    4.82
  -2  -2  -5    2.98    5.67
  -2  -2  -5    4.96    5.00
   4  -2  -5   -8.15    4.16
   2  -4   5    9.06    5.58
   2   2   5   11.52    5.60
   2  -4   5    2.66    4.92
  -2   5  -5    4.94    5.18
   5  -3  -5    7.99    5.08
   5  -3  -5    8.16    4.79
  -3  -2  -5    0.18    5.60
   5  -3  -5    2.78    4.92
   5  -3  -5    9.94    4.72
  -2   5  -5    8.42    5.97
   5  -3  -5    4.57    5.85
   2  -5   5   -0.53    5.43
   3   2   5    2.34    5.31
   2  -5   5    2.75    4.99
   4  -3  -5    2.38    4.92
   4  -3  -5    1.32    5.75
   4  -3  -5   -1.89    4.65
  -3  -1  -5   -3.07    4.44
   4  -3  -5   -6.20    4.25
  -3  -1  -5   -2.15    5.69
   4  -3  -5   -1.61    5.38
  -1   4  -5    2.18    4.56
  -1   4  -5    8.55    5.14
  -3  -1  -5    8.98    5.48
   1  -4   5    3.76    5.20
   1  -4   5   -1.62    7.04
   3   1   5    2.11    5.01
   3  -3  -5  203.54   13.87
   0   3  -5  195.55   11.32
   0   3  -5  189.42   11.76
  -3   0  -5  194.74   11.84
   3  -3  -5  189.94   11.00
  -3   0  -5  196.22   10.60
  -3   3   5  206.67   10.39
   0  -3   5  187.73   11.89
   0  -3   5  200.76   12.44
   3   0   5  185.98   12.35
  -3   1  -5   50.21    6.60
   2  -3  -5   50.15    7.70
   1   2  -5   56.56    6.85
  -3   1  -5   54.63    6.74
   2  -3  -5   56.58    6.97
  -3   1  -5   70.63    6.42
   1   2  -5   58.26    6.88
  -3   1  -5   59.79    6.71
   3  -1   5   56.45    7.13
  -2   3   5   61.74    8.21
  -1  -2   5   52.61    7.38
  -1  -2   5   64.31    8.03
  -2   3   5   56.11    5.98
  -3   2  -5   49.16    6.56
  -3   2  -5   45.89    5.72
   1  -3  -5   37.14    6.16
  -3   2  -5   50.31    6.44
   2   1  -5   44.12    6.27
   2   1  -5   52.81    6.60
   1  -3  -5   31.90    6.87
  -1   3   5   47.57    7.42
  -2  -1   5   56.09    7.65
  -2  -1   5   51.47    7.33
   3  -2   5   51.43    3.87
  -1   3   5   52.62    5.84
   3  -2   5   43.17    6.98
   3   0  -5  189.08   10.95
  -3   3  -5  187.50   11.61
   0  -3  -5  198.32   13.23
  -3   3  -5  190.57    9.89
   3   0  -5  168.01   11.08
   0   3   5  174.47   13.19
   3  -3   5  194.46   11.33
  -3   0   5  187.58   13.31
   3  -3   5  180.63   11.51
   3  -3   5  194.75   10.48
  -3   0   5  193.90   12.03
  -3   0   5  197.37   11.37
   4  -1  -5   14.29    5.05
  -3   4  -5   24.79    5.78
  -3   4  -5   18.88    5.01
   4  -1  -5    7.00    4.96
  -1  -3  -5   16.43    6.41
  -3   4  -5   17.20    4.04
  -1  -3  -5   13.22    6.20
   3  -4   5   17.37    5.97
   3  -4   5   22.57    5.62
  -4   1   5   14.93    5.58
   1   3   5   11.62    5.83
  -4   1   5   15.71    5.62
  -4   1   5   16.08    6.62
  -3   5  -5   -5.44    4.40
  -3   5  -5    8.31    4.30
   5  -2  -5    2.68    4.35
  -3   5  -5   19.03    5.78
   5  -2  -5    1.02    5.76
  -2  -3  -5    9.11    5.91
   5  -2  -5    0.48    4.76
   5  -2  -5   -1.60    4.15
   2   3   5    3.78    5.73
   3  -5   5    1.73    5.53
   3  -5   5   -3.26    4.73
  -5   2   5   -6.30    4.67
  -3   6  -5   18.33    5.53
   6  -3  -5    3.67    4.16
  -3   6  -5    5.65    6.20
   6  -3  -5    3.23    5.17
   6  -3  -5    3.66    5.45
  -3  -3  -5   17.30    6.41
   6  -3  -5   13.65    4.11
   3   3   5   15.98    6.30
   3  -6   5   14.13    5.71
   3  -6   5    2.40    5.92
  -3   7  -5    6.38    6.36
  -3   7  -5    7.36    5.37
   7  -4  -5   16.56    5.43
   3  -7   5    2.28    5.45
   4   3   5   -1.70    5.39
   3  -7   5    3.13    6.08
   6  -4  -5   -0.26    5.07
  -4  -2  -5   -0.62    5.76
   6  -4  -5    4.83    5.03
   6  -4  -5    1.74    4.18
   6  -4  -5    7.72    4.89
  -2   6  -5   -2.13    4.90
  -2   6  -5    6.04    6.24
   6  -4  -5    6.62    4.35
   4   2   5   -5.72    5.04
   2  -6   5    0.08    5.67
   2  -6   5    7.88    5.69
  -1   5  -5   10.57    6.72
  -4  -1  -5    9.24    6.11
   5  -4  -5   19.65    5.22
   5  -4  -5   12.20    5.24
   5  -4  -5    7.45    5.52
   5  -4  -5   16.52    5.32
  -1   5  -5   16.27    5.47
  -4  -1  -5    8.78    5.26
   5  -4  -5    6.42    6.31
   4   1   5   13.08    5.69
   1  -5   5   16.60    6.23
   1  -5   5   10.28    5.83
  -4   0  -5  151.68   12.78
   0   4  -5  127.46    9.93
   4  -4  -5  125.61    8.82
  -4   0  -5  121.52    9.12
   4  -4  -5  140.31    9.78
   0   4  -5  133.38    9.81
  -4   0  -5  128.84   10.35
   0   4  -5  133.17   11.28
   4  -4  -5  157.33   13.06
  -4   4   5  123.24   10.84
  -4   4   5  125.18    9.32
   4   0   5  123.77    9.24
   0  -4   5  123.94   10.28
   0  -4   5  129.25   10.18
  -4   1  -5   20.57    5.13
   3  -4  -5   15.04    6.62
  -4   1  -5   18.01    4.18
   1   3  -5   15.39    5.39
  -4   1  -5   13.52    4.94
  -4   1  -5   22.03    4.92
   1   3  -5    7.75    5.13
  -1  -3   5   11.50    5.62
  -3   4   5   11.38    6.00
  -3   4   5   10.55    5.13
  -1  -3   5   15.28    5.77
   4  -1   5   17.55    5.32
   2   2  -5    4.26    4.84
   2   2  -5    5.27    4.92
   2  -4  -5    6.29    5.95
  -4   2  -5    7.74    4.70
  -4   2  -5    1.46    4.66
  -4   2  -5   11.74    4.15
  -2  -2   5    5.78    5.51
   4  -2   5   10.23    3.49
  -2   4   5    6.75    5.39
  -2  -2   5   -0.89    5.06
  -2   4   5    4.08    5.02
   4  -2   5   13.09    5.40
   1  -4  -5    6.16    5.87
  -4   3  -5    3.57    4.97
   3   1  -5    8.35    4.89
   3   1  -5    9.41    4.95
  -4   3  -5    4.59    4.57
  -4   3  -5   -1.08    3.86
   4  -3   5    3.59    5.42
  -1   4   5    3.25    5.64
   4  -3   5    2.81    3.55
  -3  -1   5    5.06    5.12
  -3  -1   5    9.73    5.37
   0  -4  -5  147.96   12.15
   4   0  -5  135.38    9.56
   4   0  -5  134.38    9.21
  -4   4  -5  141.81    8.46
  -4   4  -5  128.75    9.40
   4  -4   5  126.85    9.90
  -4   0   5  111.64    9.99
   4  -4   5  132.44    9.26
  -4   0   5  123.88   11.02
  -4   0   5  130.75    9.97
   0   4   5  126.81   10.63
   5  -1  -5   83.53    7.34
  -4   5  -5   59.29    6.65
  -4   5  -5   70.67    6.49
  -1  -4  -5   63.41    8.23
   5  -1  -5   66.49    7.20
  -4   5  -5   67.54    7.88
  -5   1   5   67.76    7.68
  -5   1   5   70.81    8.21
   4  -5   5   61.22    8.08
   1   4   5   66.70    8.78
  -5   1   5   59.02    8.80
   4  -5   5   70.76    7.24
  -2  -4  -5   40.91    7.59
  -4   6  -5   53.79    6.59
   6  -2  -5   55.67    6.49
  -4   6  -5   62.06    7.96
   6  -2  -5   55.17    5.73
  -4   6  -5   59.52    6.42
  -6   2   5   50.16    6.67
   2   4   5   46.80    7.93
   4  -6   5   47.52    6.44
   4  -6   5   57.48    7.79
   7  -3  -5   15.41    6.07
   7  -3  -5   14.33    4.57
   7  -3  -5   13.94    4.19
  -3  -4  -5    9.95    6.32
   7  -3  -5    9.13    5.46
   3   4   5   10.62    6.38
   8  -4  -5   10.47    5.61
  -4   8  -5   12.27    6.63
   8  -4  -5   11.22    4.44
   8  -4  -5   12.38    3.73
   4  -8   5   13.01    6.06
   4  -8   5   11.74    6.70
   4   4   5   14.90    7.74
   4   4   5   13.69    6.31
   9  -5  -5   24.64    6.93
   9  -5  -5   22.26    5.80
   9  -5  -5   22.39    4.39
  -4   9  -5   16.18    7.37
   9  -5  -5   25.76    5.28
   4  -9   5   18.34    7.07
   4  -9   5    5.28    6.56
   5   4   5   32.90    8.99
   8  -5  -5    3.32    3.52
   8  -5  -5    2.64    5.18
   8  -5  -5  -10.19    4.38
   8  -5  -5    0.51    3.86
  -3   8  -5    4.73    6.13
   5   3   5    2.88    5.68
   3  -8   5    8.07    6.15
   3  -8   5   -4.30    6.09
   5   3   5   -0.58    7.27
   7  -5  -5   27.34    5.09
   7  -5  -5   22.36    5.51
   7  -5  -5   32.03    5.10
  -2   7  -5   22.88    7.40
   7  -5  -5   38.46    6.75
   7  -5  -5   21.15    6.24
  -2   7  -5   19.18    6.08
   2  -7   5   23.42    6.99
   5   2   5    6.42    5.71
   2  -7   5   27.11    6.93
  -5  -1  -5   26.94    5.71
   6  -5  -5   33.76    6.29
   6  -5  -5   20.57    6.38
  -1   6  -5   22.90    7.43
   6  -5  -5   26.43    5.51
  -1   6  -5   29.39    6.42
   1  -6   5   30.51    6.82
   1  -6   5   29.18    7.16
   5   1   5   42.81    6.23
   5  -5  -5   19.12    6.99
   0   5  -5   29.21    6.39
   0   5  -5   24.68    7.25
   5  -5  -5   32.55    6.01
  -5   0  -5   32.29    5.77
  -5   0  -5   19.36    6.52
  -5   5   5   18.68    6.73
   0  -5   5   25.01    6.65
  -5   5   5   27.80    6.18
   0  -5   5   26.73    6.97
   5   0   5   29.42    5.78
  -5   1  -5   55.32    8.66
   1   4  -5   52.23    8.45
   1   4  -5   55.73    7.75
  -5   1  -5   59.14    6.83
  -5   1  -5   66.95    6.88
  -4   5   5   65.02    8.29
  -1  -4   5   53.92    7.83
  -4   5   5   54.41    7.29
  -1  -4   5   57.41    7.82
   5  -1   5   68.57    7.05
   3  -5  -5   -2.53    5.85
   2   3  -5    3.01    6.49
  -5   2  -5   -1.88    3.79
  -5   2  -5    4.93    4.77
  -5   2  -5    1.69    5.80
  -5   2  -5    3.12    4.56
   2   3  -5   -0.80    4.91
   2   3  -5   -0.25    5.29
  -2  -3   5    3.07    5.37
  -3   5   5   13.90    6.03
   5  -2   5    1.93    5.02
  -3   5   5   -0.95    5.34
  -2  -3   5    1.47    5.50
  -5   3  -5    7.38    5.02
   3   2  -5   13.44    5.30
  -5   3  -5    7.94    4.01
   3   2  -5    3.24    6.37
   3   2  -5   11.41    5.28
   2  -5  -5    8.01    6.33
  -5   3  -5    5.20    4.35
  -2   5   5   10.13    6.26
  -2   5   5   10.82    5.50
   5  -3   5    5.63    4.15
  -3  -2   5   11.05    5.69
   5  -3   5    7.81    5.34
   1  -5  -5   13.82    5.98
   4   1  -5   17.59    5.39
  -5   4  -5   20.15    4.38
  -5   4  -5   10.09    5.11
   4   1  -5   16.26    5.79
  -4  -1   5   12.22    6.14
  -4  -1   5   12.53    6.22
   5  -4   5    9.62    4.35
   5  -4   5   16.91    5.25
   5  -4   5   18.45    6.08
  -1   5   5   14.96    6.51
   5  -4   5   18.66    4.78
  -5   5  -5   25.00    5.95
   0  -5  -5   27.74    6.61
  -5   5  -5   20.42    5.09
   5   0  -5   22.84    5.90
  -5   5  -5   27.17    5.04
   5   0  -5   27.59    5.32
   0   5   5   25.36    7.11
   5  -5   5   26.68    6.49
   5  -5   5   26.55    5.13
  -5   0   5   30.46    6.41
  -5   0   5   25.00    6.74
  -5   6  -5    2.55    4.35
  -5   6  -5    6.35    4.86
  -1  -5  -5    3.34    5.66
   6  -1  -5    9.45    4.38
   6  -1  -5    5.79    3.71
   5  -6   5   -3.64    4.12
  -6   1   5    2.73    6.25
  -6   1   5    5.14    5.60
   1   5   5   -6.79    5.53
   5  -6   5    3.43    5.68
  -6   1   5   10.07    5.38
  -5   7  -5    5.22    4.91
  -5   7  -5    5.68    5.76
  -2  -5  -5    6.20    5.77
  -5   7  -5    2.12    4.93
   5  -7   5    4.28    5.03
   5  -7   5   -0.07    5.70
   8  -3  -5    1.06    3.24
  -5   8  -5   -4.18    5.83
   8  -3  -5    2.66    3.87
  -5   8  -5   -0.52    5.11
   5  -8   5   -4.75    5.65
   5  -8   5    1.96    5.27
   3   5   5    6.79    7.34
  -5   9  -5    2.01    5.72
   9  -4  -5   10.07    5.46
   9  -4  -5   -0.47    3.72
   9  -4  -5    2.68    5.83
   9  -4  -5    2.52    3.21
  -5   9  -5    2.69    6.15
   5  -9   5    3.30    6.45
   4   5   5    2.55    7.62
   5  -9   5    2.11    5.94
  -5  10  -5   26.45    7.59
  -5  10  -5   18.32    6.39
  -5  10  -5   37.71    6.27
  10  -5  -5   25.39    4.44
  10  -5  -5   27.18    6.54
  10  -5  -5   17.36    7.19
   5 -10   5   24.79    7.39
   5 -10   5   14.41    7.30
   5   5   5   18.99    9.05
  11  -6  -5   25.37    7.97
  11  -6  -5   36.61    7.22
  11  -6  -5   37.42    4.96
  -5  11  -5   23.33    6.14
  -5  11  -5   28.19    8.40
   6   5   5   27.76    9.88
   5 -11   5   28.69    8.72
   5 -11   5   26.05    7.94
  10  -6  -5   11.39    5.95
  -4  10  -5    3.37    5.48
  -4  10  -5    1.45    7.09
  10  -6  -5   -0.84    6.41
  10  -6  -5   -6.09    3.07
   6   4   5    5.43    8.26
   4 -10   5    2.65    7.19
   4 -10   5    2.84    6.83
  -3   9  -5    6.56    6.27
   9  -6  -5    8.23    6.54
   9  -6  -5    3.88    3.78
   9  -6  -5   16.52    5.96
  -3   9  -5    0.04    6.81
   6   3   5   24.22    7.02
   3  -9   5    6.79    6.74
   6   3   5   34.17    9.39
   3  -9   5    1.75    6.80
   8  -6  -5    9.40    5.37
   8  -6  -5   11.19    4.90
   8  -6  -5    6.45    4.14
  -2   8  -5   -2.12    5.80
   8  -6  -5    5.28    3.79
  -2   8  -5    0.74    6.64
   6   2   5    3.69    7.32
   2  -8   5    1.86    6.45
   2  -8   5    6.44    6.69
   6   2   5    8.79    5.78
   7  -6  -5  279.38   12.81
   7  -6  -5  263.41   15.84
  -6  -1  -5  283.61   13.38
  -1   7  -5  252.43   14.29
   7  -6  -5  250.76   14.56
  -1   7  -5  261.30   16.54
   6   1   5  234.99   14.47
   1  -7   5  250.39   15.09
   1  -7   5  244.23   15.42
   0   6  -5   65.66    8.20
   6  -6  -5   73.96    8.21
   6  -6  -5   67.50    8.82
  -6   0  -5   67.03    7.11
   0   6  -5   57.17    9.08
  -6   6   5   96.48    9.18
   6   0   5   69.35    7.32
   0  -6   5   68.95    8.98
   0  -6   5   71.93    8.92
   5  -6  -5   -4.09    5.96
  -6   1  -5    5.63    4.62
   1   5  -5    6.17    6.66
   1   5  -5   -2.12    5.25
   6  -1   5    8.08    4.32
  -1  -5   5   -1.71    5.59
  -1  -5   5   -2.72    5.73
  -5   6   5    0.61    5.42
   2   4  -5   45.47    8.30
  -6   2  -5   58.87    5.67
  -6   2  -5   61.30    6.41
   4  -6  -5   49.16    8.32
   2   4  -5   62.46    7.66
  -6   2  -5   67.53    8.82
  -6   2  -5   44.74    4.98
  -6   2  -5   67.64    7.04
  -2  -4   5   40.66    7.46
  -4   6   5   47.39    7.15
  -2  -4   5   45.05    7.75
  -6   3  -5    4.03    4.76
   3  -6  -5   14.47    6.79
  -6   3  -5    7.50    6.02
   3   3  -5   15.48    6.91
  -6   3  -5    6.59    3.62
   3  -6  -5    8.99    5.23
  -6   3  -5   10.52    4.44
   3   3  -5    5.79    5.47
  -3   6   5    9.11    5.67
   6  -3   5    1.41    4.78
  -3  -3   5   18.19    6.17
   6  -3   5   15.73    5.69
  -3  -3   5   13.69    5.97
   4   2  -5   13.84    6.79
  -6   4  -5   -4.73    3.89
   4   2  -5   -4.77    5.02
  -6   4  -5    2.60    4.95
  -6   4  -5   -0.42    3.36
   2  -6  -5   -2.11    4.83
   4   2  -5    0.58    5.10
   6  -4   5   -2.15    5.04
  -4  -2   5   -4.30    5.03
   6  -4   5    0.40    4.71
  -4  -2   5    2.52    5.48
  -6   5  -5   34.87    6.09
   5   1  -5   23.52    7.83
   5   1  -5   29.89    6.35
   1  -6  -5   39.08    6.81
  -6   5  -5   29.42    4.68
   5   1  -5   30.84    5.98
   6  -5   5   28.27    5.71
  -5  -1   5   24.00    6.21
   6  -5   5   36.56    5.61
   6  -5   5   34.41    6.62
  -5  -1   5   33.25    7.33
   6  -5   5   32.99    4.94
   6   0  -5   79.28    9.07
  -6   6  -5   78.90    6.84
   6   0  -5   72.06    7.81
  -6   6  -5   70.43    7.44
   6   0  -5   81.61    7.03
   0  -6  -5   77.01    8.87
  -6   0   5   73.29    8.73
  -6   0   5   88.77    8.39
   6  -6   5   76.01    6.97
   6  -6   5   68.15    8.20
  -6   7  -5   35.24    6.47
   7  -1  -5   32.05    6.62
  -1  -6  -5   31.77    7.31
   7  -1  -5   30.06    5.66
  -6   7  -5   21.12    5.23
   7  -1  -5   39.54    5.18
  -6   7  -5   30.82    6.44
   6  -7   5   31.59    6.82
   6  -7   5   25.93    5.27
  -7   1   5   38.43    7.94
  -7   1   5   29.01    6.99
  -7   1   5   30.57    6.14
  -6   8  -5   15.94    6.18
   8  -2  -5   21.53    5.15
   8  -2  -5   14.84    5.64
  -6   8  -5   28.02    6.30
   8  -2  -5   12.94    3.87
   6  -8   5   19.15    5.70
  -8   2   5   15.14    6.29
   6  -8   5    9.06    6.23
   2   6   5   16.29    7.70
  -8   2   5   25.69    7.92
  -8   2   5   16.96    5.25
   9  -3  -5   17.74    4.03
  -6   9  -5    6.04    6.22
  -6   9  -5   15.64    6.25
   9  -3  -5   10.71    4.95
   6  -9   5    6.27    5.87
   6  -9   5   13.29    6.65
   3   6   5   26.07    8.69
  10  -4  -5   16.83    6.43
  -6  10  -5   20.02    6.80
  10  -4  -5   21.42    4.45
  10  -4  -5   23.98    7.48
  10  -4  -5   19.47    6.47
  -6  10  -5    9.77    6.93
  10  -4  -5   24.25    5.90
   4   6   5   18.03    8.79
   6 -10   5   19.09    7.41
   6 -10   5   20.54    6.85
  11  -5  -5   11.11    6.19
  11  -5  -5    1.39    3.34
  11  -5  -5    7.35    6.70
  -6  11  -5    1.99    6.44
  11  -5  -5    3.26    4.84
  -6  11  -5   10.30    4.77
  11  -5  -5    8.37    5.56
   6 -11   5    4.82    6.72
   6 -11   5   -1.09    6.73
   5   6   5    0.45    8.60
  12  -6  -5    1.88    5.29
  12  -6  -5   13.63    5.96
  -6  12  -5   14.20    6.87
  12  -6  -5    9.06    7.32
  -6  12  -5   18.68    5.51
  12  -6  -5   14.58    7.33
  12  -6  -5    7.38    3.56
   6 -12   5    4.56    7.20
   6 -12   5   10.12    7.95
   6   6   5    2.20    9.14
  13  -7  -5   -0.67    5.89
  13  -7  -5   17.76    9.32
  13  -7  -5    7.56    7.89
  -6  13  -5    1.04    6.89
  -6  13  -5   -1.00    4.79
  13  -7  -5   -3.10    5.22
  13  -7  -5   -3.59    3.53
   6 -13   5   -2.40    8.24
   7   6   5   14.32   10.51
   6 -13   5  -16.55    7.05
  12  -7  -5    4.70    5.47
  -5  12  -5   10.62    8.20
  12  -7  -5   -0.05    6.76
  -5  12  -5    4.63    5.63
  12  -7  -5    0.94    3.23
  12  -7  -5    7.97    7.68
   5 -12   5    4.92    7.55
   7   5   5   -0.99    8.91
   5 -12   5    5.73    7.79
  11  -7  -5   36.17    7.23
  -4  11  -5   35.29    7.02
  11  -7  -5   53.37    5.76
  11  -7  -5   49.80    9.45
  -4  11  -5   38.07    8.80
   4 -11   5   51.90    9.69
   7   4   5   48.68   11.16
   4 -11   5   50.62    9.58
  10  -7  -5   50.80    8.82
  -3  10  -5   35.96    8.30
  10  -7  -5   31.39    7.14
  10  -7  -5   33.83    5.24
  -3  10  -5   27.36    8.77
   3 -10   5   20.41    8.11
   3 -10   5   34.80    9.56
   7   3   5   30.26    9.72
   9  -7  -5   10.34    5.77
   9  -7  -5   11.40    6.50
  -2   9  -5    8.24    7.50
   9  -7  -5   16.07    4.47
  -2   9  -5    9.75    6.70
   2  -9   5    6.16    7.29
   2  -9   5    4.20    6.79
   7   2   5   12.87    6.10
   7   2   5   11.73    8.33
  -7  -1  -5  136.10   10.09
  -1   8  -5  124.42   12.32
   8  -7  -5  130.02   11.29
   8  -7  -5  119.74   10.89
  -1   8  -5  134.85   12.13
   7   1   5  154.79   10.93
   1  -8   5  115.87   11.56
   7   1   5  120.04   12.84
   1  -8   5  128.00   12.29
   7  -7  -5    4.85    5.69
   7  -7  -5    7.59    6.01
   0   7  -5    3.50    6.46
  -7   0  -5   -2.05    4.51
   0   7  -5    3.84    6.92
   0  -7   5    0.09    6.45
   7   0   5   -1.95    4.62
  -7   7   5    5.23    5.98
   0  -7   5    4.18    6.76
  -7   1  -5   38.27    5.90
   6  -7  -5   23.78    7.05
   1   6  -5   15.44    7.51
   1   6  -5   21.06    7.58
  -1  -6   5   27.38    7.65
  -6   7   5   40.19    7.29
   7  -1   5   38.82    5.48
  -1  -6   5   35.81    7.83
  -7   2  -5    2.40    4.60
   2   5  -5    8.30    7.03
   5  -7  -5   -4.67    6.31
   2   5  -5    6.02    6.84
  -7   2  -5    1.25    3.21
  -7   2  -5    7.97    3.75
  -2  -5   5   11.21    6.54
  -2  -5   5   10.89    6.63
  -5   7   5    2.32    5.94
  -7   3  -5    8.37    4.14
  -7   3  -5    1.50    3.30
   4  -7  -5   18.41    5.09
   3   4  -5   16.65    7.37
   3   4  -5    5.58    6.75
  -7   3  -5   12.01    5.02
  -3  -4   5   17.66    6.38
  -3  -4   5   13.89    6.26
  -4   7   5    6.44    5.98
   7  -3   5    6.66    4.88
   4   3  -5    3.65    6.70
  -7   4  -5    4.56    5.95
  -7   4  -5    6.97    4.64
   3  -7  -5    7.66    4.96
  -7   4  -5    4.64    3.16
   4   3  -5    6.07    7.00
  -7   4  -5    8.26    3.89
   7  -4   5    0.67    5.07
   7  -4   5    1.41    5.22
  -4  -3   5    0.58    5.52
  -4  -3   5   -3.46    5.44
  -3   7   5    8.09    5.90
   2  -7  -5   26.22    6.08
  -7   5  -5   17.16    5.54
  -7   5  -5   18.68    3.82
   5   2  -5   24.22    7.94
   5   2  -5   15.26    7.01
  -7   5  -5   17.36    4.15
  -5  -2   5   23.18    6.54
   7  -5   5   14.27    5.79
   7  -5   5   30.24    6.07
  -5  -2   5   10.81    6.35
   6   1  -5  255.53   15.70
   6   1  -5  257.06   16.40
  -7   6  -5  252.10   11.05
   1  -7  -5  267.59   15.26
   6   1  -5  271.18   13.30
   7  -6   5  265.92   12.24
   7  -6   5  253.54   14.61
   7  -6   5  262.53   11.58
  -6  -1   5  253.24   15.06
  -6  -1   5  255.20   13.26
   7  -6   5  226.65   13.42
   0  -7  -5    3.46    5.51
   7   0  -5   16.71    4.50
   7   0  -5   24.99    7.10
  -7   7  -5    6.61    3.92
  -7   7  -5    4.85    5.74
   7   0  -5   29.09    6.72
  -7   0   5   20.94    6.83
   7  -7   5    4.02    5.53
  -7   0   5   26.01    6.02
   7  -7   5    6.82    4.51
  -1  -7  -5    3.65    5.90
  -7   8  -5    1.64    5.37
   8  -1  -5    3.10    5.69
   8  -1  -5    0.66    4.99
   8  -1  -5    0.67    3.49
  -7   8  -5    8.59    5.28
  -8   1   5    0.58    5.20
  -8   1   5    2.20    6.64
  -8   1   5   -4.41    5.72
   1   7   5   -4.25    6.56
   7  -8   5   -5.96    4.15
   7  -8   5    3.25    5.55
   9  -2  -5    5.01    5.88
  -7   9  -5   22.49    5.98
  -7   9  -5   24.95    6.69
   9  -2  -5    6.87    5.09
   9  -2  -5   13.01    3.87
  -9   2   5   15.03    7.78
   7  -9   5    6.40    6.48
  -9   2   5   20.78    6.66
   7  -9   5   12.11    5.35
   2   7   5   18.50    8.21
  -9   2   5   14.02    5.40
  -7  10  -5  102.30    9.91
  10  -3  -5  103.91    7.62
  10  -3  -5   89.08    9.36
  -7  10  -5   85.54    9.28
  10  -3  -5   91.72   10.63
   3   7   5  119.11   12.98
   7 -10   5  112.42   10.16
   7 -10   5  101.56   10.91
  11  -4  -5   35.76    8.30
  11  -4  -5   29.74    7.58
  11  -4  -5   32.57    4.79
  11  -4  -5   44.77    7.72
  -7  11  -5   32.49    7.07
  -7  11  -5   31.79    5.47
  11  -4  -5   30.57    6.32
   7 -11   5   31.16    7.69
   7 -11   5   27.79    8.06
   4   7   5   29.82    9.79
  -7  12  -5    6.81    4.50
  12  -5  -5   -6.67    6.74
  12  -5  -5    6.79    5.60
  -7  12  -5    0.31    6.06
  12  -5  -5   -4.84    4.44
  12  -5  -5    8.97    3.70
  12  -5  -5   -3.88    6.06
   7 -12   5   10.39    7.77
   7 -12   5    3.08    7.15
   5   7   5   -9.57    8.48
  -7  13  -5   28.63    8.04
  13  -6  -5   17.25    6.46
  13  -6  -5   12.08    8.08
  13  -6  -5   13.20    6.40
  -7  13  -5   28.15    5.77
  13  -6  -5   23.88    9.37
  13  -6  -5   12.02    4.62
   6   7   5   24.71   11.26
   7 -13   5   29.42    9.17
   7 -13   5   19.85    8.26
  14  -7  -5  -19.35    7.42
  14  -7  -5   -2.86    6.27
  14  -7  -5    3.65    5.73
  -7  14  -5   -5.92    4.59
  14  -7  -5   -0.44    9.34
  -7  14  -5   -7.92    6.34
   7 -14   5    1.98    8.40
   7 -14   5    1.98    8.09
   7   7   5  -16.84    9.63
  15  -8  -5    4.97    5.85
  15  -8  -5   13.93   11.04
  -7  15  -5    7.18    5.76
  15  -8  -5    8.88    8.77
  -7  15  -5   -0.13    7.43
  15  -8  -5   12.10    6.86
   7 -15   5   -4.49    8.43
   8   7   5   -9.06   10.67
   7 -15   5   -0.51    8.14
  14  -8  -5    2.98    5.95
  14  -8  -5    7.33    5.96
  14  -8  -5   17.14    8.35
  -6  14  -5   14.64    8.10
  -6  14  -5    4.93    5.82
  14  -8  -5    8.42   10.55
   6 -14   5    8.19    8.74
   8   6   5    6.50   10.42
   6 -14   5    8.70    8.69
  -5  13  -5    1.66    5.66
  13  -8  -5   20.00   10.20
  13  -8  -5   11.06    5.87
  -5  13  -5  -12.32    7.78
  13  -8  -5   -0.64    3.31
  13  -8  -5   -2.25    7.19
   8   5   5    7.71   10.44
   5 -13   5    6.84    8.67
   5 -13   5    6.33    7.97
  12  -8  -5   12.04    4.02
  -4  12  -5   29.30    6.91
  12  -8  -5   29.40    9.57
  12  -8  -5   10.29    5.99
  -4  12  -5   12.84    8.72
   4 -12   5   12.80    8.46
   4 -12   5   17.25    9.02
   8   4   5   17.21   10.13
  11  -8  -5   -8.00    6.52
  11  -8  -5    2.02    3.76
  -3  11  -5   -2.07    5.69
  11  -8  -5   -5.40    4.94
  -3  11  -5   -6.41    7.38
   3 -11   5   -3.51    7.88
   3 -11   5    7.08    7.75
   8   3   5   12.63    8.87
  10  -8  -5    0.90    6.71
  -2  10  -5    5.99    6.90
  10  -8  -5    7.72    3.94
  -2  10  -5    6.05    7.75
  10  -8  -5   12.05    6.07
   8   2   5    2.63    6.07
   2 -10   5    2.36    7.49
   2 -10   5    0.93    7.56
   8   2   5    9.52    8.24
   9  -8  -5    9.12    6.81
  -8  -1  -5   10.17    4.76
  -1   9  -5   20.41    7.70
  -1   9  -5   11.30    8.14
   9  -8  -5   17.08    6.44
   1  -9   5    2.79    7.39
   8   1   5   -0.69    7.92
   8   1   5   12.73    5.90
   1  -9   5   13.08    7.85
   0   8  -5   49.86    9.06
   8  -8  -5   41.86    7.32
  -8   0  -5   40.27    6.03
   0   8  -5   38.27    8.98
   8  -8  -5   64.30    8.71
   8   0   5   48.67    9.55
   8   0   5   41.11    6.61
   0  -8   5   39.49    9.16
   0  -8   5   37.74    8.76
   7  -8  -5   15.08    6.33
  -8   1  -5   -3.82    3.96
   1   7  -5   10.18    7.20
   1   7  -5   -6.21    6.86
  -1  -7   5  -11.31    6.22
  -1  -7   5    5.63    7.22
   8  -1   5    4.08    4.53
  -8   2  -5   16.58    4.97
   2   6  -5   14.92    7.74
  -8   2  -5   20.85    6.67
   2   6  -5   22.04    8.11
  -2  -6   5   18.96    7.34
  -2  -6   5   23.66    7.63
   8  -2   5   18.28    4.81
  -8   3  -5    2.31    4.40
   5  -8  -5    3.45    4.40
  -8   3  -5   -2.63    2.59
   3   5  -5   -1.16    6.63
   3   5  -5    5.59    7.22
  -3  -5   5    1.36    6.12
  -3  -5   5    6.06    6.44
  -5   8   5    2.90    5.91
  -8   4  -5   11.32    2.87
   4   4  -5   15.19    7.24
  -8   4  -5   14.00    5.04
   4   4  -5    5.37    7.38
   4  -8  -5   20.11    5.07
  -4   8   5   24.22    6.58
   8  -4   5   10.51    5.27
  -4  -4   5    9.47    6.20
  -4  -4   5    9.31    6.37
   8  -4   5    2.12    5.90
   5   3  -5   -1.21    6.88
  -8   5  -5    0.35    4.72
   3  -8  -5    3.88    4.78
  -8   5  -5   -2.96    2.56
  -8   5  -5    2.28    3.32
   5   3  -5    0.26    6.91
   8  -5   5   -4.09    4.91
   8  -5   5    9.36    6.10
  -5  -3   5   -4.56    5.57
  -5  -3   5    0.76    5.63
   2  -8  -5    0.34    4.98
  -8   6  -5    6.58    3.45
   6   2  -5   -4.54    6.67
  -8   6  -5    5.99    3.09
   6   2  -5    5.38    7.36
  -6  -2   5   15.13    6.73
   8  -6   5    5.48    5.90
   8  -6   5    4.70    5.84
  -6  -2   5    7.22    5.93
   7   1  -5  130.44   13.16
   1  -8  -5  151.04   12.41
   7   1  -5  146.98   12.72
   8  -7   5  148.72   11.50
   8  -7   5  132.48    8.29
  -7  -1   5  138.90   10.90
  -7  -1   5  141.27   12.24
   8  -7   5  134.24   10.81
   8   0  -5   37.46    8.14
   8   0  -5   47.46    7.73
  -8   8  -5   50.65    7.70
  -8   8  -5   39.01    5.94
   8  -8   5   49.09    7.86
   8  -8   5   38.28    5.91
  -8   0   5   43.39    6.96
  -8   0   5   48.60    8.37
  -8   9  -5   30.40    6.80
   9  -1  -5   31.68    4.95
  -8   9  -5   28.86    5.74
   9  -1  -5   22.71    6.31
   9  -1  -5   23.37    7.35
  -9   1   5   18.85    7.37
  -9   1   5   20.90    6.10
   8  -9   5   19.61    5.63
   1   8   5   22.68    8.22
   8  -9   5   36.56    7.66
  10  -2  -5   60.04    9.66
  -8  10  -5   54.89    7.16
  10  -2  -5   61.80    6.12
  10  -2  -5   56.07    8.12
   8 -10   5   62.51    8.88
 -10   2   5   61.97    6.97
 -10   2   5   53.12    9.43
   2   8   5   51.99    9.87
   8 -10   5   57.24    7.46
 -10   2   5   54.76    8.51
  -8  11  -5    3.90    5.17
  11  -3  -5   -0.48    3.37
  11  -3  -5    6.77    6.53
  11  -3  -5    6.70    5.09
   8 -11   5   -5.35    5.64
   8 -11   5    0.68    6.83
   3   8   5   -4.32    7.85
  -8  12  -5    4.93    3.66
  12  -4  -5    6.33    6.61
  12  -4  -5   -0.97    5.78
  12  -4  -5    0.32    3.55
  12  -4  -5   -1.92    4.91
  -8  12  -5    0.27    5.36
   8 -12   5   -6.78    6.00
   8 -12   5   15.41    7.49
   4   8   5    2.89    9.09
  -8  13  -5   14.59    4.68
  13  -5  -5   10.18    6.32
  13  -5  -5   -7.12    3.59
  -8  13  -5    2.28    6.16
  13  -5  -5    6.14    6.61
  13  -5  -5  -13.59    7.26
  13  -5  -5   -2.91    5.39
   8 -13   5   10.15    7.97
   5   8   5   -9.77    9.56
   8 -13   5   -4.75    6.62
  14  -6  -5    0.22    6.43
  -8  14  -5    3.87    6.36
  14  -6  -5  -10.08    6.63
  14  -6  -5   10.89    6.26
  14  -6  -5    7.90    9.88
  -8  14  -5    9.22    4.74
   6   8   5    0.27   10.73
   8 -14   5    5.68    7.89
   8 -14   5   21.63    8.78
  15  -7  -5   -9.61    9.61
  15  -7  -5   -0.24    8.25
  -8  15  -5    5.60    7.04
  15  -7  -5    1.60    5.90
  -8  15  -5    0.82    4.70
  15  -7  -5   -2.99    6.88
   8 -15   5   21.15    8.91
   8 -15   5    4.83    8.05
   7   8   5   -0.98   10.91
  16  -8  -5   23.46    7.49
  16  -8  -5   15.15   12.16
  16  -8  -5   22.68    6.85
  16  -8  -5   25.01   10.15
   8 -16   5    3.96    9.00
   8 -16   5   18.97   10.08
   8   8   5    6.90   12.40
  16  -9  -5  -10.16   11.10
  16  -9  -5  -10.86    7.97
  16  -9  -5   -3.87    5.40
  -7  16  -5    6.03    8.02
  -7  16  -5   -4.01    5.29
  16  -9  -5  -12.64    6.19
   7 -16   5    1.11    9.52
   9   7   5  -15.64   10.61
  15  -9  -5    1.23    5.68
  -6  15  -5    2.61    7.71
  15  -9  -5   10.84   11.32
  15  -9  -5   12.45    6.38
  -6  15  -5   -0.48    5.74
  15  -9  -5   -8.30    7.41
   6 -15   5    9.86    9.53
   9   6   5   -8.24   10.71
  -5  14  -5   12.80    9.47
  14  -9  -5   19.83    6.73
  -5  14  -5   18.47    6.72
  14  -9  -5   20.61   11.19
  14  -9  -5   21.68    6.46
  14  -9  -5   15.38    8.11
   5 -14   5   22.76    9.89
   9   5   5   14.05   11.48
  13  -9  -5   80.95    7.41
  13  -9  -5   76.62    9.82
  -4  13  -5   81.67    9.92
  13  -9  -5   77.46   13.30
  13  -9  -5   67.34    9.69
  -4  13  -5   69.32   11.86
   9   4   5   92.34   14.72
   4 -13   5   62.38   12.20
  12  -9  -5   12.35    9.64
  12  -9  -5    3.00    6.09
  12  -9  -5   12.80    4.46
  -3  12  -5   22.95    9.40
   9   3   5   10.25   10.29
   3 -12   5   13.95    8.64
   3 -12   5   10.31    9.03
  11  -9  -5   14.04    8.98
  -2  11  -5    9.09    7.49
  11  -9  -5   16.23    6.32
  -2  11  -5   26.27    9.13
   2 -11   5   24.25    9.49
   2 -11   5   32.43    9.42
   9   2   5   11.26    8.67
  -9  -1  -5   91.67    8.02
  10  -9  -5   85.80    9.90
  -1  10  -5   84.37   11.90
  -1  10  -5   71.60   10.48
  10  -9  -5   97.10   11.69
   9   1   5   87.54   12.79
   9   1   5   89.63    8.92
   1 -10   5   90.65   11.92
   1 -10   5   82.56   11.73
   9  -9  -5   20.17    6.56
   0   9  -5   10.12    8.12
   9  -9  -5   16.78    7.82
   0   9  -5    6.88    7.90
  -9   0  -5    9.90    4.44
   0  -9   5    4.80    7.75
   9   0   5    4.49    5.20
   0  -9   5    8.08    7.92
   9   0   5   15.71    8.76
  -9   1  -5   27.39    4.94
   1   8  -5   26.48    8.44
   1   8  -5   11.04    8.30
  -1  -8   5   32.37    8.81
   9  -1   5   31.79    5.50
  -1  -8   5   27.75    8.76
   2   7  -5    8.61    7.90
   7  -9  -5   10.46    3.92
  -9   2  -5   13.91    4.36
   2   7  -5   24.31    8.42
  -2  -7   5    8.53    7.22
   9  -2   5   11.32    4.29
  -2  -7   5    4.86    7.61
   3   6  -5   21.22    8.24
   6  -9  -5   20.69    4.74
   3   6  -5    8.70    8.15
  -9   3  -5   20.04    3.17
  -9   3  -5   -0.99    6.14
  -9   3  -5    8.98    4.29
  -3  -6   5   17.83    7.67
  -3  -6   5   24.77    8.00
   5  -9  -5   30.36    5.23
   4   5  -5   -0.54    7.46
  -9   4  -5   -0.41    3.64
  -9   4  -5    2.38    2.26
   4   5  -5    2.26    7.41
  -4  -5   5    1.50    6.45
  -4  -5   5   -2.92    6.44
   9  -4   5   -4.32    6.17
   9  -4   5   -4.33    4.66
  -9   5  -5   20.88    2.95
   5   4  -5   20.04    7.99
   5   4  -5   24.65    8.54
  -9   5  -5   18.04    5.02
   4  -9  -5   41.80    6.07
  -5  -4   5   30.48    7.56
   9  -5   5   23.59    6.06
   9  -5   5   25.68    6.97
  -5  -4   5   13.37    7.13
   3  -9  -5    7.12    5.47
  -9   6  -5    4.16    2.73
  -9   6  -5    7.95    2.65
   6   3  -5   11.48    8.24
   6   3  -5   10.34    7.55
   9  -6   5   13.37    6.63
  -6  -3   5   16.01    6.39
  -6  -3   5    6.43    6.61
   9  -6   5    7.59    5.51
   7   2  -5   60.28    9.56
   7   2  -5   76.10   11.11
  -7  -2   5   56.70    8.82
   8   1  -5   26.79    8.55
  -9   8  -5    9.11    4.44
   8   1  -5   22.27    6.93
   9  -8   5    8.28    6.09
   9  -8   5   11.18    4.25
  -8  -1   5   23.23    7.40
   9  -8   5   17.34    7.35
  -8  -1   5   17.88    6.10
   9   0  -5    5.80    7.00
  -9   9  -5   11.22    6.46
  -9   9  -5    9.11    4.47
   9   0  -5    3.36    5.55
  -9   0   5    9.03    6.79
   9  -9   5    2.70    4.55
  -9   0   5    5.05    5.48
   0   9   5    8.25    7.22
   9  -9   5    6.24    6.06
  10  -1  -5   21.91    6.72
  -9  10  -5   28.61    5.53
  10  -1  -5    8.45    7.04
   1   9   5   19.99    8.66
   9 -10   5   23.96    5.72
 -10   1   5   21.72    7.29
   9 -10   5   23.37    7.15
 -10   1   5   21.36    5.98
  11  -2  -5   14.58    6.31
  11  -2  -5   20.34    7.79
  -9  11  -5   18.92    5.64
 -11   2   5   17.62    7.29
 -11   2   5   15.83    4.53
   9 -11   5   15.16    6.01
   9 -11   5    8.60    7.04
 -11   2   5   35.63    8.97
   2   9   5   17.70    9.06
  12  -3  -5    9.01    5.85
  12  -3  -5   -4.02    6.22
  -9  12  -5    5.60    5.36
  -9  12  -5    2.82    3.51
   9 -12   5    5.22    6.46
 -12   3   5   10.41    7.87
   9 -12   5   -3.05    6.99
   3   9   5   -0.31    8.99
 -12   3   5   -2.98    5.82
  13  -4  -5    8.79    7.05
  -9  13  -5   10.51    3.93
  13  -4  -5    3.69    5.51
  -9  13  -5   12.73    5.94
   4   9   5   -1.74   10.05
   9 -13   5   -5.20    6.61
   9 -13   5    1.02    7.38
  14  -5  -5  -10.92    4.91
  14  -5  -5   -7.92    9.31
  14  -5  -5    3.22    7.24
  -9  14  -5    1.23    3.73
  -9  14  -5    8.68    6.36
  14  -5  -5    2.73    6.10
   9 -14   5    4.83    8.09
   9 -14   5   -0.40    7.19
   5   9   5   15.65   11.29
  -9  15  -5  -11.13    5.66
  15  -6  -5  -11.47    6.32
  15  -6  -5  -17.04    5.45
  15  -6  -5    3.59   10.53
  15  -6  -5   15.76    6.88
   9 -15   5   -9.50    7.26
   6   9   5   -0.03   10.49
   9 -15   5    0.92    8.00
  16  -7  -5    0.93    6.40
  16  -7  -5  -11.51    7.73
  16  -7  -5   22.65    7.38
  16  -7  -5  -27.97    9.60
   7   9   5   29.00   12.80
   9 -16   5    4.40    8.62
   9 -16   5   -4.67    8.44
  -6  16  -5   -8.90    9.58
  16 -10  -5   -3.14    5.28
  16 -10  -5   20.31   12.57
  -6  16  -5   10.84    6.26
  16 -10  -5   -4.85    7.46
   6 -16   5  -10.04    9.07
  10   6   5   -4.79   11.67
  15 -10  -5   37.61    7.29
  -5  15  -5   45.70    8.05
  15 -10  -5   41.81    7.94
  15 -10  -5   43.48    9.25
  -5  15  -5   40.22   11.92
  15 -10  -5   37.54   12.84
  10   5   5   54.77   13.77
   5 -15   5   51.37   11.61
  -4  14  -5   10.71    6.56
  14 -10  -5    7.07    7.22
  14 -10  -5   12.32    6.05
  14 -10  -5   21.48   11.86
  -4  14  -5   16.64   10.23
   4 -14   5   21.35   10.16
  10   4   5    9.43   11.18
  13 -10  -5   14.67   11.13
  -3  13  -5    3.38    9.13
  13 -10  -5   22.32    6.55
  -3  13  -5    8.71    6.82
   3 -13   5   15.26    9.27
  10   3   5   14.24   10.66
  12 -10  -5   -3.12    9.24
  -2  12  -5   -8.99    6.65
  -2  12  -5    3.68    9.10
  12 -10  -5   -3.18    5.28
   2 -12   5   -7.57    8.65
  10   2   5   -4.34    9.31
  -1  11  -5   18.58    9.52
  11 -10  -5    7.49    5.76
  -1  11  -5    7.58    8.17
  11 -10  -5    9.75    9.25
 -10  -1  -5    1.10    4.04
   1 -11   5    2.83    8.35
   1 -11   5  -14.89    7.96
  10   1   5    7.99    9.50
  10   1   5   -2.36    5.73
 -10   0  -5   80.07    7.09
   0  10  -5   52.68   10.77
  10 -10  -5   62.96   10.96
   0  10  -5   82.16   11.36
  10   0   5   72.90   12.30
   0 -10   5   81.24   11.71
  10   0   5   69.04    8.04
   0 -10   5   66.46   11.30
 -10   1  -5   19.74    4.55
   1   9  -5   20.91    9.09
   1   9  -5   26.63    8.76
  -1  -9   5   11.12    8.79
  10  -1   5   18.54    9.20
  -1  -9   5    9.36    8.60
  10  -1   5   18.83    5.51
   2   8  -5   45.69   10.31
   2   8  -5   61.48   10.91
 -10   2  -5   59.03    6.20
   8 -10  -5   58.27    5.19
  -2  -8   5   60.35   10.55
  10  -2   5   53.48    5.72
  -2  -8   5   63.94   11.03
   3   7  -5  110.49   13.10
 -10   3  -5  105.91    7.92
   7 -10  -5  106.88    7.84
   3   7  -5  100.50   12.76
 -10   3  -5   94.85    5.54
  -3  -7   5  107.65   12.15
  -3  -7   5   83.04   11.73
   6 -10  -5   18.43    4.60
 -10   4  -5   24.97    6.75
 -10   4  -5   21.83    4.75
   4   6  -5   18.97    8.78
 -10   4  -5   16.39    2.52
   4   6  -5   23.02    9.22
  -4  -6   5   16.61    8.08
  -4  -6   5   19.06    8.13
 -10   5  -5   19.93    2.34
 -10   5  -5   27.74    6.51
   5   5  -5   30.84    9.52
 -10   5  -5   25.57    4.85
   5   5  -5   22.86    8.42
  10  -5   5   23.04    7.69
  10  -5   5   25.57    5.80
  -5  -5   5   28.07    8.00
  -5  -5   5   34.20    8.36
   6   4  -5    8.24    8.34
   6   4  -5   -6.38    7.82
 -10   6  -5   -7.02    4.66
  10  -6   5   -4.59    4.97
  10  -6   5    1.99    6.84
  -6  -4   5    7.27    6.79
  -6  -4   5    3.86    6.99
   7   3  -5   69.26   10.42
   7   3  -5   81.04   11.89
  -7  -3   5   58.18    8.61
  10  -7   5   34.54    6.88
  10  -7   5   38.30    8.64
  -7  -3   5   37.17    8.42
 -10   8  -5    6.62    2.53
   8   2  -5   10.58    8.00
   8   2  -5   13.30    8.85
  -8  -2   5    9.42    6.34
  -8  -2   5   13.93    7.68
  10  -8   5    4.87    5.89
  10  -8   5    8.56    7.02
 -10   9  -5   86.19    7.38
   9   1  -5   80.47   10.34
   9   1  -5   80.00   11.29
  10  -9   5   82.27   10.48
  -9  -1   5   96.66    9.23
  10  -9   5   91.29    9.66
  10  -9   5   85.41    6.75
  -9  -1   5   88.07   10.68
  10   0  -5   93.98   11.95
  10   0  -5  102.64   10.94
 -10  10  -5   71.36    6.89
 -10   0   5   65.43    8.22
  10 -10   5   77.88    9.53
  10 -10   5   72.41    6.98
 -10   0   5   81.09   10.07
   0  10   5   71.47   10.32
 -10  11  -5    7.67    4.60
  11  -1  -5    3.51    6.54
  11  -1  -5    7.63    5.76
   1  10   5   -4.07    7.80
 -11   1   5    2.00    4.56
 -11   1   5    2.13    6.86
  10 -11   5    4.55    6.65
  10 -11   5   10.19    5.37
 -10  12  -5   19.62    3.92
  12  -2  -5   27.57    8.71
  12  -2  -5   41.08    7.66
 -10  12  -5   28.19    5.96
   2  10   5   24.04   10.03
 -12   2   5   21.50    7.94
  10 -12   5   16.77    7.62
 -12   2   5   36.46    9.80
  10 -12   5   27.05    7.01
 -10  13  -5    6.58    5.35
  13  -3  -5    2.99    5.38
  13  -3  -5    2.42    7.12
 -10  13  -5    0.75    3.04
  10 -13   5    6.53    6.52
  10 -13   5   14.29    7.83
 -13   3   5   10.19    8.53
 -13   3   5   14.45    7.27
   3  10   5   -4.62    9.51
  14  -4  -5    8.76    5.36
  14  -4  -5    3.42    7.16
 -10  14  -5   -1.80    3.03
 -10  14  -5    5.10    5.46
  10 -14   5   -2.68    7.25
   4  10   5    3.03   10.28
  10 -14   5   -6.63    6.51
  15  -5  -5    7.48    7.18
  15  -5  -5    1.38    5.17
  15  -5  -5   20.43   11.25
 -10  15  -5   -4.22    5.76
  15  -5  -5    3.12    6.96
  10 -15   5   -3.20    7.66
   5  10   5    0.81   11.12
  10 -15   5   -3.74    7.43
  16  -6  -5   12.92   11.72
  16  -6  -5   19.07    7.79
  16  -6  -5   -2.21    5.80
  16  -6  -5   24.75    8.65
   6  10   5    7.83   12.43
  10 -16   5   27.09    9.50
  10 -16   5   17.33    8.87
  15 -11  -5    4.28   11.51
  -4  15  -5  -17.11    5.55
  15 -11  -5   10.45    5.72
  -4  15  -5   -6.96    9.78
  15 -11  -5   -2.64    6.94
  11   4   5    5.82   11.11
   4 -15   5   -6.99    9.64
  14 -11  -5   28.66   12.05
  14 -11  -5   35.56    7.98
  14 -11  -5   57.99    5.93
  -3  14  -5   25.13    7.85
  -3  14  -5   27.73   11.36
   3 -14   5   34.38   11.40
  11   3   5   14.30   11.43
  -2  13  -5   -9.16    6.60
  -2  13  -5    1.68    9.51
  13 -11  -5   15.89   11.03
  11   2   5   -2.98   10.28
   2 -13   5    0.50    9.17
 -11  -1  -5   -1.99    3.64
  -1  12  -5   -9.10    7.95
  -1  12  -5    3.40    9.82
  12 -11  -5  -13.47    9.49
   1 -12   5  -15.11    8.63
  11   1   5    4.57    6.51
  11   1   5    5.33    9.83
  11 -11  -5   16.01    9.69
   0  11  -5    5.13    8.93
   0  11  -5    6.24    9.91
 -11   0  -5   15.93    4.58
   0 -11   5   35.47   10.68
   0 -11   5    6.40    9.29
  11   0   5   12.01   10.21
  11   0   5   11.20    6.28
 -11   1  -5    1.26    3.44
   1  10  -5    0.73    8.78
   1  10  -5    1.37    7.90
  11  -1   5    0.23    5.03
  11  -1   5   -0.81    8.78
  -1 -10   5  -10.64    8.07
  -1 -10   5    9.41    9.06
 -11   2  -5   12.55    4.05
   2   9  -5   12.77    9.00
   2   9  -5   17.69    8.87
  -2  -9   5   18.51    9.47
  11  -2   5   12.62    4.66
  -2  -9   5   15.71    9.20
   3   8  -5    4.29    8.17
 -11   3  -5   -0.98    2.11
 -11   3  -5   -0.33    3.37
   3   8  -5    4.39    8.42
 -11   3  -5   -2.26    2.42
  -3  -8   5   10.08    8.32
  -3  -8   5    2.57    7.97
 -11   4  -5   31.40    2.47
 -11   4  -5   34.47    5.08
   4   7  -5   21.63    9.42
   4   7  -5   52.70   10.87
  -4  -7   5   37.56    9.45
  -4  -7   5   31.32    9.99
 -11   5  -5    2.98    5.70
   5   6  -5    2.47    8.13
 -11   5  -5   -1.80    3.55
   5   6  -5    7.13    8.32
  11  -5   5    8.61    7.66
  -5  -6   5    4.90    7.80
  -5  -6   5   13.72    7.90
 -11   6  -5   19.50    6.34
   6   5  -5   21.26    9.59
   6   5  -5   10.73    9.14
  11  -6   5   26.41    5.96
  11  -6   5   25.28    8.32
  -6  -5   5   39.54    8.45
  -6  -5   5   30.02    8.86
 -11   7  -5   37.77    6.55
   7   4  -5   55.44   11.03
   7   4  -5   42.21   10.76
  11  -7   5   33.18    6.48
  11  -7   5   40.05    8.68
  -7  -4   5   55.50    8.84
  -7  -4   5   63.94   10.01
   8   3  -5    5.41    8.90
   8   3  -5  -11.91    7.48
 -11   8  -5    0.87    3.32
  -8  -3   5   -7.87    6.37
  -8  -3   5    0.89    6.07
  11  -8   5   -4.94    5.90
  11  -8   5   -0.57    7.03
   9   2  -5   19.47    8.50
 -11   9  -5   17.91    4.08
   9   2  -5   27.38   10.24
  -9  -2   5   12.14    6.67
  11  -9   5   19.76    7.97
  11  -9   5   18.45    6.88
  -9  -2   5   19.07    7.92
  10   1  -5    7.21    8.17
 -11  10  -5   -1.95    3.25
  10   1  -5   -2.36    6.32
  -1  11   5    7.66    6.44
  11 -10   5   -1.74    7.42
  11 -10   5  -12.79    3.87
 -10  -1   5   -2.20    5.76
  11 -10   5   -2.56    6.10
 -10  -1   5   -1.79    6.66
 -11  11  -5    5.85    4.60
  11   0  -5    7.86    7.04
  11   0  -5   25.45    9.23
 -11   0   5   11.17    5.46
   0  11   5   18.01    8.02
  11 -11   5    9.43    7.58
  11 -11   5   16.45    5.27
 -11   0   5   13.53    7.90
  12  -1  -5   10.18    8.11
 -11  12  -5    1.50    4.37
  12  -1  -5   11.48    6.47
  11 -12   5  -13.39    6.30
 -12   1   5    7.42    7.31
 -12   1   5    1.12    4.08
  11 -12   5   -4.35    5.63
   1  11   5   -2.10    7.27
  13  -2  -5   18.95    6.87
 -11  13  -5   23.12    5.90
  13  -2  -5   25.15    8.84
 -11  13  -5   19.82    3.30
   2  11   5   19.48   10.19
  11 -13   5   42.19    8.89
 -13   2   5   17.01    9.21
 -13   2   5   32.95    8.28
  11 -13   5   21.00    6.80
 -11  14  -5   35.03    6.64
  14  -3  -5   15.33    6.76
  14  -3  -5   28.23    9.05
   3  11   5   30.94   11.54
  11 -14   5   20.83    7.41
  11 -14   5   37.34    9.23
 -14   3   5   16.70    7.66
 -14   3   5   25.09    9.96
  15  -4  -5   10.98    8.37
  15  -4  -5   16.36    6.23
  11 -15   5   17.06    8.06
   4  11   5   13.15   12.15
  11 -15   5   25.83    8.81
  15 -12  -5    2.70   12.41
  15 -12  -5   13.57    6.77
  -3  15  -5   16.04    8.16
  -3  15  -5   27.92   11.59
   3 -15   5   14.14   11.08
  12   3   5   -9.09   10.54
  14 -12  -5   38.29    7.58
  -2  14  -5   35.11    9.11
  -2  14  -5   49.82   12.50
  14 -12  -5   34.91   13.31
   2 -14   5   38.37   12.02
  12   2   5   38.54   13.40
  13 -12  -5    0.19   10.49
  -1  13  -5    0.94   10.01
  -1  13  -5    0.36    7.63
   1 -13   5    2.84   10.00
  12   1   5   -2.50   10.11
   0  12  -5    4.84    8.68
   0  12  -5   -3.51    9.67
   0 -12   5  -14.96    8.74
  12   0   5   -8.98    9.54
  12   0   5    0.84    5.82
   1  11  -5    6.73    8.88
   1  11  -5   -7.73    9.40
 -12   1  -5    1.61    3.44
  12  -1   5    3.70    5.33
  -1 -11   5    7.57    9.59
  12  -1   5  -10.76    9.26
  -1 -11   5    3.19    9.60
   2  10  -5   15.13    9.60
 -12   2  -5   23.22    4.78
   2  10  -5   19.71   10.68
  12  -2   5   13.71    4.98
  12  -2   5   29.08   10.52
  -2 -10   5   29.92   10.68
  -2 -10   5   24.74   10.41
 -12   3  -5    0.94    2.11
   3   9  -5   -5.88    8.68
 -12   3  -5    2.16    2.35
 -12   3  -5   12.71    3.83
   3   9  -5   -4.02    8.86
  -3  -9   5   -6.96    8.92
  12  -3   5    0.61    3.65
  -3  -9   5  -10.56    8.16
   4   8  -5   20.68    9.76
 -12   4  -5    3.48    3.39
   4   8  -5    8.83    9.04
  -4  -8   5   -4.48    8.00
  -4  -8   5   11.47    8.98
   5   7  -5   -5.85    8.74
 -12   5  -5   10.92    4.12
   5   7  -5    8.28    8.86
  -5  -7   5    1.26    8.55
  -5  -7   5   11.01    8.64
  12  -5   5    2.18    7.37
   6   6  -5    8.35    9.04
   6   6  -5   11.47    8.96
 -12   6  -5   -0.06    5.19
  12  -6   5    0.15    7.36
  -6  -6   5   17.97    8.19
  -6  -6   5   -4.13    8.11
   7   5  -5   25.22    9.62
 -12   7  -5  -13.20    3.99
   7   5  -5   19.38    9.43
  12  -7   5    3.06    7.57
  -7  -5   5   12.52    7.58
  12  -7   5    5.92    5.51
  -7  -5   5   26.08    8.83
   8   4  -5    9.20    9.32
   8   4  -5   22.08    9.68
 -12   8  -5   18.52    4.67
  12  -8   5   19.07    6.44
  12  -8   5   18.96    7.97
  -8  -4   5   20.05    7.77
  -8  -4   5   27.04    9.18
   9   3  -5   10.06    9.51
   9   3  -5    4.08    8.85
 -12   9  -5   14.08    3.92
 -12   9  -5    9.38    3.63
  12  -9   5    8.49    6.44
  -9  -3   5   14.64    7.35
  12  -9   5   13.99    7.75
  -9  -3   5    0.78    7.80
  10   2  -5   -5.70    7.55
 -12  10  -5   -0.62    3.14
 -12  10  -5    0.76    3.27
  10   2  -5   15.23    9.95
  12 -10   5   -3.33    6.76
 -10  -2   5    7.82    7.14
 -10  -2   5    9.57    7.91
  12 -10   5   -2.91    8.55
 -12  11  -5    4.42    3.36
  11   1  -5    8.97    8.78
  11   1  -5   -9.83    5.93
  12 -11   5    9.81    4.40
  12 -11   5    1.40    6.64
 -11  -1   5    2.41    7.56
 -11  -1   5   -0.36    5.33
  -1  12   5   -5.68    6.26
  12   0  -5    0.55    6.30
 -12  12  -5    3.06    3.78
  12   0  -5    4.30    8.20
 -12   0   5    3.17    7.05
  12 -12   5    0.87    4.75
 -12   0   5    1.41    4.48
   0  12   5   -6.11    6.30
  12 -12   5    6.46    7.07
  13  -1  -5   37.26    9.95
 -12  13  -5   24.86    5.19
  13  -1  -5    5.97    6.21
 -13   1   5    9.16    8.21
   1  12   5   16.48    8.76
  12 -13   5   19.60    6.26
  12 -13   5   14.96    7.76
 -13   1   5   15.92    4.88
  14  -2  -5   10.17    6.88
  14  -2  -5   -0.55    7.41
  12 -14   5   10.91    7.70
 -14   2   5    3.60    7.61
  12 -14   5    4.44    6.39
   2  12   5   -1.51    8.40
 -14   2   5   10.52    9.15
  15  -3  -5    4.00    6.51
  15  -3  -5   -4.36    7.47
  12 -15   5   -1.32    6.99
   3  12   5   -6.44   10.82
  12 -15   5  -16.48    7.20
  -2  15  -5   -4.29    7.37
  15 -13  -5    8.48   11.44
  -2  15  -5   -8.20   10.44
   2 -15   5   -0.71   10.49
  13   2   5   -0.25   11.92
  -1  14  -5   12.91    9.53
  -1  14  -5   13.36   11.80
  14 -13  -5   25.95   12.06
   1 -14   5    8.40   10.46
  13   1   5   20.05   11.92
   0  13  -5   18.98   10.03
   0  13  -5   27.31   11.92
   0 -13   5    8.72   10.66
  13   0   5    0.88   11.09
   1  12  -5   23.22   10.97
   1  12  -5   19.22    9.52
 -13   1  -5   22.13    4.45
  -1 -12   5   16.41   10.47
  -1 -12   5   20.89   11.51
  13  -1   5   22.54   11.20
   2  11  -5   14.91   10.50
 -13   2  -5   21.37    3.76
   2  11  -5   33.61   11.27
  -2 -11   5   23.29   10.61
  -2 -11   5    2.15    9.53
  13  -2   5   27.76   11.12
 -13   3  -5    6.51    2.33
   3  10  -5    6.89    9.15
   3  10  -5   12.02   10.14
  -3 -10   5   -2.44    9.13
  13  -3   5    3.27    3.62
  -3 -10   5    4.36   10.20
   4   9  -5   -1.93    9.63
   4   9  -5  -10.27    8.94
 -13   4  -5   10.06    3.58
  -4  -9   5   -1.46    9.41
  -4  -9   5    8.58    9.78
   5   8  -5    2.97    9.81
 -13   5  -5    0.20    3.14
   5   8  -5   -4.14    8.84
  -5  -8   5   -0.95    8.80
  13  -5   5   -5.35    7.98
  -5  -8   5    5.01    9.37
   6   7  -5   28.62   10.67
   6   7  -5   22.44   10.69
  -6  -7   5   21.33   10.04
  13  -6   5   41.11    9.91
  -6  -7   5   34.44    9.89
   7   6  -5   12.51   10.28
 -13   7  -5    4.94    5.18
   7   6  -5    3.33    9.20
  -7  -6   5   16.56    8.45
  13  -7   5    2.97    5.03
  -7  -6   5    7.29    8.97
  13  -7   5   -1.62    8.06
   8   5  -5    2.04    9.29
 -13   8  -5    3.12    3.74
   8   5  -5   14.47   10.02
  -8  -5   5   12.89    7.97
  -8  -5   5   18.02    9.27
  13  -8   5    1.69    7.87
  13  -8   5   10.30    5.90
   9   4  -5   86.87   14.20
 -13   9  -5   64.21    6.36
 -13   9  -5   63.77    5.16
   9   4  -5   72.37   12.28
  13  -9   5   73.02    8.80
  -9  -4   5   76.23   10.49
  13  -9   5   60.61   10.72
  -9  -4   5   71.41   11.86
 -13  10  -5    6.57    2.78
  10   3  -5   28.10   10.70
  10   3  -5   20.68    9.68
  13 -10   5   16.58    8.68
 -10  -3   5    5.33    7.11
  13 -10   5   14.03    6.97
 -10  -3   5   14.00    8.70
  11   2  -5    4.85    8.59
  11   2  -5   13.39   10.26
 -13  11  -5   -6.10    2.43
  -2  13   5   -1.82    5.97
  13 -11   5    1.70    8.88
 -11  -2   5   -9.74    7.34
  13 -11   5    4.14    6.90
 -11  -2   5    4.07    6.80
  12   1  -5   13.46    8.43
  12   1  -5   16.54   10.03
 -12  -1   5   -4.19    4.47
  13 -12   5   12.26    4.48
 -12  -1   5   11.83    8.22
  13 -12   5    6.52    6.92
  -1  13   5    8.25    6.79
  13   0  -5   20.60    8.11
  13   0  -5    5.20    8.91
 -13   0   5   22.13    8.72
  13 -13   5   14.74    5.47
   0  13   5   21.87    8.23
  13 -13   5   22.04    8.30
 -13   0   5   19.64    5.12
  14  -1  -5    7.17    8.21
  14  -1  -5    0.11    6.75
 -14   1   5    7.21    8.44
  13 -14   5   -9.62    5.40
  13 -14   5    2.54    7.37
   1  13   5   -5.82    7.57
  15  -2  -5    3.73    6.92
  15  -2  -5   -4.05    8.36
   2  13   5   12.57   10.51
  13 -15   5   -7.93    6.87
 -15   2   5    3.63    7.68
  13 -15   5   -6.61    6.42
 -15   2   5    5.65    9.22
   0  14  -5   19.68   11.95
   0  14  -5   -5.20    8.76
   0 -14   5    0.19   10.91
  14   0   5   20.29   12.02
   1  13  -5    6.20   10.28
   1  13  -5   18.66   11.83
  14  -1   5   13.33   11.27
  -1 -13   5    3.85   10.71
   2  12  -5   -4.61    9.09
   2  12  -5   15.96   11.49
  14  -2   5   15.22   11.10
  -2 -12   5   12.85   10.50
  -2 -12   5    2.96   10.46
   3  11  -5   16.84   10.45
   3  11  -5   26.62   11.57
  -3 -11   5    1.85   10.04
  -3 -11   5   26.81   11.09
   4  10  -5    5.13   10.29
   4  10  -5   -6.42    9.22
  -4 -10   5   13.44   10.57
  -4 -10   5    9.98   10.06
   5   9  -5   19.64   10.60
   5   9  -5    1.25    9.81
  -5  -9   5  -12.00    8.39
  14  -5   5   -1.74    8.80
  -5  -9   5    0.12    9.25
   6   8  -5    1.46    9.77
   6   8  -5    4.43   10.09
  -6  -8   5   12.53   10.18
  -6  -8   5    6.32    9.61
  14  -6   5   24.35    9.37
   7   7  -5   -4.87    9.26
   7   7  -5    2.08    9.83
  -7  -7   5    8.47    9.11
  -7  -7   5   -5.21    9.04
  14  -7   5   10.21    8.37
   8   6  -5   -3.86    9.50
   8   6  -5   10.22   10.67
  14  -8   5    4.92    8.30
  -8  -6   5    6.41    9.02
  -8  -6   5    9.91    8.50
  14  -8   5    8.63    5.40
   9   5  -5   23.63   10.77
   9   5  -5   32.20   11.26
  -9  -5   5   16.80    8.53
  14  -9   5   18.60    6.32
  -9  -5   5    1.10    8.89
  14  -9   5   23.39    9.08
  10   4  -5   21.64   10.84
  10   4  -5   -3.41   10.05
 -10  -4   5   -3.75    8.41
  14 -10   5   11.03    6.58
 -10  -4   5    1.41    7.60
  14 -10   5    6.33    9.12
  11   3  -5   22.90   11.43
  11   3  -5   40.29   11.34
  14 -11   5   21.82    7.85
 -11  -3   5   19.98    9.14
  14 -11   5   29.08    9.99
 -11  -3   5   30.57    8.01
  12   2  -5   31.27   11.64
  12   2  -5   32.41   11.17
  14 -12   5   39.82   11.31
 -12  -2   5   30.66    9.69
  14 -12   5   22.18    8.04
  -2  14   5   39.31    8.47
 -12  -2   5   35.87    7.59
  13   1  -5   23.07    9.49
  13   1  -5    7.64   10.52
 -13  -1   5   21.31    5.43
  -1  14   5   13.87    7.76
  14 -13   5   29.77    8.55
 -13  -1   5   10.63    8.58
  14   0  -5   -1.08    7.79
  14   0  -5   14.93    9.31
  14 -14   5    9.69    7.81
 -14   0   5   18.02    8.64
   0  14   5    9.95    7.64
   2  13  -5   -2.18    9.84
   2  13  -5    6.26   11.26
  15  -2   5   18.79   11.71
  -2 -13   5    9.22   10.43
  -2 -13   5   13.88   12.04
   3  12  -5  -21.15   10.08
   3  12  -5   -8.83    9.99
  -3 -12   5    5.84   10.28
  -3 -12   5   -1.03   10.23
  15  -3   5   -9.93   10.39
   4  11  -5    2.83   11.22
   4  11  -5   11.25   10.97
  -4 -11   5    3.37    9.96
  -4 -11   5    4.25   10.64
   5  10  -5  -11.42    9.56
   5  10  -5   -8.14    9.97
  -5 -10   5    9.24   10.62
  -5 -10   5  -14.38    9.27
   6   9  -5    8.19   10.14
   6   9  -5   15.41   11.19
  15  -6   5  -14.26    8.78
  -6  -9   5   -1.61   10.09
  -6  -9   5   -5.84    8.79
   7   8  -5    1.37   10.02
   7   8  -5   12.45   11.30
  15  -7   5    7.00    9.32
  -7  -8   5    2.85    9.93
  -7  -8   5    4.09    9.49
   8   7  -5   11.31   11.03
   8   7  -5    0.86    9.93
  15  -8   5   -1.06    9.03
  -8  -7   5    1.42    8.07
  -8  -7   5   -0.07    9.40
   9   6  -5    2.72   10.31
   9   6  -5   -7.73    9.80
  -9  -6   5    4.23    8.02
  15  -9   5    7.45    9.47
  -9  -6   5   12.65    9.87
  15  -9   5    6.60    5.40
  10   5  -5   34.97   11.94
  10   5  -5   52.93   12.84
 -10  -5   5   25.69   10.24
  15 -10   5   18.30   10.48
 -10  -5   5   38.42    9.45
  15 -10   5   32.04    7.06
  11   4  -5   -6.18    9.85
  11   4  -5    0.70   10.44
 -11  -4   5    1.51    8.40
  15 -11   5   -8.36    9.38
  15 -11   5   -4.80    6.22
 -11  -4   5    1.70    7.30
  12   3  -5   25.14   11.74
  12   3  -5    4.18   10.16
 -12  -3   5    5.57    8.53
  15 -12   5   -8.27    7.30
 -12  -3   5    9.61    7.02
  15 -12   5   -2.64   10.56
  13   2  -5   -0.65   10.09
  13   2  -5   -0.32   10.37
  -2  15   5    3.89    6.24
  15 -13   5   13.00    7.72
 -13  -2   5   -7.77    7.98
 -13  -2   5    3.20    4.69
   6  10  -5   13.98   12.18
   6  10  -5    8.96   11.63
  -6 -10   5   15.76   10.90
  16  -6   5   19.31   10.87
  -6 -10   5   25.36   11.64
   7   9  -5   15.38   11.60
   7   9  -5   -6.73   11.10
  -7  -9   5  -14.34    9.17
  16  -7   5    5.47    9.87
  -7  -9   5    1.96   10.63
   8   8  -5   23.62   12.29
   8   8  -5   -0.57   11.35
  -8  -8   5   18.59   11.14
  -8  -8   5    5.69   10.04
  16  -8   5   11.26   10.32
   9   7  -5  -11.13   10.93
   9   7  -5    6.62   11.46
  -9  -7   5    0.39    9.18
  16  -9   5    9.72   10.67
  -9  -7   5   -1.44    9.39
  10   6  -5    8.31   10.98
  10   6  -5    8.97   11.61
 -10  -6   5   -1.70    8.03
 -10  -6   5    0.91    9.38
  16 -10   5   -2.46    9.94
   0   0  -6   42.25    7.43
   0   0  -6   48.75    6.78
   0   0  -6   44.42    6.47
   0   0   6   44.86    7.52
   1  -1  -6    5.03    5.63
  -1   0  -6    7.34    4.97
  -1   0  -6    7.11    5.48
  -1   0  -6    5.95    5.68
   0   1  -6    4.03    5.09
   1  -1  -6    3.53    5.01
  -1   0  -6   10.74    5.13
   1  -1  -6    1.73    4.97
   1  -1  -6    4.75    6.12
   0   1  -6    3.89    5.03
   0  -1   6    7.90    5.78
   1   0   6   15.56    6.09
  -1   1   6    8.06    5.39
  -1   1  -6    4.24    4.86
   0  -1  -6    6.14    5.60
   1   0  -6    8.62    3.17
  -1   1  -6    0.27    4.72
  -1   1  -6    8.70    6.12
   0  -1  -6    6.07    5.94
   1   0  -6    8.64    6.60
   0  -1  -6   11.99    5.32
   1   0  -6   12.92    5.17
   0  -1  -6    3.80    4.87
   1   0  -6    5.81    5.07
  -1   0   6   15.35    5.89
   1  -1   6   11.58    5.96
   2  -1  -6    6.72    5.02
  -1  -1  -6   12.55    6.25
   2  -1  -6    8.28    6.59
  -1  -1  -6    9.86    5.25
  -1   2  -6    5.94    5.24
   2  -1  -6    8.90    5.37
   2  -1  -6    9.35    4.15
  -1   2  -6    9.97    5.24
  -2   1   6   12.33    5.91
   1  -2   6   11.13    5.81
   1  -2   6    5.13    6.09
   1   1   6    5.52    2.84
   1  -2   6   20.78    6.80
   3  -2  -6   48.99    8.18
   3  -2  -6   54.41    7.06
  -1   3  -6   60.92    7.32
   3  -2  -6   51.11    7.66
   3  -2  -6   57.90    7.52
  -2  -1  -6   53.03    7.55
   3  -2  -6   48.18    5.89
  -1   3  -6   53.31    7.21
  -2  -1  -6   43.37    6.84
   1  -3   6   60.02    8.48
   2   1   6   56.45    8.08
   1  -3   6   64.48    8.05
   2  -2  -6    2.07    5.98
  -2   0  -6   13.96    6.02
  -2   0  -6    5.19    4.72
   2  -2  -6    3.50    4.97
   0   2  -6    5.06    4.87
   2  -2  -6   -4.44    5.52
   0   2  -6    7.72    5.08
   2  -2  -6    2.93    4.95
  -2   0  -6   10.60    5.43
  -2   0  -6    7.20    5.19
   0  -2   6    6.28    5.93
   0  -2   6    7.00    6.56
   0  -2   6   13.93    6.22
  -2   1  -6   12.76    4.91
   1   1  -6   14.95    5.53
   1  -2  -6   11.24    5.48
   1  -2  -6    9.92    6.60
  -2   1  -6   12.33    6.01
  -2   1  -6   18.94    5.72
   1   1  -6    0.96    5.04
  -1   2   6   12.64    3.80
   2  -1   6    9.71    5.94
  -1  -1   6   19.61    6.29
  -1  -1   6    4.81    5.60
  -1  -1   6    8.41    6.63
  -2   2  -6    8.57    6.04
  -2   2  -6   11.67    5.05
   0  -2  -6    2.40    6.01
   0  -2  -6    2.88    5.19
  -2   2  -6    1.74    5.14
   2   0  -6    7.90    4.17
   2   0  -6    2.90    4.88
   2   0  -6    7.58    5.24
  -2   0   6    0.40    5.73
   0   2   6    1.35    3.55
   0   2   6   -2.96    5.89
   2  -2   6    5.28    5.68
   3  -1  -6    4.12    4.55
  -1  -2  -6    8.05    5.24
  -2   3  -6   -0.89    4.42
   3  -1  -6   -4.65    5.89
   3  -1  -6   -2.99    4.55
  -1  -2  -6   -3.04    5.53
  -2   3  -6    1.49    4.92
   3  -1  -6    7.61    5.03
  -3   1   6    0.73    5.38
   2  -3   6   11.27    5.54
   1   2   6    7.23    6.03
   2  -3   6    8.76    6.21
   2  -3   6    1.27    5.76
   4  -2  -6   -0.95    6.32
   4  -2  -6   -5.20    4.66
  -2   4  -6    5.19    3.43
  -2  -2  -6    6.84    5.94
   4  -2  -6    2.62    4.91
  -2   4  -6    1.29    4.76
  -2  -2  -6    6.59    6.08
   4  -2  -6   -3.14    4.81
  -2  -2  -6    6.31    5.35
   2   2   6   -2.70    5.28
   2  -4   6    9.47    5.69
   2  -4   6   -0.70    5.76
  -2   5  -6   -1.58    4.85
   5  -3  -6    0.83    5.00
   5  -3  -6    0.84    4.76
   5  -3  -6    1.58    4.67
   5  -3  -6   -2.70    6.12
   2  -5   6   -6.55    5.03
   2  -5   6    3.10    5.72
   3   2   6   -5.26    5.03
   4  -3  -6   11.70    6.44
  -3  -1  -6   15.65    5.91
   4  -3  -6    8.67    6.41
   4  -3  -6   11.91    4.73
  -1   4  -6   11.71    5.38
  -3  -1  -6   14.18    6.57
  -3  -1  -6   -1.30    5.03
   4  -3  -6   15.25    5.73
   4  -3  -6   12.03    5.16
   3   1   6    6.15    5.59
   1  -4   6   10.79    6.22
   1  -4   6    0.14    5.40
   3  -3  -6   10.36    5.27
   0   3  -6   11.92    5.43
   3  -3  -6    9.27    6.02
   0   3  -6   14.28    5.48
  -3   0  -6   10.01    5.17
  -3   0  -6    8.57    5.80
   3  -3  -6   20.12    6.91
   3  -3  -6   17.08    5.64
   0  -3   6    5.65    5.93
   0  -3   6   12.80    5.98
  -3   1  -6    7.10    4.66
  -3   1  -6    4.52    5.17
   2  -3  -6   -0.89    4.86
  -3   1  -6    4.30    4.97
   1   2  -6    3.43    5.00
   1   2  -6    6.06    5.23
   2  -3  -6   -1.74    6.02
  -3   1  -6    3.54    5.55
  -2   3   6    2.13    3.98
   3  -1   6    0.63    5.57
  -1  -2   6    2.14    5.63
  -2   3   6   10.68    6.33
  -1  -2   6    1.78    5.74
   2   1  -6   40.52    6.56
   2   1  -6   59.64    7.28
  -3   2  -6   60.97    7.66
  -3   2  -6   62.75    7.36
  -3   2  -6   54.49    6.48
   1  -3  -6   56.76    8.64
   1  -3  -6   63.11    7.52
  -2  -1   6   49.23    7.82
   3  -2   6   47.76    7.67
  -1   3   6   53.64    5.68
  -2  -1   6   50.99    8.64
  -2  -1   6   47.77    7.86
  -1   3   6   60.31    8.55
  -3   3  -6    3.08    4.20
   3   0  -6   15.38    5.49
   3   0  -6    5.12    5.12
   0  -3  -6   13.05    5.70
  -3   3  -6    9.55    5.19
   0  -3  -6   11.06    6.31
  -3   0   6    8.42    5.52
  -3   0   6   16.45    7.05
   3  -3   6   11.86    6.01
   3  -3   6   16.56    6.53
  -3   0   6   10.44    6.13
   3  -3   6   12.73    5.12
   0   3   6   12.83    6.10
  -3   4  -6    5.86    5.25
   4  -1  -6   -0.02    4.91
  -3   4  -6   12.69    4.96
   4  -1  -6   14.08    5.22
   4  -1  -6    2.78    4.88
  -1  -3  -6    9.06    6.15
  -3   4  -6    2.57    3.03
  -1  -3  -6    1.87    6.08
  -4   1   6    7.45    5.85
   1   3   6    7.19    5.81
   3  -4   6   -2.26    5.71
   3  -4   6   10.18    5.64
   5  -2  -6    1.42    4.80
  -3   5  -6    4.36    4.64
   5  -2  -6    4.43    5.00
  -3   5  -6   -3.56    3.76
  -2  -3  -6   -3.87    5.80
   5  -2  -6    2.13    5.08
   5  -2  -6    3.96    6.66
   3  -5   6   -1.92    5.75
   2   3   6   -4.08    5.58
   3  -5   6   -1.07    4.96
  -3   6  -6   20.26    5.07
  -3   6  -6   12.99    5.56
   6  -3  -6   16.09    5.71
   6  -3  -6   24.62    5.69
  -3   6  -6   19.45    7.02
   6  -3  -6   17.27    6.91
   3  -6   6   20.17    6.28
   3   3   6   30.16    7.01
   3  -6   6   17.92    6.75
   7  -4  -6   -2.20    5.56
   7  -4  -6   -0.04    3.98
  -3   7  -6   11.16    5.55
   7  -4  -6    6.63    5.16
  -3   7  -6   12.68    6.94
   3  -7   6    7.87    5.71
   3  -7   6  -11.80    5.32
  -2   6  -6    0.99    5.22
   6  -4  -6    1.03    6.04
   6  -4  -6    9.79    5.21
  -2   6  -6    0.39    6.69
   6  -4  -6    9.75    5.09
   4   2   6   12.72    5.94
   2  -6   6   13.24    5.92
   2  -6   6    7.67    6.19
   5  -4  -6   24.93    7.80
  -1   5  -6   25.87    6.18
   5  -4  -6   24.35    5.89
  -1   5  -6   19.75    7.25
  -4  -1  -6   10.66    5.51
   5  -4  -6   22.10    5.64
   5  -4  -6   24.52    6.15
   5  -4  -6   16.31    6.66
   4   1   6   18.26    5.86
   1  -5   6   10.49    6.23
   1  -5   6   31.40    6.99
   4  -4  -6   21.53    5.88
  -4   0  -6   14.16    5.71
   4  -4  -6   24.49    7.48
   4  -4  -6   18.02    4.82
  -4   0  -6   19.99    5.70
   0   4  -6   23.11    6.04
   0  -4   6   14.81    6.41
   0  -4   6   22.89    6.57
   4   0   6   17.94    6.06
  -4   1  -6    8.40    5.12
   1   3  -6    7.20    5.49
   3  -4  -6    0.60    6.23
  -4   1  -6   -0.78    5.18
  -4   1  -6    8.38    4.63
   3  -4  -6    2.48    5.20
  -4   1  -6    3.20    4.93
  -3   4   6    6.48    4.56
  -1  -3   6   12.83    6.20
  -1  -3   6    6.02    5.68
  -4   2  -6    4.31    5.09
   2   2  -6  -13.13    4.34
  -4   2  -6    3.64    4.91
  -4   2  -6    4.89    4.33
   2   2  -6    0.17    4.93
   2  -4  -6    6.83    6.36
   4  -2   6   -5.74    5.24
  -2   4   6    2.42    4.69
   4  -2   6    5.47    3.05
  -2  -2   6   -3.50    5.57
  -2  -2   6    8.13    5.87
   1  -4  -6   11.56    6.48
  -4   3  -6    3.42    5.28
  -4   3  -6    6.61    5.04
   3   1  -6    9.19    5.25
   3   1  -6    3.98    4.99
  -4   3  -6   15.21    4.58
  -3  -1   6   13.19    6.76
  -3  -1   6   15.53    6.32
   4  -3   6   11.24    6.00
  -1   4   6   13.55    5.16
  -3  -1   6    9.60    6.13
   4   0  -6   14.82    5.48
   0  -4  -6   29.76    6.88
  -4   4  -6   15.85    4.80
  -4   4  -6   10.74    5.55
   4   0  -6   36.27    6.16
   0  -4  -6   18.59    7.14
   4  -4   6   24.10    6.74
  -4   0   6   18.12    6.36
   4  -4   6   26.53    5.78
  -4   0   6   14.05    6.95
   4  -4   6   18.09    6.21
  -4   0   6    7.04    5.89
  -4   5  -6    8.66    4.90
  -1  -4  -6   10.23    6.51
   5  -1  -6   11.17    5.47
  -4   5  -6    8.36    4.03
   5  -1  -6   13.94    5.31
  -5   1   6    3.34    6.72
  -5   1   6   -1.77    5.52
  -5   1   6    8.37    5.83
   4  -5   6    8.16    6.20
   4  -5   6    9.12    5.23
   6  -2  -6   12.35    5.26
   6  -2  -6    2.16    4.72
  -6   2   6    7.78    5.55
   7  -3  -6    6.86    4.18
   7  -3  -6   10.24    5.49
  -4   7  -6    4.43    6.60
  -4   7  -6   10.24    5.04
  -4   7  -6   11.31    5.58
   7  -3  -6    2.99    5.91
   4  -7   6   13.66    5.92
   4  -7   6    6.14    6.09
   8  -4  -6   22.53    6.44
   8  -4  -6   10.93    5.74
  -4   8  -6   10.62    7.08
  -4   8  -6   10.62    5.74
  -4   8  -6   16.83    5.53
   8  -4  -6    9.10    4.14
   4  -8   6   13.67    6.53
   4  -8   6    4.79    6.49
   9  -5  -6   -2.71    3.69
  -4   9  -6    2.72    7.24
   9  -5  -6    4.37    5.86
   9  -5  -6   -6.75    5.51
   4  -9   6   -3.85    6.31
   4  -9   6    0.10    6.94
   8  -5  -6   16.77    4.50
   8  -5  -6   18.46    6.37
  -3   8  -6    5.74    7.34
   8  -5  -6   14.84    6.21
   3  -8   6   20.42    7.25
   3  -8   6    1.32    6.18
  -2   7  -6    3.99    6.75
   7  -5  -6    4.50    4.76
   7  -5  -6    5.06    6.52
   7  -5  -6   -1.32    4.96
   2  -7   6   -1.36    5.90
   5   2   6    4.86    5.95
   2  -7   6    0.62    6.25
  -1   6  -6   27.18    7.59
   6  -5  -6   27.49    5.82
   6  -5  -6   26.02    7.53
  -5  -1  -6   15.36    5.67
   5   1   6   22.97    6.21
   1  -6   6   13.16    6.26
   1  -6   6   22.63    7.04
  -5   0  -6    8.86    5.26
   0   5  -6   23.35    6.26
   0   5  -6   24.45    7.83
   5  -5  -6   21.44    5.59
   5  -5  -6   25.70    7.64
   5   0   6   26.16    5.94
   0  -5   6   17.90    6.60
   0  -5   6   21.49    6.64
  -5   5   6   15.11    5.42
   1   4  -6    2.16    5.24
  -5   1  -6   26.71    5.75
  -5   1  -6    5.03    4.94
   4  -5  -6    5.25    6.54
  -5   1  -6   22.63    5.41
   1   4  -6   11.36    6.90
  -5   1  -6   15.74    4.52
  -1  -4   6   19.66    6.69
  -1  -4   6    1.25    5.78
  -4   5   6    8.05    5.05
  -5   2  -6    8.67    4.30
   2   3  -6    8.69    5.55
   3  -5  -6    3.33    6.20
  -5   2  -6    4.45    4.88
  -5   2  -6    0.06    4.54
  -3   5   6   -0.67    4.95
  -2  -3   6   -1.81    5.63
   5  -2   6    3.18    3.84
   5  -2   6   -0.89    5.46
  -2  -3   6   -3.34    5.77
  -5   3  -6   -2.85    4.60
  -5   3  -6    5.52    4.05
  -5   3  -6    2.24    4.76
   2  -5  -6   -2.18    6.05
  -3  -2   6   -1.57    5.46
   5  -3   6    5.23    3.75
   5  -3   6    6.35    5.73
  -2   5   6    0.22    4.76
  -3  -2   6    3.36    5.94
   1  -5  -6   13.39    6.97
  -5   4  -6   16.80    5.65
   1  -5  -6   17.78    6.59
  -5   4  -6   12.92    4.59
  -5   4  -6   18.32    5.63
   4   1  -6   23.86    6.11
  -4  -1   6   34.75    7.06
   5  -4   6   15.15    6.44
  -4  -1   6   13.81    6.36
  -5   5  -6   26.29    5.35
   5   0  -6   21.68    5.81
   0  -5  -6   17.07    6.38
  -5   0   6   20.98    7.07
   5  -5   6   17.28    6.66
   5  -5   6   15.18    5.96
   5  -5   6   18.97    5.48
  -5   0   6   30.90    6.71
  -5   0   6   21.23    7.71
   6  -1  -6   39.79    6.22
  -1  -5  -6   25.34    7.28
  -5   6  -6   38.35    5.49
  -5   6  -6   21.71    5.54
   5  -6   6   24.99    5.98
  -6   1   6   20.99    6.94
   5  -6   6   24.69    7.04
  -6   1   6   33.36    8.36
  -6   1   6   40.72    7.08
  -5   7  -6   67.94    8.80
  -5   7  -6   68.87    7.89
  -5   7  -6   79.12    7.58
   7  -2  -6   87.95    7.63
  -7   2   6   92.38    8.63
   5  -7   6   70.99    9.12
   5  -7   6   71.40    8.13
   8  -3  -6   16.27    5.98
  -5   8  -6   16.04    6.72
  -5   8  -6   15.16    5.95
   8  -3  -6   15.97    4.51
  -5   8  -6   11.30    5.29
   8  -3  -6   11.38    6.21
   5  -8   6   26.39    7.17
   5  -8   6   11.84    5.96
  -5   9  -6    3.68    5.66
   9  -4  -6    3.54    4.10
   9  -4  -6    9.18    6.42
  -5   9  -6   -8.23    6.46
   9  -4  -6    4.64    6.12
   5  -9   6   -2.59    6.54
   5  -9   6    4.90    6.40
  10  -5  -6   -0.34    5.52
  -5  10  -6    4.15    5.86
  10  -5  -6    3.56    3.64
  10  -5  -6   -1.74    5.72
  -5  10  -6   -8.23    6.64
   5 -10   6   -6.20    6.39
   5 -10   6   11.64    7.25
   5   5   6   -4.16    8.01
  11  -6  -6    2.62    3.92
  -5  11  -6    0.32    5.31
  11  -6  -6   -6.08    5.63
  -5  11  -6    6.53    7.56
  11  -6  -6    7.64    7.09
   5 -11   6    3.42    7.64
   5 -11   6   -2.15    6.65
   6   5   6   -0.04    9.06
  -4  10  -6    3.86    7.37
  -4  10  -6    7.38    5.54
  10  -6  -6   -1.35    3.52
  10  -6  -6    6.76    6.06
  10  -6  -6   -5.81    5.99
   6   4   6    3.16    8.53
   4 -10   6   13.21    7.39
   4 -10   6    8.35    7.49
   9  -6  -6    3.00    6.06
   9  -6  -6   12.38    6.62
  -3   9  -6    4.07    7.36
   3  -9   6   -4.04    6.61
   3  -9   6    5.77    7.17
   8  -6  -6   11.68    6.33
  -2   8  -6    1.74    7.25
   8  -6  -6   -3.75    5.44
   6   2   6    5.00    6.15
   2  -8   6    4.50    7.03
   2  -8   6   -4.59    6.03
   7  -6  -6   32.59    7.93
  -1   7  -6   35.51    8.73
   7  -6  -6   27.01    6.39
   6   1   6   50.92    7.39
   1  -7   6   23.16    8.05
   1  -7   6   35.65    7.97
  -6   0  -6   -0.88    4.62
   0   6  -6    0.10    6.49
   6  -6  -6    8.27    6.98
   6  -6  -6    6.82    5.11
   0  -6   6   -0.50    6.07
   6   0   6   -1.56    4.89
  -6   6   6   -0.28    5.33
   0  -6   6    1.57    6.22
   1   5  -6   38.49    8.29
   5  -6  -6   27.76    8.06
  -6   1  -6   24.82    5.81
   6  -1   6   28.74    5.93
  -5   6   6   35.95    6.53
  -1  -5   6   31.28    7.52
  -1  -5   6   29.15    7.27
  -6   2  -6    0.39    4.70
   4  -6  -6   -4.43    6.25
  -6   2  -6    6.16    4.82
  -6   2  -6    7.04    4.22
   2   4  -6    1.76    6.50
  -6   2  -6   -1.13    4.32
  -2  -4   6   16.11    6.54
  -4   6   6    1.92    5.55
  -2  -4   6    0.82    5.99
  -6   3  -6   14.26    4.43
   3  -6  -6   15.95    7.58
   3   3  -6   26.00    7.92
  -6   3  -6   18.40    5.27
  -6   3  -6   23.90    5.87
   6  -3   6   24.51    4.58
  -3   6   6   25.96    5.95
  -3  -3   6   19.65    7.00
   6  -3   6   35.84    6.88
  -3  -3   6   23.78    7.36
  -6   4  -6    1.78    4.65
  -6   4  -6    4.31    4.01
  -6   4  -6    3.42    4.94
   4   2  -6    1.12    6.70
   2  -6  -6    8.80    5.64
  -2   6   6   10.38    5.62
  -4  -2   6   -8.92    5.66
   6  -4   6    0.91    3.92
   6  -4   6   -4.36    5.45
  -4  -2   6    5.29    5.92
   5   1  -6   18.18    7.39
  -6   5  -6   18.93    5.67
  -6   5  -6   11.94    4.63
   5   1  -6   17.95    6.05
   1  -6  -6   18.11    6.50
   6  -5   6   21.18    6.70
  -5  -1   6   17.52    6.28
  -5  -1   6   19.70    6.83
  -6   6  -6   -9.95    4.07
   6   0  -6    6.24    4.90
   0  -6  -6    6.36    5.91
   6   0  -6   -3.04    5.87
   6  -6   6   -4.48    4.73
   6  -6   6    6.33    6.02
  -6   0   6    2.86    6.30
  -6   0   6   -1.62    6.71
  -6   0   6    0.16    5.53
   7  -1  -6    8.77    4.47
  -6   7  -6    8.72    4.96
  -6   7  -6    4.01    4.39
  -7   1   6   -3.66    5.63
  -7   1   6   -0.30    6.97
  -7   1   6    1.23    5.57
   6  -7   6   -3.13    5.66
   6  -7   6    2.94    5.00
   8  -2  -6    3.93    4.00
  -6   8  -6    2.40    4.86
  -6   8  -6    5.70    6.45
  -6   8  -6    9.03    5.49
  -8   2   6   -0.51    6.90
   6  -8   6    6.85    5.51
  -8   2   6   13.94    5.65
  -8   2   6    5.33    6.13
   6  -8   6    3.86    6.34
   9  -3  -6   17.32    6.86
  -6   9  -6   16.90    7.39
   9  -3  -6   12.24    6.34
   9  -3  -6   14.24    4.42
  -6   9  -6   20.83    6.20
   6  -9   6   10.06    7.12
   6  -9   6    8.50    6.20
  10  -4  -6    3.46    3.53
  -6  10  -6  -10.75    5.44
  -6  10  -6    0.51    6.49
  10  -4  -6    5.20    6.08
  10  -4  -6    1.60    6.14
   6 -10   6    5.99    6.80
   6 -10   6    8.83    6.65
   4   6   6   -0.59    8.08
  -6  11  -6   -4.92    4.60
  11  -5  -6    4.46    6.42
  -6  11  -6   -3.33    6.38
  11  -5  -6    6.15    5.83
  11  -5  -6    6.20    3.87
   6 -11   6   -0.26    6.79
   5   6   6  -19.12    8.40
   6 -11   6   -7.37    6.86
  12  -6  -6    8.07    6.15
  12  -6  -6   -7.46    3.52
  12  -6  -6    3.72    7.41
  -6  12  -6    5.40    6.94
  -6  12  -6    7.94    5.58
  12  -6  -6    3.67    6.29
   6 -12   6    1.51    7.69
   6 -12   6    1.23    8.01
   6   6   6    5.78    9.87
  13  -7  -6    3.46    3.85
  13  -7  -6    8.82    7.74
  13  -7  -6   16.34    8.13
  13  -7  -6   20.07    6.36
  13  -7  -6    4.98    6.49
  -6  13  -6    8.78    5.53
  -6  13  -6    0.31    6.66
   7   6   6   -0.11   10.55
   6 -13   6    8.25    8.24
   6 -13   6    3.55    8.14
  12  -7  -6   -2.55    7.19
  -5  12  -6    1.88    5.73
  12  -7  -6    6.56    6.62
  -5  12  -6    5.25    8.30
   5 -12   6    4.53    8.29
   7   5   6   -5.57    8.80
   5 -12   6    5.65    8.02
  11  -7  -6    1.51    6.89
  -4  11  -6    0.35    5.81
  -4  11  -6   -3.75    7.89
  11  -7  -6   -7.13    5.39
   4 -11   6    5.14    7.86
   4 -11   6   -1.41    7.46
   7   4   6    2.70    9.41
  10  -7  -6  -13.88    4.91
  -3  10  -6   -3.05    6.26
  -3  10  -6   -6.30    7.11
  10  -7  -6   -2.43    6.02
   3 -10   6    6.74    7.45
   3 -10   6   -2.73    7.52
   7   3   6    5.36    8.36
   9  -7  -6    3.07    5.90
   9  -7  -6    8.04    6.25
  -2   9  -6   -9.18    6.40
  -2   9  -6   -3.06    7.41
   7   2   6   -0.74    5.77
   2  -9   6    0.80    7.36
   2  -9   6   15.02    7.74
   8  -7  -6    3.01    5.97
  -1   8  -6    7.63    7.06
  -1   8  -6   -1.40    7.05
   8  -7  -6   -9.24    5.28
   7   1   6    2.78    5.49
   1  -8   6    1.90    6.74
   1  -8   6    9.25    7.30
   0   7  -6   17.25    8.30
  -7   0  -6    8.76    5.35
   7  -7  -6   12.65    7.32
   7  -7  -6   29.93    6.87
   0  -7   6   15.18    7.19
   0  -7   6   28.87    8.29
   7   0   6   18.97    5.78
   6  -7  -6    7.59    7.24
  -7   1  -6    3.86    4.69
   1   6  -6    6.90    7.16
   7  -1   6    7.42    5.13
  -6   7   6   -1.28    5.50
  -1  -6   6    9.75    6.78
  -1  -6   6    5.89    6.73
  -7   2  -6   75.30    6.51
  -7   2  -6   71.92    6.06
   5  -7  -6   59.79    9.40
  -7   2  -6   70.07    7.65
   2   5  -6   68.54   10.25
  -2  -5   6   63.04    9.14
  -2  -5   6   67.73    9.21
  -5   7   6   61.73    8.22
  -7   3  -6   13.52    4.85
   3   4  -6   21.23    7.88
  -7   3  -6    5.35    5.04
   4  -7  -6   -0.35    4.88
   4  -7  -6   10.49    7.37
  -7   3  -6    5.97    3.50
  -4   7   6   11.02    5.85
  -3  -4   6    5.48    6.39
  -3  -4   6   14.14    6.65
   7  -3   6    9.37    4.66
   7  -3   6    9.14    5.59
  -7   4  -6   -2.99    4.87
  -7   4  -6    6.64    4.40
   4   3  -6   -3.90    6.57
   3  -7  -6    3.67    5.35
  -7   4  -6    4.09    3.35
  -4  -3   6    2.80    6.29
  -3   7   6    1.41    5.69
   7  -4   6    7.74    4.48
  -4  -3   6   -2.94    5.90
   7  -4   6   -0.62    5.65
  -7   5  -6    3.79    3.44
   2  -7  -6   -3.97    5.14
  -7   5  -6    9.43    5.41
   5   2  -6    3.88    6.89
  -7   5  -6    2.25    4.37
   7  -5   6   15.46    4.62
  -5  -2   6    8.10    6.40
  -5  -2   6   -0.98    5.99
   7  -5   6    0.78    5.67
   1  -7  -6   44.29    7.44
   6   1  -6   24.24    8.01
  -7   6  -6   38.13    4.98
   7  -6   6   25.41    5.30
  -6  -1   6   40.55    8.05
   7  -6   6   33.12    7.68
  -6  -1   6   35.05    6.99
   7  -6   6   37.68    6.24
   0  -7  -6    8.77    6.30
   7   0  -6   11.81    4.78
   7   0  -6   18.70    7.03
  -7   7  -6   22.04    4.80
  -7   0   6   18.74    7.22
  -7   0   6   26.12    6.54
   7  -7   6   10.01    6.67
   7  -7   6   24.91    5.76
  -7   8  -6    1.06    5.50
  -7   8  -6    3.16    4.22
   8  -1  -6    6.74    6.06
   8  -1  -6   -2.43    3.77
  -7   8  -6    4.62    5.54
  -8   1   6  -18.35    6.82
   7  -8   6   -6.43    5.97
   7  -8   6    2.72    5.24
  -8   1   6   -3.67    6.34
  -8   1   6    0.86    5.92
  -7   9  -6    2.05    5.37
  -7   9  -6    6.78    5.81
   9  -2  -6   -1.25    5.18
   9  -2  -6   -1.51    3.62
   7  -9   6   -7.26    5.00
   7  -9   6   -3.84    5.99
  -9   2   6   -1.58    5.67
  -9   2   6    4.30    7.42
  -9   2   6   -1.70    5.21
  -7  10  -6    5.57    5.79
  10  -3  -6    3.60    3.68
  -7  10  -6    3.17    5.78
  10  -3  -6   -1.36    5.13
  10  -3  -6    6.64    6.33
   7 -10   6    2.41    5.99
   7 -10   6   11.75    7.30
  11  -4  -6   -3.61    5.21
  11  -4  -6   -0.93    5.15
  -7  11  -6   -6.08    5.64
  11  -4  -6   -1.92    6.24
  11  -4  -6    5.53    3.88
  11  -4  -6  -10.38    5.53
   7 -11   6   -0.46    7.18
   4   7   6    0.78    8.86
   7 -11   6    9.84    6.62
  12  -5  -6   -6.76    5.15
  12  -5  -6    0.03    7.12
  -7  12  -6   -0.23    4.33
  -7  12  -6   -1.43    6.23
  12  -5  -6   -2.89    3.40
  12  -5  -6   -6.39    6.06
  12  -5  -6   -0.82    5.10
   7 -12   6   -1.74    7.79
   7 -12   6   -8.07    7.47
   5   7   6    4.44   10.09
  -7  13  -6   -1.71    6.29
  13  -6  -6    9.73    7.70
  13  -6  -6   15.11    7.47
  13  -6  -6   14.06    5.75
  -7  13  -6   -1.72    4.76
  13  -6  -6    5.57    3.90
  13  -6  -6   -6.68    5.54
   7 -13   6   16.53    8.63
   7 -13   6    6.39    8.40
   6   7   6    7.26   10.48
  -7  14  -6   -2.98    6.87
  14  -7  -6    5.77    6.57
  14  -7  -6    1.19    6.00
  -7  14  -6   16.18    5.71
  14  -7  -6   -1.72    8.42
  14  -7  -6    8.69    8.43
   7 -14   6   14.25    8.90
   7 -14   6   19.84    9.29
   7   7   6   24.79   11.99
  15  -8  -6    2.78    6.58
  -7  15  -6   -6.22    6.60
  15  -8  -6   10.72    9.47
  15  -8  -6    2.58    5.90
  -7  15  -6    6.45    4.73
  15  -8  -6   19.34   10.83
   7 -15   6    3.44    8.49
   8   7   6    5.78   11.35
   7 -15   6   -6.99    8.51
  14  -8  -6   16.45    9.37
  14  -8  -6   -8.78    7.88
  -6  14  -6    3.92    7.47
  14  -8  -6    1.80    5.72
  -6  14  -6   -2.54    5.25
  14  -8  -6    2.96    6.53
   8   6   6    0.84   10.90
   6 -14   6    8.04    8.59
   6 -14   6   -4.24    8.79
  -5  13  -6   -9.47    5.29
  13  -8  -6    5.89    7.85
  13  -8  -6    3.62    8.06
  -5  13  -6    9.75    8.96
  13  -8  -6    2.94    6.29
   8   5   6   11.13   11.13
   5 -13   6   -0.29    8.35
   5 -13   6   -4.42    7.71
  12  -8  -6    1.78    6.23
  12  -8  -6   16.81    8.04
  -4  12  -6  -15.00    7.73
  -4  12  -6   -1.53    5.76
   8   4   6    0.57    9.95
   4 -12   6    0.33    8.31
   4 -12   6   -0.28    7.90
  -3  11  -6   -4.72    5.97
  11  -8  -6   16.73    7.83
  11  -8  -6   10.39    6.61
  -3  11  -6   -6.34    7.96
   3 -11   6   12.51    8.46
   8   3   6    7.78    9.47
   3 -11   6    0.82    8.44
  10  -8  -6    2.41    5.95
  -2  10  -6    1.14    7.09
  -2  10  -6    7.72    8.12
  10  -8  -6   -0.27    6.48
   2 -10   6    5.30    8.00
   2 -10   6   12.05    8.49
   9  -8  -6    1.89    6.23
  -1   9  -6   -1.49    7.02
   9  -8  -6   -6.57    5.71
  -1   9  -6   -0.70    7.69
   8   1   6   -7.53    5.14
   1  -9   6   10.84    7.57
   1  -9   6   -0.61    7.16
   8  -8  -6   14.87    7.29
   0   8  -6   19.87    8.47
   0   8  -6   25.11    8.76
   8  -8  -6   14.62    6.52
   0  -8   6   28.73    8.67
   8   0   6   17.90    6.02
   0  -8   6   23.78    8.24
  -8   1  -6    5.32    4.83
   1   7  -6    0.56    7.19
   7  -8  -6    4.66    7.02
   1   7  -6    8.47    7.71
   8  -1   6    2.11    4.87
  -1  -7   6   -8.50    6.43
  -1  -7   6   -4.00    6.61
   6  -8  -6    4.42    7.32
   2   6  -6   -1.60    7.22
   2   6  -6    5.24    7.89
  -8   2  -6    2.43    4.94
  -8   2  -6   10.10    3.88
  -8   2  -6    3.75    3.33
  -2  -6   6    3.82    6.96
  -2  -6   6    7.70    7.15
  -8   3  -6   20.44    3.85
   3   5  -6   15.35    7.87
   3   5  -6   28.48    8.44
  -8   3  -6   12.48    5.29
   5  -8  -6   19.93    5.71
  -3  -5   6   13.48    6.83
  -3  -5   6   11.24    7.07
  -8   4  -6   24.50    5.92
   4  -8  -6    0.41    4.83
   4   4  -6   13.58    7.96
   4   4  -6    4.03    7.61
  -8   4  -6   11.60    3.24
  -8   4  -6    8.85    4.13
  -4   8   6    3.17    6.08
   8  -4   6    7.01    5.92
  -4  -4   6    6.46    6.77
   8  -4   6    7.32    4.71
  -4  -4   6   12.33    6.81
   5   3  -6   11.05    8.11
  -8   5  -6   17.68    5.89
   5   3  -6   17.67    8.06
  -8   5  -6    7.05    3.36
  -8   5  -6   16.37    4.18
   3  -8  -6   10.18    5.70
   8  -5   6    6.61    4.90
  -3   8   6    1.73    6.13
  -5  -3   6   16.59    6.95
   8  -5   6   11.14    6.02
  -5  -3   6    6.02    6.71
  -8   6  -6   10.79    3.93
   6   2  -6   -2.03    7.31
  -8   6  -6    6.43    3.45
   6   2  -6    7.65    7.60
   2  -8  -6    4.73    5.69
   8  -6   6    1.41    4.88
  -6  -2   6   13.69    7.21
  -6  -2   6    9.98    6.59
   8  -6   6    2.38    5.79
   7   1  -6   -1.63    7.52
  -8   7  -6    8.14    3.78
   7   1  -6    9.75    7.50
   1  -8  -6    9.86    5.88
  -7  -1   6    3.39    5.77
   8  -7   6   10.23    6.46
  -7  -1   6   -4.95    6.17
   8  -7   6   15.02    4.98
   8  -7   6   -5.62    4.98
   8   0  -6   26.36    8.01
  -8   8  -6   23.78    5.92
   8   0  -6   31.36    7.46
  -8   0   6   21.13    7.71
   8  -8   6   35.44    6.10
  -8   0   6   38.75    7.27
   8  -8   6   11.18    6.82
   9  -1  -6    7.83    5.71
   9  -1  -6   12.16    4.21
  -8   9  -6    5.45    5.11
  -8   9  -6    4.17    5.97
   9  -1  -6    6.05    6.49
  -9   1   6    9.65    7.77
  -9   1   6    9.35    7.07
   8  -9   6   11.60    6.75
   8  -9   6    6.94    5.65
  -9   1   6   13.31    6.19
  -8  10  -6    2.28    5.93
  10  -2  -6    0.30    6.28
  10  -2  -6    1.50    3.94
  10  -2  -6    4.21    5.23
  -8  10  -6   -4.40    4.99
 -10   2   6   -4.90    6.39
 -10   2   6    2.99    5.39
 -10   2   6   -7.53    7.79
   8 -10   6    1.89    6.55
   8 -10   6    6.50    5.68
  11  -3  -6    4.84    6.61
  11  -3  -6   -3.03    3.63
  11  -3  -6    2.41    5.33
  -8  11  -6    7.27    5.65
   3   8   6   15.37    9.12
   8 -11   6   -6.10    6.48
   8 -11   6    1.03    6.19
  -8  12  -6    4.28    6.23
  12  -4  -6    4.26    6.35
  12  -4  -6    6.27    5.38
  12  -4  -6    5.26    6.99
  12  -4  -6    7.60    6.65
  12  -4  -6    9.79    3.91
  -8  12  -6   -5.37    3.90
   4   8   6    5.00   10.07
   8 -12   6    0.46    7.40
   8 -12   6   -1.74    6.75
  13  -5  -6   11.50    4.00
  -8  13  -6   10.32    6.38
  -8  13  -6    6.08    4.67
  13  -5  -6    5.99    7.77
  13  -5  -6    4.80    5.72
  13  -5  -6   10.61    7.41
  13  -5  -6    7.26    6.31
   8 -13   6  -11.56    7.03
   5   8   6    6.55   10.64
   8 -13   6    3.71    8.04
  14  -6  -6   -3.48    7.67
  -8  14  -6    3.12    4.84
  14  -6  -6   -0.32    7.22
  14  -6  -6    3.06    5.69
  -8  14  -6   11.34    6.96
  14  -6  -6   -2.15    5.55
   8 -14   6    4.71    8.25
   6   8   6    3.51   10.98
   8 -14   6   -7.29    7.48
  15  -7  -6   14.47    6.86
  15  -7  -6    4.41    7.02
  15  -7  -6    3.65    8.85
  -8  15  -6    1.61    6.97
  -8  15  -6    4.21    4.69
  15  -7  -6   -3.80    9.21
   8 -15   6    2.19    8.38
   8 -15   6    7.10    8.80
   7   8   6    3.84   11.35
  15  -9  -6   -4.31    6.57
  -6  15  -6   16.00    9.36
  15  -9  -6    2.20   10.41
  -6  15  -6   -2.57    5.21
  15  -9  -6   21.43    7.23
  15  -9  -6   13.84    9.05
   6 -15   6   19.61   10.13
   6 -15   6   11.33    9.24
   9   6   6  -15.09   11.10
  14  -9  -6   14.57    9.85
  -5  14  -6   -5.59    5.45
  14  -9  -6    7.45    6.25
  -5  14  -6    9.00    9.50
  14  -9  -6   16.28    8.32
   5 -14   6    3.78    8.98
   9   5   6   -4.06   10.76
   5 -14   6    5.03    8.89
  -4  13  -6    4.32    8.81
  13  -9  -6    0.68    5.81
  -4  13  -6   -0.49    6.17
  13  -9  -6   16.01    9.17
   9   4   6   -2.21    9.81
   4 -13   6   -0.91    8.29
   4 -13   6   12.33    9.43
  -3  12  -6   -1.73    6.44
  12  -9  -6   17.99    6.97
  12  -9  -6   20.01    9.05
  -3  12  -6    9.86    9.58
   3 -12   6    5.65    8.49
   9   3   6    9.66   10.66
   3 -12   6   -3.53    8.68
  11  -9  -6    9.11    8.15
  -2  11  -6    7.41    9.06
  -2  11  -6   11.93    8.07
  11  -9  -6   12.78    7.19
   2 -11   6    6.69    9.18
   9   2   6   13.27   10.17
   2 -11   6   14.33    8.56
  -1  10  -6   12.82    9.20
  10  -9  -6   -4.63    6.88
  -1  10  -6    8.79    7.78
  10  -9  -6   -0.37    6.39
   9   1   6   13.01    6.39
   1 -10   6   -7.30    7.35
   1 -10   6    0.31    8.24
   9  -9  -6   17.38    7.07
   0   9  -6   26.01    8.69
   0   9  -6   10.83    8.55
   9  -9  -6   13.88    7.06
   0  -9   6   18.83    8.70
   9   0   6   14.82    5.94
   0  -9   6   10.84    8.34
   1   8  -6    2.90    7.57
   8  -9  -6   21.79    7.87
   1   8  -6    5.89    8.35
  -9   1  -6    9.43    4.31
  -1  -8   6    8.44    7.73
  -1  -8   6    7.06    7.98
   9  -1   6   11.27    5.07
  -9   2  -6    4.21    4.24
   2   7  -6   13.35    8.33
   2   7  -6   -1.95    7.75
  -2  -7   6   -5.75    7.00
  -2  -7   6    4.11    7.58
   9  -2   6    8.62    4.80
   3   6  -6    6.03    8.14
  -9   3  -6   18.51    4.96
   6  -9  -6   18.92    5.45
  -9   3  -6   26.62    3.77
   3   6  -6    7.26    8.71
  -3  -6   6   17.71    8.17
  -3  -6   6   14.31    7.88
  -9   4  -6   -4.05    4.15
   5  -9  -6    0.28    5.13
  -9   4  -6   10.23    3.15
   4   5  -6    2.80    8.06
   4   5  -6   -5.44    8.01
   9  -4   6    3.58    5.31
   9  -4   6    4.57    5.44
  -4  -5   6    1.35    6.76
  -4  -5   6   12.11    7.77
   5   4  -6    5.33    8.45
   4  -9  -6   -1.44    5.16
  -9   5  -6   -0.90    2.82
  -9   5  -6  -12.07    4.11
  -9   5  -6    1.72    3.33
   5   4  -6    6.70    8.00
  -5  -4   6   10.49    7.29
  -5  -4   6    0.94    6.86
   9  -5   6   -6.51    5.10
   9  -5   6    4.13    5.91
   6   3  -6    0.20    7.89
  -9   6  -6   11.25    3.38
   3  -9  -6   15.42    5.80
   6   3  -6    2.84    8.30
  -9   6  -6    3.62    3.34
   9  -6   6   11.59    6.41
  -6  -3   6    1.15    6.98
  -6  -3   6    9.85    6.83
   9  -6   6    4.28    5.59
  -9   7  -6    3.64    3.18
   7   2  -6   -9.61    7.64
   2  -9  -6    3.48    5.63
   7   2  -6   12.49    8.17
  -9   7  -6    1.14    3.43
   9  -7   6    0.44    5.35
   9  -7   6   -2.43    6.19
  -7  -2   6    0.27    6.92
  -7  -2   6    5.25    6.47
   8   1  -6   -8.34    6.33
   8   1  -6    0.55    7.90
   1  -9  -6    6.96    6.05
  -8  -1   6    1.55    6.81
  -8  -1   6    1.09    5.87
   9  -8   6    1.06    4.39
   9  -8   6    4.01    5.15
   9  -8   6    1.03    6.03
  -9   9  -6   12.57    5.23
   9   0  -6   10.17    6.61
   9   0  -6   14.53    7.53
  -9   0   6   14.64    7.51
   9  -9   6   22.79    5.63
  -9   0   6   10.97    6.12
   9  -9   6   12.78    6.93
  -9  10  -6   11.14    5.57
  10  -1  -6   15.17    7.43
  10  -1  -6   12.78    6.59
   9 -10   6   12.07    7.40
 -10   1   6    5.70    5.85
 -10   1   6   -0.47    8.09
   9 -10   6   17.16    5.87
 -10   1   6   17.00    7.90
  11  -2  -6    4.38    4.34
  -9  11  -6   -6.11    5.09
  11  -2  -6    3.71    7.49
  11  -2  -6   -8.20    5.50
   9 -11   6   -3.72    6.86
   9 -11   6    4.48    5.94
   2   9   6    1.41    8.81
 -11   2   6   -1.68    7.22
 -11   2   6    9.17    9.07
  12  -3  -6    6.94    6.18
  12  -3  -6    6.85    4.12
  -9  12  -6   -4.41    5.31
  12  -3  -6   13.01    7.84
   3   9   6   19.06   10.54
   9 -12   6   -0.89    6.57
   9 -12   6    7.08    7.62
  13  -4  -6   22.91    7.30
  -9  13  -6   10.92    4.56
  -9  13  -6   14.75    6.41
  13  -4  -6    8.03    7.57
  13  -4  -6    2.76    7.66
  13  -4  -6   17.49    6.82
   4   9   6    3.62   10.10
   9 -13   6   10.13    8.03
   9 -13   6    9.39    7.50
  14  -5  -6   -6.01    5.46
  14  -5  -6   -8.92    7.38
  14  -5  -6    1.15    5.71
  14  -5  -6    5.95    7.50
  -9  14  -6    5.79    4.28
  -9  14  -6   -4.41    5.59
   5   9   6    0.41   10.45
   9 -14   6   -6.39    7.80
   9 -14   6   -4.36    7.63
  -9  15  -6    4.04    6.48
  15  -6  -6    5.63    9.40
  15  -6  -6    9.76    7.56
  15  -6  -6   -8.22    5.41
  15  -6  -6   -7.17    5.99
   6   9   6   -2.21   10.48
   9 -15   6  -13.51    7.44
   9 -15   6    6.09    8.24
  -5  15  -6    9.36   10.32
  15 -10  -6   15.86   11.85
  15 -10  -6    2.82    8.13
  -5  15  -6   14.91    6.84
  15 -10  -6    9.12    7.17
   5 -15   6   -7.72    9.16
  10   5   6    7.41   12.20
   5 -15   6  -11.02    8.31
  14 -10  -6   -3.48    7.35
  -4  14  -6   -3.59    8.81
  14 -10  -6   -3.54    5.89
  14 -10  -6   17.86   10.69
  -4  14  -6    1.59    6.36
   4 -14   6   -5.00    9.39
   4 -14   6   -2.37    8.43
  10   4   6    5.40   10.95
  13 -10  -6   -0.36    5.93
  -3  13  -6  -11.60    9.02
  13 -10  -6    7.86    9.38
  -3  13  -6    1.14    6.62
  10   3   6   18.61   11.30
   3 -13   6    7.57    8.94
   3 -13   6    2.96    9.25
  12 -10  -6   11.42    6.25
  -2  12  -6    8.03    9.28
  12 -10  -6   21.12    9.34
  -2  12  -6   -1.21    6.84
  10   2   6    5.35    9.96
   2 -12   6   -4.20    9.33
   2 -12   6    0.75    8.12
  -1  11  -6   35.86   10.02
  11 -10  -6   33.52    9.92
  -1  11  -6   33.26   10.56
  11 -10  -6   36.87    7.69
  10   1   6   42.70    7.89
  10   1   6   27.80   11.01
   1 -11   6   36.32   10.68
   1 -11   6   47.30   11.39
   0  10  -6   20.27    9.15
  10 -10  -6   34.05    8.27
  10 -10  -6   50.74    9.81
   0  10  -6   35.50   10.40
  10   0   6   26.53    6.63
   0 -10   6   31.15    9.88
   0 -10   6   25.96   10.11
   1   9  -6   37.25    9.90
   1   9  -6    0.97    8.97
 -10   1  -6   17.46    4.58
  -1  -9   6   14.58    9.45
  10  -1   6   12.37    5.56
  -1  -9   6   16.84    9.15
 -10   2  -6   -0.53    3.85
   8 -10  -6    2.08    4.05
   2   8  -6    9.99    8.58
   2   8  -6   -4.88    7.91
  -2  -8   6   -4.44    7.84
  10  -2   6  -11.02    4.56
  -2  -8   6   -2.10    7.83
 -10   3  -6   -1.62    3.71
   3   7  -6   -3.36    8.12
   7 -10  -6   -4.31    4.24
 -10   3  -6   -0.40    2.59
   3   7  -6    2.38    7.97
  -3  -7   6    4.35    7.93
  -3  -7   6   -4.64    7.54
 -10   4  -6   -3.80    2.24
   6 -10  -6    2.58    4.42
   4   6  -6   -0.02    8.08
 -10   4  -6  -10.69    3.59
   4   6  -6   -4.20    8.30
  -4  -6   6   -2.52    7.40
  -4  -6   6    6.31    7.41
  10  -4   6    3.67    5.46
 -10   5  -6    0.55    2.54
   5   5  -6   -9.86    8.00
 -10   5  -6   -9.42    4.02
   5 -10  -6    1.48    4.72
   5   5  -6   -4.02    7.68
  -5  -5   6   -1.81    7.09
  -5  -5   6   -1.18    6.82
  10  -5   6    5.73    5.82
  10  -5   6    1.13    5.58
   6   4  -6   -8.00    7.73
   6   4  -6    1.06    8.51
 -10   6  -6    2.61    2.77
 -10   6  -6    9.42    4.79
   4 -10  -6    9.48    5.30
  -6  -4   6    6.48    6.98
  -6  -4   6   15.13    8.03
  10  -6   6    4.59    5.85
  10  -6   6   -1.72    5.74
   3 -10  -6   -1.51    5.50
   7   3  -6   -8.52    7.49
 -10   7  -6   -0.10    2.70
   7   3  -6   -2.68    8.20
  10  -7   6   -1.79    5.66
  -7  -3   6   -2.87    6.96
  10  -7   6    0.27    6.26
  -7  -3   6  -10.26    6.32
   8   2  -6   -3.74    7.77
   8   2  -6   -2.72    8.39
 -10   8  -6    3.29    3.14
  10  -8   6    7.32    6.63
  10  -8   6   10.98    6.83
  -8  -2   6    1.72    6.30
  -8  -2   6   10.06    7.54
 -10   9  -6    5.23    4.54
   9   1  -6    5.30    7.09
   9   1  -6   -6.78    8.02
  10  -9   6    6.62    4.50
  10  -9   6    4.68    5.06
  -9  -1   6   -1.73    7.25
  10  -9   6    5.07    6.60
  -9  -1   6   -8.33    5.51
 -10  10  -6   31.27    6.03
  10   0  -6   31.59    9.55
  10   0  -6   23.89    7.73
  10 -10   6   34.14    6.27
 -10   0   6   34.76    9.13
  10 -10   6   31.06    8.17
 -10   0   6   33.99    7.12
  11  -1  -6    9.78    8.20
 -10  11  -6   10.16    5.27
  11  -1  -6    3.10    6.37
 -11   1   6   12.09    8.15
  10 -11   6    8.00    7.52
 -11   1   6    2.61    8.90
 -11   1   6    6.27    6.17
  10 -11   6   16.60    6.14
 -10  12  -6   10.69    5.29
  12  -2  -6   19.86    8.53
  12  -2  -6    6.96    6.46
 -12   2   6    9.81    7.81
  10 -12   6   18.02    6.55
 -12   2   6   29.20   10.24
   2  10   6    6.60    9.47
  10 -12   6   10.37    7.74
 -10  13  -6   -0.50    5.07
  13  -3  -6   -8.17    6.77
  13  -3  -6    4.13    6.21
 -10  13  -6    1.90    3.60
  10 -13   6    6.58    7.93
  10 -13   6    2.36    6.66
   3  10   6   15.83   10.74
  14  -4  -6    2.99    6.40
 -10  14  -6    8.91    5.67
  14  -4  -6   -8.64    7.10
  14  -4  -6    1.34    6.38
   4  10   6    9.57   11.06
  10 -14   6   -1.17    7.08
  10 -14   6    9.57    8.23
  15  -5  -6  -13.23    8.21
  15  -5  -6    2.51    7.50
  15  -5  -6    7.04    6.29
 -10  15  -6   12.26    6.26
  15  -5  -6    3.36    6.08
   5  10   6   -4.57   10.54
  10 -15   6   -0.90    8.04
  10 -15   6   -9.78    7.85
  15 -11  -6   -0.92   11.30
  15 -11  -6    0.59    7.19
  -4  15  -6   16.60    7.55
  15 -11  -6   -3.35    5.22
  -4  15  -6   10.30   10.63
   4 -15   6    1.39    9.22
  11   4   6    3.31   11.69
   4 -15   6   -2.45    9.91
  -3  14  -6    7.93    9.86
  14 -11  -6    1.34    5.56
  14 -11  -6   -9.39   10.53
  -3  14  -6   -3.53    6.28
  11   3   6   -2.30   11.02
   3 -14   6    9.38   10.07
   3 -14   6   11.02    9.54
  13 -11  -6   -5.79    9.90
  -2  13  -6   -2.06    7.01
  -2  13  -6   -3.38    9.61
  13 -11  -6    2.85    6.16
   2 -13   6    4.35    9.00
  11   2   6   15.14   11.13
   2 -13   6   -0.15    9.76
  12 -11  -6   48.44   11.60
  -1  12  -6    9.49    8.88
  -1  12  -6    1.80   10.07
   1 -12   6   27.84   11.23
   1 -12   6    8.69    9.76
  11   1   6   19.80   10.92
   0  11  -6  -11.29    9.02
   0  11  -6    0.40    8.35
  11   0   6   -4.29    5.42
   0 -11   6    3.34    9.12
   0 -11   6    4.69    9.83
 -11   1  -6    4.02    4.00
   1  10  -6   14.42    9.51
   1  10  -6   -9.16    8.22
  10 -11  -6   -7.57    3.33
  -1 -10   6    8.37    9.60
  -1 -10   6   -1.92    8.44
  11  -1   6    8.70    5.30
   2   9  -6    4.31    9.37
   2   9  -6    9.43    9.34
   9 -11  -6   -2.04    3.85
 -11   2  -6    5.20    3.94
  -2  -9   6    7.98    9.78
  11  -2   6    2.84    4.79
  -2  -9   6   -7.57    8.45
 -11   3  -6    0.12    3.40
 -11   3  -6    2.12    2.81
   8 -11  -6   -4.49    3.69
   3   8  -6   -1.02    8.31
   3   8  -6   -8.91    8.49
  -3  -8   6  -15.95    7.70
  -3  -8   6   -5.27    7.71
 -11   4  -6   -0.64    3.81
   4   7  -6    4.73    9.17
   4   7  -6   -8.99    8.40
   7 -11  -6   -1.63    4.07
 -11   4  -6   -1.26    2.16
  -4  -7   6   -6.95    7.48
  -4  -7   6   -2.80    8.03
 -11   5  -6   -1.99    2.04
   5   6  -6   -0.60    9.24
   5   6  -6   -4.32    8.13
 -11   5  -6    3.00    3.87
   6 -11  -6    9.03    4.92
  -5  -6   6    5.49    7.83
  -5  -6   6    1.50    7.78
  11  -5   6    1.91    6.22
   6   5  -6   15.27   10.00
   6   5  -6    0.30    8.37
 -11   6  -6   -1.95    4.19
  11  -6   6    5.20    6.63
  11  -6   6    1.99    5.94
  -6  -5   6   12.47    7.63
  -6  -5   6    2.49    7.74
   7   4  -6   -1.42    8.62
   7   4  -6    4.31    9.07
  -7  -4   6    9.30    7.58
  11  -7   6   -7.41    5.91
  11  -7   6   -1.70    6.01
  -7  -4   6   -7.06    7.24
   8   3  -6   31.30   10.27
   8   3  -6   34.89   11.00
  11  -8   6    8.13    6.48
  11  -8   6    8.58    6.91
  -8  -3   6   39.40    8.64
  -8  -3   6   25.56    8.90
   9   2  -6   15.25    9.57
 -11   9  -6    3.07    4.72
   9   2  -6   13.02    9.88
 -11   9  -6   15.78    3.09
  -9  -2   6    5.23    7.97
  -9  -2   6   22.20    7.77
  11  -9   6    8.47    7.40
  11  -9   6   15.16    7.66
  10   1  -6   47.10   11.98
 -11  10  -6   51.55    6.41
  10   1  -6   52.83   10.12
 -10  -1   6   44.11    8.27
 -10  -1   6   42.77    9.77
  11 -10   6   36.53    5.90
  11 -10   6   51.03    6.63
  11 -10   6   55.63    9.37
  11   0  -6    3.05    6.65
  11   0  -6   11.62    8.18
 -11  11  -6    8.34    4.62
 -11   0   6  -13.20    7.15
 -11   0   6    2.05    6.17
  11 -11   6   -8.89    6.87
  11 -11   6   -4.41    5.19
 -11  12  -6    0.09    4.54
  12  -1  -6    0.54    6.40
  12  -1  -6   -9.22    7.59
 -12   1   6   -6.97    4.82
  11 -12   6   10.72    7.85
 -12   1   6    2.92    8.95
 -12   1   6   -2.28    7.51
  11 -12   6   -1.34    5.60
   1  11   6   -5.85    7.42
 -11  13  -6    0.77    3.23
 -11  13  -6    2.63    4.58
  13  -2  -6   -9.85    7.12
  13  -2  -6   -3.29    5.63
 -13   2   6   11.30    9.33
   2  11   6   16.77   10.16
  11 -13   6    2.42    6.41
  11 -13   6  -15.62    6.40
 -13   2   6    4.78    7.53
 -11  14  -6   -0.43    4.49
  14  -3  -6    2.21    7.72
  14  -3  -6    4.14    5.87
  11 -14   6   -3.42    6.89
  11 -14   6   -0.96    7.78
   3  11   6   -4.37   10.26
  15  -4  -6  -11.88    5.14
 -11  15  -6   -3.17    5.17
  15  -4  -6    9.46    8.70
  15  -4  -6    8.14    6.38
  11 -15   6   -2.22    7.36
  11 -15   6    9.27    7.78
   4  11   6   15.74   11.92
  -2  14  -6    5.08    7.72
  -2  14  -6   -7.73    9.70
  14 -12  -6   11.83   11.51
   2 -14   6  -14.21    9.33
   2 -14   6   -0.90    9.47
  12   2   6    1.86   11.36
  13 -12  -6   -3.76    9.97
  -1  13  -6    6.46    9.08
  -1  13  -6  -10.05    9.86
   1 -13   6   13.04    9.62
   1 -13   6    5.67   10.95
  12   1   6   -7.21   10.46
   0  12  -6   -1.57    9.44
   0  12  -6    4.71   10.55
   0 -12   6   -0.75    9.55
   0 -12   6    9.93   10.80
  12   0   6    5.51   10.49
   1  11  -6   -3.41    8.65
   1  11  -6   -3.12    9.54
  -1 -11   6    0.89    9.01
  -1 -11   6   -5.51    9.39
   2  10  -6   12.09    9.67
   2  10  -6    0.25    9.33
 -12   2  -6   20.91    4.55
  12  -2   6    7.76    4.73
  -2 -10   6    8.85    9.39
  -2 -10   6   13.56   10.43
   3   9  -6   18.09   10.04
   3   9  -6   -5.66    9.31
 -12   3  -6    7.20    3.94
  -3  -9   6   -4.77    9.43
  -3  -9   6    9.63   10.13
 -12   4  -6   -3.32    3.33
 -12   4  -6    3.72    2.10
   4   8  -6   -3.30    9.03
   4   8  -6  -11.71    9.03
  -4  -8   6    5.36    8.62
  -4  -8   6    4.12    9.01
   5   7  -6    7.58    9.79
 -12   5  -6    3.10    3.95
   5   7  -6   -5.17    9.11
  12  -5   6   -2.85    6.40
  -5  -7   6    2.54    8.18
  -5  -7   6    7.97    8.78
 -12   6  -6    5.45    4.30
   6   6  -6    3.12    9.62
   6   6  -6   15.87    9.93
  -6  -6   6   12.08    8.88
  -6  -6   6   -9.60    7.93
  12  -6   6    9.24    6.93
   7   5  -6    9.57    9.97
   7   5  -6   -5.54    9.13
  -7  -5   6    6.77    7.91
  -7  -5   6    1.95    8.13
  12  -7   6    2.63    6.14
  12  -7   6    0.01    6.48
 -12   8  -6    2.14    4.21
   8   4  -6    3.54    9.76
   8   4  -6    5.58    9.09
  12  -8   6   -2.88    6.01
  -8  -4   6    4.50    7.50
  12  -8   6    3.92    6.68
  -8  -4   6   -0.58    8.04
 -12   9  -6   -4.78    3.33
   9   3  -6   10.56    9.31
 -12   9  -6    0.99    3.71
   9   3  -6    3.70    9.78
  -9  -3   6    0.51    8.12
  -9  -3   6    7.23    7.65
  12  -9   6    0.89    7.14
  12  -9   6   11.71    6.93
  10   2  -6   -4.84    8.23
  10   2  -6    7.42   10.30
 -12  10  -6   -4.27    3.53
  12 -10   6    1.64    7.03
  12 -10   6   -0.10    6.94
 -10  -2   6   -9.60    7.42
 -10  -2   6   -2.67    6.74
 -12  11  -6    7.78    4.05
  11   1  -6   18.06   10.59
  11   1  -6   28.20    8.88
  12 -11   6   14.20    7.95
  12 -11   6   15.60    4.98
  12 -11   6   14.19    5.22
 -11  -1   6   17.08    8.60
 -11  -1   6   21.26    7.06
  12   0  -6   11.33    7.55
 -12  12  -6   11.70    4.66
  12   0  -6   -2.27    8.24
  12 -12   6   -3.23    7.39
 -12   0   6   -0.51    6.02
 -12   0   6    3.82    8.04
  12 -12   6   -0.44    5.23
  13  -1  -6    1.48    6.69
 -12  13  -6    0.14    3.83
  13  -1  -6   17.50    8.73
  12 -13   6    5.24    6.06
 -13   1   6   -5.75    9.48
 -13   1   6   -1.24    8.39
   1  12   6    7.85    8.61
 -13   1   6    2.28    4.55
  12 -13   6    6.03    7.59
  14  -2  -6   -5.62    6.14
  14  -2  -6   -2.93    7.59
   2  12   6   -6.52    9.42
 -14   2   6   -6.78    9.50
  12 -14   6   -0.30    6.21
  12 -14   6   -7.90    7.31
 -14   2   6  -10.37    7.21
  -1  14  -6    9.77    9.36
  -1  14  -6    3.33   10.94
   1 -14   6    8.60   10.89
   1 -14   6  -10.70    9.58
  13   1   6   -9.16   10.96
   0  13  -6   -4.02   10.22
   0  13  -6    5.58    9.58
   0 -13   6  -14.54   10.43
   0 -13   6   -1.90    9.98
  13   0   6   -4.34   10.50
   1  12  -6   -6.45    8.70
   1  12  -6   -1.58   10.39
  -1 -12   6    0.43    9.61
  -1 -12   6    6.37   10.92
   2  11  -6   -5.94    9.19
   2  11  -6   -4.10   10.00
  -2 -11   6    6.15    9.93
  -2 -11   6   -7.29    9.89
   3  10  -6    2.76   10.10
   3  10  -6  -14.33    8.76
  -3 -10   6    6.28    9.25
  -3 -10   6    8.73   10.58
   4   9  -6   18.64   10.73
   4   9  -6    5.48    9.98
  -4  -9   6    3.32    9.38
  -4  -9   6    1.09    9.40
   5   8  -6   -1.10    9.69
   5   8  -6    7.76    9.82
  -5  -8   6    8.81    9.08
  13  -5   6   -1.29    6.61
  -5  -8   6   10.57    9.45
   6   7  -6   -4.35    9.35
   6   7  -6    7.65   10.06
  -6  -7   6    1.62    9.19
  13  -6   6   10.36    6.86
  -6  -7   6    9.42    8.97
   7   6  -6   15.06   10.29
   7   6  -6   16.20   10.84
  -7  -6   6    3.09    8.77
  13  -7   6    6.75    7.29
  13  -7   6   -2.11    5.73
  -7  -6   6    8.80    8.35
   8   5  -6   -1.73    9.95
 -13   8  -6   12.87    4.92
   8   5  -6    0.97    9.76
  13  -8   6   -7.47    6.66
  13  -8   6   -1.70    6.00
  -8  -5   6   -0.92    8.05
  -8  -5   6  -14.03    7.34
   9   4  -6    6.31    9.76
   9   4  -6   -5.64    9.96
  13  -9   6    2.31    6.63
  -9  -4   6   -4.70    8.57
  -9  -4   6   10.45    8.19
  13  -9   6   -5.45    7.22
 -13  10  -6    7.99    3.60
  10   3  -6   -2.75    9.11
  10   3  -6   -4.49    9.73
 -10  -3   6    7.15    8.86
 -10  -3   6   16.14    7.92
  13 -10   6   18.57    7.47
  13 -10   6   -1.36    6.93
  11   2  -6    8.17   10.51
 -13  11  -6    0.38    3.23
  11   2  -6   24.13    9.33
  13 -11   6    7.67    7.56
 -11  -2   6    9.63    6.56
 -11  -2   6    7.53    8.39
  12   1  -6    1.59   10.18
  12   1  -6   20.39    8.78
 -12  -1   6    1.52    6.48
 -12  -1   6    4.39    8.36
  13 -12   6   -0.02    7.21
  13   0  -6    5.16    7.13
  13   0  -6    4.04    9.12
 -13   0   6    4.51    8.40
 -13   0   6   14.66    5.26
  13 -13   6    8.86    7.78
  14  -1  -6   12.19    9.04
  14  -1  -6   -0.08    6.47
   1  13   6   -0.85    7.98
 -14   1   6    8.25    8.73
 -14   1   6   -6.47    9.82
  13 -14   6   14.67    8.51
   1  13  -6   19.32   10.56
   1  13  -6   12.17   11.55
  -1 -13   6    6.06   11.02
  -1 -13   6    8.31   12.03
   2  12  -6   13.82   11.61
   2  12  -6    7.71   10.26
  -2 -12   6    8.63   10.31
  -2 -12   6  -13.17   10.51
   3  11  -6   -4.30   10.34
   3  11  -6   10.35   10.38
  -3 -11   6    3.78   10.96
  -3 -11   6    4.01    9.89
   4  10  -6    4.07   10.30
   4  10  -6   -2.68    9.78
  -4 -10   6    5.67   10.18
  -4 -10   6   -4.53    9.96
   5   9  -6   -1.29   10.21
   5   9  -6   12.15   10.82
  -5  -9   6   -2.66    9.59
  14  -5   6    0.01    7.21
  -5  -9   6  -10.13    9.29
   6   8  -6   -4.04   10.26
   6   8  -6   10.77   10.34
  -6  -8   6    1.00    9.17
  -6  -8   6   15.73   10.60
  14  -6   6   -3.28    6.87
   7   7  -6   12.67   11.03
   7   7  -6   24.11   11.19
  -7  -7   6   -2.94    8.96
  -7  -7   6   13.95   10.10
  14  -7   6   14.08    8.06
   8   6  -6   -2.85    9.84
   8   6  -6   -5.88    9.93
  -8  -6   6   -2.93    8.12
  -8  -6   6   -1.72    9.02
  14  -8   6   -3.04    5.90
  14  -8   6    7.71    8.02
   9   5  -6  -10.06    9.91
   9   5  -6    0.54   10.61
  14  -9   6    3.87    7.90
  -9  -5   6   -7.22    8.85
  14  -9   6    0.78    6.42
  -9  -5   6    1.71    8.65
  10   4  -6  -10.59   10.22
  10   4  -6   14.38   10.64
 -10  -4   6   13.11    8.15
  14 -10   6   -2.95    6.97
  14 -10   6   -4.19    7.23
 -10  -4   6  -10.11    8.66
  11   3  -6    6.65    9.81
  11   3  -6   14.57   11.35
 -11  -3   6   -7.59    7.19
  14 -11   6    1.39    7.85
  14 -11   6   -0.11    7.18
 -11  -3   6  -11.69    8.14
  12   2  -6   -7.28    9.69
  12   2  -6    2.06   10.70
 -12  -2   6    6.91    8.76
  14 -12   6   -4.43    7.24
 -12  -2   6    3.85    6.39
  13   1  -6   -0.07   10.74
  13   1  -6   -7.04    8.92
 -13  -1   6    2.30    4.80
 -13  -1   6   -6.53    8.32
  14 -13   6    2.92    7.94
   4  11  -6   18.21   11.89
   4  11  -6    9.23   10.88
  -4 -11   6    7.57   10.62
  -4 -11   6   -4.72    9.94
   5  10  -6    1.42   10.58
   5  10  -6  -12.37   10.38
  -5 -10   6    2.52   10.67
  15  -5   6    5.87    8.29
  -5 -10   6   13.36   11.28
   6   9  -6    4.43   11.00
   6   9  -6   -3.17   10.23
  -6  -9   6  -10.78    8.89
  15  -6   6   -1.93    7.51
  -6  -9   6   19.26   11.99
   7   8  -6   -6.83   10.23
   7   8  -6   -6.01   10.32
  15  -7   6   12.70    8.32
  -7  -8   6   -5.95    9.39
  -7  -8   6   -1.75    9.19
   8   7  -6   16.40   11.54
   8   7  -6    4.95   11.19
  15  -8   6    6.01    8.20
  -8  -7   6   -5.97    8.96
  -8  -7   6   -1.47    9.88
   9   6  -6   -2.24   10.68
   9   6  -6    2.98   11.50
  15  -9   6   -1.88    7.59
  15  -9   6   -8.35    5.87
  -9  -6   6    5.55    8.78
  -9  -6   6   -2.15    9.85
  10   5  -6   -4.79   10.97
  10   5  -6   -0.76   11.09
 -10  -5   6    7.21    8.16
  15 -10   6   14.51    8.50
 -10  -5   6    6.99    9.42
  15 -10   6    4.25    6.81
  11   4  -6   19.05   11.86
  11   4  -6    1.77   10.82
 -11  -4   6    8.70    9.78
  15 -11   6    1.73    8.13
  15 -11   6    9.71    7.52
 -11  -4   6  -11.15    7.26
   0   0  -7   -7.27    5.49
   0   0  -7    2.39    4.90
   0   0   7   -2.02    5.68
  -1   0  -7  194.54   14.27
   0   1  -7  227.64   12.68
   1  -1  -7  245.36   15.23
   1  -1  -7  214.17   12.98
   0   1  -7  197.15   14.41
  -1   0  -7  212.34   12.41
   1   0   7  202.27   13.38
   0  -1   7  195.21   13.72
   1   0  -7  222.61   12.83
   0  -1  -7  215.31   12.69
   0  -1  -7  210.51   13.81
   1   0  -7  222.42   15.39
  -1   1  -7  202.99   14.29
  -1   1  -7  226.21   12.43
   0  -1  -7  213.91   14.87
  -1   0   7  218.90   14.09
   1  -1   7  221.92   14.22
  -1  -1  -7   13.01    6.59
   2  -1  -7   -4.71    6.09
  -1  -1  -7    3.52    6.09
   2  -1  -7   -0.69    3.92
  -1  -1  -7   -1.08    4.91
  -1   2  -7   10.79    5.39
   1  -2   7    4.49    6.15
  -2   1   7    0.02    5.74
  -2  -1  -7   58.13    8.83
  -1   3  -7   72.02    8.01
   3  -2  -7   61.09    6.33
   3  -2  -7   61.86    9.46
   1  -3   7   87.36   10.06
   1  -3   7   73.80    9.24
   1  -3   7   68.71    8.72
  -2   0  -7   70.76    8.57
  -2   0  -7   71.89    8.93
   2  -2  -7   75.29   10.13
  -2   0  -7   88.42    8.25
   0   2  -7   69.93    7.76
   0  -2   7   67.23    9.71
   0  -2   7   71.87    8.93
   0  -2   7   89.37   10.01
  -2   1  -7   -0.40    5.43
   1  -2  -7   -2.69    5.84
   1   1  -7    4.09    5.27
  -2   1  -7    0.92    4.65
   1  -2  -7    5.98    6.74
   1   1  -7    3.41    3.11
   1  -2  -7    3.61    5.52
   2  -1   7    8.47    6.28
  -1  -1   7    6.13    6.27
   0  -2  -7   78.47    9.67
   2   0  -7   89.90   10.49
   2   0  -7   85.82    6.57
  -2   2  -7   96.57    8.41
  -2   2  -7   86.59    9.61
  -2   0   7   79.40    9.64
   0   2   7   69.73    5.39
   2  -2   7   80.21    9.49
  -2   3  -7   12.24    5.22
   3  -1  -7   24.56    5.08
  -1  -2  -7    9.43    6.73
   3  -1  -7   17.24    7.34
   2  -3   7   17.64    7.11
   2  -3   7   15.91    6.13
  -3   1   7   14.04    6.65
   1   2   7   19.50    4.00
   2  -3   7   15.91    7.08
   4  -2  -7    0.64    6.57
  -2   4  -7   -1.57    2.69
   4  -2  -7   -3.10    4.72
  -2   4  -7    0.15    4.93
  -2  -2  -7    6.89    6.11
   2  -4   7   -1.47    5.47
   2  -4   7   -4.23    5.99
   2  -4   7   -0.94    6.30
  -3  -2  -7    4.46    6.45
   5  -3  -7   -6.14    6.25
  -2   5  -7   12.33    5.64
   5  -3  -7    0.47    4.71
   2  -5   7    7.90    6.66
   2  -5   7    4.48    5.84
   4  -3  -7   -4.70    4.09
   4  -3  -7   -6.97    6.29
  -3  -1  -7    5.55    6.12
   3   1   7    0.99    5.92
   1  -4   7   -0.67    6.05
   1  -4   7   -1.90    5.86
   3  -3  -7  291.87   18.14
  -3   0  -7  261.58   15.60
  -3   0  -7  279.59   13.77
  -3   0  -7  281.90   14.76
   0  -3   7  281.02   16.84
   0  -3   7  261.44   15.77
   0  -3   7  255.32   15.24
  -3   1  -7   17.36    6.54
  -3   1  -7   19.44    5.84
   2  -3  -7   15.46    6.95
  -1  -2   7   10.72    7.31
  -1  -2   7   12.22    6.50
   3  -1   7   12.85    6.45
  -2   3   7    9.94    4.12
  -1  -2   7    5.95    6.36
   1  -3  -7   71.68   10.03
  -3   2  -7   75.43    8.70
  -3   2  -7   80.48    8.01
  -2  -1   7   81.44   10.34
  -2  -1   7   64.66    9.07
   3  -2   7   82.00    9.47
  -2  -1   7   65.71    8.97
  -1   3   7   75.80    6.10
  -3   3  -7  284.21   15.92
   3   0  -7  274.53   12.76
  -3   3  -7  286.52   13.60
   0  -3  -7  275.04   17.11
   0   3   7  273.10   12.15
  -3   0   7  291.51   15.60
   3  -3   7  296.24   16.09
   4  -1  -7   62.17    6.74
  -1  -3  -7   43.03    8.12
  -3   4  -7   40.17    6.41
   4  -1  -7   37.77    8.60
  -4   1   7   39.35    7.82
   3  -4   7   52.25    8.66
   3  -4   7   45.91    8.14
   3  -4   7   44.81    7.21
  -2  -3  -7   25.45    7.60
   5  -2  -7   20.18    6.21
  -3   5  -7   26.71    6.20
  -3   5  -7   20.91    4.24
   5  -2  -7   20.43    8.19
   3  -5   7   29.34    6.88
   3  -5   7   33.86    7.73
  -3   6  -7    4.68    5.37
  -3   6  -7    4.00    4.13
   6  -3  -7   -3.07    6.61
   6  -3  -7    1.54    5.12
   3  -6   7   -3.59    6.35
   3  -6   7    5.55    6.18
   7  -4  -7   39.69    8.91
   7  -4  -7   47.19    7.45
  -3   7  -7   33.17    8.75
   3  -7   7   53.86    8.37
   3  -7   7   47.71    8.65
   6  -4  -7   -1.23    6.95
  -2   6  -7    4.23    6.93
   6  -4  -7    5.35    5.11
   2  -6   7    3.08    6.04
   2  -6   7    0.45    6.33
  -4  -1  -7   46.65    8.25
   5  -4  -7   54.84    9.43
   5  -4  -7   46.89    6.63
   4   1   7   88.62    9.31
   1  -5   7   50.23    8.64
   1  -5   7   65.52    9.01
   4  -4  -7  101.37   11.45
  -4   0  -7   98.92    9.43
  -4   0  -7  113.67    8.86
  -4   0  -7  105.75   10.03
   0  -4   7   77.82    9.69
   0  -4   7   93.80   10.33
  -4   1  -7   52.28    6.69
  -4   1  -7   47.99    7.63
   3  -4  -7   46.76    8.73
  -4   1  -7   50.25    7.06
  -1  -3   7   44.69    8.56
  -1  -3   7   41.42    7.89
   4  -1   7   47.04    3.77
  -3   4   7   44.52    5.95
   2  -4  -7   -2.36    6.41
  -4   2  -7    8.64    4.79
  -4   2  -7   -0.37    5.59
  -2  -2   7   -4.47    6.71
  -2  -2   7    3.84    6.43
  -2   4   7   -6.02    4.02
   4  -2   7   -3.48    5.81
  -2  -2   7   -6.59    5.85
  -4   3  -7    8.45    5.79
   1  -4  -7   -4.54    6.59
  -4   3  -7    1.83    4.68
  -3  -1   7    7.32    7.22
  -3  -1   7   15.80    6.63
  -1   4   7   -5.36    4.24
  -3  -1   7    4.97    5.94
   4  -3   7    0.34    6.15
  -4   4  -7  121.39    9.04
   0  -4  -7  105.54   11.55
  -4   0   7  101.80   11.59
  -4   0   7   99.63   10.61
   4  -4   7  105.42   10.80
  -4   0   7   86.96   10.04
  -4   5  -7   68.61    7.56
   5  -1  -7   73.14    7.84
  -5   1   7   71.21    9.13
   4  -5   7   67.04    8.47
   4  -5   7   66.75    9.00
   4  -5   7   59.62    9.37
   6  -2  -7  127.29   13.11
   6  -2  -7  130.71   10.47
  -4   6  -7  142.33    8.60
  -4   6  -7  145.34   10.38
   4  -6   7  123.00   11.57
   4  -6   7  165.96   11.57
  -4   7  -7  124.58   12.39
  -4   7  -7  134.32    9.19
   7  -3  -7  131.24   10.51
   7  -3  -7  157.04   13.86
   4  -7   7  129.23   11.39
   4  -7   7  123.35   11.84
   8  -4  -7    3.64    6.29
  -4   8  -7    0.78    6.91
   8  -4  -7    6.78    5.89
  -4   8  -7    7.70    4.98
   4  -8   7   -1.70    6.84
   4  -8   7   -5.35    6.15
   9  -5  -7   -0.34    6.01
  -4   9  -7    9.22    5.55
   9  -5  -7   -3.43    5.77
  -4   9  -7    7.25    7.69
   4  -9   7    2.15    6.55
   4  -9   7    5.88    7.33
   8  -5  -7   -0.47    5.56
  -3   8  -7    3.78    7.12
   8  -5  -7    2.49    6.60
   3  -8   7    2.35    6.51
   3  -8   7   -2.09    6.67
   7  -5  -7   56.45   10.51
   7  -5  -7   66.61    8.29
  -2   7  -7   59.08    9.99
   2  -7   7   57.59    9.09
   2  -7   7   54.83    9.33
  -1   6  -7    8.06    7.45
   6  -5  -7   -4.08    7.27
   6  -5  -7   14.29    5.43
   1  -6   7    2.70    6.61
   1  -6   7    2.22    6.04
   5   1   7    6.61    5.95
   0   5  -7    4.45    7.14
   5  -5  -7    8.73    7.35
  -5   0  -7    5.33    6.18
   0  -5   7    0.39    6.32
   5   0   7   13.69    6.07
   0  -5   7    3.72    6.38
  -5   1  -7   66.35    7.30
  -5   1  -7   61.02    7.76
   4  -5  -7   72.41   10.19
  -5   1  -7   56.11    7.85
  -4   5   7   58.43    6.96
  -1  -4   7   54.20    8.82
  -1  -4   7   52.90    8.73
  -5   2  -7   36.47    6.79
   3  -5  -7   23.97    7.84
  -5   2  -7   32.88    5.61
   5  -2   7   18.62    6.57
   5  -2   7   24.51    3.55
  -3   5   7   17.17    5.46
  -2  -3   7   16.78    7.26
  -2  -3   7   33.40    7.86
  -5   3  -7   -3.34    4.39
  -5   3  -7   -4.71    5.03
   2  -5  -7    2.78    6.59
  -3  -2   7    3.83    6.44
  -2   5   7    2.02    4.82
   5  -3   7   -9.61    5.71
  -3  -2   7    1.35    6.18
   1  -5  -7   44.68    9.05
  -5   4  -7   44.31    6.22
  -5   4  -7   59.33    7.68
   1  -5  -7   58.18    8.66
  -4  -1   7   53.69    8.88
   5  -4   7   63.38    9.06
  -4  -1   7   48.98    9.20
  -4  -1   7   60.78    8.68
  -1   5   7   49.82    7.09
  -5   5  -7    7.92    5.09
   5  -5   7    2.24    5.28
  -5   0   7    9.12    6.49
  -5   0   7   -0.22    7.22
  -5   0   7   -1.52    5.85
   5  -5   7   -0.41    5.84
   5  -5   7    6.06    6.73
  -5   6  -7   13.65    5.60
  -6   1   7   12.46    8.10
   5  -6   7   12.31    6.30
   5  -6   7   16.87    7.04
  -6   1   7   22.85    7.31
  -6   1   7   13.46    6.78
   7  -2  -7   -1.83    5.34
  -5   7  -7    0.85    5.12
   7  -2  -7   -4.49    6.76
  -5   7  -7   -3.13    4.53
   5  -7   7   -0.29    5.68
  -7   2   7    1.17    5.73
   5  -7   7    7.58    6.59
  -5   8  -7   84.60    7.74
   8  -3  -7   62.06    9.91
   8  -3  -7   77.45    9.04
  -5   8  -7   91.63   10.76
   5  -8   7   71.70    9.20
   5  -8   7   68.12    9.67
  -5   9  -7    6.61    5.56
   9  -4  -7    9.38    6.49
  -5   9  -7   11.75    7.35
   9  -4  -7    2.52    5.80
   5  -9   7    3.77    6.99
   5  -9   7    3.19    6.24
  -5  10  -7   12.45    6.18
  -5  10  -7   17.63    8.41
  10  -5  -7    3.95    6.36
  10  -5  -7    9.04    6.71
   5 -10   7    8.48    7.65
   5 -10   7   11.80    7.57
  11  -6  -7   13.49    7.83
  -5  11  -7   31.46    9.54
  11  -6  -7   19.67    7.79
   5 -11   7   20.10    8.57
   5 -11   7    9.82    8.36
  10  -6  -7   -6.48    6.08
  10  -6  -7    2.68    6.59
  -4  10  -7    5.69    8.07
   4 -10   7    9.14    7.63
   4 -10   7   -2.95    7.67
  -3   9  -7   15.28    8.45
   9  -6  -7    9.34    6.48
   9  -6  -7   12.17    7.40
   3  -9   7   -2.86    7.02
   3  -9   7   24.22    8.36
   8  -6  -7    2.08    6.98
   8  -6  -7    5.60    5.77
  -2   8  -7    3.09    7.75
   2  -8   7    1.02    6.77
   2  -8   7    8.47    7.05
   7  -6  -7   98.60   12.32
  -1   7  -7  119.36   12.65
   7  -6  -7  109.02   10.33
   1  -7   7   99.74   11.43
   6   1   7  111.70    9.92
   1  -7   7  114.16   12.04
   0   6  -7   48.25    9.50
   6  -6  -7   46.69    9.67
   6   0   7   41.48    7.71
   0  -6   7   57.62    9.36
   0  -6   7   63.04    9.46
  -6   1  -7   19.20    4.65
   1   5  -7   12.88    7.90
  -6   1  -7   13.60    6.26
  -6   1  -7   12.93    5.05
   5  -6  -7   14.91    7.96
  -5   6   7   13.70    5.85
  -1  -5   7   13.21    7.26
  -1  -5   7   24.26    7.71
  -6   2  -7  142.24    8.85
   2   4  -7  130.58   13.29
  -6   2  -7  135.88   10.26
   4  -6  -7  124.07   12.92
  -4   6   7  126.64    9.80
  -2  -4   7  139.40   12.79
  -2  -4   7  117.14   11.57
   6  -2   7  146.30    7.85
  -6   3  -7    4.95    4.04
   3  -6  -7   -7.55    6.66
   3   3  -7    1.89    6.97
  -6   3  -7    5.01    5.22
   6  -3   7    9.38    6.26
   6  -3   7   -4.62    3.09
  -3  -3   7    8.26    6.86
  -3   6   7   -3.91    4.92
  -3  -3   7   -3.50    6.13
  -6   4  -7    6.30    4.10
   2  -6  -7    2.86    5.66
   2  -6  -7   11.84    7.43
   4   2  -7   -0.89    6.73
  -6   4  -7    1.67    4.95
   6  -4   7    5.00    3.55
  -4  -2   7   10.49    6.80
   6  -4   7    1.30    6.07
  -2   6   7    8.88    5.44
  -4  -2   7   -0.65    6.22
   1  -6  -7    1.33    5.99
  -6   5  -7    9.71    4.58
  -6   5  -7   14.43    5.82
  -5  -1   7    5.31    6.81
  -5  -1   7   20.60    8.32
  -5  -1   7    9.61    6.98
   6  -5   7   20.45    7.07
  -6   6  -7   54.73    6.69
   6  -6   7   66.68    8.32
  -6   0   7   46.44    8.84
  -6   0   7   50.91    9.81
  -6   0   7   50.70    8.61
   6  -6   7   60.80    7.67
   6  -6   7   43.27    8.73
  -6   7  -7   -0.44    4.86
  -6   7  -7    1.67    4.68
  -7   1   7    3.45    8.55
  -7   1   7    0.26    6.27
  -7   1   7   -1.89    6.70
   6  -7   7    8.29    6.92
   6  -7   7   -8.56    5.44
  -6   8  -7   20.35    5.41
  -6   8  -7   14.10    7.31
  -6   8  -7   15.03    5.54
  -8   2   7   21.19    6.42
   6  -8   7   23.28    7.50
   6  -8   7   14.93    6.73
   9  -3  -7   15.78    6.73
  -6   9  -7   26.12    7.68
   9  -3  -7   15.19    6.98
  -6   9  -7   18.11    5.90
   6  -9   7   29.09    7.30
   6  -9   7   15.57    7.79
  -6  10  -7   -1.66    5.71
  10  -4  -7   21.21    7.41
  -6  10  -7   30.83    8.38
  10  -4  -7   15.66    7.18
   6 -10   7    8.58    6.94
   6 -10   7   17.87    7.91
  11  -5  -7   -4.12    6.00
  -6  11  -7    0.33    6.99
  11  -5  -7  -14.85    5.83
   6 -11   7    3.67    7.94
   6 -11   7    5.16    7.29
  12  -6  -7   16.09    7.30
  -6  12  -7   19.23    7.73
  -6  12  -7   13.24    6.25
  12  -6  -7   11.48    7.71
   6 -12   7   11.60    8.55
   6 -12   7   20.19    8.88
  13  -7  -7    9.37    7.00
  -6  13  -7    5.70    7.79
  -6  13  -7   20.42    6.72
  13  -7  -7   28.37    8.88
   6 -13   7   15.84    8.56
   6 -13   7   14.43    8.81
  12  -7  -7    7.67    6.79
  -5  12  -7    2.46    8.52
  -5  12  -7    7.38    6.30
  12  -7  -7   18.95    8.06
   5 -12   7   19.79    8.91
   5 -12   7   11.04    8.65
  -4  11  -7   48.86   10.81
  11  -7  -7   54.89    9.38
  -4  11  -7   45.65    8.51
  11  -7  -7   50.58    9.68
   4 -11   7   64.42   10.99
   4 -11   7   33.34    9.33
  10  -7  -7   41.87    8.74
  10  -7  -7   50.06    8.94
  -3  10  -7   37.97    8.65
  -3  10  -7   33.51    9.69
   3 -10   7   41.95    9.73
   3 -10   7   41.22    9.74
   9  -7  -7   -5.25    6.62
  -2   9  -7   14.32    8.48
   9  -7  -7   18.87    6.94
   2  -9   7   14.23    8.19
   2  -9   7   25.38    8.85
  -1   8  -7  232.72   17.44
   8  -7  -7  214.11   13.74
   8  -7  -7  220.64   17.94
   1  -8   7  173.12   15.12
   1  -8   7  192.89   15.48
   7  -7  -7   16.01    8.52
   0   7  -7   37.58    9.66
   7   0   7   23.71    6.32
   0  -7   7   20.92    7.70
   0  -7   7   23.84    8.06
   1   6  -7   -5.88    7.54
   6  -7  -7    1.56    7.65
  -7   1  -7   -3.26    3.83
  -1  -6   7   -3.22    6.95
  -6   7   7  -11.98    5.02
  -1  -6   7    3.01    7.12
  -7   2  -7   -0.19    3.64
   2   5  -7    0.81    7.45
   5  -7  -7   -3.29    7.01
  -2  -5   7  -10.17    6.37
  -5   7   7    5.84    5.40
  -2  -5   7    5.69    6.97
  -7   3  -7  143.71    8.42
  -7   3  -7  121.58    9.81
   4  -7  -7  144.78   13.97
   3   4  -7  154.39   13.95
   7  -3   7  127.81   10.94
  -3  -4   7  130.64   12.43
   7  -3   7  124.58    8.04
  -3  -4   7  126.16   12.67
  -4   7   7  131.96   10.73
   4   3  -7   48.85    9.99
   3  -7  -7   51.42    7.94
  -7   4  -7   48.26    5.45
  -7   4  -7   54.92    7.00
  -4  -3   7   52.13    9.11
  -4  -3   7   54.67    8.98
   7  -4   7   41.61    8.16
  -3   7   7   55.48    7.91
   7  -4   7   42.35    5.38
   5   2  -7   44.44    9.79
   2  -7  -7   63.62    8.89
  -7   5  -7   56.08    6.07
  -7   5  -7   56.99    7.15
  -2   7   7   54.88    7.93
   7  -5   7   60.60    8.79
  -5  -2   7   42.81    8.79
  -5  -2   7   53.68    8.69
   7  -5   7   60.78    6.27
   6   1  -7  119.00   12.90
  -7   6  -7  109.74    8.04
  -7   6  -7  120.07    9.75
   7  -6   7  118.68   11.68
  -6  -1   7  116.68   11.39
  -6  -1   7  128.80   12.93
  -7   7  -7   17.77    4.80
   7   0  -7   24.38    8.91
   7  -7   7   27.66    7.85
  -7   0   7   18.02    9.16
   7  -7   7   24.28    6.19
  -7   0   7   21.32    8.27
  -7   0   7   17.59    7.12
   7  -7   7   15.34    6.52
  -7   8  -7   15.21    4.81
   8  -1  -7   -0.82    5.67
  -7   8  -7   11.47    5.55
  -8   1   7    4.67    7.00
  -8   1   7   -1.13    6.33
   7  -8   7    2.63    5.81
  -8   1   7    1.99    8.39
   7  -8   7    7.28    6.96
  -7   9  -7    3.43    4.66
   9  -2  -7   -1.94    5.69
  -7   9  -7    8.89    5.50
  -7   9  -7   12.22    6.06
   7  -9   7   -1.11    6.80
   7  -9   7   17.48    6.62
  -9   2   7    5.62    5.85
  10  -3  -7   74.74    9.76
  10  -3  -7   67.89    9.71
  -7  10  -7   91.75    9.33
  -7  10  -7   84.24    9.81
  10  -3  -7   76.59   10.70
   7 -10   7   86.39    9.72
   7 -10   7   72.67   10.69
  -7  11  -7    8.54    6.57
  11  -4  -7   -0.02    6.42
  11  -4  -7   11.12    7.12
  11  -4  -7    8.39    5.74
   7 -11   7    2.29    7.32
   7 -11   7    7.87    7.06
  12  -5  -7   17.31    7.08
  -7  12  -7   17.15    7.37
  12  -5  -7   15.00    6.73
  12  -5  -7   10.98    7.50
  12  -5  -7    9.82    6.99
   7 -12   7   17.96    8.97
   7 -12   7   16.88    7.93
  13  -6  -7   54.62   10.04
  13  -6  -7   64.96   10.76
  13  -6  -7   88.33   10.84
  -7  13  -7   66.49    8.32
  13  -6  -7   63.68    9.13
  -7  13  -7   62.63   10.14
   7 -13   7   42.63   10.21
   7 -13   7   64.85   11.47
  14  -7  -7    6.81    7.21
  14  -7  -7   -3.42    7.41
  14  -7  -7    2.72    5.93
  14  -7  -7   10.00    8.41
  -7  14  -7   -5.71    6.62
  -7  14  -7    5.75    5.40
   7 -14   7   13.97    8.98
   7 -14   7   -4.47    8.51
   7   7   7    5.79   10.80
  14  -8  -7    5.50    7.96
  14  -8  -7    5.67    8.43
  -6  14  -7    2.90    8.60
  -6  14  -7    4.38    5.71
  14  -8  -7    9.05    7.02
   6 -14   7   -0.48    8.63
   8   6   7    0.00   11.47
   6 -14   7    3.13    8.38
  -5  13  -7   10.88    6.41
  13  -8  -7    9.75    7.25
  13  -8  -7    5.15    6.85
  -5  13  -7   14.76    9.27
   5 -13   7   -4.58    8.67
   5 -13   7    5.37    8.45
  12  -8  -7   -2.72    7.01
  -4  12  -7   12.80    6.91
  12  -8  -7    8.90    7.06
  -4  12  -7    7.04    9.03
   4 -12   7   11.30    9.14
   4 -12   7    9.69    8.04
  11  -8  -7    2.11    7.22
  11  -8  -7    3.16    6.85
  -3  11  -7  -14.89    8.25
  -3  11  -7    8.32    6.88
   3 -11   7    8.61    8.79
   3 -11   7    2.97    8.31
  -2  10  -7    0.30    7.93
  10  -8  -7   -4.01    6.99
  -2  10  -7    2.53    8.93
  10  -8  -7   10.02    7.46
   2 -10   7    0.86    8.80
   2 -10   7    9.03    8.21
   9  -8  -7   42.76    8.51
  -1   9  -7   47.87   10.55
  -1   9  -7   37.81    9.36
   9  -8  -7   52.75   10.48
   1  -9   7   42.04    9.96
   1  -9   7   63.21   10.63
   0   8  -7    6.43    7.72
   8  -8  -7    8.72    8.04
   0   8  -7    9.88    8.31
   0  -8   7    7.78    7.91
   0  -8   7    3.43    7.46
   8   0   7    9.79    5.92
   7  -8  -7   10.22    7.92
   1   7  -7   12.88    9.05
  -1  -7   7    0.97    6.96
  -1  -7   7   14.17    7.80
   8  -1   7    5.08    5.72
   6  -8  -7    6.55    8.34
  -8   2  -7   17.40    4.42
  -8   2  -7   15.69    4.62
   2   6  -7   14.77    8.60
  -2  -6   7   19.64    8.35
  -2  -6   7    5.94    7.35
   5  -8  -7   73.83   11.25
   5  -8  -7   77.84    8.65
   3   5  -7   75.38   11.28
  -8   3  -7   73.06    6.43
   8  -3   7   75.42    7.25
  -3  -5   7   75.10   10.71
  -3  -5   7   67.72   10.16
   4   4  -7    9.91    7.72
  -8   4  -7   -2.33    4.24
   4  -8  -7    0.29    5.34
  -8   4  -7    3.34    3.24
  -4  -4   7   -4.14    7.01
  -4  -4   7   -2.52    6.70
   8  -4   7   -4.70    5.87
   8  -4   7   -6.69    4.14
   5   3  -7    0.95    7.54
   3  -8  -7   -7.95    5.33
  -8   5  -7   -3.28    4.09
  -8   5  -7    0.32    3.39
   8  -5   7    5.04    6.48
   8  -5   7    0.56    4.31
  -5  -3   7   -1.27    6.78
  -5  -3   7    6.77    7.13
   2  -8  -7    5.60    5.84
   6   2  -7    3.69    7.97
  -8   6  -7    7.83    3.62
  -8   6  -7    2.08    4.02
   8  -6   7    8.68    7.32
  -6  -2   7   -6.68    6.04
   8  -6   7   -2.34    4.68
  -6  -2   7    5.52    6.98
   7   1  -7  193.86   16.33
  -8   7  -7  189.49   11.31
  -8   7  -7  220.92   10.79
   8  -7   7  213.63   14.32
  -7  -1   7  195.85   13.56
  -7  -1   7  181.51   15.47
  -8   8  -7    6.55    4.18
   8   0  -7   11.74    7.53
   8  -8   7    2.69    6.90
  -8   0   7    0.78    8.55
   8  -8   7    6.78    5.95
   8  -8   7    4.06    6.19
  -8   0   7   15.68    7.18
  -8   0   7    4.99    7.91
  -8   9  -7   25.90    6.76
  -8   9  -7   17.38    5.06
  -8   9  -7   24.70    6.57
   9  -1  -7   10.65    6.79
   8  -9   7   18.45    6.48
  -9   1   7   14.33    7.26
  -9   1   7   27.34    9.75
   8  -9   7   10.23    7.37
  -9   1   7   32.67    8.75
  10  -2  -7  159.15   13.26
  10  -2  -7  165.78   15.36
  -8  10  -7  169.98   12.40
  -8  10  -7  159.94   13.38
   8 -10   7  158.21   12.10
   8 -10   7  162.04   14.06
  11  -3  -7    0.40    5.69
  11  -3  -7    8.49    7.77
  -8  11  -7    4.20    6.01
  11  -3  -7   -0.67    6.47
   8 -11   7    3.49    7.69
   8 -11   7    2.87    6.59
  12  -4  -7   13.25    6.34
  12  -4  -7   -0.80    7.04
  12  -4  -7    8.90    7.47
  12  -4  -7   13.12    7.32
  -8  12  -7   15.93    6.80
   8 -12   7   10.86    7.19
   8 -12   7   29.14    9.07
  -8  13  -7   -2.09    6.31
  13  -5  -7    7.60    7.41
  13  -5  -7    5.65    7.39
  13  -5  -7    8.68    6.52
  13  -5  -7    6.96    5.83
  -8  13  -7    4.40    4.82
   8 -13   7   12.92    8.53
   8 -13   7   -1.34    7.78
  -8  14  -7   23.25    7.64
  14  -6  -7   43.94   10.12
  -8  14  -7   29.60    6.33
  14  -6  -7   19.53    8.66
  14  -6  -7   33.23    8.60
  14  -6  -7   31.90    7.44
   8 -14   7   32.67    9.77
   6   8   7   57.22   13.62
   8 -14   7   39.89    9.81
  14  -9  -7    4.04    8.43
  -5  14  -7    0.63    6.10
  -5  14  -7    5.73    9.24
  14  -9  -7   -0.03    6.31
   5 -14   7   -3.67    8.72
   9   5   7    8.81   12.14
   5 -14   7   -8.67    9.18
  13  -9  -7   20.11    8.68
  13  -9  -7   30.38    8.57
  -4  13  -7   35.64    8.36
  -4  13  -7   32.01   10.81
   4 -13   7   26.90   10.00
   4 -13   7    9.24    9.83
  12  -9  -7   13.07    7.38
  -3  12  -7    4.62    9.44
  12  -9  -7   16.28    8.44
  -3  12  -7   13.59    7.23
   3 -12   7    1.74    9.13
   3 -12   7    8.95    8.60
  11  -9  -7   53.65   10.36
  11  -9  -7   64.56   10.59
  -2  11  -7   71.20   11.35
  -2  11  -7   82.48   12.45
   2 -11   7   64.66   12.00
   2 -11   7   75.86   12.28
  10  -9  -7  229.19   15.93
  -1  10  -7  269.24   19.59
  -1  10  -7  223.21   17.05
  10  -9  -7  219.53   18.71
   1 -10   7  198.20   17.11
   1 -10   7  222.04   17.98
   9  -9  -7   15.68    8.68
   0   9  -7   13.92    8.50
   0   9  -7   10.97    9.23
   0  -9   7   16.77    8.48
   0  -9   7    9.10    8.62
   9   0   7   10.99    6.11
   1   8  -7   23.32    9.41
   1   8  -7   26.61    9.67
   8  -9  -7   16.36    9.01
  -1  -8   7   11.81    8.44
  -1  -8   7   30.28    9.61
   9  -1   7   14.51    5.98
  -9   2  -7    7.61    3.76
  -9   2  -7    7.29    3.95
   7  -9  -7    2.60    7.82
   2   7  -7    6.03    8.31
   2   7  -7   14.19    8.64
  -2  -7   7    7.07    8.03
  -2  -7   7   20.78    8.43
   3   6  -7    6.29    8.75
  -9   3  -7   19.15    4.15
   6  -9  -7   15.83    5.94
   3   6  -7   24.05    9.36
  -3  -6   7   22.60    8.37
  -3  -6   7   26.53    8.90
   5  -9  -7    6.24    5.40
   4   5  -7    0.16    8.20
   4   5  -7    5.20    8.31
  -9   4  -7   -0.24    3.10
   9  -4   7    1.98    4.70
  -4  -5   7   14.19    7.86
  -4  -5   7   -5.48    6.81
   5   4  -7    3.69    7.95
  -9   5  -7   14.16    4.31
   4  -9  -7   13.47    6.11
  -9   5  -7    8.43    3.51
   5   4  -7    5.15    8.12
   9  -5   7    7.26    5.06
  -5  -4   7    9.46    7.74
  -5  -4   7   11.59    7.66
   9  -5   7   13.87    7.03
  -9   6  -7   12.34    4.29
   6   3  -7   12.52    8.80
   3  -9  -7   17.55    6.79
  -9   6  -7   14.54    3.95
   6   3  -7   16.69    9.29
  -6  -3   7   20.91    8.24
   9  -6   7   14.24    7.13
   9  -6   7   12.25    5.10
  -6  -3   7    9.46    7.68
  -9   7  -7   17.87    4.19
   7   2  -7   13.57    8.93
  -9   7  -7   22.19    4.45
   7   2  -7   19.15    9.45
   9  -7   7    8.28    5.47
  -7  -2   7   11.16    7.00
  -7  -2   7   13.35    8.16
   9  -7   7   14.82    7.65
  -9   8  -7   62.77    6.31
   8   1  -7   63.53   11.74
  -9   8  -7   46.05    6.25
   8   1  -7   47.11   10.53
   9  -8   7   46.85    9.33
  -8  -1   7   44.74    9.83
  -8  -1   7   49.17    8.74
  -9   9  -7    5.53    5.54
   9   0  -7   -0.88    7.06
   9   0  -7   -2.27    7.88
   9  -9   7    5.44    5.86
  -9   0   7   12.03    9.32
  -9   0   7   13.96    8.37
  -9   0   7    6.37    7.22
   9  -9   7   20.82    7.54
   9  -9   7    9.27    6.50
  10  -1  -7   69.28   11.27
  -9  10  -7   72.74    8.50
  10  -1  -7   68.99   10.11
   9 -10   7   54.45    8.29
   9 -10   7   63.81    9.96
 -10   1   7   74.28   10.99
 -10   1   7   63.07    9.23
 -10   1   7   74.36   12.49
  11  -2  -7    0.31    7.03
  11  -2  -7    6.63    6.32
  -9  11  -7    3.46    5.37
   9 -11   7   12.85    7.96
   9 -11   7   13.35    6.94
 -11   2   7    0.89    7.46
 -11   2   7    1.25    8.92
  12  -3  -7   -3.97    5.74
  12  -3  -7   -5.84    6.60
  -9  12  -7   11.93    6.11
   9 -12   7   -7.33    6.27
   9 -12   7   10.90    8.10
  -9  13  -7   10.84    6.32
  13  -4  -7    5.09    7.32
  13  -4  -7    8.55    7.93
  13  -4  -7   -5.12    5.88
  13  -4  -7    7.01    6.04
  -9  13  -7    4.56    4.75
   9 -13   7    2.15    7.42
   9 -13   7   11.37    8.31
  -9  14  -7   31.64    6.11
  14  -5  -7   34.12    8.44
  -9  14  -7   28.52    7.49
  14  -5  -7   44.22   10.13
  14  -5  -7   32.90    7.48
  14  -5  -7   42.89   10.31
   5   9   7   19.85   12.17
   9 -14   7   17.70    9.16
   9 -14   7   18.32    8.96
  14 -10  -7   41.92    9.63
  14 -10  -7   51.28   11.85
  -4  14  -7   37.54   11.81
  -4  14  -7   38.17    8.99
   4 -14   7   25.18   10.38
   4 -14   7   36.26   12.03
  10   4   7   39.57   12.97
  13 -10  -7    5.76    7.07
  -3  13  -7   -1.50    6.53
  -3  13  -7    0.01    9.89
  13 -10  -7   12.96    8.76
   3 -13   7   -9.77    9.77
   3 -13   7   14.56    9.52
  12 -10  -7   11.25    8.43
  -2  12  -7    9.15    9.90
  12 -10  -7   10.47    7.23
  -2  12  -7   -2.37    7.54
   2 -12   7   21.60    9.74
   2 -12   7   26.65   10.86
  11 -10  -7   -0.82    6.91
  -1  11  -7   18.13   10.49
  11 -10  -7   14.02    8.19
  -1  11  -7   -3.21    8.29
   1 -11   7   -7.10    7.83
   1 -11   7    4.73    9.29
  10 -10  -7  137.25   14.14
   0  10  -7  120.76   14.32
   0  10  -7  110.23   15.10
  10   0   7  136.05   11.05
   0 -10   7  128.81   15.10
   0 -10   7  149.55   15.59
   9 -10  -7   95.26   12.41
   1   9  -7   44.35   11.41
   1   9  -7   82.95   12.53
  10  -1   7   70.95    8.17
  -1  -9   7   46.19   10.77
  -1  -9   7   55.34   11.61
 -10   2  -7  164.34    9.11
 -10   2  -7  165.24    9.80
   2   8  -7  185.92   17.03
   8 -10  -7  170.98   11.98
   2   8  -7  179.89   17.41
  -2  -8   7  154.03   15.66
  -2  -8   7  156.76   15.49
 -10   3  -7   84.83    6.31
   7 -10  -7   89.64    8.57
   3   7  -7   61.18   11.80
   3   7  -7   73.74   12.38
  -3  -7   7   75.07   11.72
  -3  -7   7   87.69   12.06
   4   6  -7   21.65   10.09
 -10   4  -7   10.84    3.39
   6 -10  -7   -1.70    5.23
   4   6  -7   29.67    9.66
  -4  -6   7   17.89    8.26
  10  -4   7   16.39    5.63
  -4  -6   7    0.45    7.72
   5 -10  -7   18.74    6.08
   5   5  -7    4.46    9.30
   5   5  -7  -12.69    8.00
 -10   5  -7   15.32    3.54
  10  -5   7   11.05    6.57
  10  -5   7   23.27    6.07
  -5  -5   7   15.55    8.66
  -5  -5   7   18.70    8.39
   6   4  -7    7.73    9.25
   6   4  -7   11.99    8.99
   4 -10  -7   -1.36    5.52
 -10   6  -7    7.67    3.34
 -10   6  -7   -1.24    3.32
  10  -6   7    6.25    6.62
  -6  -4   7    5.01    7.74
  10  -6   7   -5.29    5.01
  -6  -4   7   13.97    7.85
   3 -10  -7   40.77    7.69
   7   3  -7   36.63   10.61
 -10   7  -7   36.03    4.97
 -10   7  -7   39.90    4.84
   7   3  -7   39.13   11.17
  10  -7   7   38.44    6.99
  -7  -3   7   29.70    9.64
  -7  -3   7   48.86    9.80
  10  -7   7   34.54    8.04
 -10   8  -7   -0.68    3.63
 -10   8  -7    4.57    3.66
   8   2  -7   -3.28    9.20
   8   2  -7  -12.91    9.04
  10  -8   7   -1.17    7.42
  -8  -2   7   -3.74    7.77
  -8  -2   7   -1.27    6.68
 -10   9  -7  220.41   11.67
   9   1  -7  239.96   19.42
   9   1  -7  221.11   18.55
 -10   9  -7  244.40   13.80
  10  -9   7  252.48   15.71
  -9  -1   7  229.82   17.06
  -9  -1   7  210.16   14.69
 -10  10  -7  142.16   11.47
  10   0  -7  162.82   16.44
  10   0  -7  133.50   14.28
  10 -10   7  141.05   11.24
  10 -10   7  150.80   10.95
 -10   0   7  161.64   12.95
  10 -10   7  120.54   12.81
 -10   0   7  146.75   16.35
 -10   0   7  138.25   14.79
 -10  11  -7    2.06    5.03
  11  -1  -7   -0.87    7.28
  11  -1  -7   11.28    7.52
  10 -11   7    8.41    7.69
 -11   1   7   11.68    7.18
 -11   1   7   -8.57    8.81
  10 -11   7    1.97    6.27
 -11   1   7    0.68    7.98
  12  -2  -7   21.47    9.08
 -10  12  -7   19.48    5.96
  12  -2  -7   12.74    7.49
 -12   2   7   28.55   10.50
  10 -12   7  -12.51    7.31
  10 -12   7   21.68    7.50
 -12   2   7   11.93    8.15
  13  -3  -7  -12.19    5.38
 -10  13  -7   -5.31    4.95
  13  -3  -7   -3.03    7.17
  10 -13   7    1.28    6.74
  10 -13   7   -3.10    7.29
  14  -4  -7    0.19    7.50
 -10  14  -7    7.34    5.66
  14  -4  -7    1.58    6.70
  14  -4  -7    1.08    6.23
  14  -4  -7    3.18    8.15
  10 -14   7    3.50    7.56
  10 -14   7    3.31    8.54
  14 -11  -7    1.50    6.10
  14 -11  -7   26.67   11.39
  -3  14  -7    5.89    7.87
  -3  14  -7   -0.87   10.06
   3 -14   7   14.37   11.20
   3 -14   7    9.18   10.23
  13 -11  -7    1.58    6.47
  13 -11  -7    6.02    9.95
  -2  13  -7   -1.73    7.81
  -2  13  -7    0.65    9.66
   2 -13   7  -10.54    8.67
   2 -13   7   -6.33   10.35
  12 -11  -7    3.03    8.64
  12 -11  -7   12.22    7.73
  -1  12  -7    6.49   10.13
  -1  12  -7   -5.85    8.86
   1 -12   7    5.19   10.21
   1 -12   7    7.66    9.16
   0  11  -7   49.94   11.56
   0  11  -7   64.14   12.76
   0 -11   7   59.56   12.75
   0 -11   7   52.99   11.80
   1  10  -7    6.30    9.52
   1  10  -7   -9.16    9.86
  11  -1   7   10.64    5.72
  -1 -10   7    8.83    9.69
  -1 -10   7    4.56    9.28
   2   9  -7  -12.19    9.05
   2   9  -7    2.40    9.33
  -2  -9   7    9.79    9.59
  -2  -9   7    9.42    9.55
   8 -11  -7    6.63    4.97
 -11   3  -7   11.57    3.46
   3   8  -7   -0.90    9.07
   3   8  -7    5.53    9.88
  -3  -8   7   13.53    9.62
  -3  -8   7    9.39    8.82
   4   7  -7    1.05    8.93
 -11   4  -7    3.90    2.94
   4   7  -7    7.47    9.30
   7 -11  -7   12.50    5.09
  -4  -7   7   -7.67    7.94
  11  -4   7    4.50    5.74
  -4  -7   7   20.57    9.17
   5   6  -7   -4.12    9.07
   6 -11  -7    4.16    4.91
   5   6  -7    5.44    9.93
 -11   5  -7    1.12    2.75
  -5  -6   7    5.38    8.40
  -5  -6   7   -4.34    7.58
  11  -5   7   -5.93    5.49
   6   5  -7   26.08   10.88
   5 -11  -7   19.34    5.95
 -11   6  -7   28.96    3.64
   6   5  -7   16.28    9.84
  11  -6   7   16.77    6.42
  11  -6   7   22.07    7.24
  -6  -5   7   19.28    8.90
  -6  -5   7   23.31    9.37
   4 -11  -7   71.32    8.50
   7   4  -7   53.23   12.01
   7   4  -7   42.27   12.14
 -11   7  -7   58.85    4.93
  -7  -4   7   54.40   10.88
  -7  -4   7   55.13   10.17
  11  -7   7   54.40    7.99
  11  -7   7   40.31    8.41
   8   3  -7   -2.57    9.92
 -11   8  -7    8.84    3.19
   8   3  -7    4.24    9.41
  11  -8   7   -5.37    7.13
  -8  -3   7   23.24    8.74
  -8  -3   7    3.98    7.96
  11  -8   7    5.77    5.92
 -11   9  -7   64.09    5.68
   9   2  -7   64.51   12.07
   9   2  -7   63.16   13.24
  11  -9   7   66.79   10.19
  -9  -2   7   65.73   11.55
  -9  -2   7   69.06    9.83
  10   1  -7    6.93    8.96
 -11  10  -7    3.36    4.53
  10   1  -7    2.21    9.65
 -11  10  -7    8.23    3.66
  11 -10   7   -6.99    6.72
 -10  -1   7    6.96    7.09
 -10  -1   7   19.82    9.11
 -11  11  -7   40.08    6.93
  11   0  -7   60.35   12.28
  11   0  -7   57.38   10.36
 -11   0   7   74.45    9.77
 -11   0   7   46.45   12.17
  11 -11   7   63.08   10.18
 -11   0   7   57.27   11.21
  11 -11   7   52.79    7.78
  12  -1  -7   25.62   10.03
 -11  12  -7   18.17    5.68
  12  -1  -7    1.19    6.99
 -12   1   7    5.22    6.91
 -12   1   7   26.41   10.94
  11 -12   7    9.61    6.46
 -12   1   7    7.55    8.53
  11 -12   7   30.25    8.80
  13  -2  -7   39.86    9.25
  13  -2  -7   46.20   10.99
 -11  13  -7   49.49    6.88
  11 -13   7   47.05   10.19
 -13   2   7   51.45   12.32
 -13   2   7   34.39    9.45
  11 -13   7   46.00    8.59
  14  -3  -7    7.61    8.53
  14  -3  -7    5.56    6.74
 -11  14  -7   11.74    5.40
  11 -14   7   10.45    7.17
  11 -14   7   10.41    8.23
  -1  13  -7    1.75    9.64
  -1  13  -7    2.46   10.54
   1 -13   7  -13.12    8.72
   1 -13   7   -2.10   10.81
   0  12  -7   -3.69    9.62
   0  12  -7   -1.57    9.08
   0 -12   7  -15.46    9.44
   0 -12   7    2.86   10.52
   1  11  -7    8.42    9.74
   1  11  -7   33.81   11.64
  -1 -11   7    1.89   10.78
  -1 -11   7    4.50    9.61
   2  10  -7   -1.65    9.88
   2  10  -7   17.86   10.46
  -2 -10   7   15.36   10.48
  -2 -10   7   17.72   10.79
   3   9  -7   -4.73    9.32
   3   9  -7    4.80    9.66
  -3  -9   7   -9.90    9.43
  -3  -9   7    9.04    9.29
   4   8  -7   -2.48    9.53
   4   8  -7    3.00    9.65
  12  -4   7   -1.84    5.91
  -4  -8   7   18.90    9.95
  -4  -8   7   13.87    9.52
   5   7  -7   17.63   11.19
   5   7  -7   28.14   10.94
  12  -5   7   20.01    6.70
  -5  -7   7   10.28    9.39
  -5  -7   7   20.01    9.26
   6   6  -7   13.14   10.43
   6   6  -7   12.46   10.34
  -6  -6   7    3.20    8.79
  12  -6   7   23.46    7.17
  -6  -6   7   20.14    9.46
   7   5  -7   15.82   11.00
   7   5  -7    5.44   10.02
  -7  -5   7   17.45    8.71
  -7  -5   7   27.40    9.90
  12  -7   7   23.25    7.04
  12  -7   7   10.68    7.00
   8   4  -7   -3.43    9.40
   8   4  -7   11.80   10.55
  12  -8   7   -9.91    5.57
  -8  -4   7    0.01    8.44
  -8  -4   7   11.00    8.14
  12  -8   7    3.22    6.98
   9   3  -7   -4.10   10.18
   9   3  -7   -8.20    9.23
  -9  -3   7   -2.27    8.59
  12  -9   7    8.70    7.17
  12  -9   7    4.65    7.70
  -9  -3   7    4.94    7.31
  10   2  -7   22.99   11.68
  10   2  -7   16.18   10.10
 -12  10  -7   11.97    4.78
 -10  -2   7    9.77    7.46
 -10  -2   7   10.85    9.40
  12 -10   7    7.82    7.93
  11   1  -7   15.24   10.95
 -12  11  -7    1.80    4.34
  11   1  -7    3.63    8.91
 -11  -1   7    4.81    6.68
  12 -11   7    6.72    8.22
 -11  -1   7    8.28    8.91
  12   0  -7    5.59    7.75
 -12  12  -7    8.50    4.67
  12   0  -7   -2.62    9.37
  12 -12   7   -2.49    6.27
  12 -12   7   -6.01    7.35
  12 -12   7    3.70    5.94
 -12   0   7   -7.28    9.47
 -12   0   7   -8.61    8.19
 -12   0   7    3.75    6.88
 -12  13  -7   10.29    5.04
  13  -1  -7    6.41    8.66
  13  -1  -7   -4.18    6.90
  12 -13   7   16.62    8.10
 -13   1   7   13.14   10.81
  12 -13   7    8.50    6.66
 -13   1   7   -5.10    8.14
 -13   1   7   -3.72    6.23
   1  12  -7   -2.19   10.54
   1  12  -7   -0.58    9.91
  -1 -12   7   13.57   10.44
  -1 -12   7    2.61   11.14
   2  11  -7   38.75   12.19
   2  11  -7   36.38   11.80
  -2 -11   7   60.53   13.29
  -2 -11   7   41.58   13.22
   3  10  -7   -4.83    9.35
   3  10  -7   17.69   11.05
  -3 -10   7   17.36   10.29
  -3 -10   7    6.58   10.42
   4   9  -7   10.88   10.43
   4   9  -7   13.11   11.07
  -4  -9   7    4.46    9.63
  -4  -9   7    3.66    9.69
   5   8  -7   20.67   11.45
   5   8  -7   -2.87   10.30
  -5  -8   7    7.61    9.87
  -5  -8   7    8.66    9.62
  13  -5   7   13.29    6.95
   6   7  -7   79.68   14.21
   6   7  -7   61.99   13.95
  -6  -7   7   59.13   13.10
  -6  -7   7   76.28   12.21
  13  -6   7   57.31    9.26
   7   6  -7   29.70   12.30
   7   6  -7   28.21   11.82
  13  -7   7    9.21    7.12
  -7  -6   7    3.08    8.90
  -7  -6   7   19.37    9.80
   8   5  -7   -7.43   10.14
   8   5  -7   -4.58   10.17
  -8  -5   7  -12.65    8.18
  13  -8   7    7.04    6.79
  -8  -5   7    2.70    9.60
  13  -8   7    4.79    6.88
   9   4  -7   20.72   11.06
   9   4  -7   37.71   12.72
  13  -9   7   31.15    8.34
  -9  -4   7   28.84    9.52
  -9  -4   7   43.72   11.41
  13  -9   7   32.91    8.77
  10   3  -7   -5.10   10.28
 -13  10  -7    1.27    3.35
  10   3  -7   14.84   10.44
 -10  -3   7   -0.43    9.08
 -10  -3   7  -12.14    6.90
  13 -10   7   12.11    7.13
  13 -10   7    6.50    7.89
  11   2  -7   12.56   11.15
  11   2  -7    1.25    8.97
  13 -11   7   -0.55    7.94
 -11  -2   7   -6.09    6.89
 -11  -2   7    6.93    9.08
  12   1  -7    7.45    9.31
  12   1  -7   -3.09   10.05
  13 -12   7    9.93    8.52
 -12  -1   7   -1.75    6.70
 -12  -1   7   -5.20    8.67
   3  11  -7   14.76   11.25
   3  11  -7    8.96   11.27
  -3 -11   7   26.73   11.83
  -3 -11   7   -0.99   10.92
   4  10  -7   15.73   11.00
   4  10  -7   -9.22   10.12
  -4 -10   7   14.43   10.53
  -4 -10   7    3.07   10.68
   5   9  -7   17.84   11.42
   5   9  -7   27.05   12.39
  -5  -9   7   27.48   11.46
  14  -5   7   30.35    8.27
  -5  -9   7   20.62   11.10
   6   8  -7   44.16   13.28
   6   8  -7   48.41   13.10
  -6  -8   7   36.26   12.46
  -6  -8   7   16.99   10.74
  14  -6   7   30.93    8.28
   7   7  -7  -21.47    9.48
   7   7  -7    3.49   10.85
  14  -7   7    2.11    7.38
  -7  -7   7    7.49    9.84
  -7  -7   7   -7.56    9.00
   8   6  -7    0.89   10.53
   8   6  -7   -1.34   10.77
  14  -8   7   -0.79    6.58
  14  -8   7   -9.85    6.55
  -8  -6   7  -12.14    9.15
  -8  -6   7   19.12    9.06
   9   5  -7   -1.78   10.26
   9   5  -7   -6.20   10.37
  -9  -5   7    0.35    8.19
  14  -9   7   -5.86    7.18
  -9  -5   7   13.58    9.89
  14  -9   7    6.91    7.21
  10   4  -7   38.38   11.98
  10   4  -7   17.01   11.99
  14 -10   7   29.67    8.46
 -10  -4   7   33.77   11.18
 -10  -4   7   29.24    9.64
  14 -10   7   46.50    9.37
  11   3  -7   14.00   10.72
  11   3  -7   34.08   12.92
  14 -11   7    5.21    7.54
 -11  -3   7    7.51    9.86
  14 -11   7    4.59    8.21
 -11  -3   7    3.93    7.48
   0   0  -8  930.67   38.88
   0   0   8 1000.00   36.33
  -1   0  -8  120.23   12.13
   0   1  -8  126.10   12.49
   1  -1  -8  110.89   11.74
   0  -1   8  137.64   12.34
   1   0   8  137.96   12.02
   0  -1  -8  115.36   11.74
   1   0  -8  104.62   11.69
  -1   1  -8   91.78   10.66
  -1   0   8  112.57   11.14
   1  -1   8  124.29   11.72
  -1   2  -8   16.05    7.48
  -1  -1  -8   26.49    7.70
   2  -1  -8   14.08    7.69
   1  -2   8   29.95    8.01
   3  -2  -8   26.08    7.94
  -2  -1  -8   21.48    7.44
   1  -3   8   25.27    7.10
   1  -3   8   40.84    8.94
   1  -3   8   23.38    7.90
  -2   0  -8   62.27    9.26
   2  -2  -8   48.87    9.42
   0  -2   8   69.85    9.68
  -2   1  -8   12.94    6.85
   1  -2  -8   24.22    7.90
   1   1  -8   14.13    7.68
   2  -1   8   24.49    7.56
  -1  -1   8   17.44    7.62
  -2   2  -8   56.70    9.05
   2   0  -8   65.95   10.35
   0  -2  -8   46.07    9.08
   2   0  -8   65.14    5.41
  -2   0   8   68.42    9.66
   2  -2   8   55.71    9.28
   3  -1  -8   22.05    8.08
  -1  -2  -8   -1.91    6.43
   3  -1  -8   15.59    4.74
   1   2   8   12.87    2.87
   2  -3   8    5.43    6.92
  -3   1   8   19.03    7.14
  -2  -2  -8   18.24    7.42
   4  -2  -8   11.32    5.14
   4  -2  -8    9.19    7.59
   2  -4   8    2.45    6.32
   2  -4   8    3.84    7.32
   2  -4   8    0.29    6.82
  -2   5  -8   38.78    4.32
   5  -3  -8   32.27    6.59
   5  -3  -8   35.94    8.99
  -3  -2  -8   43.73    9.07
   2  -5   8   43.69    9.36
   2  -5   8   28.23    8.32
   4  -3  -8  164.18   10.38
   4  -3  -8  169.51   14.84
  -3  -1  -8  166.77   13.83
   1  -4   8  196.56   14.19
   1  -4   8  191.40   14.06
   1  -4   8  176.89   14.51
  -3   0  -8   49.06    8.54
   3  -3  -8   49.12    9.34
   0  -3   8   44.83    8.89
   0  -3   8   48.06    9.42
   0  -3   8   35.69    8.23
  -3   1  -8   11.66    6.64
   2  -3  -8    8.41    7.32
  -3   1  -8   21.78    5.72
  -1  -2   8   13.14    7.84
  -1  -2   8   10.74    6.88
  -1  -2   8    6.06    6.53
   3  -1   8   16.98    7.14
  -3   2  -8   24.35    6.07
  -3   2  -8   29.74    7.44
   1  -3  -8   27.05    8.37
   2   1  -8   28.59    4.48
  -1   3   8   21.78    3.84
  -2  -1   8   21.02    7.92
   3  -2   8   15.28    7.48
  -3   3  -8   38.88    7.82
   0  -3  -8   47.10    8.99
   3   0  -8   46.08    5.82
   3   0  -8   54.19    9.69
   0   3   8   54.39    4.91
   3  -3   8   56.98    9.17
  -3   0   8   53.80    9.29
   4  -1  -8   95.09    8.15
   4  -1  -8   86.64   11.42
  -1  -3  -8   95.19   11.01
   3  -4   8  123.56   11.51
   3  -4   8  109.71   10.32
   3  -4   8  104.33   11.63
  -4   1   8  111.15   11.08
   1   3   8   97.00    7.46
  -2  -3  -8   14.19    7.84
   5  -2  -8   10.93    8.00
   5  -2  -8   -1.29    5.71
   3  -5   8    4.05    6.87
   3  -5   8    5.38    7.51
   3  -5   8   11.16    7.77
   6  -3  -8  150.76   14.60
  -3   6  -8  147.67    8.18
   6  -3  -8  122.70   10.28
   3  -6   8  117.42   12.09
   3  -6   8  138.67   12.43
   7  -4  -8    4.36    7.64
  -3   7  -8    6.31    4.47
   7  -4  -8   -7.16    5.05
  -3   7  -8    9.05    7.51
   3  -7   8    2.15    7.36
   3  -7   8    6.34    6.97
   6  -4  -8    5.26    8.00
   6  -4  -8    9.48    5.52
   2  -6   8   -8.62    6.46
   2  -6   8   18.15    7.74
  -4  -1  -8   -1.65    6.87
   5  -4  -8    0.61    7.69
   5  -4  -8    3.33    5.15
   1  -5   8   12.77    7.22
   1  -5   8    0.83    7.10
  -4   0  -8   81.23    9.08
   4  -4  -8   61.66   10.47
  -4   0  -8   51.12    8.58
  -4   0  -8   84.12    8.42
   0  -4   8   83.45   10.66
   0  -4   8   60.36    9.78
  -4   1  -8  114.15    9.40
  -4   1  -8  117.69   10.94
   3  -4  -8   95.00   11.68
  -1  -3   8  108.62   11.70
  -1  -3   8  111.08   12.25
  -1  -3   8   82.22   10.64
   2  -4  -8   13.25    7.76
  -4   2  -8    2.68    6.09
  -4   2  -8   10.70    5.49
  -2   4   8   10.58    3.79
  -2  -2   8    3.97    7.70
   4  -2   8    6.34    6.75
  -2  -2   8    5.12    7.05
  -2  -2   8    5.23    6.77
   1  -4  -8  187.03   15.78
  -4   3  -8  171.37   12.80
  -4   3  -8  176.40   11.38
  -3  -1   8  181.00   15.65
   4  -3   8  195.86   14.27
  -3  -1   8  198.20   14.28
  -1   4   8  181.48    9.36
  -3  -1   8  159.71   13.78
  -4   4  -8   89.02    8.66
   4   0  -8   63.00    7.20
  -4   4  -8   53.72    8.61
   0  -4  -8   63.84   10.18
   0   4   8   71.54    6.24
  -4   0   8   78.34   10.05
   4  -4   8   62.84    9.51
   5  -1  -8   10.89    5.79
  -1  -4  -8   -1.98    7.32
   5  -1  -8   11.20    8.00
   4  -5   8    1.57    6.30
   4  -5   8    1.33    7.42
   4  -5   8   -1.09    7.37
  -5   1   8   -3.02    6.79
   6  -2  -8   43.13   10.00
   6  -2  -8   38.70    7.44
  -4   6  -8   36.82    4.64
   4  -6   8   23.75    7.97
   4  -6   8   27.26    7.69
   4  -6   8   28.27    8.92
  -4   7  -8   73.46    6.77
   7  -3  -8   62.33   10.83
   7  -3  -8   68.03    8.78
   4  -7   8   64.94   10.15
   4  -7   8   68.63    9.92
  -4   8  -8   39.61    6.28
   8  -4  -8   28.14    9.28
   8  -4  -8   45.17    7.99
  -4   8  -8   39.35    9.87
   4  -8   8   35.88    9.03
   4  -8   8   32.42    8.84
   9  -5  -8   -9.23    7.77
  -4   9  -8   -9.37    5.15
  -4   9  -8    2.55    8.20
   9  -5  -8   -2.21    6.54
   4  -9   8    4.64    7.60
   4  -9   8    2.74    7.39
  -3   8  -8    1.96    7.87
   8  -5  -8   19.72    6.47
   8  -5  -8   10.20    8.26
   3  -8   8   26.11    8.86
   3  -8   8    5.51    7.95
  -2   7  -8   -3.71    7.78
   7  -5  -8    8.94    8.21
   7  -5  -8   -9.43    4.96
   2  -7   8    1.03    7.39
   2  -7   8    9.66    7.65
   6  -5  -8   32.16    6.76
  -1   6  -8   46.24    9.65
   6  -5  -8   46.82   10.23
   1  -6   8   45.49    9.06
   1  -6   8   50.06    9.59
   5  -5  -8   -2.21    7.21
  -5   0  -8   14.29    6.23
  -5   0  -8    8.00    5.27
  -5   0  -8   16.32    7.19
   0  -5   8    0.89    6.89
   0  -5   8    4.12    7.17
   4  -5  -8   11.97    8.19
  -5   1  -8   17.93    6.33
  -5   1  -8   11.51    6.61
  -5   1  -8   15.94    5.81
   5  -1   8   12.51    2.99
  -1  -4   8   11.82    7.55
  -1  -4   8   12.87    8.04
  -5   2  -8    9.18    6.39
  -5   2  -8   11.19    5.53
   3  -5  -8   16.25    8.08
  -2  -3   8    5.22    7.16
  -3   5   8   13.62    4.99
  -2  -3   8   28.58    8.11
   5  -2   8   19.86    7.23
  -5   3  -8   43.33    6.75
   2  -5  -8   41.25    9.38
  -5   3  -8   54.30    8.21
   5  -3   8   42.79    8.72
  -3  -2   8   34.26    9.78
  -3  -2   8   53.09    9.50
  -3  -2   8   32.19    8.61
  -2   5   8   38.00    6.02
   1  -5  -8    7.37    7.91
  -5   4  -8    0.71    5.99
  -5   4  -8   13.80    5.23
  -4  -1   8   11.11    7.46
  -1   5   8    2.90    4.77
   5  -4   8   15.12    7.41
  -4  -1   8    2.91    6.83
  -4  -1   8   12.97    8.40
  -5   5  -8   -1.95    5.90
  -5   5  -8    4.67    4.86
  -5   0   8    4.82    7.15
   0   5   8    7.60    4.49
  -5   0   8   -6.99    8.02
  -5   0   8    8.99    6.90
   5  -5   8  -15.09    6.20
   6  -1  -8   11.38    6.07
   5  -6   8    9.00    6.35
   5  -6   8    1.05    6.84
   5  -6   8    3.26    7.09
  -6   1   8    6.02    7.16
  -5   7  -8  131.63    8.62
   7  -2  -8  129.49   14.06
   7  -2  -8  120.45   10.89
   5  -7   8  119.43   11.76
   5  -7   8  117.58   12.34
   8  -3  -8    8.68    6.06
   8  -3  -8   -1.86    7.67
  -5   8  -8    3.30    5.13
  -5   8  -8  -16.37    6.75
   5  -8   8    3.23    6.98
   5  -8   8   -3.90    6.39
  -5   9  -8    0.42    7.58
  -5   9  -8    5.20    5.29
   9  -4  -8  -27.46    6.27
   9  -4  -8    4.83    6.65
   5  -9   8   -9.14    6.95
   5  -9   8   11.43    7.60
  10  -5  -8   41.47    8.59
  -5  10  -8   31.21    6.85
  -5  10  -8   33.49    9.70
  10  -5  -8    7.35    7.98
   5 -10   8   33.13    9.27
   5 -10   8   24.57    8.99
  11  -6  -8   31.83    8.76
  -5  11  -8   49.35   10.41
  11  -6  -8   64.86   10.86
   5 -11   8   60.30   10.00
   5 -11   8   51.59   10.77
  10  -6  -8  134.22   12.37
  -4  10  -8  137.26   14.40
  10  -6  -8  120.71   14.41
  -4  10  -8  123.69   10.35
   4 -10   8  102.43   12.89
   4 -10   8  123.66   12.99
   9  -6  -8    8.44    9.05
   9  -6  -8    9.19    6.80
  -3   9  -8   29.59    9.85
   3  -9   8   42.88    9.43
   3  -9   8   39.84    9.69
  -2   8  -8   59.35   10.76
   8  -6  -8   75.72    9.18
   8  -6  -8   59.41   11.16
   2  -8   8   57.74   10.31
   2  -8   8   52.80   10.36
  -1   7  -8  110.58   12.86
   7  -6  -8   83.68   12.06
   7  -6  -8  100.05    9.95
   1  -7   8   81.69   11.37
   1  -7   8   91.12   11.71
   0   6  -8   -0.34    7.94
   6  -6  -8    4.52    8.10
   0  -6   8   11.36    7.70
   0  -6   8   -3.06    7.18
   1   5  -8   -7.17    7.41
  -6   1  -8    1.84    4.32
  -6   1  -8    6.21    5.05
  -6   1  -8  -10.86    5.76
   5  -6  -8   -5.69    7.50
  -1  -5   8   -2.00    7.21
  -1  -5   8    0.63    6.80
  -5   6   8    7.92    5.04
   4  -6  -8   33.16    9.31
   2   4  -8   43.77    9.42
  -6   2  -8   48.23    6.29
  -6   2  -8   40.04    7.76
  -2  -4   8   32.84    8.73
  -4   6   8   30.25    6.01
  -2  -4   8   35.95    8.68
   6  -2   8   32.51    4.15
  -6   3  -8  142.80    9.35
  -6   3  -8  138.37   11.06
   3  -6  -8  114.61   13.02
   6  -3   8  126.01    6.71
  -3   6   8  149.94   10.00
   6  -3   8  140.81   12.18
  -3  -3   8  120.83   12.78
  -3  -3   8  148.44   13.27
  -6   4  -8    3.39    4.58
   2  -6  -8   13.12    8.39
  -6   4  -8    9.62    6.24
   6  -4   8    3.88    7.06
  -4  -2   8   24.12    9.03
  -4  -2   8    8.71    7.27
  -4  -2   8    3.37    7.37
  -2   6   8   17.59    5.67
  -6   5  -8   35.12    7.19
  -6   5  -8   35.53    5.95
  -5  -1   8   41.87    8.96
  -5  -1   8   33.64    8.44
   6  -5   8   42.14    8.74
  -1   6   8   49.14    6.87
  -5  -1   8   56.93   10.62
  -6   6  -8    5.25    4.42
   6  -6   8    6.45    7.49
  -6   0   8    7.98    7.10
  -6   0   8    4.42    8.16
  -6   0   8   13.16    7.53
  -6   7  -8   31.64    6.01
   6  -7   8   34.36    9.55
  -7   1   8   46.69    8.98
   6  -7   8   29.33    7.50
   6  -7   8   36.84    8.35
  -6   8  -8   26.80    5.74
  -6   8  -8   28.90    8.15
   8  -2  -8   18.53    8.70
   8  -2  -8   19.78    7.17
   6  -8   8   33.01    8.77
   6  -8   8   35.15    8.01
   9  -3  -8    5.67    8.47
  -6   9  -8   -9.15    7.29
   9  -3  -8    7.14    6.91
  -6   9  -8   -6.02    5.42
   6  -9   8    7.75    7.25
   6  -9   8   -6.78    7.33
  -6  10  -8   21.88    8.58
  10  -4  -8   29.26    7.79
  10  -4  -8   24.02    8.41
  -6  10  -8   25.64    6.67
   6 -10   8   39.80    8.75
   6 -10   8   18.12    8.57
  11  -5  -8   25.72    7.96
  -6  11  -8   14.11    7.99
  11  -5  -8   19.54    8.03
   6 -11   8   13.06    8.23
   6 -11   8   14.20    8.74
  12  -6  -8   13.87    7.80
  -6  12  -8   -5.68    7.81
  12  -6  -8    3.45    7.28
   6 -12   8    5.48    8.30
   6 -12   8   11.63    8.37
  -6  13  -8   -1.30    5.99
  13  -7  -8    5.74    7.30
  -6  13  -8    6.67    9.06
  13  -7  -8    2.40    7.45
   6 -13   8   18.82    9.72
   6 -13   8    2.09    8.35
  -5  12  -8   15.28    7.20
  12  -7  -8   21.05    8.90
  -5  12  -8   30.74   10.22
  12  -7  -8   15.68    7.77
   5 -12   8   20.91    9.50
   5 -12   8   12.40    9.24
  11  -7  -8    3.10    7.78
  11  -7  -8   -1.01    7.04
  -4  11  -8   -3.54    8.15
   4 -11   8    4.21    8.10
   4 -11   8    0.26    8.03
  10  -7  -8   29.34    9.75
  10  -7  -8   26.37    8.18
  -3  10  -8   37.40   10.75
   3 -10   8   36.86    9.70
   3 -10   8   37.26    9.87
   9  -7  -8  -11.20    7.91
   9  -7  -8   -4.26    5.92
  -2   9  -8   -2.20    9.00
   2  -9   8    1.20    8.23
   2  -9   8   -0.53    8.00
   8  -7  -8   22.47    6.94
   8  -7  -8   -2.50    8.43
  -1   8  -8    2.40    8.65
   1  -8   8   -1.60    7.61
   1  -8   8   13.89    8.33
   7  -7  -8  128.87   14.57
   0   7  -8  160.87   15.52
   0  -7   8  143.78   13.99
   0  -7   8  152.90   14.51
   1   6  -8   36.21    9.61
  -7   1  -8   34.92    6.11
   6  -7  -8   22.54    9.60
  -7   1  -8   24.15    5.37
  -1  -6   8   26.43    8.65
  -1  -6   8   24.33    8.64
   2   5  -8  133.49   13.57
  -7   2  -8  122.07    8.59
  -7   2  -8  120.59   10.87
   5  -7  -8  117.66   13.54
  -2  -5   8  122.01   12.77
  -2  -5   8  121.92   12.64
  -5   7   8  109.20    9.73
   7  -2   8  107.32    7.26
   4  -7  -8   49.86   10.55
   3   4  -8   88.71   12.60
  -7   3  -8   84.35    7.44
  -7   3  -8   82.14    8.74
  -3  -4   8   67.99   10.77
  -3  -4   8   69.55   10.82
   7  -3   8   56.39    8.93
   7  -3   8   73.19    5.96
  -4   7   8   81.19    8.46
   3  -7  -8   16.94    8.32
  -7   4  -8   -4.13    5.25
   4   3  -8    5.44    8.11
  -7   4  -8    6.99    3.94
  -3   7   8   -2.27    4.97
   7  -4   8   10.79    3.58
  -4  -3   8   14.02    7.42
   7  -4   8    5.17    7.00
  -4  -3   8    0.40    6.88
  -7   5  -8   -2.98    5.23
   5   2  -8   -8.54    7.32
  -7   5  -8    0.33    3.82
   7  -5   8    5.96    7.21
  -2   7   8   12.19    5.13
  -5  -2   8   -2.36    7.30
  -5  -2   8   -7.54    6.63
   6   1  -8  102.83   12.69
  -7   6  -8   98.49    9.55
  -7   6  -8   92.17    8.05
  -6  -1   8   94.82   11.87
  -6  -1   8   98.23   11.15
   7  -6   8  105.83   12.01
  -1   7   8  112.01    9.58
  -6  -1   8   89.83   12.71
  -7   7  -8  183.03   10.64
   7   0  -8  147.04   14.90
  -7   0   8  171.74   16.58
  -7   0   8  174.86   14.24
   7  -7   8  173.99   11.85
   7  -7   8  166.17   12.87
   7  -7   8  179.03   14.60
  -7   0   8  161.51   14.99
   8  -1  -8    1.17    7.86
  -7   8  -8    1.40    4.52
   7  -8   8   -0.47    6.42
   7  -8   8   -5.66    6.73
  -8   1   8   14.06    9.29
  -8   1   8   -1.57    7.12
   7  -8   8   -2.79    7.21
  -8   1   8   -7.84    6.95
  -7   9  -8   73.81    8.34
   9  -2  -8   86.64    9.96
  -7   9  -8   78.88   10.40
   7  -9   8   69.80   10.79
   7  -9   8  101.02   10.84
  10  -3  -8   53.07    9.06
  -7  10  -8   42.14    7.23
  -7  10  -8   48.24    8.92
  10  -3  -8   41.42    9.29
   7 -10   8   40.70    9.59
   7 -10   8   41.85    9.24
  11  -4  -8    9.34    6.41
  -7  11  -8   10.51    7.18
  11  -4  -8    3.39    6.29
  11  -4  -8    1.67    6.93
   7 -11   8    1.85    7.30
   7 -11   8    8.62    8.16
  12  -5  -8   26.39    8.45
  12  -5  -8   12.69    7.57
  12  -5  -8   21.59    7.01
  -7  12  -8   25.85    7.82
   7 -12   8   16.47    8.38
   7 -12   8   20.43    9.06
  13  -6  -8   -5.67    5.38
  13  -6  -8    1.92    6.63
  13  -6  -8   15.85    7.67
  -7  13  -8    0.35    6.90
  -7  13  -8   13.52    6.05
   7 -13   8    5.24    8.25
   7 -13   8    1.25    8.31
  -5  13  -8   10.40    9.45
  -5  13  -8    8.93    6.64
  13  -8  -8   -3.41    7.47
  13  -8  -8   -1.95    6.91
   5 -13   8   12.25    9.80
   5 -13   8    4.19    8.98
  -4  12  -8    5.88    6.80
  12  -8  -8   -4.61    7.28
  12  -8  -8   -8.31    7.03
  -4  12  -8    0.59    8.73
   4 -12   8    4.78    8.65
   4 -12   8   -1.84    8.70
  11  -8  -8   -4.33    6.78
  11  -8  -8    0.30    8.40
  -3  11  -8   -8.82    8.78
  -3  11  -8    0.19    6.63
   3 -11   8    2.80    8.97
   3 -11   8   -8.39    7.64
  -2  10  -8   28.41   10.13
  10  -8  -8   41.26    8.84
  -2  10  -8   32.46    9.62
  10  -8  -8   26.21    9.92
   2 -10   8   39.86   10.35
   2 -10   8   53.82   10.66
   9  -8  -8    2.49    6.35
  -1   9  -8    7.04    9.22
   9  -8  -8    1.02    8.95
   1  -9   8    1.98    8.18
   1  -9   8   -1.06    8.28
   8  -8  -8   25.76   10.39
   0   8  -8   40.46   10.87
   0  -8   8   31.38   10.11
   0  -8   8   26.47    9.72
   1   7  -8    2.91    8.53
  -8   1  -8    2.37    4.48
  -8   1  -8    0.90    4.20
   7  -8  -8    6.01    8.34
  -1  -7   8   -0.84    7.75
  -1  -7   8    4.94    8.05
   2   6  -8   27.39    9.80
   6  -8  -8   29.61    9.53
  -8   2  -8   34.74    5.38
  -2  -6   8    9.07    8.37
  -2  -6   8   34.52    9.42
  -8   3  -8   10.72    6.01
   5  -8  -8   -8.07    7.73
   3   5  -8   -1.54    8.03
  -8   3  -8    4.65    3.93
  -3  -5   8    5.06    7.51
  -3  -5   8    3.65    7.58
   8  -3   8    5.83    3.97
  -8   4  -8   35.80    6.45
   4   4  -8   36.38    9.96
  -8   4  -8   47.67    5.52
  -4  -4   8   59.50   10.28
   8  -4   8   24.59    8.02
   8  -4   8   31.85    5.21
  -4  -4   8   37.24    9.20
  -8   5  -8   20.75    5.52
  -8   5  -8   19.00    4.40
   5   3  -8   23.78    8.96
  -5  -3   8    5.87    7.68
   8  -5   8   11.41    4.82
   8  -5   8   30.52    8.38
  -5  -3   8   23.49    8.51
  -8   6  -8   79.35    7.13
  -8   6  -8   72.44    7.76
   6   2  -8   73.86   11.81
   8  -6   8   79.53   10.57
  -6  -2   8   64.67   11.13
  -6  -2   8   64.65   10.15
   7   1  -8    2.38    8.79
  -8   7  -8    6.11    4.33
  -8   7  -8   12.15    5.35
   8  -7   8    4.98    7.80
  -7  -1   8    5.86    9.06
  -7  -1   8   10.87    7.35
  -7  -1   8   14.75    8.57
  -8   8  -8   22.63    5.58
   8   0  -8   40.17   10.78
   8  -8   8   51.09    9.06
  -8   0   8   34.91    9.06
   8  -8   8   44.74    7.83
  -8   0   8   31.76   10.70
   8  -8   8   21.54    9.18
  -8   0   8   32.12    9.81
  -8   9  -8   15.69    5.28
   9  -1  -8   17.14    9.26
  -8   9  -8   35.47    7.41
  -9   1   8   26.23    8.91
   8  -9   8   16.98    7.84
  -9   1   8   23.71    8.26
  -9   1   8   27.56   10.47
   8  -9   8   32.29    9.00
   8  -9   8   29.28    7.86
  10  -2  -8    8.05    6.91
  -8  10  -8   -0.65    5.41
  -8  10  -8    5.83    6.17
   8 -10   8    3.60    6.81
   8 -10   8   -0.70    7.51
  11  -3  -8   37.25    8.69
  -8  11  -8   39.78    8.39
  11  -3  -8   38.34    8.84
  11  -3  -8   60.35   10.40
   8 -11   8   45.43    8.98
   8 -11   8   51.30   10.26
  12  -4  -8    5.96    7.34
  12  -4  -8   10.62    7.10
  12  -4  -8   12.27    7.79
  -8  12  -8    0.67    6.19
  12  -4  -8   -2.34    6.96
   8 -12   8    5.13    8.56
   8 -12   8    4.83    7.51
  13  -5  -8   75.67   11.27
  13  -5  -8  100.94   11.50
  -8  13  -8   84.45   11.02
  13  -5  -8   82.62   11.98
  13  -5  -8   96.38   13.24
   8 -13   8   84.60   12.39
   8 -13   8   90.16   11.35
  -4  13  -8   10.20    7.09
  -4  13  -8   12.11    9.99
  13  -9  -8   22.71    9.05
  13  -9  -8    1.19    7.22
   4 -13   8   22.39   10.59
   4 -13   8   23.75    9.84
  -3  12  -8    1.34    9.43
  12  -9  -8    3.02    7.40
  -3  12  -8    0.45    6.86
  12  -9  -8  -15.10    7.64
   3 -12   8    8.47    9.21
   3 -12   8   13.31    9.61
  -2  11  -8   27.02   10.66
  11  -9  -8   27.06   10.68
  -2  11  -8   31.34    9.55
  11  -9  -8   21.11    8.65
   2 -11   8   31.69   10.46
   2 -11   8   32.67   10.71
  10  -9  -8   35.62   10.77
  -1  10  -8   38.08   11.43
  10  -9  -8   58.42    9.60
  -1  10  -8   42.78   10.24
   1 -10   8   42.57   11.23
   1 -10   8   55.76   10.86
   9  -9  -8   51.06   11.83
   0   9  -8   73.60   11.75
   0   9  -8   71.73   12.61
   0  -9   8   74.71   12.03
   0  -9   8   74.77   11.82
   1   8  -8   15.55    9.28
   1   8  -8   21.46   10.47
   8  -9  -8   18.14    9.85
  -9   1  -8   31.74    5.31
  -9   1  -8   23.05    5.48
  -1  -8   8   21.10    9.41
  -1  -8   8   20.06    9.38
   2   7  -8   73.38   12.62
   7  -9  -8   59.03   11.87
   2   7  -8   50.61   11.49
  -9   2  -8   87.28    7.72
  -2  -7   8   96.22   12.72
  -2  -7   8   74.93   12.08
   3   6  -8    4.17    9.19
  -9   3  -8    8.86    4.18
   6  -9  -8   -6.76    5.81
   3   6  -8  -10.98    8.44
   9  -3   8    0.06    4.90
  -3  -6   8   11.87    8.84
  -3  -6   8   -2.62    8.28
   5  -9  -8    3.08    6.11
   4   5  -8   11.90    9.65
  -9   4  -8    1.95    3.72
   9  -4   8    1.73    4.80
  -4  -5   8    4.27    8.32
  -4  -5   8   -1.52    7.90
   5   4  -8   10.22    9.52
  -9   5  -8   -7.12    3.23
  -9   5  -8   -3.60    4.41
   9  -5   8   -2.08    4.51
  -5  -4   8    2.86    8.33
   9  -5   8    1.88    7.30
  -5  -4   8    4.66    8.06
  -9   6  -8   -4.67    4.58
   6   3  -8   10.26    9.50
  -9   6  -8    3.98    3.86
   9  -6   8   20.37    8.26
  -6  -3   8   11.91    8.42
  -6  -3   8   17.57    8.32
   9  -6   8   14.19    5.74
  -9   7  -8    2.48    4.18
  -9   7  -8    9.96    3.92
   7   2  -8   -6.56    8.62
   9  -7   8    7.37    7.87
  -7  -2   8   -4.25    7.29
  -7  -2   8    2.21    8.33
  -9   8  -8   -2.43    4.11
   8   1  -8    7.06    9.12
  -9   8  -8   -4.91    3.52
  -8  -1   8    8.13    9.53
   9  -8   8    0.33    7.93
  -8  -1   8   10.61    7.36
  -8  -1   8   19.33    9.22
   9   0  -8   80.97   13.18
  -9   9  -8   71.06    7.44
  -9   9  -8   68.93    8.94
   9   0  -8   71.81   11.31
  -9   0   8   76.25   12.97
   9  -9   8   65.94    8.67
  -9   0   8   72.43   10.43
  -9   0   8   83.14   11.99
   9  -9   8   73.44    9.77
   9  -9   8   63.83   11.02
  10  -1  -8    0.95    7.16
  10  -1  -8    3.17    7.51
  -9  10  -8   -1.78    5.02
   9 -10   8   -7.13    7.68
 -10   1   8   15.41    7.99
 -10   1   8   17.93   10.49
 -10   1   8  -10.56    7.54
   9 -10   8    1.65    6.99
  11  -2  -8   -0.23    7.21
  11  -2  -8    5.71    6.45
  -9  11  -8   15.15    6.75
   9 -11   8   10.75    8.31
   9 -11   8    5.16    7.14
  12  -3  -8   -4.01    7.21
  12  -3  -8    7.85    7.25
  12  -3  -8    3.96    7.09
  12  -3  -8   -0.32    6.14
  -9  12  -8    2.95    5.49
   9 -12   8    5.20    7.62
   9 -12   8   -4.76    7.89
  13  -4  -8    3.94    7.02
  13  -4  -8   -2.91    7.33
  13  -4  -8    7.37    7.92
  -9  13  -8   13.92    6.88
  13  -4  -8    1.73    6.41
   9 -13   8   16.48    8.95
   9 -13   8   -0.29    7.68
  -3  13  -8   10.17    7.98
  13 -10  -8    2.32    8.17
  -3  13  -8   11.99   10.40
  13 -10  -8    0.38    8.10
   3 -13   8   -4.91    8.45
   3 -13   8    5.69   10.46
  -2  12  -8   12.84   10.84
  12 -10  -8   -3.36    8.14
  12 -10  -8   16.20    8.70
  -2  12  -8   -0.26    8.97
   2 -12   8    7.41    9.52
   2 -12   8  -13.93    9.03
  -1  11  -8  102.09   14.69
  11 -10  -8  142.63   15.35
  -1  11  -8  149.63   15.68
   1 -11   8  158.90   16.74
   1 -11   8  129.26   15.41
   0  10  -8   21.72    9.77
   0  10  -8   40.10   11.53
  10 -10  -8   26.14   10.50
   0 -10   8   25.62   10.33
   0 -10   8   16.09   10.28
   1   9  -8    3.83    9.39
   1   9  -8    9.89   10.02
   9 -10  -8    2.85    9.45
  -1  -9   8    5.30    9.02
  -1  -9   8   -1.13    8.87
   2   8  -8    3.80    9.47
   2   8  -8   12.94    9.91
 -10   2  -8    0.19    3.82
 -10   2  -8   -3.81    4.04
  -2  -8   8   22.34    9.61
  -2  -8   8   -4.52    8.52
   7 -10  -8   44.77    7.48
   3   7  -8   46.02   12.14
   3   7  -8   57.24   11.92
 -10   3  -8   56.00    5.96
  -3  -7   8   40.11   10.47
  -3  -7   8   47.71   11.29
  10  -3   8   51.05    7.21
 -10   4  -8   18.96    4.26
   4   6  -8   35.08   11.51
   6 -10  -8   25.52    6.65
   4   6  -8    6.54    9.58
  10  -4   8   24.94    6.10
  -4  -6   8   20.75    9.73
  -4  -6   8   29.38    9.81
 -10   5  -8   31.17    4.57
   5   5  -8   38.64   11.29
   5 -10  -8   23.19    6.90
   5   5  -8   34.41   11.13
  -5  -5   8   29.24   10.19
  10  -5   8   48.17    6.73
  -5  -5   8   22.18    9.53
  10  -5   8   17.87    7.54
   6   4  -8  100.66   14.50
 -10   6  -8  121.63    8.68
 -10   6  -8  121.87    7.84
   6   4  -8  134.41   15.88
  -6  -4   8  138.94   14.31
  -6  -4   8  136.26   15.19
  10  -6   8  131.68    9.77
  10  -6   8  128.05   12.74
 -10   7  -8   40.91    5.63
 -10   7  -8   35.15    5.06
   7   3  -8   27.14   10.37
   7   3  -8   28.99   11.02
  -7  -3   8   29.20    9.29
  -7  -3   8   43.60   10.78
  10  -7   8   29.69    6.82
  10  -7   8   34.36    9.48
 -10   8  -8   31.74    5.36
   8   2  -8   30.52   11.19
   8   2  -8   55.20   11.78
  -8  -2   8   37.23    9.16
  10  -8   8   36.53    9.82
  -8  -2   8   49.90   10.81
   9   1  -8   49.86   11.58
 -10   9  -8   37.98    5.86
   9   1  -8   26.02   11.43
  -9  -1   8   57.60    9.94
  10  -9   8   43.77    9.93
  -9  -1   8   48.45   12.46
  -9  -1   8   41.23   11.20
  10   0  -8   19.15   10.29
  10   0  -8   15.46    9.47
 -10  10  -8   22.70    6.67
 -10   0   8   29.45   10.17
 -10   0   8   37.15   11.90
 -10   0   8   28.31    8.71
  10 -10   8   32.27    9.41
  10 -10   8   28.33    8.16
  10 -10   8   23.12    7.19
  11  -1  -8   17.65    8.11
 -10  11  -8    9.66    5.93
  11  -1  -8   15.17    8.66
 -11   1   8    2.09    7.80
  10 -11   8    3.31    7.06
 -11   1   8   18.22    8.01
 -11   1   8   26.03   11.14
  10 -11   8   20.79    8.79
  12  -2  -8    7.36    8.62
  12  -2  -8    7.98    7.05
 -10  12  -8   11.80    5.96
  10 -12   8   13.12    7.49
  10 -12   8   13.05    8.34
  13  -3  -8   23.06    8.33
  13  -3  -8   20.55    8.32
  13  -3  -8   26.02    8.13
 -10  13  -8   26.00    7.01
  13  -3  -8   30.17    9.66
  10 -13   8   27.97    9.22
  10 -13   8   17.52    8.33
  -1  12  -8    8.28   10.53
  -1  12  -8   25.66   10.51
  12 -11  -8   43.39   10.56
   1 -12   8   28.60   11.66
   1 -12   8   24.33   10.43
   0  11  -8   30.65   10.70
   0  11  -8   27.06   11.59
  11 -11  -8   28.41    9.77
   0 -11   8   32.21   11.93
   0 -11   8   19.58   10.44
   1  10  -8    8.70   10.35
   1  10  -8   29.14   10.82
  -1 -10   8   25.93   11.34
  -1 -10   8    8.48    9.71
   2   9  -8   19.75   11.25
   2   9  -8   12.28   10.58
  -2  -9   8   19.63    9.97
  -2  -9   8   12.10    9.96
   3   8  -8   34.97   11.99
   3   8  -8   42.63   12.45
  -3  -8   8   49.07   11.85
  -3  -8   8   49.90   11.47
   4   7  -8    4.21    9.51
   4   7  -8    5.66    9.92
  -4  -7   8    5.58    9.03
  -4  -7   8   10.29    9.40
  11  -4   8   -4.10    5.00
   5   6  -8   20.32   10.77
   5   6  -8   16.07   10.94
  11  -5   8   31.58    6.65
  -5  -6   8   10.21    9.41
  -5  -6   8   24.22   10.39
   5 -11  -8   55.02    8.40
   6   5  -8   67.88   13.11
   6   5  -8   49.56   11.90
  -6  -5   8   64.81   12.09
  11  -6   8   71.34    8.11
  -6  -5   8   72.54   11.90
  11  -6   8   60.66    9.61
 -11   7  -8   -0.87    3.29
   7   4  -8   -1.95    9.72
   7   4  -8    0.63    9.63
  -7  -4   8   -0.76    8.51
  11  -7   8   -0.04    7.31
  11  -7   8   -6.53    4.98
  -7  -4   8    5.22    8.77
   8   3  -8   13.73   10.50
   8   3  -8   -3.08    9.44
 -11   8  -8    3.59    3.55
  11  -8   8   -5.87    5.18
  -8  -3   8   -0.14    7.15
  -8  -3   8    1.89    8.72
  11  -8   8    2.35    7.82
   9   2  -8   30.19   11.33
   9   2  -8   13.54   11.03
 -11   9  -8   31.46    4.98
  -9  -2   8   34.27    9.19
  11  -9   8   38.41   10.12
  -9  -2   8   38.96   10.49
  10   1  -8  128.02   15.33
 -11  10  -8  139.24   11.40
  10   1  -8  101.17   15.42
 -11  10  -8  136.24    8.68
 -10  -1   8  133.01   12.86
  11 -10   8  127.08   13.76
 -10  -1   8  117.14   15.97
 -10  -1   8  138.61   15.62
  11   0  -8   28.19   11.80
  11   0  -8   32.82   10.61
 -11  11  -8   21.69    6.42
  11 -11   8   24.93    9.37
 -11   0   8   16.37   10.85
 -11   0   8   14.75    8.01
  11 -11   8   29.59    7.21
 -11   0   8   18.49    9.71
  11 -11   8   22.08    7.77
 -11  12  -8   27.78    6.39
  12  -1  -8   24.09    8.91
  12  -1  -8   17.25    9.69
 -12   1   8   10.21   11.66
  11 -12   8    9.36    7.57
 -12   1   8   29.29    9.82
  11 -12   8   15.21    8.98
 -12   1   8    6.46    6.94
   1  11  -8   11.62   11.80
   1  11  -8    6.66   10.09
  -1 -11   8    0.64    9.99
  -1 -11   8   11.21   11.30
   2  10  -8   11.60   11.09
   2  10  -8  -12.18    9.32
  -2 -10   8   -1.20    9.77
  -2 -10   8   10.22   11.02
   3   9  -8   11.91   10.94
   3   9  -8    4.04   10.23
  -3  -9   8   15.09    9.98
  -3  -9   8   -5.11    9.54
   4   8  -8    2.76   10.21
   4   8  -8   16.02   10.88
  -4  -8   8   -0.99    9.27
  12  -4   8    5.56    5.73
  -4  -8   8   -1.55    9.50
   5   7  -8   -7.00   10.60
   5   7  -8    7.89   10.58
  -5  -7   8   13.98   10.34
  12  -5   8   12.13    6.26
  -5  -7   8   19.96   10.20
   6   6  -8   13.80   11.24
   6   6  -8    2.17   10.76
  12  -6   8    5.45    5.63
  -6  -6   8   -4.19    9.00
  -6  -6   8    1.63    9.65
   7   5  -8   20.48   11.58
   7   5  -8   11.61   11.16
  12  -7   8   19.20    8.02
  -7  -5   8   27.64   10.24
  12  -7   8   19.52    6.25
  -7  -5   8   34.30   10.95
   8   4  -8    0.54   10.46
   8   4  -8   11.50   10.76
  12  -8   8    4.28    5.76
  -8  -4   8   -5.04    7.78
  -8  -4   8   21.93   10.44
  12  -8   8    1.66    7.08
   9   3  -8   11.66   10.71
   9   3  -8    5.45   11.14
  -9  -3   8   17.53    8.08
  12  -9   8    5.58    8.08
  -9  -3   8    1.46    9.43
  10   2  -8    1.15   10.94
 -12  10  -8    8.27    4.78
  10   2  -8    7.42   10.38
  12 -10   8    8.19    8.58
 -10  -2   8   -3.15    7.68
 -10  -2   8  -12.11    8.60
  11   1  -8   26.70   12.06
 -12  11  -8   10.08    5.28
  11   1  -8   15.04   10.35
 -11  -1   8   29.01    8.85
  12 -11   8   26.87   10.09
 -11  -1   8   12.88    9.88
 -11  -1   8   12.84   11.66
   3  10  -8   26.02   12.34
   3  10  -8   38.81   12.74
  -3 -10   8   40.07   12.59
  -3 -10   8   11.64   11.18
   4   9  -8    7.63   11.15
   4   9  -8   10.54   11.15
  -4  -9   8   12.32   10.45
  -4  -9   8   14.56   10.97
  13  -4   8   20.06    6.91
   5   8  -8   81.37   14.87
   5   8  -8  109.27   16.07
  13  -5   8   91.27    9.97
  -5  -8   8   82.48   14.42
  -5  -8   8  106.78   14.83
   6   7  -8   18.03   11.33
   6   7  -8   -2.69   11.31
  -6  -7   8  -10.17    9.28
  13  -6   8    4.19    6.35
  -6  -7   8   18.29   10.14
   7   6  -8   -7.27   10.52
   7   6  -8    1.45   10.22
  13  -7   8   -0.20    5.80
  -7  -6   8  -11.65    8.47
  -7  -6   8   11.27   10.15
   8   5  -8    8.35   11.39
   8   5  -8    4.50   11.09
  13  -8   8    9.17    8.07
  -8  -5   8   -0.17    9.00
  13  -8   8    0.56    5.96
  -8  -5   8    1.78    9.98
   9   4  -8    7.50   10.89
   9   4  -8   23.85   12.19
  13  -9   8   21.84    8.86
  13  -9   8    8.15    6.95
  -9  -4   8   26.58    9.78
  -9  -4   8    7.34   10.08
  10   3  -8    9.35   11.73
  10   3  -8   17.68   11.02
 -10  -3   8   14.89    8.21
 -10  -3   8   13.06   10.04
  13 -10   8    5.56    8.27
   0   0  -9    0.90    6.94
   0   0   9  -10.25    6.37
   1  -1  -9   71.10   10.88
   0   1  -9   78.10   10.84
  -1   0  -9   64.79   10.23
   0  -1   9   84.13   10.92
  -1   1  -9   95.96   11.40
   1   0  -9   75.61   11.21
   0  -1  -9   89.19   11.41
   1  -1   9   78.70   10.89
  -1   0   9   89.97   11.10
   2  -1  -9   -1.53    7.22
  -1  -1  -9   -1.19    6.99
  -1   2  -9    8.31    7.29
   1  -2   9   11.79    7.53
  -2  -1  -9    5.99    7.68
   3  -2  -9   17.17    8.27
   1  -3   9   11.46    7.75
   2  -2  -9    3.04    7.88
   0   2  -9   24.34    8.53
  -2   0  -9   11.06    7.41
   0  -2   9   20.88    8.17
   1  -2  -9    6.10    7.52
   1   1  -9    1.88    7.64
  -2   1  -9    7.48    7.16
  -1  -1   9    2.15    7.20
   2  -1   9  -11.08    6.44
  -2   2  -9   32.03    8.16
   2   0  -9   21.95    8.83
   0  -2  -9   13.66    7.99
   2  -2   9   27.93    8.39
  -2   0   9   15.84    7.99
  -2   3  -9    9.23    7.43
   3  -1  -9    3.81    4.63
  -1  -2  -9   -5.85    6.71
   3  -1  -9    4.04    7.57
   2  -3   9   20.20    8.21
   4  -2  -9   32.58    9.30
  -2  -2  -9   25.98    8.66
   4  -2  -9   18.04    5.50
   2  -4   9   23.02    8.58
   2  -4   9   24.42    7.78
   2   2   9   22.27    3.10
   2  -4   9   23.57    8.75
  -3  -2  -9    2.29    7.47
   5  -3  -9   10.32    8.19
   2  -5   9    8.56    7.26
   2  -5   9    6.31    8.06
   2  -5   9    1.85    7.70
  -3  -1  -9    5.72    7.24
   4  -3  -9    5.19    8.05
   1  -4   9    4.31    8.53
   1  -4   9   10.20    7.12
   1  -4   9    2.96    7.83
   3  -3  -9   24.44    8.89
  -3   0  -9   25.71    8.10
   0  -3   9   17.13    9.13
   0  -3   9   34.69    8.28
   0  -3   9   25.22    8.55
   2  -3  -9   13.30    8.41
  -3   1  -9    3.61    6.73
  -1  -2   9    7.98    7.47
  -3   2  -9   12.51    6.90
   2   1  -9    1.90    3.64
   2   1  -9   11.44    8.23
   1  -3  -9   12.85    8.01
   3  -2   9    5.87    7.81
  -2  -1   9   21.29    8.10
   3   0  -9   23.91    8.66
   3   0  -9   28.13    5.05
   0  -3  -9   17.91    8.73
  -3   3  -9   36.10    7.81
   3  -3   9   21.14    8.54
   0   3   9   31.78    3.60
  -3   0   9   25.67    8.42
  -3   4  -9    2.29    6.91
  -1  -3  -9    3.92    7.41
   4  -1  -9    1.27    4.89
   4  -1  -9   -1.48    7.68
   3  -4   9    2.75    7.37
  -4   1   9    7.02    7.43
   1   3   9    1.93    2.65
   5  -2  -9    8.57    7.99
  -2  -3  -9    2.76    7.67
   5  -2  -9    7.10    5.83
   3  -5   9   -2.56    7.77
   3  -5   9    9.30    7.44
   3  -5   9    3.75    8.20
   6  -3  -9   -6.08    5.64
   6  -3  -9   -8.12    7.38
   3  -6   9   -2.86    7.43
   3  -6   9   -4.79    6.99
   3  -6   9    0.35    7.86
  -3   7  -9   51.56   10.35
  -3   7  -9   48.60    5.88
   7  -4  -9   36.67    7.92
   7  -4  -9   32.04   10.55
   3  -7   9   48.72   10.04
   3  -7   9   39.94    9.77
  -2   6  -9   15.78    4.11
   6  -4  -9    4.68    5.43
   6  -4  -9    7.26    8.80
   2  -6   9   14.61    8.74
   2  -6   9   16.99    8.39
  -4  -1  -9   13.94    7.57
   5  -4  -9    2.25    8.47
   1  -5   9   10.91    7.94
   1  -5   9   13.61    8.09
   1  -5   9   -2.43    7.93
  -4   0  -9   25.27    7.64
   4  -4  -9    6.65    8.01
   0  -4   9    8.80    8.03
   0  -4   9   29.69    9.69
   0  -4   9   22.09    8.85
  -4   1  -9    1.07    6.69
   3  -4  -9    2.71    7.93
  -1  -3   9   -4.50    7.86
  -1  -3   9    2.72    7.33
  -1  -3   9   -0.24    6.61
  -4   2  -9   19.92    7.53
   2  -4  -9    4.82    7.97
  -2  -2   9   34.53    9.56
  -2  -2   9   16.22    7.53
  -2  -2   9   13.93    8.10
   4  -2   9   19.40    7.99
   3   1  -9    8.92    4.74
  -4   3  -9   18.26    7.09
   1  -4  -9  -10.33    7.27
   4  -3   9   17.42    8.15
  -1   4   9    0.46    2.62
  -3  -1   9   13.03    7.87
  -4   4  -9   15.89    7.46
   4   0  -9   16.18    5.54
   4   0  -9   16.96    8.46
   0  -4  -9   14.04    8.58
   0   4   9   27.15    4.05
  -4   0   9   27.93    8.71
   4  -4   9   25.86    8.65
  -1  -4  -9   -4.55    7.99
   5  -1  -9   10.01    5.78
   5  -1  -9   -1.64    7.63
  -5   1   9    5.58    7.26
   4  -5   9   -2.42    7.50
   1   4   9    1.86    3.05
   6  -2  -9   31.19    9.76
   6  -2  -9   14.68    6.87
   4  -6   9   29.11    8.94
   4  -6   9   33.49    8.61
   4  -6   9   10.29    8.70
   7  -3  -9   43.00   10.95
   7  -3  -9   39.50    8.32
  -4   7  -9   48.46    5.47
   4  -7   9   71.76   11.49
   4  -7   9   44.87   10.53
   4  -7   9   48.85   10.25
   8  -4  -9  -16.64    5.55
   8  -4  -9    5.49    8.73
  -4   8  -9    2.08    8.35
  -4   8  -9   -2.52    4.46
   4  -8   9   -3.14    7.81
   4  -8   9    2.74    8.07
   9  -5  -9    0.20    6.17
  -4   9  -9   -4.81    8.21
   9  -5  -9    0.94    9.02
   4  -9   9    4.15    8.03
   4  -9   9    7.60    8.26
  -3   8  -9    4.90    4.87
  -3   8  -9    6.17    8.73
   8  -5  -9    2.03    5.92
   8  -5  -9   -3.82    9.04
   3  -8   9   -6.12    7.51
   3  -8   9   -3.80    7.96
   7  -5  -9    7.28    9.45
   7  -5  -9   15.97    6.56
  -2   7  -9   24.25    9.96
   2  -7   9   17.27    8.57
   2  -7   9   12.82    8.61
  -1   6  -9   -6.91    7.89
   6  -5  -9   -1.51    8.34
   1  -6   9   19.54    8.49
   1  -6   9    1.31    7.50
  -5   0  -9    9.52    7.45
   5  -5  -9    8.61    8.83
   0  -5   9    1.24    7.76
   0  -5   9    5.69    7.95
  -5   1  -9    3.06    6.73
   4  -5  -9   -8.90    7.73
  -1  -4   9   -6.00    7.90
  -1  -4   9   -9.32    7.12
  -1  -4   9    5.72    7.83
  -5   2  -9    1.83    6.57
   3  -5  -9    7.75    8.46
  -2  -3   9    8.79    8.45
  -2  -3   9   11.06    8.78
  -2  -3   9    0.75    7.11
  -3   5   9    3.11    3.51
   2  -5  -9   -2.70    7.68
  -5   3  -9    2.41    6.61
  -3  -2   9    5.97    7.67
  -3  -2   9   13.08    7.51
   5  -3   9   10.38    7.83
  -2   5   9    1.20    3.27
  -3  -2   9   -1.25    8.19
  -5   4  -9    2.63    6.59
   1  -5  -9    8.12    8.34
  -4  -1   9    8.46    7.52
   5  -4   9    8.46    7.89
  -4  -1   9   17.05    8.30
  -1   5   9    5.99    3.88
  -4  -1   9    0.11    8.29
  -5   5  -9    7.01    6.94
   5   0  -9   -1.15    5.74
   0  -5  -9    3.87    8.22
   5  -5   9    1.74    7.41
   0   5   9    6.16    3.45
  -5   0   9   -5.19    7.48
   6  -1  -9    6.61    8.35
   6  -1  -9   14.20    6.29
   5  -6   9    6.88    7.76
  -6   1   9   -6.13    7.08
   5  -6   9   -8.00    7.48
   5  -6   9    1.49    6.60
   7  -2  -9   -0.96    8.47
   7  -2  -9   -7.77    6.87
   5  -7   9   11.20    8.75
   5  -7   9  -11.35    7.58
   5  -7   9  -11.17    6.76
   8  -3  -9   43.31    8.73
  -5   8  -9   36.12    9.95
   8  -3  -9   53.62   11.10
  -5   8  -9   32.20    5.76
   5  -8   9   35.32    9.35
   5  -8   9   39.72    9.77
   9  -4  -9  -15.22    5.92
  -5   9  -9  -10.35    7.28
   9  -4  -9    2.76    8.74
   5  -9   9   -0.90    7.73
   5  -9   9   -5.19    7.48
  -5  10  -9    5.28    9.16
  10  -5  -9   25.88    9.86
  10  -5  -9   13.95    7.20
   5 -10   9   10.39    8.93
   5 -10   9   15.44    8.99
  11  -6  -9   18.75   10.03
  11  -6  -9   16.25    7.77
  -5  11  -9   39.67   10.96
   5 -11   9   21.07    9.43
   5 -11   9   17.79    9.28
  10  -6  -9   -9.37    6.15
  10  -6  -9   -4.85    8.88
  -4  10  -9   -7.52    8.57
   4 -10   9    5.75    8.38
   4 -10   9   -6.73    8.03
   9  -6  -9   -1.36    9.08
  -3   9  -9    4.15    8.81
   9  -6  -9    7.07    6.70
   3  -9   9   -5.57    8.12
   3  -9   9   -3.21    7.94
   8  -6  -9    1.29    6.05
   8  -6  -9    3.43    9.19
  -2   8  -9   -8.27    8.35
   2  -8   9   11.08    8.86
   2  -8   9    8.25    8.85
   7  -6  -9   30.85   10.14
  -1   7  -9   13.52    8.94
   1  -7   9   -0.97    7.82
   1  -7   9    0.01    8.07
   6  -6  -9   21.59   10.08
   0   6  -9   14.70    9.50
   0  -6   9    7.02    8.54
   0  -6   9    2.17    7.97
   1   5  -9   14.56    8.86
  -6   1  -9    6.10    6.96
   5  -6  -9   10.38    8.68
   6  -1   9   -2.95    2.73
  -1  -5   9   -5.13    7.81
  -1  -5   9   -1.34    7.47
  -6   2  -9   26.01    7.97
   4  -6  -9   31.66   10.12
   2   4  -9   38.60    9.79
  -2  -4   9   22.48    8.83
  -4   6   9   31.97    5.19
  -2  -4   9   22.82    9.12
  -6   3  -9   -6.95    6.07
   3  -6  -9   -2.73    7.72
  -3   6   9    3.92    3.57
  -3  -3   9   -7.43    7.49
   6  -3   9    0.09    7.33
  -3  -3   9    4.52    8.93
  -3  -3   9   -3.82    7.49
  -6   4  -9   13.27    6.93
   2  -6  -9   19.37    9.26
  -4  -2   9   15.77    8.41
  -4  -2   9   19.09    9.45
   6  -4   9   14.34    8.25
  -2   6   9   16.04    4.45
  -4  -2   9   10.87    7.78
  -6   5  -9    3.77    6.39
  -5  -1   9    8.14    8.92
   6  -5   9    4.97    8.18
  -1   6   9   20.05    4.39
  -5  -1   9    4.97    7.55
  -5  -1   9   -3.38    7.43
  -6   6  -9   15.63    7.44
   6  -6   9    8.29    9.01
  -6   0   9   30.00    9.60
   0   6   9   23.85    5.06
   7  -1  -9   -0.25    6.74
   7  -1  -9   -5.99    7.73
   6  -7   9   -8.23    8.31
   6  -7   9   -0.60    7.91
  -7   1   9   -5.62    7.03
   6  -7   9   -2.87    6.77
   8  -2  -9  -10.79    8.38
   8  -2  -9    9.69    7.32
   6  -8   9   -5.88    7.04
   6  -8   9   11.15    8.43
   6  -8   9    3.94    9.25
   9  -3  -9    8.46    7.33
   9  -3  -9   15.03    9.48
  -6   9  -9   22.97    9.48
   6  -9   9    9.09    8.53
   6  -9   9   24.94    9.10
  10  -4  -9    0.61    8.42
  10  -4  -9   -7.30    6.23
  -6  10  -9    3.88    7.93
   6 -10   9   -0.52    7.73
   6 -10   9   -1.52    8.11
  -6  11  -9    3.72    8.42
  11  -5  -9   -0.75    7.03
  11  -5  -9  -12.36    7.24
   6 -11   9    7.10    8.93
   6 -11   9   -5.53    8.02
  -6  12  -9   -5.29    8.55
  12  -6  -9   -4.55    7.61
  12  -6  -9    4.30    7.35
   6 -12   9    5.19    8.85
   6 -12   9   -7.56    7.65
  -5  12  -9   -3.51    9.13
  12  -7  -9  -19.25    7.21
  12  -7  -9   -4.82    6.80
   5 -12   9    0.66    8.83
   5 -12   9   -9.18    8.40
  11  -7  -9   14.03    7.51
  -4  11  -9    9.29    9.41
  11  -7  -9   20.90   10.11
   4 -11   9   16.68    9.46
   4 -11   9   10.59    8.89
  -3  10  -9    8.42    9.52
  10  -7  -9   -3.16    9.28
  10  -7  -9    3.72    6.47
   3 -10   9   -1.32    7.91
   3 -10   9    2.25    8.65
  -2   9  -9    2.76    9.14
   9  -7  -9    3.18    6.42
   9  -7  -9    4.18    9.43
   2  -9   9   -8.61    8.04
   2  -9   9    0.68    8.02
   8  -7  -9    1.03    9.19
  -1   8  -9  -12.79    9.20
   1  -8   9   -9.82    7.51
   1  -8   9    1.60    8.25
   0   7  -9    2.64    9.11
   7  -7  -9    9.20    9.42
   0  -7   9   -1.45    8.15
   0  -7   9   -3.99    7.57
   6  -7  -9    3.73    8.87
   1   6  -9   -3.72    8.28
  -1  -6   9   -6.90    7.94
  -1  -6   9    7.52    8.81
   2   5  -9    0.61    8.89
  -7   2  -9    0.53    6.67
   5  -7  -9    0.48    8.30
   7  -2   9   -3.19    3.24
  -2  -5   9    7.87    8.59
  -2  -5   9    0.57    8.56
  -5   7   9   -0.64    5.23
   3   4  -9   39.88   11.04
   4  -7  -9   37.37   10.64
  -7   3  -9   52.72    8.67
  -3  -4   9   50.33   10.43
   7  -3   9   48.92    4.47
  -3  -4   9   41.55   10.16
  -4   7   9   57.42    7.47
   3  -7  -9   63.01   12.32
  -7   4  -9   34.63    8.25
  -7   4  -9   47.36    6.49
   4   3  -9   49.55   11.14
  -4  -3   9   36.14   11.67
   7  -4   9   64.05   10.32
  -3   7   9   46.54    7.16
  -4  -3   9   56.55   11.10
  -4  -3   9   58.34   10.62
  -7   5  -9   23.10    7.38
   5   2  -9   13.88    9.58
  -5  -2   9   27.95    8.99
   7  -5   9   19.38    8.89
  -2   7   9   29.95    6.65
  -5  -2   9   26.10    9.33
  -5  -2   9    9.41    9.96
   6   1  -9   22.55    9.33
  -7   6  -9   10.66    6.74
   7  -6   9   -1.18    8.12
  -6  -1   9   12.11    8.40
  -6  -1   9    8.50    9.49
  -1   7   9    7.94    5.30
  -6  -1   9    0.21    7.92
  -7   7  -9   -5.58    6.53
   7  -7   9   -3.78    8.35
  -7   0   9    5.31    7.95
  -7   0   9    7.42    9.41
  -7   0   9    3.98    7.99
   8  -1  -9   13.57    7.08
  -8   1   9    9.32    7.80
   7  -8   9    9.11    8.84
   7  -8   9   -8.58    6.61
   7  -8   9    5.23    8.03
   9  -2  -9   13.59    7.57
  -7   9  -9    3.23    6.63
   9  -2  -9    2.39    8.81
   7  -9   9   -3.45    7.63
   7  -9   9    9.10    7.58
   7  -9   9   11.39    8.89
  10  -3  -9  -16.37    5.84
  -7  10  -9    1.03    6.59
  10  -3  -9   11.03    9.05
   7 -10   9   -0.96    7.84
   7 -10   9   -3.09    7.70
  -7  11  -9    6.34    7.66
  11  -4  -9    6.76    6.96
  11  -4  -9   -5.53    7.64
   7 -11   9   10.32    8.50
   7 -11   9    0.88    8.68
  12  -5  -9   -1.18    7.31
  12  -5  -9   13.70    7.93
  -7  12  -9   24.62    9.05
   7 -12   9   13.79    9.45
   7 -12   9    0.02    9.21
  -4  12  -9  -11.56    6.06
  -4  12  -9  -11.65    8.98
  12  -8  -9   -2.31    7.07
  12  -8  -9   -8.03    8.89
   4 -12   9   10.41    9.63
   4 -12   9   -6.49    8.83
  11  -8  -9   -3.19    7.02
  -3  11  -9   -3.89    9.42
  11  -8  -9   -0.51    9.65
  -3  11  -9   -0.69    8.06
   3 -11   9    5.68    9.26
   3 -11   9    8.02    9.03
  10  -8  -9    2.84    9.82
  10  -8  -9   -4.26    6.62
  -2  10  -9   -6.77    9.28
   2 -10   9   -0.11    8.89
   2 -10   9   -4.21    7.81
  -1   9  -9    3.89    9.81
   9  -8  -9    3.90    9.51
   1  -9   9    8.28    8.66
   1  -9   9   15.99    9.79
   8  -8  -9    7.08    9.62
   0   8  -9   -2.11    9.46
   0  -8   9    1.18    8.93
   0  -8   9   -0.60    8.29
   1   7  -9    0.56    9.09
   7  -8  -9    2.26    9.12
  -1  -7   9   -5.31    8.31
  -1  -7   9   -2.14    8.13
   6  -8  -9   -0.97    8.87
   2   6  -9    2.66    9.17
  -2  -6   9  -11.99    7.76
  -2  -6   9  -11.11    8.07
   8  -2   9    2.56    3.89
  -8   3  -9   41.09    8.12
   5  -8  -9   21.29   10.46
   3   5  -9   36.43   10.42
  -8   3  -9   30.46    5.65
   8  -3   9   38.61    4.91
  -3  -5   9   14.92    9.04
  -3  -5   9   41.58   10.40
  -8   4  -9    1.22    3.75
  -8   4  -9   -5.12    6.04
   4   4  -9   -0.68    8.37
  -4  -4   9   10.92    8.87
   8  -4   9  -22.31    6.36
  -4  -4   9    3.90    8.32
   8  -4   9    2.85    3.42
  -8   5  -9   -2.80    3.55
  -8   5  -9   -1.84    6.13
   5   3  -9   14.30    9.67
   8  -5   9   -6.28    7.71
  -5  -3   9   -6.28    7.56
  -5  -3   9   14.62    9.02
  -8   6  -9    3.70    6.01
  -8   6  -9   -3.08    4.03
   6   2  -9   11.22    9.61
  -6  -2   9    0.95    9.05
   8  -6   9   -2.95    7.93
  -6  -2   9   11.89    8.35
  -6  -2   9    9.47   10.17
  -8   7  -9   11.62    6.41
   7   1  -9    2.43    9.41
   8  -7   9    3.71    7.99
  -7  -1   9    6.96    8.34
  -7  -1   9   -1.71    7.99
  -7  -1   9   -5.30    9.34
  -8   8  -9    7.61    6.65
   8   0  -9    7.74    9.22
  -8   0   9    3.96    8.28
   8  -8   9   -3.67    8.47
  -8   0   9   14.36    8.02
  -8   0   9   15.29   10.51
  -8   9  -9   -9.60    5.51
   9  -1  -9   -1.36    8.90
   8  -9   9  -14.14    7.47
  -9   1   9    1.58    7.27
   8  -9   9   -2.05    7.14
   8  -9   9   -5.91    8.53
  -8  10  -9    9.01    6.72
  10  -2  -9    9.88    8.41
  10  -2  -9   -3.17    7.02
  10  -2  -9    9.71    9.12
   8 -10   9   12.87    8.67
   8 -10   9   12.96    8.56
   8 -10   9    6.54    7.87
  11  -3  -9    3.24    6.90
  11  -3  -9    5.83    7.04
  -8  11  -9   -3.47    6.50
  11  -3  -9    0.96    8.35
   8 -11   9   -3.81    7.61
   8 -11   9    4.38    8.44
  -8  12  -9    4.98    7.05
  12  -4  -9    8.17    7.32
  12  -4  -9    0.85    6.93
  12  -4  -9  -13.66    6.32
   8 -12   9    1.87    8.31
   8 -12   9    4.97    8.94
  12  -9  -9    4.02    7.59
  -3  12  -9  -15.65    8.29
  12  -9  -9   -2.16    9.41
  -3  12  -9    4.59   10.07
   3 -12   9   -3.16    9.19
   3 -12   9  -16.64    7.87
  11  -9  -9   20.17    8.47
  -2  11  -9   10.03    9.62
  11  -9  -9    6.97   10.53
  -2  11  -9   14.98   11.01
   2 -11   9    5.54    9.52
   2 -11   9  -10.93    8.50
  10  -9  -9    2.97    9.97
  -1  10  -9  -15.48    8.13
  -1  10  -9    4.52    9.75
   1 -10   9   -8.89    8.84
   1 -10   9   -2.96    8.55
   0   9  -9    4.30    9.87
   0   9  -9  -18.44    8.12
   9  -9  -9   -3.02    9.15
   0  -9   9    4.69    8.86
   0  -9   9   13.93    9.91
   1   8  -9   -2.84    9.75
   8  -9  -9    7.02    9.67
  -1  -8   9   -4.88    8.71
  -1  -8   9   -9.26    8.35
   7  -9  -9    7.36    9.91
   2   7  -9    0.09    9.39
  -9   2  -9    3.88    4.17
   9  -2   9   17.05    4.85
  -2  -7   9   10.34    9.58
  -2  -7   9    8.36    8.63
  -9   3  -9   26.15    5.16
   3   6  -9   23.46   10.32
   6  -9  -9   34.07   11.16
  -3  -6   9   32.14   10.16
   9  -3   9   15.84    4.67
  -3  -6   9    8.99    9.47
  -9   4  -9    4.37    5.14
  -9   4  -9   -1.43    3.42
   4   5  -9    8.35    9.75
  -4  -5   9    5.09    8.85
   9  -4   9    0.15    3.88
  -4  -5   9  -10.64    7.63
  -9   5  -9   11.30    5.05
  -9   5  -9    8.03    3.98
   5   4  -9   -2.25    9.07
   9  -5   9    7.02    3.99
   9  -5   9   16.10    8.17
  -5  -4   9    7.64    8.20
  -5  -4   9    8.00    8.75
  -9   6  -9   12.45    5.17
  -9   6  -9   -4.36    3.65
   6   3  -9    5.49    9.43
  -6  -3   9   -2.41    7.88
  -6  -3   9    1.81    8.47
   9  -6   9    0.69    7.79
  -9   7  -9    9.67    4.35
  -9   7  -9   -0.15    4.67
   7   2  -9   -0.06    8.92
   9  -7   9    2.42    8.40
  -7  -2   9    1.10    7.95
  -7  -2   9   -4.88    8.37
  -7  -2   9   -7.62    9.24
   8   1  -9    9.84    9.55
  -9   8  -9   11.22    5.41
  -8  -1   9    5.69   10.37
  -8  -1   9   -0.79    8.08
  -8  -1   9   -8.06    8.24
   9  -8   9    1.55    8.75
  -9   9  -9   -6.90    5.93
   9   0  -9    1.82    8.86
  -9   0   9   -5.13   10.02
   9  -9   9   -5.53    8.38
  -9   0   9  -10.89    7.69
  -9   0   9   -8.43    7.14
  -9  10  -9    0.89    6.85
  10  -1  -9    5.20    8.15
   9 -10   9   18.87    7.94
   9 -10   9    3.66    8.27
 -10   1   9    1.28    7.14
   9 -10   9   -4.36    9.02
  11  -2  -9   -5.51    7.75
  -9  11  -9    0.56    6.26
  11  -2  -9    6.07    6.80
  11  -2  -9    3.94    8.60
  11  -2  -9   -4.21    6.72
   9 -11   9    3.88    8.23
   9 -11   9   -3.86    8.18
   9 -11   9  -11.61    7.73
  12  -3  -9   12.84    8.19
  -9  12  -9    6.04    6.50
  12  -3  -9    3.07    8.07
  12  -3  -9    5.75    7.09
  12  -3  -9    0.20    6.63
   9 -12   9  -12.33    7.91
   9 -12   9    4.18    8.11
  11 -10  -9    9.56    9.67
  -1  11  -9   -0.86   10.47
  -1  11  -9   -0.40    8.51
   1 -11   9   14.12   10.60
   1 -11   9    4.59    9.33
   0  10  -9   -2.90    9.87
   0  10  -9    3.97    9.47
  10 -10  -9    9.96    9.86
   0 -10   9   -6.24    9.51
   0 -10   9    1.03    9.11
   1   9  -9    6.34    9.65
   1   9  -9    9.05   10.12
   9 -10  -9   18.11   10.61
  -1  -9   9   11.55   10.36
  -1  -9   9    2.27    9.10
   2   8  -9   21.81   10.42
   8 -10  -9   17.99   10.73
   2   8  -9   -6.16    8.85
  -2  -8   9   21.85   10.63
  -2  -8   9    6.28    9.82
   3   7  -9   10.61   10.09
   3   7  -9    6.24    9.77
  -3  -7   9    6.90    9.47
  10  -3   9    6.08    4.51
  -3  -7   9    1.72    9.27
   4   6  -9    6.14   10.31
   4   6  -9    8.13   10.02
  10  -4   9    1.57    4.28
  -4  -6   9    0.42    9.06
  -4  -6   9  -12.06    8.50
   5   5  -9   27.03   11.10
   5   5  -9    8.94   10.01
  10  -5   9   17.49    5.03
  -5  -5   9   11.48    9.28
  -5  -5   9   11.37    9.05
   6   4  -9    4.32   10.14
   6   4  -9    0.89    9.43
 -10   6  -9    1.81    4.32
  10  -6   9    0.54    4.64
  -6  -4   9    9.11    9.06
  10  -6   9    0.46    7.91
  -6  -4   9    8.56    8.52
 -10   7  -9   -7.88    3.91
   7   3  -9   10.44   10.38
   7   3  -9   16.01   10.20
  -7  -3   9    8.91    8.16
  -7  -3   9   -3.20    8.86
  10  -7   9   -0.41    8.06
 -10   8  -9   -3.14    3.97
   8   2  -9   -0.24   10.05
   8   2  -9    0.33    9.55
  10  -8   9   -5.23    8.09
  -8  -2   9   23.69   11.25
  -8  -2   9    3.70    7.67
  -8  -2   9   15.59    9.87
   9   1  -9    6.63   10.24
 -10   9  -9    0.88    4.34
   9   1  -9   16.55   11.07
  -9  -1   9    0.59   10.31
  -9  -1   9    3.08    8.98
  -9  -1   9   15.37    9.22
  10  -9   9    4.91    9.02
 -10  10  -9    0.52    5.86
 -10  10  -9   11.20    5.30
  10   0  -9    9.33    9.42
  10   0  -9   20.70   10.98
  10 -10   9    0.62    9.05
 -10   0   9    3.09    9.01
 -10   0   9    5.34    8.21
 -10   0   9   25.17   11.68
 -10  11  -9    5.77    6.09
  11  -1  -9    4.05    8.79
  11  -1  -9  -23.69    8.23
 -11   1   9   -6.97    6.96
  10 -11   9   -4.15    7.02
  10 -11   9    1.23    7.95
  10 -11   9   -8.85    8.65
   1  10  -9  -11.32    9.72
   1  10  -9    9.33   10.35
  -1 -10   9    0.80   10.10
  -1 -10   9    4.13    9.89
   2   9  -9   -3.31    9.82
   2   9  -9   11.76   10.56
  -2  -9   9   -5.27    9.33
  -2  -9   9    1.90   10.26
   3   8  -9  -13.34    9.25
   3   8  -9    8.44   10.27
  11  -3   9    1.10    4.71
  -3  -8   9  -11.20    9.15
  -3  -8   9    3.65    9.15
   4   7  -9    4.42   10.35
   4   7  -9  -14.06    9.04
  -4  -7   9   -3.97    9.63
  11  -4   9    3.37    4.91
  -4  -7   9    7.57    9.82
   5   6  -9   -2.48    9.98
   5   6  -9    1.61   10.52
  11  -5   9    8.62    4.94
  -5  -6   9    4.90    9.33
  -5  -6   9    9.56    9.90
   6   5  -9   18.71   11.22
   6   5  -9   11.99   11.12
  -6  -5   9   12.86    9.65
  11  -6   9   24.43    5.36
  -6  -5   9   19.26   10.03
  11  -6   9   23.43    8.84
   7   4  -9   10.17   10.90
   7   4  -9   -7.96   10.39
  -7  -4   9   10.86    8.73
  -7  -4   9   18.91   10.42
  11  -7   9   19.88    5.73
  11  -7   9    8.84    8.34
   8   3  -9    9.46   11.00
   8   3  -9   18.94   11.44
  -8  -3   9   -2.26    7.80
  11  -8   9   37.63    9.80
  -8  -3   9    6.05    9.55
   9   2  -9    0.07   10.29
   9   2  -9    5.24   10.41
  -9  -2   9    8.37   10.12
  11  -9   9    4.82    8.74
  -9  -2   9    7.82   11.48
  -9  -2   9   13.23    8.44
  10   1  -9    0.65    9.90
  10   1  -9  -13.84    9.62
 -11  10  -9    5.72    5.14
 -10  -1   9  -10.83   10.23
 -10  -1   9    4.31    8.22
  11 -10   9   13.50    9.20
 -10  -1   9   -1.94    9.34
   3   9  -9   13.79   11.51
   3   9  -9    5.88   10.64
  12  -3   9   -2.73    5.12
  -3  -9   9    1.71   10.01
  -3  -9   9   20.62   11.57
   4   8  -9    2.40   10.84
   4   8  -9    4.50   10.58
  12  -4   9    6.49    5.21
  -4  -8   9   12.51   10.92
  -4  -8   9    7.30   10.26
   5   7  -9   -2.82   10.94
   5   7  -9   26.11   12.18
  12  -5   9   20.82    6.38
  -5  -7   9   10.33   10.40
  -5  -7   9   12.24   10.24
   6   6  -9   15.35   11.75
   6   6  -9   10.20   11.16
  -6  -6   9   21.10   11.18
  12  -6   9   -3.33    5.08
  -6  -6   9   -4.75    9.23
   7   5  -9   -5.31   10.84
   7   5  -9   -4.62   10.19
  -7  -5   9   -0.44    8.85
  12  -7   9    6.55    5.22
  -7  -5   9    2.27    9.83
  12  -7   9   -1.24    8.33
   8   4  -9   -6.56   10.26
   8   4  -9  -13.87   10.15
  12  -8   9   17.58    9.20
  -8  -4   9    0.09    8.34
  -8  -4   9   -0.77    9.41
   9   3  -9  -11.25   10.99
   9   3  -9    4.31   10.86
  12  -9   9    1.85    9.06
  -9  -3   9    4.95    9.74
  -9  -3   9    7.77    8.71
   0   0 -10   26.11    9.21
  -1   0 -10    5.50    7.93
   0   1 -10   -2.58    7.61
   1  -1 -10    9.41    8.63
   0  -1  10   -1.44    7.53
   0  -1 -10   -4.43    7.73
  -1   1 -10   11.05    7.69
   1   0 -10    3.60    7.86
  -1   0  10   15.78    8.39
   1  -1  10    1.46    7.65
  -1  -1 -10    0.51    7.69
   2  -1 -10   -2.95    7.83
  -1   2 -10    2.42    7.38
   1  -2  10   -3.61    7.84
  -2  -1 -10   -1.15    8.03
   3  -2 -10  -16.67    7.84
  -1   3 -10   -6.71    7.44
   1  -3  10   -3.64    7.82
   2  -2 -10   15.21    9.38
   0   2 -10   25.41    9.21
  -2   0 -10   35.84    9.30
   0  -2  10   32.11    9.73
  -2   1 -10    2.20    7.59
   1   1 -10   14.34    8.68
   1  -2 -10    8.90    8.29
  -1  -1  10    3.61    7.86
   0  -2 -10   29.89    9.86
   2   0 -10   28.67    9.57
  -2   2 -10   28.67    8.62
  -2   0  10   19.24    8.43
   2  -2  10   35.49    9.81
  -1  -2 -10   -3.22    7.67
  -2   3 -10    9.95    7.81
   3  -1 -10    2.42    8.64
   2  -3  10   13.08    8.36
  -2  -2 -10    0.62    7.85
  -2   4 -10    7.66    8.07
   4  -2 -10   -4.93    7.80
   2  -4  10    2.35    8.18
  -3  -2 -10    8.13    8.83
   5  -3 -10   -3.94    8.07
   2  -5  10   -6.24    8.75
   2  -5  10  -14.80    8.05
   2  -5  10   -1.50    7.51
  -3  -1 -10    2.44    8.07
   4  -3 -10   11.89    9.23
   1  -4  10   26.55    8.97
   1  -4  10   18.20   10.18
   1  -4  10   24.46    9.43
   3  -3 -10   10.81    9.17
  -3   0 -10   19.27    8.67
   0  -3  10   14.02    8.89
   1   2 -10    1.41    8.27
  -3   1 -10   -3.45    6.94
   2  -3 -10   18.16    9.00
  -1  -2  10   -6.10    7.53
  -3   2 -10   -8.32    7.07
   2   1 -10   -5.79    7.95
   1  -3 -10    6.99    8.77
  -2  -1  10    3.61    8.02
   3  -2  10    5.07    7.97
   0  -3 -10    8.74    9.09
   3   0 -10   -1.11    8.36
   3   0 -10    6.48    4.51
  -3   3 -10    5.25    7.80
   3  -3  10    9.26    8.62
  -3   0  10    8.30    8.79
  -1  -3 -10   25.70    9.38
   4  -1 -10   18.74    5.63
  -3   4 -10   11.94    8.44
   4  -1 -10   -8.50    7.82
   1   3  10   14.22    2.59
   3  -4  10   16.13    9.23
   5  -2 -10   10.33    9.32
   5  -2 -10  -10.12    5.63
  -2  -3 -10    6.34    9.30
   3  -5  10   -3.12    8.02
   2   3  10   -0.06    2.23
   6  -3 -10   -0.61    8.65
   6  -3 -10    3.23    6.12
   3  -6  10    6.90    9.70
   3  -6  10   -3.06    8.40
   3  -6  10  -11.57    7.55
   7  -4 -10  -18.76    5.47
   7  -4 -10   -7.53    8.79
   3  -7  10    7.24    8.86
   3  -7  10  -10.78    8.00
   3  -7  10   -2.68    7.96
   6  -4 -10    9.64    9.69
   2  -6  10   -1.75    8.74
   2  -6  10  -11.50    8.74
   2  -6  10   -5.68    7.43
   5  -4 -10    2.60    9.53
  -4  -1 -10   14.62    8.53
   1  -5  10   12.84    8.56
   1  -5  10    0.55    9.04
   1  -5  10   10.87    8.88
   4  -4 -10   11.07    9.42
  -4   0 -10    6.08    7.82
   0  -4  10   39.01   10.67
   0  -4  10    7.95    8.61
   0  -4  10   -4.06    8.02
  -4   1 -10    6.08    7.86
   3  -4 -10   15.32    9.65
  -1  -3  10   19.54    8.72
  -1  -3  10   13.91    9.89
  -1  -3  10   23.96    9.49
  -4   2 -10    4.60    7.64
   2  -4 -10    3.78    8.54
   2   2 -10   -2.46    3.79
   4  -2  10   -4.69    7.79
  -2  -2  10  -13.64    7.93
   3   1 -10    8.65    9.12
   3   1 -10   10.07    4.95
  -4   3 -10   18.38    8.19
   1  -4 -10    6.68    8.75
  -3  -1  10   29.38    9.90
   4  -3  10   15.05    9.24
  -4   4 -10    8.47    7.70
   4   0 -10   13.09    8.82
   4   0 -10    5.79    5.23
   0  -4 -10    2.22    8.30
   4  -4  10  -11.75    7.73
  -4   0  10   13.46    8.74
   0   4  10   12.86    2.76
   5  -1 -10    5.54    5.91
   5  -1 -10   -5.69    8.32
  -1  -4 -10   10.11    9.30
  -4   5 -10    9.84    7.70
   4  -5  10    3.84    8.52
   6  -2 -10   -4.72    8.34
   6  -2 -10   -3.48    6.06
   4  -6  10   13.95    9.90
   4  -6  10    3.00    8.93
   4  -6  10   -7.61    7.41
   7  -3 -10   -3.69    6.84
   7  -3 -10   -1.57    8.79
   4  -7  10    0.32    7.58
   4  -7  10   -4.09    8.05
   4  -7  10   -5.22    8.81
   8  -4 -10    6.16    9.77
  -4   8 -10   -1.58    8.99
   8  -4 -10  -16.76    6.29
   4  -8  10   -7.60    8.89
   4  -8  10   -7.21    8.74
   4  -8  10    7.24    8.87
  -4   9 -10    7.91    9.38
   9  -5 -10  -15.00    6.25
   9  -5 -10    3.48   10.18
   4  -9  10    8.73    8.79
   4  -9  10  -15.47    7.68
   8  -5 -10   -5.70    9.53
   8  -5 -10  -17.15    5.64
  -3   8 -10   -3.88    8.85
   3  -8  10    5.69    8.87
   3  -8  10   -1.28    8.84
   7  -5 -10  -15.25    5.42
   7  -5 -10  -14.97    8.35
  -2   7 -10    3.31    8.93
   2  -7  10    3.05    9.12
   2  -7  10    9.86    9.32
  -1   6 -10    5.44    8.95
   6  -5 -10   -6.80    8.68
   1  -6  10    0.70    9.70
   1  -6  10    1.20    8.85
   1  -6  10    5.33    8.63
   5  -5 -10    9.98    9.60
  -5   0 -10   -7.61    7.68
   0  -5  10   13.12    8.91
   0  -5  10   11.65   10.06
   0  -5  10   19.82    9.62
  -5   1 -10    2.32    7.49
   4  -5 -10   11.25    9.45
  -1  -4  10   -0.02    8.42
  -1  -4  10    2.71    8.16
  -1  -4  10   12.89    9.55
  -5   2 -10    1.79    7.40
   3  -5 -10    8.16    9.08
  -2  -3  10   12.24    9.95
  -2  -3  10   -8.42    7.76
  -2  -3  10   -6.56    7.81
   3   2 -10    4.11    4.87
  -5   3 -10   -1.54    7.54
   2  -5 -10  -10.68    8.29
  -3  -2  10   -5.23    7.85
   5  -3  10  -19.64    7.38
  -2   5  10   -0.15    2.63
  -3  -2  10   12.51    8.60
  -3  -2  10    0.72    9.32
   1  -5 -10    6.83    8.93
   4   1 -10   10.36    5.38
  -5   4 -10   -2.69    6.93
  -4  -1  10   20.67    9.26
   5  -4  10    9.48    8.65
  -1   5  10    6.50    2.82
  -5   5 -10    7.91    7.90
   0  -5 -10   12.96    9.80
   5   0 -10   11.60    6.51
   5   0 -10   11.75    9.36
  -5   0  10   14.63    9.30
   5  -5  10    4.74    9.02
   6  -1 -10    2.50    9.35
   6  -1 -10   -2.58    6.19
  -5   6 -10    0.19    7.00
   5  -6  10    8.91    8.76
  -6   1  10    3.19    7.62
   7  -2 -10    7.28    7.15
   7  -2 -10   -1.60    8.79
   5  -7  10   -0.17    8.94
   5  -7  10   -5.37    7.30
   5  -7  10   -9.65    8.12
   8  -3 -10    0.28    8.75
   8  -3 -10    6.41    7.34
  -5   8 -10    1.48    8.35
   5  -8  10    8.77    8.13
   5  -8  10    1.24    8.81
   5  -8  10    9.52    9.66
  -5   9 -10   -2.27    8.50
   9  -4 -10    5.51    9.22
   5  -9  10   -0.98    8.52
   5  -9  10    5.06    9.34
  -5  10 -10   -0.66    9.29
  10  -5 -10   -7.27    9.28
  10  -5 -10    0.44    7.23
   5 -10  10   23.49   10.06
   5 -10  10    4.35    9.24
  -4  10 -10   13.32   10.19
  10  -6 -10    1.86    7.08
  10  -6 -10   -4.50    9.86
   4 -10  10   11.32    9.49
   4 -10  10   30.74   10.42
   9  -6 -10   -4.49    6.08
  -3   9 -10   -0.59    8.71
   9  -6 -10   -2.68    9.42
   3  -9  10    8.90    9.02
   3  -9  10   17.15    9.46
   8  -6 -10   12.14    6.60
   8  -6 -10    6.67   10.10
  -2   8 -10   12.57    9.44
   2  -8  10   12.64    9.27
   2  -8  10    5.66    8.53
  -1   7 -10   -5.95    9.05
   7  -6 -10   -4.81    9.52
   1  -7  10    3.56    8.88
   1  -7  10   -6.79    8.78
   0   6 -10   22.39   10.25
   6  -6 -10   14.41   10.51
   0  -6  10   34.74   10.82
   0  -6  10   40.21   11.29
   5  -6 -10   10.97    9.19
   1   5 -10   15.46    9.15
  -6   1 -10    5.08    7.71
  -1  -5  10  -16.49    7.84
  -1  -5  10   18.52   10.39
  -1  -5  10  -10.81    8.07
  -6   2 -10    6.85    7.34
   4  -6 -10    5.75    9.22
  -2  -4  10    6.79    8.72
  -2  -4  10   -5.87    8.49
  -2  -4  10  -18.68    8.63
  -6   3 -10   -3.79    6.73
   3  -6 -10   -3.70    8.61
  -3  -3  10   -2.34    8.48
  -3  -3  10  -19.07    8.79
  -3  -3  10   -3.98    8.01
   6  -3  10   15.95    9.04
   2  -6 -10   -1.93    9.07
  -6   4 -10    4.07    7.27
  -4  -2  10  -12.39    9.11
  -4  -2  10    2.58    8.65
   6  -4  10  -11.40    7.72
  -4  -2  10    3.09    8.18
   1  -6 -10    6.74    9.72
  -6   5 -10    7.18    7.00
   5   1 -10    6.30    6.08
   6  -5  10    9.63    8.96
  -5  -1  10   -3.77    8.09
   6   0 -10   27.81   10.44
  -6   6 -10   24.24    8.20
   6   0 -10   34.42    7.61
  -6   0  10   22.70    9.80
   6  -6  10   33.74   10.34
   7  -1 -10   -1.49    8.85
   7  -1 -10   -7.82    6.55
  -6   7 -10   -3.66    6.92
   6  -7  10   11.34    9.60
  -7   1  10   -1.35    7.84
   8  -2 -10   -2.04    7.34
   8  -2 -10    5.83    9.55
   6  -8  10   15.06    8.27
   6  -8  10   -2.81    8.85
   6  -8  10  -11.22    8.50
  -6   9 -10   -9.82    8.26
   9  -3 -10   -8.58    7.85
   9  -3 -10  -13.64    8.61
   6  -9  10  -11.46    8.35
   6  -9  10   -6.88    9.30
   6  -9  10   -3.88    7.66
  10  -4 -10   10.48    9.91
  10  -4 -10  -20.51    7.13
  -6  10 -10    9.03    8.51
   6 -10  10   -6.47    8.30
   6 -10  10    3.96    8.80
  10  -7 -10   12.66   10.78
  -3  10 -10    2.35    9.77
  10  -7 -10    1.97    7.23
   3 -10  10   -2.74    9.26
   3 -10  10   18.24    9.49
  -2   9 -10  -10.68    9.10
   9  -7 -10   -4.04   10.08
   2  -9  10    7.60    9.17
   2  -9  10    9.26    9.22
   8  -7 -10   13.31   10.98
  -1   8 -10   17.77   10.14
   1  -8  10   14.47    9.52
   1  -8  10   -5.23    8.49
   7  -7 -10   48.10   12.28
   0   7 -10   42.86   11.39
   0  -7  10   32.57   10.71
   0  -7  10   42.39   11.11
   6  -7 -10   -6.32    9.05
   1   6 -10   -0.50    9.07
  -1  -6  10   18.08    9.95
  -1  -6  10    1.95    9.05
  -7   2 -10   11.57    7.50
   2   5 -10   14.17    9.64
   5  -7 -10   -2.47    9.24
  -2  -5  10   -3.83    9.14
  -2  -5  10    6.60    8.60
   4  -7 -10    4.14    9.05
  -7   3 -10   11.91    7.22
   3   4 -10    3.17    9.19
  -3  -4  10    8.81    8.56
  -3  -4  10   -8.46    9.64
  -3  -4  10   12.89    9.44
   3  -7 -10    0.68    9.16
   4   3 -10    0.64    9.00
  -7   4 -10   -3.79    6.70
   7  -4  10    5.11    8.18
  -4  -3  10   -6.01    8.22
  -4  -3  10   -0.10    9.47
  -4  -3  10   10.16    8.81
   5   2 -10   -0.51    8.88
  -7   5 -10    7.78    7.12
  -5  -2  10    1.64    8.80
  -5  -2  10   -4.18    9.94
   7  -5  10    3.60    8.50
  -5  -2  10   -2.85    8.30
  -7   6 -10   -5.87    6.05
   7  -6  10    4.18    8.82
  -6  -1  10   -3.02    8.49
  -6  -1  10    9.13    8.51
  -6  -1  10   -3.62    9.73
   7   0 -10   23.42    7.93
  -7   7 -10   26.37    8.40
   7  -7  10   48.27   11.02
  -7   0  10   48.05   10.69
  -7   8 -10   28.39    8.58
   8  -1 -10   15.64   10.43
   8  -1 -10    8.32    7.81
   7  -8  10   19.19    9.93
  -8   1  10   10.77    8.40
  -7   9 -10   20.55    8.62
   9  -2 -10   12.57    8.19
   9  -2 -10    1.52    9.93
   7  -9  10   11.71    9.96
   7  -9  10   32.27   10.12
   7  -9  10   22.88    8.98
  10  -3 -10   15.74    8.52
  10  -3 -10   10.94   10.21
  -7  10 -10   -8.29    7.95
   7 -10  10    3.09    9.16
   7 -10  10    2.17    9.56
   7 -10  10    2.58    8.30
  10  -8 -10    4.09   10.62
  -2  10 -10    6.82   10.48
   2 -10  10   -3.54    8.79
   2 -10  10   -0.11    9.59
  -1   9 -10   -9.12    9.22
   9  -8 -10    1.43   10.43
   1  -9  10    6.99    9.28
   1  -9  10   13.92    9.99
   8  -8 -10    7.76   10.41
   0   8 -10   10.90   10.44
   0  -8  10    5.86    9.16
   0  -8  10    1.45    9.30
   7  -8 -10   28.45   11.53
   1   7 -10   16.92   10.42
  -1  -7  10   26.32   10.40
  -1  -7  10   11.97    9.75
   2   6 -10    9.28    9.59
   6  -8 -10  -10.57    8.67
  -2  -6  10   -1.06    8.98
  -2  -6  10    0.88    9.65
   3   5 -10   11.56    9.75
   5  -8 -10   -2.03    9.60
  -8   3 -10    0.29    6.95
  -3  -5  10   -9.00    8.86
  -3  -5  10   -2.02    8.51
  -8   4 -10    7.22    6.80
   4   4 -10   -1.95    9.51
   4  -8 -10    6.16    9.55
  -4  -4  10   -6.81    8.14
  -4  -4  10   -2.82    8.49
  -4  -4  10    8.02   10.27
  -8   5 -10   -5.14    6.35
   5   3 -10    8.28   10.09
  -5  -3  10   -8.16    8.13
   8  -5  10   -3.74    8.05
  -5  -3  10   -0.96    8.38
  -5  -3  10   -9.86    9.37
   6   2 -10   22.25   10.61
  -8   6 -10    4.16    6.73
  -6  -2  10   -4.06    8.39
  -6  -2  10   24.12   11.05
  -6  -2  10   15.34    9.26
   8  -6  10   23.56    9.56
  -8   7 -10   10.28    6.78
   7   1 -10    8.80   10.05
  -7  -1  10   16.70   11.25
   8  -7  10   16.32    9.94
  -7  -1  10   14.35    9.34
  -7  -1  10   23.73    9.93
   8   0 -10   -6.67    8.86
   8   0 -10   12.80    7.84
  -8   8 -10   -4.53    6.41
   8  -8  10   -3.11    8.99
  -8   0  10    1.97    8.51
   9  -1 -10    7.89    9.77
   9  -1 -10   -0.19    7.66
   9  -1 -10   -0.87    9.32
  -8   9 -10    3.42    7.10
   8  -9  10   -5.80    8.91
  -9   1  10    8.97    8.10
  -8  10 -10   25.82    8.23
  10  -2 -10   17.15    8.72
  10  -2 -10    2.00    9.77
  10  -2 -10  -11.54    8.29
   8 -10  10   -0.82    8.08
   8 -10  10    1.91    8.83
   8 -10  10   -2.74    9.66
  -1  10 -10    0.25    9.48
   0   9 -10   -0.02   10.06
   9  -9 -10  -13.16   10.15
   0  -9  10  -19.80    8.61
   0  -9  10   -3.57    8.90
   1   8 -10    2.23   10.07
   8  -9 -10  -11.74    9.20
  -1  -8  10   -4.72    9.58
  -1  -8  10    0.74    9.66
   2   7 -10    9.77   10.77
   7  -9 -10   14.93   11.11
  -2  -7  10    0.82    9.28
  -2  -7  10   11.11    9.67
   6  -9 -10  -10.33    9.46
   3   6 -10   -0.91    9.46
  -3  -6  10  -19.11    8.19
  -3  -6  10    2.84    9.82
  -9   4 -10   -5.00    6.47
   4   5 -10   11.58    9.72
  -4  -5  10   -0.28    8.77
  -4  -5  10    5.38    9.45
   5   4 -10   -2.06    9.64
  -9   5 -10    5.24    6.39
   9  -5  10   16.76    8.77
  -5  -4  10   -8.37    8.42
  -5  -4  10   -5.50    9.35
   6   3 -10   -2.91    9.52
  -9   6 -10   16.75    6.75
  -6  -3  10    9.09    9.53
  -6  -3  10   -1.39   10.28
  -6  -3  10   18.55    9.37
   9  -6  10    4.03    8.62
   7   2 -10    2.01    9.80
  -9   7 -10   15.49    6.92
  -7  -2  10    9.68   11.03
  -7  -2  10   -2.28    9.03
   9  -7  10    1.58    8.89
  -7  -2  10   -1.00    8.46
   8   1 -10   -0.65    9.78
  -9   8 -10    1.95    6.08
   9  -8  10   -1.95    9.00
  -8  -1  10   -6.33   10.55
  -8  -1  10   -2.57    8.61
  -8  -1  10   -2.97    9.41
   9   0 -10   -0.73   10.12
  -9   9 -10   -4.73    6.23
   9  -9  10   -1.68    9.51
  -9   0  10   -1.38    8.61
   1   9 -10   -0.19   10.04
   2   8 -10   15.58   11.32
   8 -10 -10   -4.91   10.67
   2   8 -10   -2.26    9.81
  -2  -8  10  -10.34    8.93
  -2  -8  10   14.98   11.41
   3   7 -10   -4.48    9.75
   3   7 -10   14.45   10.63
  -3  -7  10    2.47    9.90
  -3  -7  10    5.92   10.23
   4   6 -10    6.38   10.12
  -4  -6  10   -2.70    9.53
  -4  -6  10   13.22   10.49
 -10   5 -10   15.66    5.81
   5   5 -10    2.40   10.44
  -5  -5  10   -1.72    8.40
  -5  -5  10    8.63    9.92
 -10   6 -10   13.83    5.48
   6   4 -10   19.60   11.47
  -6  -4  10   23.00   11.22
  10  -6  10    2.52    8.37
  -6  -4  10   16.89    9.50
   7   3 -10   -5.46    9.83
 -10   7 -10   -1.02    4.71
  -7  -3  10    1.22    8.76
  -7  -3  10   -8.36    9.36
  10  -7  10    3.25    8.94
  -7  -3  10   -3.21   10.87
 -10   8 -10    6.35    4.42
   8   2 -10   -9.13    9.53
  -8  -2  10   -9.80    7.84
  -8  -2  10   -2.03   11.11
  10  -8  10   -5.48    8.76
  -8  -2  10    6.57    9.79
   9   1 -10  -14.86   10.39
   5   6 -10   15.03   11.44
   6   5 -10   -0.34   11.00
   0   0 -11    3.67    8.94
   0   1 -11   28.91    9.63
  -1   0 -11   55.30   11.05
   1  -1 -11   37.35   10.62
   0  -1  11   40.48   10.21
   1   0 -11   28.63   10.38
  -1   1 -11   40.19   10.45
   0  -1 -11   28.48   10.04
  -1   2 -11   -2.43    8.06
  -1  -1 -11   12.43    9.20
   2  -1 -11   -3.39    8.22
   1  -2  11    2.83    8.89
  -1   3 -11   67.82   11.67
  -2  -1 -11   66.58   11.86
   3  -2 -11   60.40   12.19
   1  -3  11   57.64   11.64
   2  -2 -11    5.35    8.89
   0   2 -11    3.77    8.50
  -2   0 -11   -1.32    8.22
   0  -2  11   -6.42    7.96
   1   1 -11    7.00    8.78
  -2   1 -11  -14.08    7.80
   1  -2 -11    4.85    8.96
  -1  -1  11   -2.28    8.17
   0  -2 -11   10.27    9.24
  -2   2 -11    6.10    8.21
   2   0 -11    9.05    9.01
   2  -2  11   -2.14    8.51
   3  -1 -11   16.02    9.66
  -2   3 -11   18.93    8.54
  -1  -2 -11   27.62   10.17
   2  -3  11   45.33   11.08
  -2   4 -11   14.58    8.64
  -2  -2 -11    8.34    8.99
   4  -2 -11   -4.09    8.78
   2  -4  11   12.91    9.50
  -3  -2 -11    5.50    8.86
   5  -3 -11    6.90    9.54
   2  -5  11    0.34    8.57
   4  -3 -11   -5.06    8.96
  -1   4 -11   11.74    9.04
  -3  -1 -11   25.60   10.07
   1  -4  11    3.80    8.59
   3  -3 -11   86.37   13.16
  -3   0 -11   87.45   12.49
   0   3 -11   82.63   12.93
   0  -3  11   59.42   12.14
  -3   1 -11   30.90    9.65
   2  -3 -11   23.66   10.52
   1   2 -11    8.88    9.31
  -1  -2  11   -0.57    8.71
   1  -3 -11   64.80   12.48
   2   1 -11   64.42   12.11
  -3   2 -11   78.69   11.64
   3  -2  11   73.12   12.06
  -2  -1  11   76.31   12.32
   3   0 -11   65.97   12.02
   0  -3 -11   79.08   12.61
  -3   3 -11   75.89   11.44
   3  -3  11   70.92   12.43
  -3   0  11   72.59   12.29
  -1  -3 -11   -9.24    8.47
  -3   4 -11  -11.17    7.17
   4  -1 -11    1.06    8.79
   3  -4  11   -6.50    8.67
  -3   5 -11  -12.40    7.59
   5  -2 -11    1.79    8.79
  -2  -3 -11   -0.71    8.90
   3  -5  11    1.73    9.12
   6  -3 -11  -18.09    6.01
   6  -3 -11  -15.55    8.62
   3  -6  11   -2.67    8.83
   7  -4 -11   16.98    7.67
   7  -4 -11   27.50   11.14
   3  -7  11   32.15   11.32
   3  -7  11   62.67   13.03
   3  -7  11   22.65   10.15
   6  -4 -11    0.85    9.79
   2  -6  11    6.42    8.70
   2  -6  11    8.55   10.04
   2  -6  11   -3.88    9.73
   5  -4 -11    2.11    9.37
  -4  -1 -11    2.04    8.65
   1  -5  11   -3.23    9.79
   1  -5  11    2.43    8.72
   1  -5  11    4.15    8.83
   4  -4 -11   69.36   13.18
  -4   0 -11   95.71   12.78
   0  -4  11   89.75   13.34
   1   3 -11   11.04    9.11
  -4   1 -11    0.25    8.14
   3  -4 -11   -3.67    8.94
  -1  -3  11    3.53    8.76
   2  -4 -11   -6.43    8.73
  -4   2 -11   -1.92    7.46
   2   2 -11   18.20    9.77
  -2  -2  11    5.30    9.14
  -4   3 -11   14.25    8.73
   3   1 -11   17.74   10.18
   3   1 -11   14.16    4.25
   1  -4 -11    9.55    9.81
   4  -3  11   10.92    9.32
  -3  -1  11   13.03    9.48
  -4   4 -11   64.75   10.81
   4   0 -11   98.66    7.83
   0  -4 -11   85.42   13.29
   4   0 -11   98.42   14.02
  -4   0  11   71.28   12.09
   4  -4  11   99.72   13.70
   5  -1 -11   17.24    6.13
  -1  -4 -11    8.56    9.86
   5  -1 -11   12.17    9.71
  -4   5 -11   30.29    9.34
   4  -5  11   11.82    9.89
   6  -2 -11   12.92    6.76
  -4   6 -11    7.02    8.12
   6  -2 -11   21.64   10.22
   4  -6  11   23.93   10.05
   7  -3 -11   57.00   12.16
   7  -3 -11   36.31    8.09
   4  -7  11   51.28   11.85
   4  -7  11   36.65   10.24
   4  -7  11   40.53   12.17
   8  -4 -11    9.59   10.42
  -4   8 -11   -4.63    9.19
   8  -4 -11  -20.53    6.16
   4  -8  11   18.22   10.83
   4  -8  11   -5.61    9.77
   4  -8  11   -1.32    9.11
  -3   8 -11    0.88   10.03
   8  -5 -11  -12.11    6.09
   8  -5 -11    4.28   10.47
   3  -8  11   -8.88    9.97
   3  -8  11  -14.75    9.09
   3  -8  11    4.48    9.30
   7  -5 -11   61.00   13.08
  -2   7 -11   42.25   11.70
   2  -7  11   41.61   11.67
   2  -7  11   24.02    9.95
   2  -7  11   51.20   12.39
   6  -5 -11    4.28    9.63
   1  -6  11   -2.45    8.58
   1  -6  11    2.37    9.41
   1  -6  11   14.83   10.42
   5  -5 -11    9.43   10.29
  -5   0 -11   17.96    9.08
   0  -5  11   10.13   10.62
   0  -5  11   30.31   10.60
   0  -5  11   11.78    9.19
   4  -5 -11   23.08   10.53
  -5   1 -11   20.14    9.01
  -1  -4  11   34.30   11.90
  -1  -4  11   15.84    9.82
  -1  -4  11   25.46   10.20
   3  -5 -11    1.98    9.46
  -5   2 -11   -4.61    7.29
  -2  -3  11   -8.92    8.72
   3   2 -11    4.44    8.95
   3   2 -11   -0.67    4.42
  -5   3 -11    0.56    7.26
   2  -5 -11   -3.19    9.36
  -3  -2  11   -5.90    8.66
   5  -3  11   -4.08    8.39
   4   1 -11  -10.58    8.68
  -5   4 -11    0.24    7.39
   4   1 -11   -2.89    5.05
   1  -5 -11   13.38    9.67
   5  -4  11    3.56    8.99
  -4  -1  11   16.31    9.70
   0  -5 -11   22.48   10.73
   5   0 -11   19.18    9.89
  -5   5 -11   20.87    8.82
   5   0 -11   17.79    6.38
   5  -5  11    4.79    9.49
  -5   0  11   14.29    9.46
  -5   6 -11   11.88    8.19
   6  -1 -11    0.48    9.02
   6  -1 -11    0.57    6.28
   5  -6  11   -6.30    9.04
   7  -2 -11    8.16    9.91
  -5   7 -11   -7.79    7.56
   7  -2 -11   -4.43    6.57
   5  -7  11    1.17    9.35
   8  -3 -11   23.05    8.33
   8  -3 -11   29.86   11.07
   5  -8  11   40.39   12.40
   5  -8  11    6.33   10.35
   5  -8  11    7.77    9.24
   8  -6 -11    4.36   10.39
  -2   8 -11   14.13   10.43
   2  -8  11   -9.34    9.49
   2  -8  11   12.73   11.10
   2  -8  11  -11.13    9.37
  -1   7 -11   63.59   13.01
   7  -6 -11   68.91   14.25
   1  -7  11   70.78   13.08
   1  -7  11   49.03   12.92
   1  -7  11   69.32   13.17
   6  -6 -11   46.10   12.62
   0   6 -11   36.91   11.48
   0  -6  11   54.63   13.06
   0  -6  11   55.51   12.46
   0  -6  11   26.09   10.65
   1   5 -11    9.15    9.66
   5  -6 -11   -3.75    9.19
  -6   1 -11  -11.73    7.56
  -1  -5  11    2.26   10.35
  -1  -5  11    5.50    9.21
  -1  -5  11    2.09    9.67
  -6   2 -11   18.86    8.63
   4  -6 -11   24.11   10.29
  -2  -4  11   10.90    9.56
  -2  -4  11    9.15    9.42
  -2  -4  11   22.91   11.83
   3   3 -11    1.43    4.94
  -6   3 -11    4.90    7.75
   3  -6 -11   -1.50    9.25
  -3  -3  11  -10.80    8.43
  -3  -3  11    0.82   10.37
  -3  -3  11    5.77    9.52
   2  -6 -11   10.49   10.08
   4   2 -11    1.79    5.34
  -6   4 -11    2.46    7.68
   6  -4  11   -8.05    8.61
  -4  -2  11    5.88    9.37
   5   1 -11   -1.42    8.86
  -6   5 -11    6.14    8.16
   5   1 -11   -4.03    5.80
   1  -6 -11    7.72    9.89
   6  -5  11   -2.81    8.88
  -5  -1  11   18.34    9.84
  -6   6 -11   32.23    9.07
   6   0 -11   54.32   11.78
   6   0 -11   35.97    7.73
  -6   0  11   55.31   11.33
   6  -6  11   41.19   11.59
   7  -1 -11   20.93   10.90
   7  -1 -11   36.23    7.97
  -6   7 -11   24.52    8.79
   6  -7  11   13.08   10.45
  -6   8 -11   -2.17    7.72
   8  -2 -11   -8.91    7.21
   8  -2 -11    7.71    9.96
   6  -8  11  -11.45    9.68
   8  -7 -11   32.08   12.37
  -1   8 -11   30.36   11.66
   1  -8  11   37.86   11.88
   1  -8  11   21.12   11.40
   7  -7 -11   -8.73    9.85
   0   7 -11   -6.30    9.50
   0  -7  11   -4.38    9.78
   0  -7  11   10.28   11.20
   0  -7  11   16.70   10.25
   1   6 -11   32.67   12.02
   6  -7 -11   37.73   12.58
  -1  -6  11   49.50   13.19
  -1  -6  11   49.29   12.29
  -1  -6  11   32.54   11.29
  -7   2 -11    6.39    7.70
   2   5 -11    2.24    9.87
   5  -7 -11    2.70    9.86
  -2  -5  11    1.98   10.46
  -2  -5  11   11.63   10.09
  -2  -5  11    2.95    9.42
   3   4 -11   49.03   11.86
   4  -7 -11   44.01   12.01
  -7   3 -11   43.04    9.29
  -3  -4  11   37.87   11.38
  -3  -4  11   45.21   12.91
  -3  -4  11   64.86   11.99
   4   3 -11   39.01   11.54
  -7   4 -11   22.63    8.72
   3  -7 -11   38.29   12.59
  -4  -3  11   42.99   13.06
  -4  -3  11   32.33   11.05
  -4  -3  11   54.25   11.87
  -7   5 -11   48.78    9.92
   5   2 -11   62.47    8.10
  -5  -2  11   60.34   12.36
   7  -5  11   27.52   10.83
   6   1 -11   67.52    8.86
  -7   6 -11   61.03   10.34
   7  -6  11   57.34   12.25
  -6  -1  11   73.78   13.46
   7   0 -11    8.82    7.08
   7   0 -11   -0.28    9.99
  -7   7 -11   -7.58    7.12
   7  -7  11   -6.61    9.19
  -7   0  11   15.21    9.47
  -7   8 -11    0.50    7.16
   8  -1 -11   -2.17    9.97
   8  -1 -11    1.86    7.44
   7  -8  11   -2.00    9.75
   1   7 -11   -3.05    9.87
   7  -8 -11   -4.97    9.89
  -1  -7  11   -6.97    9.91
  -1  -7  11   -6.44    9.08
   6  -8 -11   18.29   11.40
   2   6 -11  -13.70    9.33
  -2  -6  11   12.84   10.85
  -2  -6  11    5.40   11.79
  -2  -6  11   -9.41    8.91
  -8   3 -11   37.06    8.90
   3   5 -11   28.03   11.36
   5  -8 -11   14.26   10.90
  -3  -5  11   37.58   11.90
  -3  -5  11   36.40   11.90
  -3  -5  11   29.16   12.18
   4  -8 -11    3.04   10.24
  -8   4 -11    8.95    7.62
   4   4 -11    7.41   10.33
  -4  -4  11    2.13   11.20
  -4  -4  11  -12.56    8.53
  -4  -4  11    0.61    9.54
  -8   5 -11    4.28    7.19
   5   3 -11   -0.56   10.24
  -5  -3  11   18.88   12.10
  -5  -3  11    4.91    9.61
  -5  -3  11   11.57   10.04
   8  -5  11   19.63    9.85
  -8   6 -11   -5.26    6.85
   6   2 -11   13.43   10.59
  -6  -2  11   -4.20    8.75
  -6  -2  11   12.91    9.36
   8  -6  11    2.45    9.62
  -6  -2  11   -8.34   10.54
   7   1 -11   20.44    8.04
  -8   7 -11   39.54    8.99
   7   1 -11   30.93   11.86
  -7  -1  11   29.12   10.68
   8  -7  11   37.91   11.08
   0   0 -12  141.56   16.18
  -1   0 -12   16.20    9.52
   1  -1 -12   15.50   10.40
   0   1 -12   17.65   10.14
   1   0 -12    9.19    9.88
  -1   1 -12   37.65   10.60
   0  -1 -12    3.32    9.48
   2  -1 -12   20.70   10.36
  -1  -1 -12  -11.11    8.56
  -1   2 -12    5.76    8.70
   1  -2  12    6.44    9.59
   3  -2 -12    5.53    9.98
  -1   3 -12  -10.12    8.40
  -2  -1 -12   13.45   10.07
   1  -3  12    8.16    9.56
   0   2 -12   12.81    9.69
   2  -2 -12   27.59   10.88
  -2   0 -12    6.70    9.34
   0  -2  12    1.43    9.38
  -2   1 -12    9.96    8.99
   1   1 -12    1.81    8.79
   1  -2 -12  -19.38    8.55
  -1  -1  12    9.86    9.29
   0  -2 -12   12.66   10.04
  -2   2 -12   23.55    9.90
   2   0 -12    6.49    9.49
   2  -2  12   14.34    9.96
  -2   3 -12   -0.99    8.28
  -1  -2 -12   14.42    9.97
   3  -1 -12   -1.35    9.42
   2  -3  12   10.19    9.84
   4  -2 -12   21.63   11.25
  -2  -2 -12   16.79   10.30
  -2   4 -12   23.35    9.54
   2  -4  12   17.44   10.22
   5  -3 -12    2.28    9.83
  -2   5 -12  -14.53    8.09
  -3  -2 -12    7.90    9.79
   2  -5  12  -10.88    9.21
   4  -3 -12   61.88   13.40
  -1   4 -12   63.64   11.79
  -3  -1 -12   41.54   11.32
   1  -4  12   49.32   12.60
   3  -3 -12   40.07   12.08
  -3   0 -12   43.68   10.58
   0   3 -12   25.95   10.71
   0  -3  12   37.00   11.48
   1   2 -12   12.81    9.67
   2  -3 -12   -4.46    9.41
  -3   1 -12   -0.35    8.74
  -1  -2  12    5.60    9.54
   1  -3 -12  -14.81    8.67
   2   1 -12   -6.96    8.71
  -3   2 -12   10.12    9.40
  -2  -1  12  -11.97    8.59
   3   0 -12   27.45   10.72
  -3   3 -12   34.32   10.19
   0  -3 -12   42.98   11.82
   3  -3  12   38.11   11.54
  -3   4 -12   35.48    9.82
  -1  -3 -12   43.64   11.46
   4  -1 -12   20.98   10.55
   3  -4  12   34.45   11.70
  -3   5 -12   -1.24    8.62
  -2  -3 -12    6.70    9.85
   5  -2 -12    2.19    9.43
   3  -5  12   15.33   10.54
  -4  -1 -12   28.00   10.50
  -1   5 -12   19.26    9.62
   5  -4 -12    7.60   10.25
   1  -5  12   16.44   10.82
   0   4 -12   -3.10    9.07
   4  -4 -12    3.35   10.56
  -4   0 -12    1.90    8.73
   0  -4  12   -3.66    8.94
   1   3 -12   41.86   11.17
  -4   1 -12   11.33    9.11
   3  -4 -12   41.35   12.58
  -1  -3  12   39.62   12.02
  -4   2 -12  -11.93    7.86
   2   2 -12   12.12   10.32
   2  -4 -12   -3.36    9.61
  -2  -2  12    9.87   10.10
  -4   3 -12   42.07   11.04
   1  -4 -12   54.00   12.87
   3   1 -12   68.31   13.16
  -3  -1  12   59.42   12.48
   4  -3  12   68.42   12.79
   4   0 -12    2.44    9.55
  -4   4 -12  -15.76    7.79
   0  -4 -12  -10.80    8.84
   4  -4  12   -7.83    9.51
  -4   5 -12   -8.58    7.76
   5  -1 -12   -0.45    9.08
  -1  -4 -12    7.98   10.45
   4  -5  12    8.91   10.46
  -5   0 -12   14.21    9.26
   5  -5 -12   -3.29    9.67
   0  -5  12    8.57   10.45
  -5   1 -12   12.63    9.04
   4  -5 -12   -6.07    9.90
  -1  -4  12    5.58   10.34
   2   3 -12   12.02   10.16
   3  -5 -12    4.28   10.54
  -5   2 -12   14.67    9.16
  -2  -3  12   11.73   10.26
   3   2 -12   -0.60    9.40
  -5   3 -12   18.99    9.20
   2  -5 -12   -6.56    9.62
  -3  -2  12   -3.65    9.59
   1  -5 -12   28.33   11.52
   4   1 -12   29.47   11.31
  -5   4 -12   22.37    9.38
  -4  -1  12   25.01   10.88
   5  -4  12   22.91   10.43
   0  -5 -12   11.74   10.80
   5   0 -12   -2.36    9.48
  -5   5 -12   -5.43    7.89
   5  -5  12    3.95   10.29
   0   0   0    0.00    0.00
;
_shelx_hkl_checksum              43788
loop_
_space_group_symop_operation_xyz
'x, y, z'
'-y, x-y, z'
'-x+y, -x, z'
'-x, -y, z+1/2'
'y, -x+y, z+1/2'
'x-y, x, z+1/2'
loop_
_atom_site_label
_atom_site_type_symbol
_atom_site_fract_x
_atom_site_fract_y
_atom_site_fract_z
_atom_site_U_iso_or_equiv
_atom_site_adp_type
_atom_site_occupancy
_atom_site_site_symmetry_order
_atom_site_calc_flag
_atom_site_refinement_flags_posn
_atom_site_refinement_flags_adp
_atom_site_refinement_flags_occupancy
Cu1 Cu 0.4455(5) 0.5829(5) 0.662(2) 0.021(3) Uani 1 1 d . . .
Cu2 Cu 0.4449(5) 0.5822(5) 0.400(2) 0.021(3) Uani 1 1 d . . .
Ca1 Ca 0.3333 0.6667 0.529(3) 0.010(3) Uani 1 3 d S T P
O1H O 0.4659(11) 0.6431(12) 0.538(4) 0.012(5) Uiso 1 1 d . . .
O1 O 0.325(2) 0.561(2) 0.670(3) 0.010(9) Uiso 1 1 d . . .
O2 O 0.553(2) 0.574(2) 0.673(3) 0.019(9) Uiso 1 1 d . . .
O3 O 0.324(2) 0.563(2) 0.404(4) 0.023(11) Uiso 1 1 d . . .
O4 O 0.5165(19) 0.715(2) 0.315(3) 0.015(8) Uiso 1 1 d . . .
O5 O 0.557(3) 0.579(3) 0.378(4) 0.036(12) Uiso 1 1 d . . .
O6 O 0.198(3) 0.500(3) 0.762(4) 0.057(14) Uiso 1 1 d . . .
N1 N 0.402(3) 0.505(4) 0.779(5) 0.046(16) Uiso 1 1 d . . .
N2 N 0.406(2) 0.495(2) 0.295(3) 0.004(9) Uiso 1 1 d . . .
C1 C 0.281(5) 0.511(5) 0.727(6) 0.05(2) Uiso 1 1 d . . .
C2 C 0.321(3) 0.472(3) 0.810(5) 0.038(15) Uiso 1 1 d D . .
H2A H 0.3186 0.4907 0.8837 0.046 Uiso 1 1 calc R U .
C3 C 0.535(3) 0.519(3) 0.315(5) 0.020(14) Uiso 1 1 d . . .
C4 C 0.449(3) 0.472(3) 0.261(4) 0.015(14) Uiso 1 1 d . . .
C5 C 0.270(3) 0.504(3) 0.321(5) 0.012(13) Uiso 1 1 d . . .
C6 C 0.301(3) 0.448(2) 0.270(5) 0.022(12) Uiso 1 1 d D . .
H6A H 0.2914 0.4470 0.1919 0.027 Uiso 1 1 calc R U .
C1S C 0.255(3) 0.373(3) 0.794(6) 0.09(2) Uiso 1 1 d D . .
H1SA H 0.2935 0.3517 0.7668 0.114 Uiso 1 1 calc R U .
H1SB H 0.2429 0.3519 0.8679 0.114 Uiso 1 1 calc R U .
C2S C 0.1694 0.3124 0.7401 0.599 Uiso 1 1 d D . .
H2SA H 0.1662 0.3339 0.6693 0.719 Uiso 1 1 calc R U .
H2SB H 0.1191 0.3041 0.7828 0.719 Uiso 1 1 calc R U .
S1 S 0.1752 0.2115 0.7325 0.389 Uiso 1 1 d D . .
C3S C 0.0872 0.1017 0.6973 0.420 Uiso 1 1 d D . .
H3SA H 0.0431 0.0795 0.7530 0.630 Uiso 1 1 calc R U .
H3SB H 0.1112 0.0628 0.6893 0.630 Uiso 1 1 calc R U .
H3SC H 0.0605 0.1042 0.6307 0.630 Uiso 1 1 calc R U .
C4S C 0.2587 0.3547 0.3126 0.103 Uiso 1 1 d D . .
H4SA H 0.2798 0.3230 0.2686 0.124 Uiso 1 1 calc R U .
H4SB H 0.1952 0.3271 0.3005 0.124 Uiso 1 1 calc R U .
C5S C 0.2720 0.3386 0.4293 0.225 Uiso 1 1 d D . .
H5SA H 0.2724 0.2831 0.4244 0.270 Uiso 1 1 calc R U .
H5SB H 0.2146 0.3223 0.4600 0.270 Uiso 1 1 calc R U .
S2 S 0.3464 0.3923 0.5446 0.296 Uiso 1 1 d D . .
C6S C 0.2331 0.3415 0.5990 0.167 Uiso 1 1 d D . .
H6SA H 0.2150 0.3853 0.6026 0.250 Uiso 1 1 calc R U .
H6SB H 0.2318 0.3188 0.6697 0.250 Uiso 1 1 calc R U .
H6SC H 0.1932 0.2937 0.5529 0.250 Uiso 1 1 calc R U .
Cl1 Cl 0.310(4) 0.209(4) 0.386(5) 0.23(3) Uiso 0.6667 1 d . . P
Au1 Au 0.2075 0.1650 0.5519 0.467 Uiso 0.3333 1 d . . P
Au2 Au 0.4047 0.2664 0.5314 0.479 Uiso 0.3333 1 d D . P
O1M O 0.017(3) 0.325(3) 0.530(9) 0.148(18) Uiso 1 1 d . . .
C1M C 0.019(5) 0.263(5) 0.613(6) 0.09(2) Uiso 1 1 d . . .
O1W O 0.396(3) 0.632(3) 0.089(4) 0.109(17) Uiso 1 1 d . . .
loop_
_atom_site_aniso_label
_atom_site_aniso_U_11
_atom_site_aniso_U_22
_atom_site_aniso_U_33
_atom_site_aniso_U_23
_atom_site_aniso_U_13
_atom_site_aniso_U_12
Cu1 0.020(5) 0.021(5) 0.023(5) 0.004(4) 0.000(4) 0.012(4)
Cu2 0.026(6) 0.029(5) 0.019(5) -0.006(4) -0.001(4) 0.022(4)
Ca1 0.010(4) 0.010(4) 0.009(6) 0.000 0.000 0.0049(18)
loop_
_atom_type_symbol
_atom_type_description
_atom_type_scat_dispersion_real
_atom_type_scat_dispersion_imag
_atom_type_scat_source
C C 0.0033 0.0016 'International Tables Vol C Tables 4.2.6.8 and 6.1.1.4'
H H 0.0000 0.0000 'International Tables Vol C Tables 4.2.6.8 and 6.1.1.4'
N N 0.0061 0.0033 'International Tables Vol C Tables 4.2.6.8 and 6.1.1.4'
O O 0.0106 0.0060 'International Tables Vol C Tables 4.2.6.8 and 6.1.1.4'
S S 0.1246 0.1234 'International Tables Vol C Tables 4.2.6.8 and 6.1.1.4'
Ca Ca 0.2262 0.3064 'International Tables Vol C Tables 4.2.6.8 and 6.1.1.4'
Cu Cu 0.3201 1.2651 'International Tables Vol C Tables 4.2.6.8 and 6.1.1.4'
Au Au -2.0133 8.8022 'International Tables Vol C Tables 4.2.6.8 and 6.1.1.4'
Cl Cl 0.1484 0.1585 'International Tables Vol C Tables 4.2.6.8 and 6.1.1.4'
loop_
_geom_angle_atom_site_label_1
_geom_angle_atom_site_label_2
_geom_angle_atom_site_label_3
_geom_angle
_geom_angle_site_symmetry_1
_geom_angle_site_symmetry_3
O1H Cu1 N1 168.3(18) . .
O1H Cu1 O1 92.0(12) . .
N1 Cu1 O1 79.1(18) . .
O1H Cu1 O2 100.7(12) . .
N1 Cu1 O2 87.2(19) . .
O1 Cu1 O2 164.8(15) . .
O1H Cu1 O6 95.0(14) . 2_665
N1 Cu1 O6 93(2) . 2_665
O1 Cu1 O6 94.9(15) . 2_665
O2 Cu1 O6 92.4(15) . 2_665
O1H Cu1 Ca1 47.2(7) . .
N1 Cu1 Ca1 125.1(16) . .
O1 Cu1 Ca1 46.3(10) . .
O2 Cu1 Ca1 147.6(11) . .
O6 Cu1 Ca1 87.8(11) 2_665 .
N2 Cu2 O1H 163.0(13) . .
N2 Cu2 O3 87.3(15) . .
O1H Cu2 O3 87.9(12) . .
N2 Cu2 O5 81.3(16) . .
O1H Cu2 O5 102.3(13) . .
O3 Cu2 O5 168.4(17) . .
N2 Cu2 O4 107.0(13) . .
O1H Cu2 O4 89.9(11) . .
O3 Cu2 O4 100.4(13) . .
O5 Cu2 O4 85.2(14) . .
N2 Cu2 Ca1 129.4(11) . .
O1H Cu2 Ca1 48.5(7) . .
O3 Cu2 Ca1 42.1(11) . .
O5 Cu2 Ca1 149.3(12) . .
O4 Cu2 Ca1 85.3(8) . .
O3 Ca1 O3 80.1(14) 3_565 2_665
O3 Ca1 O3 80.1(14) 3_565 .
O3 Ca1 O3 80.1(14) 2_665 .
O3 Ca1 O1 86.6(7) 3_565 3_565
O3 Ca1 O1 137.9(14) 2_665 3_565
O3 Ca1 O1 136.6(14) . 3_565
O3 Ca1 O1 136.6(14) 3_565 2_665
O3 Ca1 O1 86.6(7) 2_665 2_665
O3 Ca1 O1 137.9(14) . 2_665
O1 Ca1 O1 76.2(12) 3_565 2_665
O3 Ca1 O1 137.9(14) 3_565 .
O3 Ca1 O1 136.6(14) 2_665 .
O3 Ca1 O1 86.6(7) . .
O1 Ca1 O1 76.2(12) 3_565 .
O1 Ca1 O1 76.2(12) 2_665 .
O3 Ca1 O1H 72.3(11) 3_565 2_665
O3 Ca1 O1H 67.8(11) 2_665 2_665
O3 Ca1 O1H 140.5(16) . 2_665
O1 Ca1 O1H 70.1(11) 3_565 2_665
O1 Ca1 O1H 64.4(10) 2_665 2_665
O1 Ca1 O1H 132.7(15) . 2_665
O3 Ca1 O1H 67.8(11) 3_565 3_565
O3 Ca1 O1H 140.5(16) 2_665 3_565
O3 Ca1 O1H 72.3(11) . 3_565
O1 Ca1 O1H 64.4(10) 3_565 3_565
O1 Ca1 O1H 132.7(15) 2_665 3_565
O1 Ca1 O1H 70.1(11) . 3_565
O1H Ca1 O1H 119.81(17) 2_665 3_565
O3 Ca1 O1H 140.5(16) 3_565 .
O3 Ca1 O1H 72.3(11) 2_665 .
O3 Ca1 O1H 67.8(11) . .
O1 Ca1 O1H 132.7(15) 3_565 .
O1 Ca1 O1H 70.1(11) 2_665 .
O1 Ca1 O1H 64.4(10) . .
O1H Ca1 O1H 119.80(17) 2_665 .
O1H Ca1 O1H 119.80(16) 3_565 .
O3 Ca1 Cu2 64.9(9) 3_565 2_665
O3 Ca1 Cu2 34.5(9) 2_665 2_665
O3 Ca1 Cu2 107.1(12) . 2_665
O1 Ca1 Cu2 104.0(8) 3_565 2_665
O1 Ca1 Cu2 81.0(7) 2_665 2_665
O1 Ca1 Cu2 156.4(9) . 2_665
O1H Ca1 Cu2 35.2(8) 2_665 2_665
O1H Ca1 Cu2 131.9(8) 3_565 2_665
O1H Ca1 Cu2 102.3(6) . 2_665
O3 Ca1 Cu2 34.5(9) 3_565 3_565
O3 Ca1 Cu2 107.1(12) 2_665 3_565
O3 Ca1 Cu2 64.9(9) . 3_565
O1 Ca1 Cu2 81.0(7) 3_565 3_565
O1 Ca1 Cu2 156.4(9) 2_665 3_565
O1 Ca1 Cu2 104.0(8) . 3_565
O1H Ca1 Cu2 102.3(6) 2_665 3_565
O1H Ca1 Cu2 35.2(8) 3_565 3_565
O1H Ca1 Cu2 131.9(8) . 3_565
Cu2 Ca1 Cu2 99.2(5) 2_665 3_565
O3 Ca1 Cu2 107.1(12) 3_565 .
O3 Ca1 Cu2 64.9(9) 2_665 .
O3 Ca1 Cu2 34.5(9) . .
O1 Ca1 Cu2 156.4(9) 3_565 .
O1 Ca1 Cu2 104.0(8) 2_665 .
O1 Ca1 Cu2 81.0(7) . .
O1H Ca1 Cu2 131.9(8) 2_665 .
O1H Ca1 Cu2 102.3(6) 3_565 .
O1H Ca1 Cu2 35.2(8) . .
Cu2 Ca1 Cu2 99.2(5) 2_665 .
Cu2 Ca1 Cu2 99.2(5) 3_565 .
Cu1 O1H Cu2 120.6(9) . .
Cu1 O1H Ca1 101.6(12) . .
Cu2 O1H Ca1 96.3(12) . .
C1 O1 Cu1 117(4) . .
C1 O1 Ca1 144(4) . .
Cu1 O1 Ca1 99.7(14) . .
C4 O2 Cu1 111(3) 4_665 .
C5 O3 Cu2 111(3) . .
C5 O3 Ca1 144(3) . .
Cu2 O3 Ca1 103.4(15) . .
C5 O4 Cu2 124(3) 2_665 .
C3 O5 Cu2 103(4) . .
C1 O6 Cu1 117(4) . 3_565
C2 N1 C3 126(5) . 4_665
C2 N1 Cu1 122(4) . .
C3 N1 Cu1 111(4) 4_665 .
C4 N2 C6 124(4) . .
C4 N2 Cu2 122(4) . .
C6 N2 Cu2 114(3) . .
O1 C1 O6 124(6) . .
O1 C1 C2 119(6) . .
O6 C1 C2 113(5) . .
N1 C2 C1S 121(5) . .
N1 C2 C1 103(5) . .
C1S C2 C1 99(5) . .
O5 C3 N1 121(5) . 4_664
O5 C3 C4 124(4) . .
N1 C3 C4 114(4) 4_664 .
N2 C4 O2 135(5) . 4_664
N2 C4 C3 109(4) . .
O2 C4 C3 115(4) 4_664 .
O4 C5 O3 120(4) 3_565 .
O4 C5 C6 119(4) 3_565 .
O3 C5 C6 118(4) . .
C5 C6 C4S 115(3) . .
C5 C6 N2 106(4) . .
C4S C6 N2 107(3) . .
C2S C1S C2 141(5) . .
C1S C2S S1 101(2) . .
C1S C2S Cl1 89(4) . 6
S1 C2S Cl1 108.8(17) . 6
C3S S1 C2S 127.6 . .
C3S S1 Au1 69.8 . .
C2S S1 Au1 118.9 . .
S1 C3S Au1 68.8 . .
C6 C4S C5S 120(2) . .
C4S C5S S2 141.6 . .
C6S S2 C5S 74.3 . .
C6S S2 Au2 111.1 . .
C5S S2 Au2 89.7 . .
C2S Cl1 Au2 133(3) 5_554 .
C2S Cl1 Au1 135(3) 5_554 .
Au2 Cl1 Au1 74.8(19) . .
S1 Au1 C3S 41.4 . .
S1 Au1 Cl1 147.3(15) . .
C3S Au1 Cl1 170.7(15) . .
S1 Au1 Au2 105.0 . .
C3S Au1 Au2 140.0 . .
Cl1 Au1 Au2 48.5(14) . .
Cl1 Au2 S2 85.6(17) . .
Cl1 Au2 Au1 56.7(16) . .
S2 Au2 Au1 72.7 . .
loop_
_geom_bond_atom_site_label_1
_geom_bond_atom_site_label_2
_geom_bond_distance
_geom_bond_site_symmetry_2
Cu1 O1H 1.83(4) .
Cu1 N1 1.90(5) .
Cu1 O1 1.97(3) .
Cu1 O2 2.00(3) .
Cu1 O6 2.17(4) 2_665
Cu1 Ca1 3.462(15) .
Cu2 N2 1.89(4) .
Cu2 O1H 1.99(4) .
Cu2 O3 2.00(4) .
Cu2 O5 2.03(4) .
Cu2 O4 2.32(3) .
Cu2 Ca1 3.437(15) .
Ca1 O3 2.37(4) 3_565
Ca1 O3 2.37(4) 2_665
Ca1 O3 2.37(4) .
Ca1 O1 2.54(4) 3_565
Ca1 O1 2.54(4) 2_665
Ca1 O1 2.54(4) .
Ca1 O1H 2.591(18) 2_665
Ca1 O1H 2.591(18) 3_565
Ca1 O1H 2.591(18) .
Ca1 Cu2 3.437(15) 2_665
Ca1 Cu2 3.437(15) 3_565
O1 C1 1.12(7) .
O2 C4 1.38(6) 4_665
O3 C5 1.46(6) .
O4 C5 1.13(5) 2_665
O5 C3 1.24(6) .
O6 C1 1.46(7) .
O6 Cu1 2.17(4) 3_565
N1 C2 1.30(6) .
N1 C3 1.46(7) 4_665
N2 C4 1.12(5) .
N2 C6 1.65(5) .
C1 C2 1.61(8) .
C2 C1S 1.56(4) .
C3 N1 1.46(7) 4_664
C3 C4 1.49(5) .
C4 O2 1.38(6) 4_664
C5 O4 1.13(5) 3_565
C5 C6 1.49(6) .
C6 C4S 1.54(3) .
C1S C2S 1.52(3) .
C2S S1 1.8450 .
C2S Cl1 2.20(7) 6
S1 C3S 1.8428 .
S1 Au1 2.5956 .
C3S Au1 2.6124 .
C4S C5S 1.5500 .
C5S S2 1.8801 .
S2 C6S 1.8773 .
S2 Au2 2.8989 .
Cl1 C2S 2.20(7) 5_554
Cl1 Au2 2.36(7) .
Cl1 Au1 2.63(7) .
Au1 Au2 3.0428 .
O1M C1M 1.54(9) .
