#------------------------------------------------------------------------------
#$Date: 2019-11-25 10:02:33 +0200 (Mon, 25 Nov 2019) $
#$Revision: 240644 $
#$URL: file:///home/coder/svn-repositories/cod/cif/4/13/00/4130052.cif $
#------------------------------------------------------------------------------
#
# This file is available in the Crystallography Open Database (COD),
# http://www.crystallography.net/
#
# All data on this site have been placed in the public domain by the
# contributors.
#
data_4130052
loop_
_publ_author_name
'Thacker, Nathan C.'
'Lin, Zekai'
'Zhang, Teng'
'Gilhula, James C.'
'Abney, Carter W.'
'Lin, Wenbin'
_publ_section_title
;
 Robust and Porous \b-Diketiminate-Functionalized Metal-Organic Frameworks
 for Earth-Abundant-Metal-Catalyzed C-H Amination and Hydrogenation.
;
_journal_issue                   10
_journal_name_full               'Journal of the American Chemical Society'
_journal_page_first              3501
_journal_page_last               3509
_journal_paper_doi               10.1021/jacs.5b13394
_journal_volume                  138
_journal_year                    2016
_chemical_formula_moiety         'C17 H18 Cl2 Fe N2'
_chemical_formula_sum            'C17 H18 Cl2 Fe N2'
_chemical_formula_weight         377.08
_space_group_crystal_system      orthorhombic
_space_group_IT_number           33
_space_group_name_Hall           'P 2c -2n'
_space_group_name_H-M_alt        'P n a 21'
_atom_sites_solution_hydrogens   geom
_audit_creation_date             2015-11-28
_audit_creation_method
;
Olex2 1.2
(compiled 2015.09.30 svn.r3233 for OlexSys, GUI svn.r5103)
;
_cell_angle_alpha                90
_cell_angle_beta                 90
_cell_angle_gamma                90
_cell_formula_units_Z            4
_cell_length_a                   10.473(9)
_cell_length_b                   22.252(19)
_cell_length_c                   7.486(6)
_cell_measurement_reflns_used    823
_cell_measurement_temperature    100(2)
_cell_measurement_theta_max      11.75
_cell_measurement_theta_min      2.32
_cell_volume                     1745(3)
_computing_cell_refinement       'SAINT v8.34A (Bruker, 2013)'
_computing_data_reduction        'SAINT v8.34A (Bruker, 2013)'
_computing_molecular_graphics    'Olex2 (Dolomanov et al., 2009)'
_computing_publication_material  'Olex2 (Dolomanov et al., 2009)'
_computing_structure_refinement  'XL (Sheldrick, 2008)'
_computing_structure_solution    'SHELXS-97 (Sheldrick, 1990)'
_diffrn_ambient_temperature      100.15
_diffrn_measured_fraction_theta_full 0.603
_diffrn_measured_fraction_theta_max 0.917
_diffrn_measurement_device_type  'synchrotron, beamline 15-ID, APEX2 detector'
_diffrn_measurement_method       'phi scans'
_diffrn_radiation_type           'synchrotron radiation'
_diffrn_radiation_wavelength     0.41328
_diffrn_reflns_av_R_equivalents  0.1795
_diffrn_reflns_av_unetI/netI     0.1309
_diffrn_reflns_Laue_measured_fraction_full 0.603
_diffrn_reflns_Laue_measured_fraction_max 0.917
_diffrn_reflns_limit_h_max       10
_diffrn_reflns_limit_h_min       -10
_diffrn_reflns_limit_k_max       23
_diffrn_reflns_limit_k_min       -23
_diffrn_reflns_limit_l_max       7
_diffrn_reflns_limit_l_min       -5
_diffrn_reflns_number            9212
_diffrn_reflns_point_group_measured_fraction_full 0.528
_diffrn_reflns_point_group_measured_fraction_max 0.812
_diffrn_reflns_theta_full        14.357
_diffrn_reflns_theta_max         12.386
_diffrn_reflns_theta_min         1.250
_diffrn_source                   'synchrotron radiation'
_diffrn_standards_number         0
_exptl_absorpt_coefficient_mu    0.228
_exptl_absorpt_correction_type   none
_exptl_crystal_colour            yellow
_exptl_crystal_density_diffrn    1.436
_exptl_crystal_density_method    'not measured'
_exptl_crystal_description       needle
_exptl_crystal_F_000             776
_refine_diff_density_max         0.280
_refine_diff_density_min         -0.339
_refine_diff_density_rms         0.069
_refine_ls_abs_structure_details
;
 Flack x determined using 292 quotients [(I+)-(I-)]/[(I+)+(I-)]
 (Parsons and Flack (2004), Acta Cryst. A60, s61).
;
_refine_ls_abs_structure_Flack   0.0(2)
_refine_ls_extinction_method     none
_refine_ls_goodness_of_fit_ref   1.016
_refine_ls_hydrogen_treatment    constr
_refine_ls_matrix_type           full
_refine_ls_number_parameters     195
_refine_ls_number_reflns         1664
_refine_ls_number_restraints     152
_refine_ls_restrained_S_all      0.989
_refine_ls_R_factor_all          0.1104
_refine_ls_R_factor_gt           0.0551
_refine_ls_shift/su_max          0.000
_refine_ls_shift/su_mean         0.000
_refine_ls_structure_factor_coef Fsqd
_refine_ls_weighting_details
'w=1/[\s^2^(Fo^2^)+(0.0332P)^2^] where P=(Fo^2^+2Fc^2^)/3'
_refine_ls_weighting_scheme      calc
_refine_ls_wR_factor_gt          0.1016
_refine_ls_wR_factor_ref         0.1159
_reflns_Friedel_coverage         0.616
_reflns_Friedel_fraction_full    0.439
_reflns_Friedel_fraction_max     0.684
_reflns_number_gt                981
_reflns_number_total             1664
_reflns_threshold_expression     'I > 2\s(I)'
_cod_data_source_file            ja5b13394_si_003.cif
_cod_data_source_block           fe_nacnac_cl_a
_cod_database_code               4130052
_shelxl_version_number           2013-3
_shelx_space_group_comment
;
The symmetry employed for this shelxl refinement is uniquely defined
by the following loop, which should always be used as a source of
symmetry information in preference to the above space-group names.
They are only intended as comments.
;
_olex2_refinement_description
;
1. Fixed Uiso
 At 1.2 times of:
  All C(H) groups, All C(H,H) groups
 At 1.5 times of:
  All C(H,H,H) groups
2. Restrained distances
 N1-C6A \\sim N1-C6
 with sigma of 0.02
3. Uiso/Uaniso restraints and constraints
Uanis(C12) \\sim Ueq: with sigma of 0.005 and sigma for terminal atoms of 0.01
Uanis(C5) \\sim Ueq: with sigma of 0.005 and sigma for terminal atoms of 0.01
4. Rigid body (RIGU) restrains
 Fe1, Cl1, Cl2, N2, C2, C3, C4, C5, C12, C13, C14, C15, C16, C17, N1, C1
 with sigma for 1-2 distances of 0.005 and sigma for 1-3 distances of 0.01
5. Same fragment restrains
{C6, C7, C8, C9, C10, C11} sigma for 1-2: 0.02, 1-3: 0.04
as
{C6A, C7A, C8A, C9A, C10A, C11A}
6. Others
 Fixed Sof: C6(0.5) C7(0.5) H7(0.5) C8(0.5) H8(0.5) C9(0.5) H9(0.5) C10(0.5)
 H10(0.5) C11(0.5) H11(0.5) C6A(0.5) C7A(0.5) H7A(0.5) C8A(0.5) H8A(0.5)
 C9A(0.5) H9A(0.5) C10A(0.5) H10A(0.5) C11A(0.5) H11A(0.5)
7.a Secondary CH2 refined with riding coordinates:
 C3(H3A,H3B)
7.b Aromatic/amide H refined with riding coordinates:
 C13(H13), C14(H14), C15(H15), C16(H16), C17(H17), C7(H7), C8(H8), C9(H9),
 C10(H10), C11(H11), C7A(H7A), C8A(H8A), C9A(H9A), C10A(H10A), C11A(H11A)
7.c Idealised Me refined as rotating group:
 C1(H1A,H1B,H1C), C5(H5A,H5B,H5C)
;
_shelx_res_file
;
TITL Fe_nacnac_cl_a.res in Pna2(1)
CELL 0.41328 10.4729 22.2523 7.4858 90 90 90
ZERR 4 0.0089 0.0189 0.0062 0 0 0
LATT -1
SYMM -X,-Y,0.5+Z
SYMM 0.5+X,0.5-Y,+Z
SYMM 0.5-X,0.5+Y,0.5+Z
SFAC C H Cl Fe N
DISP C -0 0.001 1.09
DISP Cl 0.055 0.053 123.31
DISP Fe 0.199 0.306 713.32
DISP N 0.001 0.001 2.27
UNIT 68 72 8 4 8
SADI N1 C6A N1 C6
RIGU 0.005 0.01 Fe1 Cl1 Cl2 N2 C2 C3 C4 C5 C12 C13 C14 C15 C16 C17 N1 C1
ISOR 0.005 0.01 C12
ISOR 0.005 0.01 C5

L.S. 20
PLAN  10
TEMP -173
BOND $H
MORE -1
CONF
fmap 2
acta
OMIT 0 2 0
REM <olex2.extras>
REM <HklSrc "%.\\Fe_nacnac_cl_a.hkl">
REM </olex2.extras>

WGHT    0.033200
FVAR       0.57625
FE1   4    0.738522    0.484092    0.687311    11.00000    0.03661    0.07302 =
         0.01722   -0.00408    0.00207   -0.00388
CL1   3    0.922728    0.464197    0.828538    11.00000    0.03354    0.18137 =
         0.02101   -0.01345    0.00031   -0.00341
CL2   3    0.558666    0.496978    0.844727    11.00000    0.03643    0.06680 =
         0.02529   -0.00062    0.00346    0.00276
N2    5    0.711033    0.420376    0.490608    11.00000    0.03353    0.05361 =
         0.02892    0.00146    0.00068    0.00799
C1    1    0.783202    0.597512    0.195793    11.00000    0.05206    0.06845 =
         0.04243    0.02300    0.00880   -0.00747
AFIX 137
H1A   2    0.846180    0.585590    0.105684    11.00000   -1.50000
H1B   2    0.812959    0.633728    0.257563    11.00000   -1.50000
H1C   2    0.701315    0.605824    0.137454    11.00000   -1.50000
AFIX   0
C2    1    0.766327    0.546795    0.330607    11.00000    0.02396    0.04837 =
         0.02034   -0.00616    0.00470    0.00316
C3    1    0.761754    0.487630    0.240281    11.00000    0.03068    0.05338 =
         0.01174    0.00168   -0.00134    0.01163
AFIX  23
H3A   2    0.848757    0.480634    0.192931    11.00000   -1.20000
H3B   2    0.705760    0.493095    0.134975    11.00000   -1.20000
AFIX   0
C4    1    0.721584    0.429647    0.324112    11.00000    0.04234    0.04692 =
         0.02184    0.00301    0.00194    0.01394
C5    1    0.701213    0.380966    0.178680    11.00000    0.07400    0.04670 =
         0.02473    0.00220   -0.00365    0.00661
AFIX 137
H5A   2    0.705620    0.341022    0.233468    11.00000   -1.50000
H5B   2    0.767874    0.384619    0.087449    11.00000   -1.50000
H5C   2    0.617272    0.386490    0.123205    11.00000   -1.50000
AFIX   0
C12   1    0.669059    0.364424    0.563219    11.00000    0.05050    0.04101 =
         0.02951   -0.00149    0.00409    0.00762
C13   1    0.541012    0.346732    0.530697    11.00000    0.06575    0.04384 =
         0.01502    0.00313    0.00007    0.00721
AFIX  43
H13   2    0.486767    0.369902    0.455847    11.00000   -1.20000
AFIX   0
C14   1    0.497945    0.295023    0.610895    11.00000    0.09882    0.04088 =
         0.01287   -0.00298    0.00195   -0.00132
AFIX  43
H14   2    0.413996    0.281471    0.584653    11.00000   -1.20000
AFIX   0
C15   1    0.571265    0.262101    0.727477    11.00000    0.11701    0.06231 =
         0.00744   -0.00068    0.00904    0.02182
AFIX  43
H15   2    0.537924    0.227458    0.785139    11.00000   -1.20000
AFIX   0
C16   1    0.693444    0.280735    0.757800    11.00000    0.10916    0.06550 =
         0.01294    0.01310    0.00565    0.02682
AFIX  43
H16   2    0.745813    0.258416    0.837398    11.00000   -1.20000
AFIX   0
C17   1    0.743937    0.332168    0.674223    11.00000    0.07034    0.06446 =
         0.02411   -0.00231   -0.01033    0.03001
AFIX  43
H17   2    0.829711    0.344031    0.695708    11.00000   -1.20000
AFIX   0
N1    5    0.756257    0.552082    0.501522    11.00000    0.04175    0.06190 =
         0.01829   -0.00682    0.00396   -0.01579
PART 1
C6    1    0.732115    0.612743    0.566173    10.50000    0.02217
C7    1    0.622403    0.646768    0.547853    10.50000    0.03358
AFIX  43
H7    2    0.553625    0.632465    0.476868    10.50000   -1.20000
AFIX   0
C8    1    0.613209    0.701732    0.633335    10.50000    0.06191
AFIX  43
H8    2    0.539342    0.725336    0.610918    10.50000   -1.20000
AFIX   0
C9    1    0.698589    0.723487    0.742451    10.50000    0.07203
AFIX  43
H9    2    0.684876    0.760842    0.800823    10.50000   -1.20000
AFIX   0
C10   1    0.813139    0.690102    0.772586    10.50000    0.05628
AFIX  43
H10   2    0.876869    0.704522    0.852074    10.50000   -1.20000
AFIX   0
C11   1    0.829331    0.634401    0.679924    10.50000    0.04934
AFIX  43
H11   2    0.905692    0.611919    0.694954    10.50000   -1.20000
AFIX   0
SAME 0.02 0.04 C6 > C11
PART 0
PART 2
C6A   1    0.782917    0.605668    0.592821    10.50000    0.05348
C7A   1    0.686677    0.647090    0.576964    10.50000    0.03386
AFIX  43
H7A   2    0.616961    0.640325    0.498300    10.50000   -1.20000
AFIX   0
C8A   1    0.693645    0.699670    0.679651    10.50000    0.04301
AFIX  43
H8A   2    0.624108    0.727063    0.676399    10.50000   -1.20000
AFIX   0
C9A   1    0.792379    0.712407    0.779799    10.50000    0.03011
AFIX  43
H9A   2    0.795954    0.749440    0.842741    10.50000   -1.20000
AFIX   0
C10A  1    0.894543    0.670359    0.793851    10.50000    0.02930
AFIX  43
H10A  2    0.966513    0.679719    0.865913    10.50000   -1.20000
AFIX   0
C11A  1    0.890103    0.614299    0.700927    10.50000    0.03115
AFIX  43
H11A  2    0.955492    0.584941    0.711900    10.50000   -1.20000
AFIX   0
HKLF 4

REM  Fe_nacnac_cl_a.res in Pna2(1)
REM R1 =  0.0551 for     981 Fo > 4sig(Fo)  and  0.1104 for all    1664 data
REM    195 parameters refined using    152 restraints

END

WGHT      0.0537      0.0000

REM Highest difference peak  0.280,  deepest hole -0.339,  1-sigma level  0.069
Q1    1   0.4439  0.5953  0.4183  11.00000  0.05    0.28
Q2    1   0.6593  0.2468  0.6936  11.00000  0.05    0.28
Q3    1   0.8405  0.4429  0.1254  11.00000  0.05    0.25
Q4    1   0.8237  0.7522  0.5743  11.00000  0.05    0.24
Q5    1   0.6461  0.7392  0.7319  11.00000  0.05    0.23
Q6    1   0.8644  0.4235  0.2058  11.00000  0.05    0.23
Q7    1   0.8499  0.7282  0.8660  11.00000  0.05    0.22
Q8    1   0.5973  0.5929  0.0546  11.00000  0.05    0.22
Q9    1   0.8242  0.4115  0.7570  11.00000  0.05    0.22
Q10   1   0.3709  0.4187  0.3361  11.00000  0.05    0.22
;
_shelx_res_checksum              38689
_shelx_hkl_file
;
   0  -2   0  -18.99   14.50
   0  -2   0   -7.42   16.83
   0   2   0   18.88   15.11
   0   2   0  752.67   27.07
   0  -3   0   29.01   28.12
   0  -3   0  -24.14   26.85
   0  -3   0   30.01   35.37
   0  -3   0   -9.47   33.49
   0   3   0    9.36   26.41
   0   3   0   32.33   31.89
   0   3   0   23.53   34.05
   0   3   0   28.57   35.82
   0  -4   0 3608.64   59.12
   0  -4   0 3438.24   58.13
   0  -4   0 2865.60   67.98
   0  -4   0 4258.62   66.76
   0   4   0 4183.27   58.40
   0   4   0 3865.62   63.05
   0   4   0 3023.15   65.99
   0   4   0 4013.98   67.71
   0  -5   0  -11.02   43.01
   0  -5   0  -18.16   44.95
   0  -5   0  -32.44   56.25
   0  -5   0    0.33   57.57
   0   5   0    4.82   45.40
   0   5   0    2.88   48.61
   0   5   0  -48.11   55.58
   0   5   0  -64.77   56.63
   0  -6   0 3177.94   72.74
   0  -6   0 3973.24   88.47
   0   6   0 3566.51   73.85
   0   6   0 3063.56   78.45
   0   6   0 3060.80   87.41
   0   6   0 3681.27   88.08
   0  -7   0  -13.56   50.54
   0  -7   0 -106.84   62.22
   0   7   0   -9.74   50.27
   0   7   0   -4.76   60.84
   0   7   0   10.80   58.52
   0   7   0   45.95   68.76
   0  -8   0 2809.35   79.05
   0   8   0 2688.11   79.72
   0   8   0 2465.45   86.14
   0   8   0 1857.21   87.36
   0   8   0 2994.81   96.10
   0  -9   0  -69.09   51.43
   0   9   0  -36.26   56.13
   0   9   0   26.24   63.72
   0   9   0   -7.09   58.74
   0   9   0 -178.43   68.98
   0 -10   0  927.72   76.62
   0  10   0  887.03   77.67
   0  10   0  888.25   79.88
   0  10   0  746.03   66.71
   0 -11   0   37.15   56.19
   0  11   0   30.61   57.63
   0  11   0  -15.78   63.05
   0 -12   0    2.49   56.30
   0  12   0   45.12   60.40
   0  12   0   38.48   62.50
   0 -13   0  -94.67   53.03
   0  13   0  -78.50   59.79
   0  13   0  -70.75   62.00
   0 -14   0  608.74   64.94
   0  14   0  512.19   66.87
   0  14   0  481.24   72.63
   0 -15   0  -53.53   56.69
   0  15   0  -16.11   64.55
   0  15   0  -71.53   66.60
   0 -16   0   -7.36   56.08
   0  16   0  -17.11   66.38
   0  16   0   17.49   70.31
   0 -17   0   24.47   60.84
   0  17   0  -18.27   68.42
   0  17   0   15.00   73.85
   0 -18   0   74.96   68.48
   0 -18   0   70.47   66.65
   0  18   0   74.13   73.68
   0  18   0  -54.92   77.73
   0 -19   0    4.98   71.25
   0 -19   0  -23.53   65.66
   0  19   0  -29.84   75.23
   0  19   0  -53.20   80.55
   0 -20   0   19.54   74.85
   0 -20   0  -23.03   69.26
   0  20   0  -25.13   78.00
   0  20   0   81.99   83.43
   0 -21   0   33.27   80.60
   0 -21   0   19.98   74.40
   0  21   0  -40.03   77.67
   0  21   0   -9.96   82.71
   0 -22   0   -5.59   75.73
   0  22   0   22.09   82.04
   0  22   0   79.72   86.14
   0 -23   0    9.85   78.50
   0  23   0   -1.38   84.98
   0  23   0    8.69   91.79
  -1   0   0  -17.83   21.31
  -1   0   0   -6.48   17.22
  -1   0   0   11.96   23.14
   1   0   0  -17.49   15.39
   1   0   0   14.89   22.70
   1   0   0   -3.65   28.95
  -1  -1   0  432.47   30.95
  -1  -1   0  485.51   27.18
  -1  -1   0  544.30   34.43
  -1   1   0  333.77   32.00
  -1   1   0  500.18   31.00
  -1   1   0  564.34   33.55
   1  -1   0  357.29   27.18
   1  -1   0  488.11   33.60
   1  -1   0  481.52   38.31
   1   1   0  463.97   28.40
   1   1   0  412.04   31.39
   1   1   0  436.85   41.46
  -1  -2   0   77.01   29.56
  -1  -2   0   40.69   27.74
  -1  -2   0   29.89   33.27
  -1   2   0   40.03   21.26
  -1   2   0   59.95   28.84
  -1   2   0   64.00   32.99
   1  -2   0   52.98   20.32
   1  -2   0   37.42   31.11
   1  -2   0   24.69   34.16
   1   2   0   48.27   29.51
   1   2   0   48.66   32.16
   1   2   0   22.53   34.32
  -1  -3   0  487.44   52.43
  -1  -3   0  381.82   46.11
  -1  -3   0  539.43   59.35
  -1   3   0  243.31   26.13
  -1   3   0  487.50   48.22
  -1   3   0  485.23   54.64
   1  -3   0  300.00   36.04
   1  -3   0  390.62   46.72
   1  -3   0  398.20   47.44
   1  -3   0  429.32   46.28
   1   3   0  420.02   40.86
   1   3   0  334.60   40.14
   1   3   0  474.32   58.57
  -1  -4   0  818.55   65.32
  -1  -4   0  864.45   62.78
  -1  -4   0  965.53   73.57
  -1   4   0 1006.44   58.68
  -1   4   0  805.99   58.35
  -1   4   0 1044.86   67.93
   1  -4   0  543.63   45.95
   1  -4   0  965.92   59.95
   1  -4   0  849.06   55.47
   1  -4   0  859.63   68.37
   1   4   0  753.73   62.17
   1   4   0  884.54   62.56
   1   4   0 1057.37   77.89
  -1  -5   0  957.78   72.02
  -1  -5   0 1195.89   69.48
  -1  -5   0 1134.27   81.66
  -1   5   0 1366.89   66.04
  -1   5   0 1215.32   68.54
  -1   5   0  979.37   65.49
  -1   5   0 1300.52   77.89
   1  -5   0 1157.85   73.41
   1  -5   0 1247.20   67.21
   1  -5   0 1051.23   92.73
   1   5   0 1042.93   70.03
   1   5   0 1092.75   71.91
   1   5   0 1112.46   88.02
  -1  -6   0  609.90   72.30
  -1  -6   0  897.16   74.79
  -1   6   0  665.92   67.98
  -1   6   0  546.40   57.80
  -1   6   0  496.19   50.88
  -1   6   0  714.59   80.88
   1  -6   0  602.59   63.83
   1  -6   0  653.41   54.03
   1   6   0  642.45   54.97
   1   6   0  616.32   62.17
   1   6   0  821.26   75.34
  -1  -7   0  548.45   59.62
  -1  -7   0  572.09   75.57
  -1   7   0  457.94   61.56
  -1   7   0  351.65   59.95
  -1   7   0  347.55   49.21
  -1   7   0  348.71   63.66
   1  -7   0  544.85   61.23
   1  -7   0  442.82   54.20
   1   7   0  371.41   54.03
   1   7   0  374.12   63.50
   1   7   0  500.79   72.91
  -1  -8   0 1384.55   74.51
  -1  -8   0 1909.53  101.03
  -1   8   0 1518.69   80.27
  -1   8   0 1430.50   77.28
  -1   8   0 1621.71   89.57
   1  -8   0 1602.56   77.73
   1  -8   0 1384.11   75.40
   1   8   0 1676.24   81.93
   1   8   0 1362.13   82.49
   1   8   0 1783.09   95.22
  -1  -9   0 1202.47   77.95
  -1  -9   0 1423.58   97.65
  -1   9   0 1248.37   83.32
  -1   9   0  943.72   88.63
   1  -9   0 1111.46   79.50
   1  -9   0 1192.56   78.61
   1   9   0 1106.92   83.37
   1   9   0 1316.79   83.26
   1   9   0 1423.08   94.28
  -1 -10   0  868.93   79.33
  -1 -10   0  927.28   99.87
  -1  10   0  687.63   83.70
  -1  10   0  547.90   71.36
  -1  10   0  604.86   71.36
   1 -10   0  630.22   76.45
   1 -10   0  633.54   79.00
   1  10   0  661.39   68.20
   1  10   0  685.85   80.88
   1  10   0  787.99  105.74
  -1 -11   0  157.89   58.57
  -1 -11   0   86.80   74.74
  -1  11   0   57.24   64.99
  -1  11   0   15.50   67.48
   1 -11   0  197.19   60.12
   1 -11   0   61.67   56.13
   1  11   0   93.12   65.10
   1  11   0  123.23   69.09
  -1 -12   0  495.36   68.48
  -1 -12   0  559.80   80.22
  -1  12   0  500.12   70.14
  -1  12   0  281.89   68.15
   1 -12   0  548.73   66.76
   1 -12   0  408.78   61.62
   1  12   0  377.50   70.25
   1  12   0  327.07   72.47
  -1 -13   0  803.72   83.26
  -1 -13   0  999.58  101.81
  -1  13   0  842.85   85.37
  -1  13   0  633.32   73.02
   1 -13   0  798.46   85.03
   1 -13   0  906.24   84.53
   1  13   0  832.56   90.90
   1  13   0  762.75   78.50
  -1 -14   0 1730.50   94.89
  -1 -14   0 1636.83  101.64
  -1  14   0 1588.39   93.89
  -1  14   0 1076.86   97.71
   1 -14   0 1560.60   90.02
   1 -14   0 1180.88   86.58
   1  14   0 1442.90   94.67
   1  14   0 1052.23  104.85
  -1 -15   0  384.03   75.01
  -1 -15   0  525.53   84.92
  -1  15   0  315.99   72.52
  -1  15   0  217.34   74.51
   1 -15   0  357.18   69.75
   1 -15   0  315.55   64.22
   1  15   0  385.64   76.29
   1  15   0  292.36   77.28
  -1 -16   0  789.71   98.43
  -1 -16   0  958.45  110.22
  -1  16   0  806.43   94.17
  -1  16   0  481.52   78.67
   1 -16   0  791.92   91.01
   1 -16   0  717.35   71.80
   1  16   0  566.22   75.40
   1  16   0  638.69   87.58
  -1 -17   0  144.49   71.47
  -1 -17   0   20.76   86.25
  -1  17   0   47.61   71.69
  -1  17   0 -111.49   75.40
   1 -17   0  119.63   70.09
   1 -17   0   32.55   64.66
   1  17   0   14.56   65.66
   1  17   0   12.57   77.06
  -1 -18   0  801.39   99.20
  -1 -18   0  977.71  111.27
  -1  18   0 1003.23  104.91
  -1  18   0  721.78   88.08
   1 -18   0 1005.34   99.70
   1 -18   0  687.24   76.51
   1  18   0  606.91   78.28
   1  18   0  689.62   90.96
  -1 -19   0  102.31   72.80
  -1  19   0    7.20   80.66
  -1  19   0   42.07   80.00
   1 -19   0  119.08   79.11
   1 -19   0   34.66   71.47
   1  19   0   56.58   72.24
   1  19   0   35.04   74.63
  -1 -20   0  113.49   79.88
  -1  20   0  114.43   84.81
  -1  20   0  121.46   85.53
   1 -20   0  134.58   82.60
   1 -20   0  117.70   76.29
   1  20   0   19.98   74.74
   1  20   0   82.04   80.99
  -1 -21   0   30.95   79.22
  -1  21   0   -3.99   85.09
  -1  21   0   18.82   91.23
   1 -21   0   66.87   86.08
   1 -21   0   -0.44   75.01
   1  21   0    7.64   77.61
   1  21   0  111.88   84.15
  -1  22   0   56.41   90.24
  -1  22   0  -24.08   91.23
   1 -22   0   79.44   82.76
   1  22   0   50.82   81.32
   1  22   0   41.58   83.93
  -1  23   0  -80.11   96.82
   1  23   0   -9.25   89.35
  -2  -1   0  791.92   58.52
  -2  -1   0 1133.22   59.79
  -2  -1   0 1318.40   81.60
  -2   1   0  649.26   56.63
  -2   1   0 1210.56   61.23
  -2   1   0 1174.52   66.54
   2  -1   0  907.57   58.18
   2  -1   0 1140.47   60.73
   2  -1   0 1253.13   68.59
   2   1   0  869.54   60.40
   2   1   0 1144.95   62.34
   2   1   0 1196.05   82.15
  -2  -2   0 2398.80   66.10
  -2  -2   0 2727.97   77.34
  -2   2   0 1802.35   63.22
  -2   2   0 2590.18   66.87
  -2   2   0 2764.84   76.06
   2  -2   0 2119.57   63.83
   2  -2   0 2579.50   66.49
   2  -2   0 2617.64   77.50
   2   2   0 2024.29   64.22
   2   2   0 2418.73   66.27
   2   2   0 2445.91   82.93
  -2  -3   0 -117.14   51.32
  -2  -3   0   18.43   52.65
  -2  -3   0 -184.18   61.78
  -2   3   0   75.12   38.86
  -2   3   0  227.47   51.43
  -2   3   0  167.52   58.90
   2  -3   0   97.49   43.07
   2  -3   0  178.26   53.75
   2  -3   0  173.33   56.63
   2   3   0  -68.42   52.15
   2   3   0 -134.36   54.03
  -2  -4   0 -100.98   56.08
  -2  -4   0  -63.66   54.53
  -2  -4   0  -70.20   63.72
  -2   4   0   22.97   36.09
  -2   4   0   97.88   53.59
  -2   4   0   40.08   60.18
   2  -4   0   73.68   42.13
   2  -4   0   97.60   58.63
   2  -4   0   81.32   73.35
   2   4   0 -125.56   54.31
   2   4   0 -118.41   58.52
   2   4   0 -178.54   61.50
  -2  -5   0  238.82   57.02
  -2  -5   0  234.23   68.26
  -2   5   0  102.91   39.58
  -2   5   0  212.08   58.40
  -2   5   0  147.15   55.91
  -2   5   0  223.49   64.55
   2  -5   0  168.79   41.02
   2  -5   0  260.47   71.25
   2   5   0  165.14   59.40
   2   5   0  148.14   59.90
   2   5   0   56.91   66.60
  -2  -6   0   31.28   57.57
  -2  -6   0   47.39   72.74
  -2   6   0   31.94   39.97
  -2   6   0   34.88   56.02
  -2   6   0   88.63   50.32
  -2   6   0  105.29   65.77
   2  -6   0   14.89   36.81
   2  -6   0  110.83   56.02
   2   6   0  101.75   61.17
   2   6   0  -25.19   59.07
   2   6   0  121.35   74.96
  -2  -7   0  815.89   82.38
  -2  -7   0  942.56   95.50
  -2   7   0  809.47   76.89
  -2   7   0  465.63   58.96
  -2   7   0  798.35   87.41
   2  -7   0  510.03   60.23
   2  -7   0  809.75   77.89
   2   7   0  690.89   83.21
   2   7   0  657.07   80.71
   2   7   0  763.19   92.45
  -2  -8   0    3.43   58.46
  -2  -8   0   65.55   78.17
  -2   8   0   -9.58   55.75
  -2   8   0  -42.07   54.92
  -2   8   0   27.13   70.09
   2  -8   0   39.19   38.25
   2  -8   0   52.81   58.40
   2   8   0   14.73   61.62
   2   8   0   25.35   63.05
   2   8   0    2.71   73.46
  -2  -9   0   20.37   62.06
  -2  -9   0   -5.76   77.17
  -2   9   0    2.82   59.18
  -2   9   0  -29.06   68.81
   2  -9   0    9.13   42.57
   2  -9   0  -25.24   55.14
   2   9   0   44.40   62.17
   2   9   0  103.97   63.83
   2   9   0  -10.57   80.71
  -2 -10   0  168.57   62.56
  -2 -10   0  281.73   81.93
  -2  10   0  156.67   64.66
  -2  10   0  166.63   70.64
   2 -10   0   64.77   44.90
   2 -10   0  101.47   55.42
   2  10   0  147.20   61.50
   2  10   0  116.42   65.93
  -2 -11   0    3.21   57.85
  -2 -11   0  -21.65   78.72
  -2  11   0  -16.77   60.67
  -2  11   0   54.20   70.31
   2 -11   0   54.14   54.92
   2  11   0  -43.18   59.29
  -2 -12   0    6.14   62.50
  -2 -12   0   72.96   83.10
  -2  12   0    8.58   61.78
  -2  12   0   14.28   69.81
   2 -12   0   -0.66   57.13
   2  12   0  -10.19   58.24
  -2 -13   0   30.23   63.05
  -2 -13   0   40.80   80.11
  -2  13   0   55.08   63.17
  -2  13   0   69.48   72.13
   2 -13   0   20.98   58.13
   2  13   0   30.67   61.23
  -2 -14   0   22.48   60.56
  -2 -14   0   50.77   81.71
  -2  14   0   -0.44   62.17
  -2  14   0  -30.17   74.79
   2 -14   0   64.22   61.28
   2  14   0  -73.19   66.27
  -2 -15   0   30.23   65.21
  -2 -15   0   19.21   82.76
  -2  15   0   33.27   65.21
  -2  15   0  -25.69   74.35
   2 -15   0  -12.68   61.62
   2  15   0  -45.67   70.03
  -2 -16   0   39.03   66.76
  -2 -16   0   51.21   87.80
  -2  16   0   17.49   67.65
  -2  16   0   13.73   80.00
   2 -16   0   38.53   62.89
   2 -16   0   29.17   64.27
   2  16   0  -54.31   72.96
  -2 -17   0   71.86   70.36
  -2 -17   0  -40.08   88.19
  -2  17   0   25.30   70.20
  -2  17   0  -40.58   80.83
   2 -17   0   -8.30   67.15
   2 -17   0   95.94   67.32
   2  17   0  -12.68   73.79
   2  17   0  -15.56   80.00
  -2 -18   0  -30.34   76.67
  -2 -18   0   22.09   91.07
  -2  18   0   61.28   71.41
  -2  18   0  -14.73   83.70
   2 -18   0   85.92   68.09
   2 -18   0  -13.12   70.31
   2  18   0  -11.35   78.17
   2  18   0   49.88   85.37
  -2 -19   0   92.45   84.26
  -2 -19   0  154.95   91.79
  -2  19   0   89.74   76.84
  -2  19   0   19.60   86.47
   2 -19   0   -1.55   73.08
   2 -19   0   96.27   72.24
   2  19   0  -28.46   82.38
   2  19   0  161.54   90.07
  -2 -20   0   58.35   88.85
  -2 -20   0   75.73   95.88
  -2  20   0  145.60   78.83
  -2  20   0  -21.09   89.79
   2 -20   0   87.19   77.89
   2 -20   0  141.06   74.63
   2  20   0  139.67   85.20
   2  20   0  103.69   93.84
  -2 -21   0   32.77  101.70
  -2  21   0  -10.02   77.28
  -2  21   0   18.49   92.17
   2 -21   0   -3.88   78.28
   2 -21   0   88.96   77.50
   2  21   0   -0.50   88.58
   2  21   0   18.77   93.45
  -2 -22   0   93.50  106.01
  -2  22   0   24.14   82.43
  -2  22   0   42.24   92.12
   2 -22   0  -10.85   79.72
   2  22   0  -15.61   82.32
   2  22   0    7.97   88.13
  -3   0   0  244.47   57.63
  -3   0   0 1181.05  102.97
  -3  -1   0  973.78   96.16
  -3   1   0  110.28   52.09
  -3   1   0  116.92   57.13
  -3   1   0  197.25   72.85
   3  -1   0  105.46   54.36
   3  -1   0  132.14   57.85
  -3  -2   0  -65.05   56.97
  -3  -2   0  -10.96   68.81
  -3   2   0   38.14   50.32
  -3   2   0  -18.27   57.96
  -3   2   0   82.38   68.20
   3  -2   0   74.68   52.70
   3  -2   0  -19.60   51.65
   3  -2   0   48.33  100.15
   3   2   0  -69.59   54.75
   3   2   0  -34.60   58.02
   3   2   0  -78.06   79.66
  -3  -3   0   11.85   53.42
  -3  -3   0   20.10   66.10
  -3   3   0   -8.47   51.21
  -3   3   0   20.87   53.70
  -3   3   0   62.94   65.10
   3  -3   0   25.52   48.77
   3  -3   0  125.45   58.96
   3   3   0   53.75   51.54
   3   3   0   27.40   56.69
   3   3   0   48.83   77.23
  -3  -4   0  379.71   63.00
  -3  -4   0  391.56   69.81
  -3   4   0  175.71   46.00
  -3   4   0  297.73   60.95
  -3   4   0  287.15   66.32
   3  -4   0  370.47   56.41
   3   4   0  344.73   57.02
   3   4   0  357.63   60.95
   3   4   0  310.07   72.41
  -3  -5   0  249.18   60.56
  -3  -5   0   95.11   69.86
  -3   5   0  109.17   44.79
  -3   5   0  175.88   60.45
  -3   5   0  127.44   69.37
   3  -5   0  168.96   49.49
   3   5   0  174.66   56.80
   3   5   0   85.20   63.00
   3   5   0  141.44   71.36
  -3  -6   0   36.43   60.18
  -3  -6   0   75.18   72.36
  -3   6   0   45.62   61.84
  -3   6   0    9.30   68.87
   3  -6   0   10.35   43.13
   3   6   0   49.71   64.83
   3   6   0    9.13   61.28
   3   6   0   10.08   67.15
  -3  -7   0  -15.06   57.24
  -3  -7   0  -43.13   74.07
  -3   7   0  -23.86   61.50
  -3   7   0  -46.95   70.14
   3  -7   0   -5.09   44.73
   3   7   0  -59.01   62.00
   3   7   0    8.14   62.61
   3   7   0  -87.25   65.60
  -3  -8   0   35.82   60.18
  -3  -8   0   13.34   77.06
  -3   8   0   46.45   64.44
  -3   8   0  -21.37   72.36
   3  -8   0   40.58   43.79
   3   8   0    8.58   65.55
   3   8   0   92.89   62.22
  -3  -9   0  -39.25   60.23
  -3  -9   0   -6.98   79.05
  -3   9   0   91.79   65.77
  -3   9   0   74.29   73.63
   3  -9   0   12.57   43.35
   3  -9   0   56.02   60.29
   3   9   0  -25.47   70.69
  -3 -10   0    8.53   64.16
  -3 -10   0   74.46   81.27
  -3  10   0  -52.43   63.50
  -3  10   0   55.25   72.96
   3 -10   0   33.38   43.07
   3 -10   0   30.72   60.62
   3  10   0   26.46   64.83
  -3 -11   0  112.49   63.55
  -3 -11   0  213.41   83.65
  -3  11   0   12.18   64.22
  -3  11   0  128.21   73.79
   3 -11   0   98.49   45.89
   3 -11   0  187.61   64.38
   3  11   0  -52.59   64.77
  -3 -12   0  501.34   73.24
  -3 -12   0  588.97   90.62
  -3  12   0  460.37   69.03
  -3  12   0  367.15   78.28
   3 -12   0  275.86   47.00
   3 -12   0  377.61   68.81
   3  12   0  438.84   73.13
  -3 -13   0   57.46   61.62
  -3 -13   0 -106.01   86.53
  -3  13   0   42.74   65.71
  -3  13   0   10.30   76.56
   3 -13   0   -7.20   42.52
   3 -13   0   49.77   65.32
   3  13   0   14.17   60.34
  -3 -14   0  640.63   77.12
  -3 -14   0  817.39   95.22
  -3  14   0  567.66   71.03
  -3  14   0  575.36   85.86
   3 -14   0  410.60   49.38
   3 -14   0  459.71   71.91
   3  14   0  573.75   72.80
  -3 -15   0  -31.83   68.81
  -3 -15   0   33.49   90.90
  -3  15   0   26.24   71.91
  -3  15   0   61.12   78.00
   3 -15   0   27.90   49.93
   3 -15   0  -43.13   65.93
   3  15   0  -57.08   65.88
  -3 -16   0  670.35   80.49
  -3 -16   0  768.01  100.42
  -3  16   0  802.72   98.32
  -3  16   0  564.62   86.08
   3 -16   0  505.93   64.44
   3 -16   0  444.15   73.19
   3  16   0  531.73   75.90
  -3 -17   0  -29.78   72.19
  -3 -17   0   70.09   92.56
  -3  17   0  -61.56   76.34
  -3  17   0  -31.89   83.15
   3 -17   0   43.46   59.29
   3 -17   0  -14.84   70.47
   3  17   0   34.99   72.13
  -3 -18   0  403.35   79.00
  -3 -18   0  371.08   99.70
  -3  18   0  334.71   84.48
  -3  18   0  458.77   93.17
   3 -18   0  354.30   68.09
   3 -18   0  416.09   78.72
   3  18   0  302.38   84.65
  -3 -19   0   86.53   77.78
  -3 -19   0  187.17   98.93
  -3  19   0  145.38   83.37
  -3  19   0  142.16   92.12
   3 -19   0   66.87   63.66
   3 -19   0   57.74   71.47
   3  19   0   70.42   83.65
  -3 -20   0  162.65   82.60
  -3 -20   0  226.86  106.51
  -3  20   0   47.55   82.87
  -3  20   0  174.94   94.33
   3 -20   0   95.55   63.11
   3 -20   0  121.18   78.06
   3  20   0  225.81   87.47
   3  20   0  128.27   95.44
  -3 -21   0   32.44  106.96
  -3  21   0   35.76   83.43
  -3  21   0  -17.38   96.05
   3 -21   0    0.06   77.23
   3  21   0   26.96   84.81
   3  21   0  141.67   95.61
  -3 -22   0  141.56  114.71
  -3  22   0  -53.59   87.30
  -3  22   0   45.01   99.09
   3 -22   0  -71.14   84.09
   3  22   0   40.69   89.24
   3  22   0   -1.72   94.94
  -4   0   0 6621.66   96.38
  -4   0   0 7286.58  126.94
   4   0   0 5146.70   90.68
  -4  -1   0  536.94   67.32
  -4  -1   0  602.32   78.22
  -4   1   0  518.39   66.60
  -4   1   0  645.44   79.61
   4  -1   0  390.56   59.01
   4   1   0  348.38   62.22
   4   1   0  444.60   63.28
  -4  -2   0 3160.39   91.45
  -4  -2   0 3471.40  109.56
  -4   2   0 3233.85   92.51
  -4   2   0 3305.15  100.87
   4  -2   0 2732.01   86.75
   4   2   0 2683.63   90.85
   4   2   0 3165.81   89.96
  -4  -3   0 1506.18   83.98
  -4  -3   0 1683.44  100.48
  -4   3   0 1784.14   86.80
  -4   3   0 1904.16  101.75
   4  -3   0  983.69   76.34
   4   3   0 1166.93   75.62
   4   3   0 1716.21   85.25
  -4  -4   0 1322.99   81.77
  -4  -4   0 1602.95   99.15
  -4   4   0 1338.77   78.67
  -4   4   0 1652.33   98.26
   4  -4   0 1182.82   79.16
   4   4   0 1134.44   81.10
   4   4   0 1458.40   83.48
  -4  -5   0  669.41   81.49
  -4  -5   0  774.98   96.66
  -4   5   0  763.63   86.58
  -4   5   0  681.65   74.85
   4  -5   0  649.15   63.50
   4   5   0  629.11   70.58
   4   5   0  640.40   74.85
  -4  -6   0  378.83   66.16
  -4  -6   0  432.53   77.17
  -4   6   0  293.96   64.49
  -4   6   0  316.11   71.75
   4  -6   0  345.72   59.73
   4   6   0  287.10   63.22
  -4  -7   0   61.28   60.18
  -4  -7   0   38.97   76.51
  -4   7   0  139.78   64.22
  -4   7   0  170.56   75.23
   4  -7   0  111.94   55.64
   4   7   0  190.83   65.82
  -4  -8   0   37.59   64.27
  -4  -8   0   30.39   76.67
  -4   8   0   91.23   64.05
  -4   8   0  160.99   75.95
   4  -8   0   33.71   50.93
   4   8   0   -9.02   69.31
  -4  -9   0  -31.89   63.33
  -4  -9   0  -79.61   78.11
  -4   9   0   15.22   65.38
  -4   9   0   12.73   74.13
   4  -9   0   15.39   50.60
   4   9   0   58.63   67.65
  -4 -10   0  449.47   70.14
  -4 -10   0  507.93   87.86
  -4  10   0  391.06   72.02
  -4  10   0  299.17   76.73
   4 -10   0  290.58   53.92
   4  10   0  354.86   71.47
  -4 -11   0  285.55   68.87
  -4 -11   0  311.07   86.75
  -4  11   0  195.70   69.03
  -4  11   0  187.23   77.01
   4 -11   0  175.49   50.93
   4  11   0  149.53   74.79
  -4 -12   0   37.48   72.47
  -4 -12   0  171.67   88.30
  -4  12   0   94.06   70.42
  -4  12   0  121.96   77.84
   4 -12   0   70.31   49.55
   4  12   0   30.28   76.56
  -4 -13   0   36.04   70.97
  -4 -13   0  -10.63   90.51
  -4  13   0   13.23   73.19
  -4  13   0  -70.58   80.05
   4 -13   0   23.64   48.99
   4 -13   0   78.61   67.26
   4  13   0  -35.98   70.36
  -4 -14   0   57.46   72.30
  -4 -14   0  101.81   92.89
  -4  14   0  -19.32   73.74
  -4  14   0    5.09   82.10
   4 -14   0   81.82   50.05
   4 -14   0   37.20   67.54
   4  14   0  127.55   73.74
  -4 -15   0  -40.91   73.63
  -4 -15   0  -23.20   94.06
  -4  15   0 -113.88   72.52
  -4  15   0   -3.99   83.48
   4 -15   0  -22.48   49.05
   4 -15   0   25.96   75.73
   4  15   0   18.88   75.23
  -4 -16   0   31.17   70.75
  -4 -16   0    4.26  100.42
  -4  16   0 -129.32   76.12
  -4  16   0  -69.70   86.31
   4 -16   0   22.59   54.09
   4 -16   0  -88.63   73.57
   4  16   0  -38.64   72.30
  -4 -17   0   43.40   77.89
  -4 -17   0  -38.36   99.92
  -4  17   0  -84.37   77.34
  -4  17   0  -30.23   87.14
   4 -17   0  -14.78   54.47
   4 -17   0   20.65   78.39
   4  17   0   12.79   69.97
  -4 -18   0   54.58   82.71
  -4 -18   0   57.91  103.74
  -4  18   0  -16.55   79.22
  -4  18   0   54.03   92.29
   4 -18   0    4.37   55.47
   4 -18   0   -1.05   79.50
   4  18   0  -31.83   73.96
  -4 -19   0   18.43   83.98
  -4 -19   0  -14.78  107.62
  -4  19   0   37.70   83.70
  -4  19   0   16.44   91.62
   4 -19   0   40.03   60.40
   4 -19   0  -30.89   81.05
   4  19   0  -14.17   72.74
  -4 -20   0  112.93  108.23
  -4  20   0    9.96   82.82
  -4  20   0   12.12   97.16
   4 -20   0   69.26   62.67
   4 -20   0  -36.81   85.70
   4  20   0    4.82   79.66
  -4 -21   0  122.79  113.65
  -4  21   0  108.01   86.08
  -4  21   0  -11.18   97.77
   4 -21   0   66.43   90.29
   4  21   0  -36.48   84.26
  -5   0   0  -31.72   59.62
  -5   0   0   76.95   78.28
   5   0   0  -38.75   53.31
  -5  -1   0 1182.54   87.91
  -5  -1   0 1241.72  103.25
  -5   1   0 1069.28   86.64
  -5   1   0 1239.67  102.91
   5  -1   0  850.27   82.54
   5   1   0  814.84   85.70
  -5  -2   0  278.02   66.21
  -5  -2   0  369.86   86.25
  -5   2   0  284.83   66.71
  -5   2   0  405.29   81.71
   5  -2   0  176.27   63.33
   5   2   0  235.56   67.32
  -5  -3   0  -38.53   59.90
  -5  -3   0   30.23   75.79
  -5   3   0   55.69   62.72
  -5   3   0  -35.15   73.19
   5  -3   0  -11.85   56.13
   5   3   0   -1.33   50.27
  -5  -4   0  169.51   61.84
  -5  -4   0   70.14   74.13
  -5   4   0   46.61   67.04
  -5   4   0  -61.12   77.17
   5  -4   0   69.37   58.96
   5   4   0   31.44   59.90
  -5  -5   0   40.58   62.39
  -5  -5   0    1.22   80.71
  -5   5   0  117.70   61.95
  -5   5   0   30.45   77.23
   5  -5   0   30.01   54.42
   5   5   0  -25.13   60.45
  -5  -6   0  754.50   75.12
  -5  -6   0  959.78   84.87
  -5   6   0  766.46   90.29
  -5   6   0  588.97   79.28
   5  -6   0  608.35   67.21
   5   6   0  582.72   69.70
  -5  -7   0   40.91   64.61
  -5  -7   0   -9.74   76.01
  -5   7   0  -53.09   67.10
  -5   7   0  -39.80   75.23
   5  -7   0    6.20   58.85
   5   7   0  -93.45   62.11
  -5  -8   0 1088.10   88.13
  -5  -8   0 1271.84  108.62
  -5   8   0 1260.27   91.45
  -5   8   0 1090.15   99.04
   5  -8   0  799.01   84.15
   5   8   0  939.40   89.02
  -5  -9   0   58.02   67.15
  -5  -9   0   34.82   82.65
  -5   9   0  110.28   67.15
  -5   9   0   10.68   80.22
   5  -9   0   38.97   56.36
   5   9   0   46.45   70.81
  -5 -10   0  355.47   68.15
  -5 -10   0  427.21   84.31
  -5  10   0  334.71   76.06
  -5  10   0  305.09   82.21
   5 -10   0  232.57   58.74
   5  10   0  323.19   75.40
  -5 -11   0   55.19   64.22
  -5 -11   0  -33.33   83.54
  -5  11   0   66.71   70.36
  -5  11   0  -43.35   80.44
   5 -11   0   26.85   53.31
   5  11   0   39.14   70.92
  -5 -12   0  479.20   77.56
  -5 -12   0  546.85   93.72
  -5  12   0  408.78   77.12
  -5  12   0  400.97   84.48
   5 -12   0  326.79   62.89
   5  12   0  301.43   78.00
  -5 -13   0   14.95   69.26
  -5 -13   0    1.88   90.57
  -5  13   0  -61.01   73.13
  -5  13   0   43.79   83.65
   5 -13   0   20.54   53.81
   5  13   0   -8.14   80.55
  -5 -14   0  907.90  106.73
  -5 -14   0  943.22  105.29
  -5  14   0  875.07  102.47
  -5  14   0  693.33   91.12
   5 -14   0  587.70   69.42
   5  14   0  660.50   91.68
  -5 -15   0  104.74   82.26
  -5 -15   0    0.39   97.60
  -5  15   0   39.36   79.44
  -5  15   0  -27.13   87.58
   5 -15   0    4.43   57.13
   5  15   0  -46.34   79.83
  -5 -16   0  362.05   85.25
  -5 -16   0  418.41  107.29
  -5  16   0  350.71   87.30
  -5  16   0  348.16   97.38
   5 -16   0  240.21   64.66
   5  16   0  267.06   85.53
  -5 -17   0    2.71   85.53
  -5 -17   0  157.39  105.18
  -5  17   0  -34.21   81.66
  -5  17   0   31.28   96.10
   5 -17   0  -51.32   57.30
   5  17   0   30.06   83.10
  -5 -18   0  187.50   94.61
  -5 -18   0  351.98  115.04
  -5  18   0  297.28   89.68
  -5  18   0  236.94   98.10
   5 -18   0  177.10   69.64
   5 -18   0  145.76   80.44
   5  18   0  144.71   85.81
  -5 -19   0  106.35  119.02
  -5  19   0   30.95   87.36
  -5  19   0  -58.29   96.94
   5 -19   0  -26.63   61.89
   5 -19   0   37.20   85.48
   5  19   0   13.95   77.89
  -5 -20   0   49.27  117.92
  -5  20   0   -0.28   88.96
  -5  20   0   99.48   99.65
   5 -20   0  -11.96   85.42
   5  20   0  111.94   87.41
  -6   0   0 5008.25  107.45
  -6   0   0 4881.53  123.73
   6   0   0 4531.27  102.31
  -6  -1   0  489.88   72.80
  -6  -1   0  576.52   83.21
  -6   1   0  353.64   65.44
  -6   1   0  595.62  104.02
   6  -1   0  332.99   62.39
   6   1   0  455.50   72.96
  -6  -2   0 5302.82  112.44
  -6  -2   0 5703.62  132.20
  -6   2   0 5670.85  115.26
  -6   2   0 5070.53  121.57
   6  -2   0 3912.78   98.76
   6   2   0 4907.82  111.49
  -6  -3   0  346.66   71.19
  -6  -3   0  402.85   82.32
  -6   3   0  190.55   72.41
  -6   3   0  302.32   87.14
   6  -3   0  238.77   65.60
   6   3   0  219.00   65.82
  -6  -4   0 2898.26   99.76
  -6  -4   0 2929.32  113.82
  -6   4   0 3045.96  104.13
  -6   4   0 2510.19  113.04
   6  -4   0 2075.33   91.12
   6   4   0 2142.98   92.23
  -6  -5   0  123.29   66.21
  -6  -5   0  178.76   80.44
  -6   5   0  189.16   71.58
  -6   5   0  150.52   77.73
   6  -5   0  119.80   62.61
   6   5   0  174.22   60.90
  -6  -6   0  840.36   90.85
  -6  -6   0 1058.26   95.11
  -6   6   0  851.10   87.52
  -6   6   0  719.96   88.52
   6  -6   0  742.49   71.30
   6   6   0  718.46   75.34
  -6  -7   0  -42.18   65.27
  -6  -7   0  -84.65   81.05
  -6   7   0   52.65   67.26
  -6   7   0   31.94   81.60
   6  -7   0  -11.29   61.39
   6   7   0   64.66   66.65
  -6  -8   0  215.35   72.69
  -6  -8   0  251.22   88.63
  -6   8   0  176.93   74.57
  -6   8   0  127.83   81.27
   6  -8   0  213.36   66.10
   6   8   0  176.04   70.03
  -6  -9   0   45.78   70.20
  -6  -9   0   89.74   84.15
  -6   9   0   80.94   72.13
  -6   9   0   14.45   80.71
   6  -9   0   14.78   64.00
   6   9   0  -81.05   65.82
  -6 -10   0   53.37   68.76
  -6 -10   0   83.15   88.19
  -6  10   0   55.97   72.36
  -6  10   0  115.54   83.65
   6 -10   0   13.29   65.16
   6  10   0   85.37   74.68
  -6 -11   0   34.93   73.02
  -6 -11   0   30.89   87.75
  -6  11   0  -59.90   68.76
  -6  11   0  -54.36   82.15
   6 -11   0  -56.25   61.39
   6  11   0    7.03   81.10
  -6 -12   0  231.13   77.34
  -6 -12   0   86.80   92.45
  -6  12   0  168.68   75.51
  -6  12   0   -4.59   90.79
   6 -12   0   18.99   64.44
   6  12   0   93.61   79.11
  -6 -13   0  120.57   76.01
  -6 -13   0  151.58   99.87
  -6  13   0  138.01   80.49
  -6  13   0    9.36   91.12
   6 -13   0  187.95   67.93
   6  13   0   57.80   81.43
  -6 -14   0   75.29   81.43
  -6 -14   0  -32.72   99.37
  -6  14   0   20.21   80.16
  -6  14   0 -136.74   90.73
   6 -14   0  -24.64   58.68
   6  14   0   27.74   88.02
  -6 -15   0  124.39   89.35
  -6 -15   0  205.66  105.79
  -6  15   0  107.18   86.20
  -6  15   0   66.54   94.28
   6 -15   0   86.64   69.75
   6  15   0  111.88   95.22
  -6 -16   0  -81.27   90.07
  -6 -16   0   63.89  109.56
  -6  16   0  -55.14   83.48
  -6  16   0  -48.11   95.05
   6 -16   0   59.40   64.55
   6  16   0  -48.88   95.66
  -6 -17   0  157.89  102.14
  -6 -17   0   18.49  114.76
  -6  17   0   -3.71   86.64
  -6  17   0   78.94   98.82
   6 -17   0    4.65   66.10
   6  17   0   52.70   91.01
  -6 -18   0  278.46  120.80
  -6  18   0   39.08   90.24
  -6  18   0   28.23  100.42
   6 -18   0   76.51   72.80
   6  18   0   69.31   89.74
  -6 -19   0   47.06  125.50
  -6  19   0  -35.76   90.29
  -6  19   0   -9.80  100.70
   6  19   0  -11.35   91.73
  -7   0   0   60.01   67.21
  -7   0   0  -44.90   83.70
   7   0   0   15.78   62.61
  -7  -1   0  104.52   70.31
  -7  -1   0  218.06   99.65
  -7   1   0  151.24   68.15
  -7   1   0  178.31   93.34
   7  -1   0   69.03   62.50
   7   1   0  110.28   70.53
  -7  -2   0   -5.92   69.26
  -7  -2   0   20.93   94.39
  -7   2   0  -48.88   69.81
  -7   2   0    0.61   89.02
   7  -2   0  -36.15   64.05
   7   2   0  -31.28   69.37
  -7  -3   0  136.19   70.97
  -7  -3   0  198.30   86.31
  -7   3   0  114.21   75.40
  -7   3   0   60.51   89.63
   7  -3   0  129.54   67.43
   7   3   0  108.95   67.37
  -7  -4   0   21.09   67.71
  -7  -4   0   -9.52   85.09
  -7   4   0   34.66   72.24
  -7   4   0   79.66   89.02
   7  -4   0  -13.23   67.26
   7   4   0  -21.48   61.62
  -7  -5   0   76.51   69.70
  -7  -5   0  135.19   88.41
  -7   5   0  168.74   75.73
  -7   5   0  113.04   88.24
   7  -5   0  105.52   65.77
   7   5   0  108.34   69.64
  -7  -6   0  269.66   72.74
  -7  -6   0  330.50   94.17
  -7   6   0  256.43   80.66
  -7   6   0  289.81   87.63
   7  -6   0  196.80   67.71
   7   6   0  244.52   69.92
  -7  -7   0  196.69   73.63
  -7  -7   0  264.23   97.77
  -7   7   0  201.84   78.22
  -7   7   0  141.06   92.45
   7  -7   0  167.30   72.24
   7   7   0  219.89   73.63
  -7  -8   0  188.94   72.96
  -7  -8   0  161.04   92.67
  -7   8   0  195.97   71.64
  -7   8   0  118.80   92.12
   7  -8   0  161.10   65.27
   7   8   0  174.44   74.96
  -7  -9   0  484.40   89.18
  -7  -9   0  357.85   97.43
  -7   9   0  340.91   75.07
  -7   9   0  294.90   94.50
   7  -9   0  318.21   72.91
   7   9   0  315.50   81.66
  -7 -10   0  159.71   85.25
  -7 -10   0  181.97   99.15
  -7  10   0  141.94   80.11
  -7  10   0   47.72   91.57
   7 -10   0  102.91   71.30
   7  10   0   33.11   75.57
  -7 -11   0  429.93   91.51
  -7 -11   0  518.83  100.37
  -7  11   0  296.18   86.47
  -7  11   0  217.84   93.56
   7 -11   0  402.08   79.22
   7  11   0  350.10   88.24
  -7 -12   0  344.34   87.03
  -7 -12   0  290.03  102.69
  -7  12   0  143.94   83.93
  -7  12   0  250.95   95.66
   7 -12   0  178.59   76.78
   7  12   0  202.40   89.96
  -7 -13   0  336.98   85.09
  -7 -13   0  279.18  109.00
  -7  13   0  407.56   85.42
  -7  13   0  333.21   98.43
   7 -13   0  414.37   78.61
   7  13   0  252.11   96.38
  -7 -14   0  232.51   86.80
  -7 -14   0  224.43  115.31
  -7  14   0  156.95   82.93
  -7  14   0  146.48   98.87
   7 -14   0  173.94   78.17
   7  14   0   70.14   94.50
  -7 -15   0  119.19   90.73
  -7 -15   0   48.55  115.09
  -7  15   0   64.77   84.98
  -7  15   0  175.21  108.39
   7 -15   0   20.21   75.07
   7  15   0   47.78   88.47
  -7 -16   0  245.30  120.63
  -7  16   0  172.61   92.45
  -7  16   0  155.95  105.90
   7 -16   0  137.79   79.00
   7  16   0   54.42   99.26
  -7 -17   0   98.60  122.01
  -7  17   0  128.66   92.56
  -7  17   0  152.79  106.29
   7 -17   0   60.12   85.09
   7  17   0   48.99  103.91
  -8   0   0  -45.67   73.79
  -8   0   0  -59.57   93.72
   8   0   0   55.47   71.91
  -8  -1   0  -35.54   82.76
  -8  -1   0   10.08  104.24
  -8   1   0  -37.31   75.73
  -8   1   0   13.06   96.05
   8  -1   0  -16.33   69.09
   8   1   0  111.27   78.28
  -8  -2   0  130.32   94.72
  -8  -2   0   66.99   98.87
  -8   2   0  -20.82   78.67
  -8   2   0   33.66  110.44
   8  -2   0   27.90   64.83
   8   2   0   35.87   80.60
  -8  -3   0   43.35   71.91
  -8  -3   0  147.20   97.10
  -8   3   0   27.90   75.68
  -8   3   0   75.62   98.71
   8  -3   0   65.27   72.41
   8   3   0   52.04   70.75
  -8  -4   0   22.86   79.88
  -8  -4   0   35.71   96.88
  -8   4   0    2.99   79.77
  -8   4   0   18.43   98.49
   8  -4   0  -18.55   73.46
   8   4   0   39.64   64.66
  -8  -5   0   38.53   82.43
  -8  -5   0  -13.40   93.34
  -8   5   0   37.09   77.28
  -8   5   0  177.98  103.08
   8  -5   0   42.79   74.74
   8   5   0   73.85   75.84
  -8  -6   0    9.69   84.04
  -8  -6   0 -105.29   98.21
  -8   6   0  -89.46   82.82
  -8   6   0  -54.03   94.44
   8  -6   0  -46.00   67.82
   8   6   0   48.94   73.68
  -8  -7   0  -20.65   83.15
  -8  -7   0 -124.62  103.02
  -8   7   0  -13.40   80.27
  -8   7   0   82.21   94.22
   8  -7   0  -51.37   69.75
   8   7   0  -24.97   74.46
  -8  -8   0   51.87   80.27
  -8  -8   0  -28.23   99.09
  -8   8   0    6.75   80.99
  -8   8   0  -70.58   95.39
   8  -8   0   10.52   72.02
   8   8   0  -38.81   75.23
  -8  -9   0  119.30   95.83
  -8  -9   0    3.04   98.43
  -8   9   0   15.39   81.38
  -8   9   0    5.81  101.64
   8  -9   0  -32.61   72.47
   8   9   0   37.53   83.26
  -8 -10   0  -59.57   89.74
  -8 -10   0 -123.29  101.14
  -8  10   0   12.07   78.61
  -8  10   0  -65.55  100.09
   8 -10   0  -90.40   72.85
   8  10   0   19.76   84.87
  -8 -11   0   64.49   90.62
  -8 -11   0    4.26  107.18
  -8  11   0   -1.05   77.84
  -8  11   0   44.79  103.74
   8 -11   0  -21.76   72.74
   8  11   0    0.00   82.43
  -8 -12   0  -34.43   96.66
  -8 -12   0  109.94  112.99
  -8  12   0   97.05   89.96
  -8  12   0  -16.11  100.20
   8 -12   0  -31.67   76.23
   8  12   0   -5.26   95.05
  -8 -13   0   81.66  104.85
  -8 -13   0  148.03  110.50
  -8  13   0   91.90   89.74
  -8  13   0  -18.38  100.26
   8 -13   0    3.04   80.49
   8  13   0   32.27  100.26
  -8 -14   0   35.93  120.13
  -8  14   0   34.60   93.89
  -8  14   0   49.99  100.04
   8 -14   0   83.70   86.14
   8  14   0    9.30  104.13
  -8 -15   0  -75.23  126.22
  -8  15   0  -91.40   92.40
  -8  15   0  -49.99  102.47
   8 -15   0  -20.48   85.59
   8  15   0   48.61   98.15
  -9   0   0  -69.53  105.41
  -9   0   0   29.89  104.02
   9   0   0   39.19   87.14
  -9  -1   0   -5.70  106.12
  -9  -1   0   -8.69  115.37
  -9   1   0   40.63  103.47
  -9   1   0   -9.02  106.84
   9  -1   0    3.32   77.45
   9   1   0  -82.15   86.75
  -9  -2   0   77.95  106.12
  -9  -2   0  -63.17  103.47
  -9   2   0   50.21   81.32
  -9   2   0  -52.48  107.56
   9  -2   0  -25.96   77.89
   9   2   0  -71.75   84.65
  -9  -3   0  -22.09   98.82
  -9  -3   0  126.94  105.07
  -9   3   0  -36.65   94.72
  -9   3   0   13.51  131.87
   9  -3   0   22.25   69.64
   9   3   0    5.04   81.99
  -9  -4   0   87.08   83.43
  -9  -4   0   65.88  105.41
  -9   4   0   53.15   86.64
  -9   4   0  -44.79  106.84
   9  -4   0   97.38   83.87
   9   4   0  109.34   76.56
  -9  -5   0  -72.69   90.13
  -9  -5   0  157.94  105.68
  -9   5   0  -32.99  109.34
  -9   5   0  -54.58  109.67
   9  -5   0    3.88   84.70
   9   5   0   44.12   77.50
  -9  -6   0   16.33   93.12
  -9  -6   0  -59.12  107.12
  -9   6   0   14.89  113.10
  -9   6   0  -84.15  112.55
   9  -6   0   49.99   86.36
   9   6   0  -52.92   78.61
  -9  -7   0   93.72  102.69
  -9  -7   0   19.98  114.10
  -9   7   0  -43.46  101.09
  -9   7   0   45.84  107.56
   9  -7   0   80.99   84.26
   9   7   0  -38.09   85.64
  -9  -8   0  102.36   96.44
  -9  -8   0    2.71  117.70
  -9   8   0  -87.91   87.97
  -9   8   0    0.22  102.97
   9  -8   0   65.21   82.93
   9   8   0   65.99   86.47
  -9  -9   0  -11.35  103.69
  -9  -9   0  -13.18  113.93
  -9   9   0   -3.27  104.74
  -9   9   0   23.69  104.30
   9  -9   0   73.46   83.59
   9   9   0  -41.80   92.62
  -9 -10   0  -13.73  119.74
  -9 -10   0 -121.85  116.53
  -9  10   0   36.48  100.26
  -9  10   0  -64.22  101.47
   9 -10   0  122.40   86.20
   9  10   0  102.58   96.55
  -9 -11   0   65.66  117.64
  -9  11   0   19.21   99.81
  -9  11   0   13.45  113.93
   9 -11   0  -18.88   84.20
   9  11   0  -51.65   88.91
  -9 -12   0    0.44  123.56
  -9  12   0  -10.57   94.78
  -9  12   0   74.79  111.22
   9 -12   0  165.75   86.58
   9  12   0  114.26   97.65
 -10   0   0  302.76  142.22
 -10   0   0  464.19  132.75
  10   0   0  491.65  104.46
 -10  -1   0  220.00  122.62
 -10  -1   0  134.91  126.88
 -10   1   0  223.99  117.70
 -10   1   0  233.34  114.65
  10  -1   0  203.67   95.39
  10   1   0  287.10  101.64
 -10  -2   0  390.18  124.89
 -10  -2   0  573.09  125.33
 -10   2   0  432.75  118.75
 -10   2   0  618.26  121.18
  10  -2   0  611.40   94.61
  10   2   0  539.76  106.51
 -10  -3   0  249.18  142.05
 -10  -3   0  366.81  123.56
 -10   3   0  224.10  108.78
 -10   3   0  197.30  116.86
  10  -3   0  215.13   87.14
  10   3   0  396.82   96.66
 -10  -4   0  505.82  110.94
 -10  -4   0  405.35  128.10
 -10   4   0  230.41  124.34
 -10   4   0  447.75  148.36
  10  -4   0  383.59   88.85
  10   4   0  296.51   87.19
 -10  -5   0  268.38  110.83
 -10  -5   0  206.16  117.64
 -10   5   0  163.04  124.39
 -10   5   0  270.77  126.39
  10  -5   0  170.12   92.89
  10   5   0  277.96   93.23
 -10  -6   0  237.05  158.50
 -10  -6   0  351.98  120.96
 -10   6   0  330.94  116.98
 -10   6   0  401.64  124.78
  10  -6   0  312.12  101.36
  10   6   0  289.20   97.49
 -10  -7   0  187.61  127.72
 -10   7   0  229.91  132.42
 -10   7   0   87.25  122.68
  10  -7   0   90.35   95.99
  10   7   0   67.26   94.06
 -10  -8   0  319.59  138.18
 -10   8   0  254.27  113.65
 -10   8   0   62.22  123.07
  10  -8   0  204.67   99.76
  10   8   0  261.91   98.93
 -10   9   0  -89.74  118.86
   0   2  -1   22.64   28.51
   0   2  -1   65.16   30.17
   0  -2   1  -27.07   29.73
   0  -2   1   35.54   32.66
   0  -3  -1  327.40   28.34
   0   3  -1  345.50   41.58
   0   3  -1  213.80   39.25
   0   3  -1  271.04   36.04
   0  -3   1  376.72   40.25
   0  -3   1  265.67   39.97
   0   3   1  382.32   31.89
   0  -4  -1  -25.74   34.38
   0   4  -1   24.30   45.56
   0   4  -1   -9.02   52.92
   0  -4   1  -26.24   44.84
   0  -4   1   18.16   46.39
   0  -4   1   -4.54   39.25
   0   4   1  -81.99   37.09
   0   4   1  -46.39   37.98
   0  -5  -1 4184.60   64.27
   0   5  -1 3930.22   74.79
   0  -5   1 3888.37   74.85
   0  -5   1 3360.46   75.90
   0  -5   1 3955.69   71.25
   0   5   1 3889.04   64.94
   0   5   1 3826.04   67.98
   0  -6  -1   27.24   44.18
   0  -6  -1  -38.75   61.34
   0   6  -1   20.59   47.39
   0  -6   1    7.70   53.64
   0  -6   1  -38.53   49.99
   0  -6   1   10.96   46.28
   0   6   1  -54.25   45.62
   0   6   1  -12.95   50.05
   0  -7  -1 1983.27   67.59
   0  -7  -1 2192.36   85.03
   0   7  -1 1818.80   74.68
   0  -7   1 1594.86   77.89
   0  -7   1 1681.78   76.84
   0  -7   1 2053.30   74.02
   0   7   1 1814.86   68.09
   0   7   1 1792.67   72.36
   0   7   1 1988.86   77.78
   0  -8  -1  -32.33   49.16
   0  -8  -1 -112.21   64.16
   0   8  -1  -92.78   50.93
   0  -8   1  -39.80   53.81
   0  -8   1  -40.91   56.85
   0  -8   1   -5.31   49.77
   0   8   1  -74.29   53.75
   0   8   1  -12.79   54.81
   0   8   1   -1.33   57.41
   0   8   1  -37.70   59.40
   0  -9  -1 2365.25   75.51
   0  -9  -1 2541.96   95.16
   0   9  -1 2153.39   82.60
   0  -9   1 2241.97   82.26
   0  -9   1 1936.05   79.39
   0   9   1 1799.81   74.35
   0   9   1 2547.61   81.77
   0   9   1 1885.45   81.32
   0   9   1 2486.60   82.43
   0 -10  -1  -45.06   47.55
   0 -10  -1  -52.76   68.37
   0  10  -1  -59.24   58.46
   0 -10   1  -30.56   55.86
   0 -10   1  -42.18   52.59
   0  10   1  -17.27   53.59
   0  10   1  -19.27   58.52
   0  10   1  -63.66   61.06
   0  10   1  -76.78   58.74
   0 -11  -1  373.02   52.15
   0 -11  -1  544.41   74.29
   0  11  -1  378.44   61.89
   0  11  -1  413.32   76.56
   0 -11   1  499.51   61.34
   0 -11   1  384.53   59.18
   0  11   1  539.93   62.45
   0  11   1  377.94   59.84
   0  11   1  369.36   64.94
   0  11   1  541.36   64.16
   0 -12  -1    4.87   51.43
   0 -12  -1   71.64   67.87
   0  12  -1  -29.78   61.62
   0  12  -1  -32.77   73.30
   0 -12   1  -27.68   55.75
   0 -12   1  -34.16   54.14
   0  12   1  -19.87   56.08
   0  12   1  -57.85   57.85
   0  12   1   28.40   62.83
   0  12   1  -34.49   59.35
   0 -13  -1  959.50   76.34
   0 -13  -1  983.58   95.00
   0  13  -1  708.16   81.66
   0  13  -1  817.78   82.49
   0 -13   1  712.98   78.61
   0 -13   1  762.64   66.38
   0  13   1  700.14   78.00
   0  13   1  672.29   75.51
   0  13   1  631.49   67.82
   0  13   1 1019.18   83.04
   0 -14  -1  -48.50   53.64
   0 -14  -1  -25.80   75.12
   0  14  -1  -87.47   63.66
   0  14  -1   30.01   77.56
   0 -14   1    0.06   60.29
   0 -14   1   13.67   56.30
   0  14   1  -10.24   60.56
   0  14   1  -80.00   62.34
   0  14   1  -59.73   64.27
   0  14   1  -66.38   63.44
   0 -15  -1  788.38   81.99
   0 -15  -1  991.22  104.08
   0  15  -1  896.33   90.57
   0  15  -1  856.58   88.47
   0 -15   1  798.95   85.75
   0 -15   1  634.65   68.76
   0  15   1  722.95   83.81
   0  15   1  933.92   82.54
   0  15   1  556.92   69.92
   0  15   1  965.64   89.90
   0 -16  -1   66.71   62.17
   0  16  -1   23.31   67.43
   0  16  -1  -10.57   81.82
   0 -16   1  -23.25   59.35
   0 -16   1   17.16   59.90
   0  16   1   43.29   65.60
   0  16   1   87.47   69.86
   0  16   1 -127.38   68.81
   0  16   1  125.61   69.75
   0 -17  -1   86.14   62.67
   0  17  -1   51.93   70.31
   0  17  -1  181.91   81.21
   0 -17   1  163.09   64.55
   0 -17   1   77.61   64.83
   0  17   1   92.73   70.03
   0  17   1  118.91   72.47
   0  17   1  135.96   72.24
   0  17   1  263.73   75.23
   0 -18  -1    7.58   66.43
   0  18  -1   22.09   73.24
   0  18  -1   80.05   84.98
   0 -18   1   -3.27   65.82
   0 -18   1  -11.40   65.71
   0  18   1   24.97   71.36
   0  18   1   24.30   76.18
   0  18   1    5.92   76.34
   0 -19  -1   70.64   74.63
   0  19  -1   19.38   73.35
   0  19  -1   11.13   75.79
   0 -19   1   -6.37   66.38
   0 -19   1  -10.13   71.64
   0  19   1   -7.14   75.34
   0  19   1    3.43   77.89
   0  20  -1    9.25   77.45
   0  20  -1   18.27   80.27
   0 -20   1  -54.97   71.08
   0 -20   1  -23.14   73.91
   0  20   1    9.41   77.23
   0  20   1  -46.17   81.16
   0  21  -1  -44.90   81.66
   0  21  -1  -45.56   82.98
   0 -21   1   46.23   74.90
   0 -21   1  -26.46   71.03
   0  21   1  -31.33   81.27
   0  21   1   37.87   84.31
   0  22  -1   54.58   87.25
   0  22  -1  -89.46   86.92
   0 -22   1   45.06   84.48
   0 -22   1   75.40   76.06
   0  22   1  -62.72   81.71
   0  22   1  -41.24   87.36
  -1   0  -1    9.52   18.10
  -1   0  -1    4.65   27.68
   1   0  -1   20.10   30.28
   1   0  -1    4.82   30.72
  -1   0   1   -6.75   30.17
  -1   0   1    4.10   28.29
   1   0   1    6.37   25.30
   1   0   1  -39.86   26.13
  -1   1  -1 4271.30   41.96
   1   1  -1 6248.92   54.64
   1  -1   1 5404.51   45.23
  -1  -2  -1  353.58   30.12
  -1   2  -1  257.98   25.13
  -1   2  -1  486.89   46.89
   1  -2  -1  413.10   41.02
   1  -2  -1  468.29   44.07
   1   2  -1  548.28   43.73
   1   2  -1  428.65   50.82
   1   2  -1  395.82   49.05
  -1  -2   1  530.07   42.13
  -1  -2   1  410.05   48.22
  -1  -2   1  450.13   44.68
  -1   2   1  315.11   37.92
  -1   2   1  376.28   44.34
   1  -2   1  328.17   36.76
   1  -2   1  418.36   46.45
   1   2   1  431.70   39.97
  -1  -3  -1   39.97   37.87
  -1   3  -1  148.42   43.96
  -1   3  -1  102.86   51.37
   1  -3  -1   86.64   28.23
   1   3  -1   67.76   51.15
   1   3  -1   14.84   46.83
  -1  -3   1  114.32   48.66
  -1  -3   1   90.68   44.90
  -1  -3   1   97.43   52.32
  -1   3   1   50.88   26.41
  -1   3   1  169.95   39.64
   1  -3   1   70.81   29.78
   1  -3   1  124.62   41.30
   1   3   1   61.01   39.47
   1   3   1   78.56   39.19
  -1  -4  -1  921.13   60.62
  -1   4  -1 1032.35   61.17
  -1   4  -1  900.76   76.23
   1  -4  -1  687.18   45.01
   1   4  -1  905.58   67.32
  -1  -4   1  858.63   70.75
  -1  -4   1  908.35   70.81
  -1  -4   1  875.74   73.30
  -1   4   1  528.80   45.84
  -1   4   1  858.36   59.57
   1  -4   1  939.57   66.60
   1   4   1  751.84   57.30
   1   4   1  797.79   59.12
  -1  -5  -1 7798.28   80.22
  -1   5  -1 7849.15   89.35
   1  -5  -1 5073.90   64.16
   1   5  -1 7800.55   92.78
  -1  -5   1 7330.98   90.24
  -1  -5   1 7617.64   94.94
  -1   5   1 7154.33   78.17
   1  -5   1 7013.11   86.75
   1   5   1 7273.69   79.66
   1   5   1 6964.17   78.89
  -1  -6  -1  165.08   52.04
  -1  -6  -1  135.85   60.67
  -1   6  -1  124.78   58.96
  -1   6  -1  113.27   61.01
   1   6  -1   99.26   54.47
  -1  -6   1   79.94   58.57
  -1  -6   1  131.31   56.19
  -1  -6   1  131.65   62.11
  -1   6   1   93.39   53.09
  -1   6   1  140.89   51.93
  -1   6   1  107.23   55.75
   1  -6   1   93.61   56.41
   1  -6   1  114.71   53.59
   1  -6   1  104.96   53.70
   1   6   1  125.11   45.01
   1   6   1  146.87   52.70
  -1  -7  -1  809.86   69.14
  -1  -7  -1 1047.96   87.52
  -1   7  -1  870.98   77.67
  -1   7  -1  797.29   87.69
   1   7  -1  913.05   78.56
  -1  -7   1  843.35   77.23
  -1  -7   1  894.89   78.11
  -1  -7   1  838.09   83.65
  -1   7   1  915.04   69.26
  -1   7   1  834.61   69.03
  -1   7   1  813.02   75.95
  -1   7   1  951.03   73.13
   1  -7   1  831.34   76.12
   1  -7   1  701.19   72.69
   1  -7   1  829.79   71.30
   1   7   1  763.58   67.37
   1   7   1  876.74   69.37
   1   7   1  955.51   75.34
  -1  -8  -1  168.57   54.03
  -1  -8  -1  325.07   74.35
  -1   8  -1  202.06   61.45
  -1   8  -1  186.51   67.98
   1  -8  -1  232.46   50.21
   1   8  -1  164.86   57.57
  -1  -8   1  207.38   65.55
  -1  -8   1  187.95   57.30
  -1  -8   1  235.17   70.75
  -1   8   1  166.85   52.09
  -1   8   1  230.30   54.97
  -1   8   1  120.96   59.24
  -1   8   1  206.82   57.19
   1  -8   1  191.38   61.23
   1  -8   1  186.90   59.79
   1  -8   1  169.51   53.03
   1   8   1   93.78   56.97
   1   8   1  213.47   56.36
   1   8   1  161.26   52.81
   1   8   1  115.70   61.01
  -1  -9  -1 1060.20   74.18
  -1  -9  -1 1213.43   93.61
  -1   9  -1  763.58   79.05
  -1   9  -1  863.78   72.13
   1  -9  -1 1031.52   80.88
   1   9  -1  825.86   82.32
  -1  -9   1  839.92   75.34
  -1  -9   1 1075.15   93.06
  -1   9   1  827.41   78.61
  -1   9   1  824.70   69.59
  -1   9   1  731.97   80.00
  -1   9   1  993.21   80.49
   1  -9   1  827.69   77.95
   1  -9   1  914.21   78.56
   1   9   1  780.35   75.84
   1   9   1 1129.67   75.23
   1   9   1  628.56   76.51
   1   9   1 1220.02   81.93
  -1 -10  -1   96.99   56.85
  -1 -10  -1   74.02   74.18
  -1  10  -1   -5.59   62.50
  -1  10  -1   21.42   62.34
   1 -10  -1   18.27   54.75
   1  10  -1   28.40   65.49
  -1 -10   1  -28.68   56.52
  -1 -10   1   37.37   72.74
  -1  10   1   12.79   62.94
  -1  10   1   26.24   48.44
  -1  10   1   47.28   64.99
  -1  10   1  -23.20   60.45
   1 -10   1  -64.88   56.91
   1 -10   1  -22.92   56.13
   1  10   1    4.82   59.57
   1  10   1   28.40   57.13
   1  10   1   16.77   56.08
   1  10   1  122.46   67.87
  -1 -11  -1  126.50   61.73
  -1 -11  -1   88.91   76.40
  -1  11  -1   59.35   60.56
  -1  11  -1   53.87   64.27
   1 -11  -1  147.98   57.41
   1  11  -1  131.65   67.10
  -1 -11   1  138.62   60.23
  -1  11   1  129.99   64.33
  -1  11   1   71.75   51.43
  -1  11   1   49.33   64.11
  -1  11   1  134.47   63.66
   1 -11   1  105.79   59.12
   1 -11   1   42.74   54.70
   1  11   1   80.27   62.28
   1  11   1  158.88   59.57
   1  11   1   64.05   57.08
   1  11   1  137.13   69.64
  -1 -12  -1  -16.72   62.56
  -1 -12  -1  -29.34   77.23
  -1  12  -1   -1.16   63.22
  -1  12  -1   -5.98   64.83
   1 -12  -1   14.12   56.30
   1 -12  -1   -0.61   51.71
   1  12  -1    5.59   64.99
  -1 -12   1  -49.93   63.28
  -1  12   1   29.23   63.77
  -1  12   1  -25.96   52.43
  -1  12   1   -6.03   65.27
  -1  12   1   51.48   63.89
   1 -12   1   22.86   58.63
   1 -12   1   40.41   57.08
   1  12   1   12.79   61.95
   1  12   1   46.28   59.68
   1  12   1   -2.88   56.19
   1  12   1  -17.83   69.37
  -1 -13  -1   62.89   62.83
  -1 -13  -1  150.91   76.67
  -1  13  -1  109.56   66.87
  -1  13  -1   92.56   69.42
   1 -13  -1  196.97   59.29
   1 -13  -1  170.51   54.64
   1  13  -1  111.88   69.81
  -1 -13   1  131.65   67.65
  -1  13   1  154.23   66.76
  -1  13   1  147.76   57.46
  -1  13   1   36.04   67.32
  -1  13   1  196.20   66.65
   1 -13   1  113.38   61.89
   1 -13   1  182.24   59.73
   1  13   1  157.83   66.82
   1  13   1  145.60   60.40
   1  13   1   74.07   59.51
   1  13   1  177.32   73.19
  -1 -14  -1  -22.14   64.16
  -1 -14  -1   17.00   78.22
  -1  14  -1   28.01   66.71
  -1  14  -1   28.40   68.54
   1 -14  -1   -2.60   60.01
   1 -14  -1   43.85   53.98
   1  14  -1   96.05   71.91
  -1 -14   1   14.28   67.98
  -1  14   1   46.23   65.93
  -1  14   1   -7.20   57.02
  -1  14   1  -44.90   66.71
  -1  14   1   75.23   68.15
   1 -14   1   87.91   63.05
   1 -14   1  -35.98   59.73
   1  14   1  -11.18   66.71
   1  14   1  111.94   61.50
   1  14   1   -4.10   61.56
   1  14   1   14.62   73.74
  -1 -15  -1   63.72   67.43
  -1 -15  -1    5.76   80.94
  -1  15  -1   78.50   69.20
  -1  15  -1   67.98   70.20
   1 -15  -1  115.09   64.88
   1 -15  -1  -46.11   54.53
   1  15  -1   29.62   74.57
  -1 -15   1   45.01   73.24
  -1  15   1   -4.04   68.04
  -1  15   1   26.46   55.80
  -1  15   1   71.47   71.58
  -1  15   1   15.61   69.53
   1 -15   1    9.58   65.66
   1 -15   1   43.96   60.51
   1  15   1  -44.40   61.95
   1  15   1  105.29   63.05
   1  15   1   67.43   63.33
   1  15   1   38.09   77.17
  -1 -16  -1    1.05   67.21
  -1 -16  -1   27.74   81.66
  -1  16  -1  -63.05   69.92
  -1  16  -1   -2.60   73.46
   1 -16  -1   68.70   67.87
   1 -16  -1  -18.93   57.08
   1  16  -1  -70.47   66.65
  -1 -16   1   -1.55   75.68
  -1  16   1   12.18   70.69
  -1  16   1    2.99   58.79
  -1  16   1  -60.84   68.92
  -1  16   1   94.83   73.63
   1 -16   1  -18.55   64.27
   1 -16   1   30.01   64.72
   1  16   1   69.31   63.44
   1  16   1  135.69   67.54
   1  16   1   42.79   69.81
   1  16   1   54.64   75.90
  -1 -17  -1   95.77   70.14
  -1 -17  -1  -42.90   85.31
  -1  17  -1  -16.83   72.58
  -1  17  -1   83.26   78.50
   1 -17  -1   24.69   70.14
   1 -17  -1   49.66   59.57
   1  17  -1   14.56   67.37
   1  17  -1    6.48   84.20
  -1 -17   1   29.62   69.42
  -1  17   1  102.25   75.18
  -1  17   1  -21.87  105.35
  -1  17   1   31.22   76.23
  -1  17   1   83.70   77.61
   1 -17   1   63.55   70.58
   1 -17   1   44.01   66.71
   1  17   1  -77.12   64.61
   1  17   1  149.69   71.30
   1  17   1   59.40   67.82
   1  17   1  120.13   81.93
  -1 -18  -1   75.95   67.10
  -1 -18  -1  140.28   87.41
  -1  18  -1    6.42   77.84
  -1  18  -1   61.67   79.94
   1 -18  -1  -16.33   72.08
   1 -18  -1   15.78   65.55
   1  18  -1   -9.80   69.86
   1  18  -1  -27.68   88.80
  -1 -18   1  -15.50   74.24
  -1  18   1    4.04   78.00
  -1  18   1   76.23   78.45
  -1  18   1  141.78   82.10
   1 -18   1   -1.49   70.14
   1 -18   1   60.45   69.59
   1  18   1  -25.63   68.65
   1  18   1    5.31   70.42
   1  18   1  106.90   88.58
  -1 -19  -1   29.40   73.57
  -1 -19  -1   24.14   94.17
  -1  19  -1  -63.05   78.28
  -1  19  -1  -11.46   81.27
   1 -19  -1   14.84   79.22
   1 -19  -1    2.05   69.53
   1  19  -1   13.34   71.53
   1  19  -1   96.44   91.79
  -1 -19   1   -8.36   73.02
  -1  19   1  -32.83   79.55
  -1  19   1   50.99   79.44
   1 -19   1   52.65   75.79
   1 -19   1   43.90   69.03
   1  19   1    9.25   72.63
   1  19   1  -16.72   74.18
  -1 -20  -1    1.49   95.72
  -1  20  -1  -47.50   81.16
  -1  20  -1   56.47   87.52
   1 -20  -1   48.55   72.96
   1  20  -1  -50.16   74.35
   1  20  -1  -30.39   92.67
  -1 -20   1  -84.26   74.85
  -1 -20   1   -5.20   69.26
  -1  20   1   24.91   83.98
  -1  20   1    5.54   83.04
   1 -20   1    9.91   76.51
   1 -20   1  -15.78   74.74
   1  20   1   10.46   76.73
   1  20   1   29.73   78.67
  -1 -21  -1  132.70  107.56
  -1  21  -1  116.31   88.13
  -1  21  -1  -50.71   85.75
   1 -21  -1  -10.96   73.85
   1  21  -1   26.02   80.49
   1  21  -1   75.62   95.33
  -1 -21   1  -29.12   78.78
  -1 -21   1   -8.58   72.02
  -1  21   1   32.77   86.75
  -1  21   1  -82.87   85.92
   1 -21   1    5.70   86.97
   1 -21   1  -34.21   77.34
   1  21   1  -55.19   77.39
   1  21   1  -10.46   81.38
  -1  22  -1  -19.71   90.46
  -1  22  -1   -4.71   89.90
   1 -22  -1    5.59   79.00
   1  22  -1  -25.24   84.76
   1  22  -1   30.72   96.82
  -1 -22   1   13.34   81.93
  -1 -22   1  -16.50   71.58
  -1  22   1  -82.38   85.81
  -1  22   1  -81.10   88.30
   1 -22   1  -21.70   88.35
   1 -22   1   21.31   77.89
   1  22   1   14.01   78.94
   1  22   1  -31.89   83.26
  -2   0  -1 1349.90   65.21
  -2   0  -1 1392.36   64.61
   2   0  -1 1072.05   65.71
  -2   0   1  932.15   62.28
  -2   0   1 1211.77   63.72
  -2   0   1 1195.77   68.76
   2   0   1 1076.64   61.78
   2   0   1 1220.13   63.61
  -2  -1  -1  465.41   47.00
  -2   1  -1  514.85   59.57
  -2   1  -1  551.05   68.09
   2  -1  -1  437.79   46.95
   2   1  -1  404.85   44.34
  -2  -1   1  445.92   51.71
  -2  -1   1  576.30   51.26
  -2  -1   1  585.98   60.56
  -2   1   1  339.80   49.10
  -2   1   1  542.08   62.39
  -2   1   1  627.12   68.48
   2  -1   1  392.78   43.79
   2  -1   1  548.06   50.77
   2  -1   1  510.47   51.10
   2   1   1  436.90   48.61
   2   1   1  513.35   49.05
  -2  -2  -1  190.66   45.78
  -2  -2  -1  203.39   52.15
  -2   2  -1  174.99   50.27
  -2   2  -1  247.62   54.03
   2  -2  -1  181.80   44.68
   2   2  -1  196.97   51.76
  -2  -2   1  156.56   53.87
  -2  -2   1  166.41   51.54
  -2  -2   1  249.23   63.05
  -2   2   1   70.03   42.74
  -2   2   1  249.12   51.04
  -2   2   1  272.32   64.88
   2  -2   1  160.88   43.62
   2  -2   1  223.27   50.43
   2  -2   1  185.95   54.36
   2   2   1   74.18   39.58
   2   2   1  140.50   46.89
  -2  -3  -1  238.44   48.22
  -2  -3  -1  204.06   62.11
  -2   3  -1  410.55   56.41
  -2   3  -1  331.11   60.40
   2  -3  -1  267.06   47.22
   2   3  -1  196.14   54.03
  -2  -3   1  184.29   54.42
  -2  -3   1  257.42   54.64
  -2  -3   1  299.50   68.59
  -2   3   1  202.62   45.51
  -2   3   1  342.73   55.69
  -2   3   1  284.66   60.62
   2  -3   1  180.42   42.46
   2  -3   1  425.05   54.20
   2  -3   1  363.16   54.64
   2   3   1  150.36   47.28
   2   3   1  266.00   50.32
  -2  -4  -1 1485.64   69.81
  -2  -4  -1 1569.01   80.55
  -2   4  -1 1500.36   73.19
  -2   4  -1 1529.59   83.43
   2  -4  -1  918.70   59.35
   2  -4  -1 1301.79   70.81
   2   4  -1 1459.73   80.88
  -2  -4   1 1308.87   76.06
  -2  -4   1 1278.65   73.24
  -2  -4   1 1333.23   88.91
  -2   4   1  860.40   56.30
  -2   4   1 1386.77   68.76
  -2   4   1 1373.09   76.62
   2  -4   1 1024.05   57.13
   2  -4   1 1451.70   74.07
   2  -4   1 1283.52   77.61
   2   4   1  974.28   65.05
   2   4   1 1397.84   70.47
  -2  -5  -1  339.58   50.10
  -2  -5  -1  458.93   64.44
  -2   5  -1  315.83   59.18
  -2   5  -1  406.67   63.00
   2  -5  -1  250.17   42.57
   2  -5  -1  288.15   53.15
   2   5  -1  359.23   63.94
  -2  -5   1  324.85   60.45
  -2  -5   1  322.19   57.74
  -2  -5   1  249.18   71.30
  -2   5   1  184.68   36.26
  -2   5   1  293.35   55.58
  -2   5   1  172.28   44.07
  -2   5   1  234.34   59.57
   2  -5   1  202.34   37.98
   2  -5   1  265.34   59.57
   2  -5   1  287.87   59.95
   2   5   1  154.68   55.80
   2   5   1  284.61   55.64
   2   5   1  328.84   65.38
  -2  -6  -1  102.69   57.35
  -2  -6  -1   20.93   63.39
  -2   6  -1    3.88   58.07
  -2   6  -1  -21.20   62.83
   2  -6  -1   92.62   38.92
   2  -6  -1   91.68   48.27
   2   6  -1   47.94   66.27
  -2  -6   1   40.58   61.73
  -2  -6   1    2.77   60.40
  -2  -6   1   67.26   71.91
  -2   6   1   30.45   35.60
  -2   6   1   64.27   56.02
  -2   6   1   53.64   42.79
  -2   6   1   34.49   57.96
   2  -6   1    3.38   37.98
   2  -6   1   87.30   55.69
   2  -6   1   78.06   58.18
   2   6   1   56.52   58.02
   2   6   1  117.47   55.80
   2   6   1   32.99   57.24
  -2  -7  -1  509.48   64.55
  -2  -7  -1  456.61   70.81
  -2   7  -1  290.97   55.64
  -2   7  -1  372.79   66.65
   2  -7  -1  303.48   41.80
   2  -7  -1  322.31   52.04
   2   7  -1  406.56   65.44
  -2  -7   1  424.06   66.38
  -2  -7   1  451.29   68.87
  -2  -7   1  487.67   78.72
  -2   7   1  249.62   39.14
  -2   7   1  371.80   60.90
  -2   7   1  255.49   44.01
  -2   7   1  127.49   62.11
   2  -7   1  210.87   39.69
   2  -7   1  374.57   57.57
   2  -7   1  237.16   61.45
   2   7   1  323.52   63.94
   2   7   1  352.42   58.40
   2   7   1  333.99   61.50
  -2  -8  -1  596.28   73.96
  -2  -8  -1  732.19   75.40
  -2   8  -1  579.06   65.55
  -2   8  -1  524.09   72.30
   2  -8  -1  351.42   44.29
   2  -8  -1  581.45   55.91
   2   8  -1  550.00   66.16
  -2  -8   1  688.68   69.09
  -2  -8   1  771.50   82.10
  -2   8   1  681.54   64.55
  -2   8   1  487.17   44.84
  -2   8   1  316.33   66.87
   2  -8   1  448.58   52.81
   2  -8   1  608.29   67.26
   2  -8   1  533.56   62.50
   2   8   1  502.89   61.23
   2   8   1  516.23   60.40
  -2  -9  -1  245.58   58.96
  -2  -9  -1  289.98   75.51
  -2   9  -1  242.70   64.55
  -2   9  -1  240.04   68.31
   2  -9  -1  128.27   38.92
   2  -9  -1  233.45   54.92
   2   9  -1  217.29   65.99
  -2  -9   1  332.05   65.71
  -2  -9   1  330.44   77.12
  -2   9   1  270.32   60.56
  -2   9   1  280.56   60.62
  -2   9   1  167.91   67.32
   2  -9   1  161.93   65.05
   2   9   1  203.72   61.89
   2   9   1  338.64   62.72
   2   9   1  210.42   58.13
  -2 -10  -1  500.56   64.66
  -2 -10  -1  722.89   82.38
  -2  10  -1  506.93   68.04
  -2  10  -1  528.96   71.80
   2 -10  -1  403.63   47.00
   2 -10  -1  491.49   58.24
   2  10  -1  397.37   65.27
  -2 -10   1  505.05   66.93
  -2 -10   1  672.40   80.88
  -2  10   1  467.29   67.15
  -2  10   1  414.09   60.62
  -2  10   1  537.82   71.69
   2 -10   1  452.79   65.88
   2  10   1  328.28   57.30
   2  10   1  522.49   63.66
   2  10   1  292.74   61.01
  -2 -11  -1   52.87   57.96
  -2 -11  -1  114.87   80.77
  -2  11  -1   65.05   62.61
  -2  11  -1   95.39   68.37
   2 -11  -1   88.85   44.79
   2 -11  -1   57.85   56.91
   2  11  -1  163.20   63.22
  -2 -11   1  131.37   64.16
  -2 -11   1   93.28   76.95
  -2  11   1   -1.44   60.62
  -2  11   1   83.70   56.25
  -2  11   1  103.14   68.76
   2 -11   1   82.54   61.95
   2  11   1   66.49   55.47
   2  11   1   65.10   58.35
   2  11   1   88.41   64.27
   2  11   1   46.78   59.57
  -2 -12  -1  341.68   62.50
  -2 -12  -1  313.95   82.98
  -2  12  -1  243.97   65.21
  -2  12  -1  194.37   71.14
   2 -12  -1  250.95   59.57
   2  12  -1  272.48   65.27
  -2 -12   1  283.55   66.49
  -2 -12   1  248.01   79.61
  -2  12   1  264.79   63.61
  -2  12   1  311.62   60.23
  -2  12   1  190.33   68.76
   2 -12   1  244.75   63.94
   2  12   1  175.05   60.51
   2  12   1  190.33   56.52
   2  12   1  184.90   64.77
   2  12   1  198.13   65.32
  -2 -13  -1  650.42   77.39
  -2 -13  -1 1044.25  107.40
  -2  13  -1  782.18   84.37
  -2  13  -1  746.81   78.94
   2 -13  -1  735.90   66.27
   2  13  -1  897.16   89.13
  -2 -13   1  837.71   88.41
  -2 -13   1  938.74  102.42
  -2  13   1  831.17   83.43
  -2  13   1  880.56   77.17
  -2  13   1  656.62   74.68
  -2  13   1  968.91   84.15
   2 -13   1  796.91   80.55
   2 -13   1  483.51   63.94
   2  13   1  690.28   84.31
   2  13   1  755.94   75.84
   2  13   1  715.97   73.02
  -2 -14  -1  239.32   60.51
  -2 -14  -1  368.31   86.58
  -2  14  -1  252.33   66.93
  -2  14  -1  202.62   73.79
   2 -14  -1  230.74   62.22
   2  14  -1  285.10   73.91
  -2 -14   1  282.56   65.82
  -2 -14   1  242.70   77.56
  -2  14   1  239.04   69.59
  -2  14   1  197.36   61.34
  -2  14   1  230.41   72.63
  -2  14   1  260.86   68.37
   2 -14   1  296.01   64.11
   2 -14   1  102.03   61.45
   2  14   1  151.41   66.49
   2  14   1  288.87   62.28
   2  14   1  147.48   69.75
   2  14   1  163.64   71.69
  -2 -15  -1  338.14   68.26
  -2 -15  -1  495.58   90.29
  -2  15  -1  350.87   70.97
  -2  15  -1  412.71   78.17
   2 -15  -1  365.76   66.38
   2  15  -1  416.86   78.06
  -2 -15   1  362.83   70.47
  -2 -15   1  332.38   82.04
  -2  15   1  374.68   72.96
  -2  15   1  220.28   59.12
  -2  15   1  248.73   74.51
  -2  15   1  382.92   72.63
   2 -15   1  295.23   67.82
   2 -15   1  345.56   68.20
   2  15   1  161.37   70.31
   2  15   1  351.98   66.43
   2  15   1  249.40   71.30
   2  15   1  324.74   77.17
  -2 -16  -1   65.05   67.43
  -2 -16  -1   70.25   88.30
  -2  16  -1    9.91   75.51
  -2  16  -1   11.85   78.33
   2 -16  -1  102.97   64.44
   2  16  -1  -46.61   74.40
  -2 -16   1   28.01   66.32
  -2 -16   1   71.75   86.08
  -2  16   1   27.35   71.75
  -2  16   1  -39.47   76.84
  -2  16   1  143.44   72.58
   2 -16   1   90.46   75.62
   2 -16   1   77.89   65.38
   2  16   1   17.66   70.36
   2  16   1   32.88   65.44
   2  16   1  101.64   68.26
   2  16   1  101.70   79.61
  -2 -17  -1  217.29   74.90
  -2 -17  -1  218.89   89.74
  -2  17  -1  151.02   80.77
  -2  17  -1  186.01   81.93
   2 -17  -1  232.90   72.13
   2  17  -1  182.91   79.72
  -2 -17   1  224.60   76.56
  -2 -17   1  243.47   89.30
  -2  17   1  191.55   75.40
  -2  17   1  105.07   78.56
  -2  17   1  168.90   78.11
   2 -17   1  174.16   80.27
   2 -17   1  123.34   70.14
   2  17   1  181.53   75.23
   2  17   1  164.64   71.08
   2  17   1  121.79   67.76
   2  17   1  182.30   89.90
  -2 -18  -1  124.23   80.05
  -2 -18  -1   65.05   94.11
  -2  18  -1  107.18   82.26
  -2  18  -1   90.79   86.36
   2 -18  -1   45.78   69.31
   2  18  -1  104.35   80.49
  -2 -18   1  -15.39   77.06
  -2 -18   1  109.28   91.95
  -2  18   1   69.59   73.41
  -2  18   1   60.90   80.99
   2 -18   1  116.81   79.44
   2 -18   1   53.03   68.37
   2  18   1  -50.82   74.74
   2  18   1  -15.33   67.48
  -2 -19  -1  197.36   83.37
  -2 -19  -1   20.48   99.20
  -2  19  -1   54.09   85.25
  -2  19  -1   44.01   87.03
   2 -19  -1   81.93   75.18
   2  19  -1   47.61   83.21
  -2 -19   1  150.58   82.87
  -2 -19   1   89.52   89.13
  -2  19   1   61.39   75.79
  -2  19   1   49.71   82.32
   2 -19   1   59.73   85.48
   2 -19   1  109.67   73.41
   2  19   1   58.52   80.49
   2  19   1   83.32   71.03
  -2 -20  -1  -32.66  102.80
  -2  20  -1   -9.74   87.08
  -2  20  -1    5.87   88.91
   2 -20  -1   65.38   77.12
   2  20  -1   15.45   85.48
  -2 -20   1   48.61   89.30
  -2  20   1   67.32   77.84
  -2  20   1   -6.70   86.75
   2 -20   1   25.35   85.20
   2 -20   1   24.69   70.36
   2  20   1   37.31   86.14
   2  20   1   10.13   75.46
  -2 -21  -1   81.32  109.67
  -2  21  -1   13.40   91.68
  -2  21  -1  -31.56   91.95
   2 -21  -1  -66.16   77.56
   2  21  -1  -73.46   91.29
   2  21  -1   71.86   99.37
  -2 -21   1   74.29   92.67
  -2  21   1   -9.47   78.78
  -2  21   1    3.88   88.91
   2 -21   1   10.02   90.68
   2 -21   1  -15.22   76.62
   2  21   1   -3.60   78.67
   2  21   1  -47.17   77.61
  -2  22  -1   65.21   95.22
  -2  22  -1  -17.66   93.89
   2 -22  -1   31.78   94.61
   2  22  -1  122.40   87.19
   2  22  -1   76.40   97.71
  -2 -22   1  115.48   98.98
  -2  22   1   -3.49   80.27
  -2  22   1   44.62   90.40
   2 -22   1   43.57   95.83
   2 -22   1   63.17   80.88
   2  22   1   42.52   77.78
   2  22   1  -41.69   83.43
  -3   0  -1    1.22   53.92
  -3   0  -1   57.80   60.56
   3   0  -1 -112.16   54.36
  -3   0   1   -3.49   53.70
  -3   0   1  -52.04   55.19
  -3   0   1   33.71   62.39
   3   0   1  -33.27   49.88
   3   0   1  -26.52   55.64
   3   0   1  -11.40   53.42
  -3  -1  -1 5932.43   87.25
  -3  -1  -1 6767.47   96.16
  -3   1  -1 6135.04   88.74
  -3   1  -1 6258.72   95.11
   3  -1  -1 5338.03   87.47
   3   1  -1 4674.76   87.14
  -3  -1   1 4060.15   86.86
  -3  -1   1 5593.29   88.13
  -3  -1   1 5428.37   94.83
  -3   1   1 3724.45   82.82
  -3   1   1 5610.56   88.08
  -3   1   1 5681.76   99.04
   3  -1   1 5057.02   83.87
   3  -1   1 5505.49   81.49
   3  -1   1 5898.32   87.47
   3   1   1 4977.58   81.55
   3   1   1 5705.73   85.64
   3   1   1 5786.77   86.31
  -3  -2  -1   70.64   54.92
  -3  -2  -1   49.21   66.93
  -3   2  -1  123.62   53.09
  -3   2  -1   23.31   63.94
   3  -2  -1   80.83   52.43
   3   2  -1   81.71   53.92
  -3  -2   1   68.09   57.13
  -3  -2   1   74.29   56.30
  -3  -2   1   83.26   65.49
  -3   2   1   46.34   50.93
  -3   2   1   32.05   54.20
  -3   2   1   26.07   67.82
   3  -2   1   57.13   49.99
   3  -2   1   87.75   54.58
   3  -2   1   63.61   54.70
   3   2   1   34.60   54.36
   3   2   1   58.85   51.37
   3   2   1   31.50   54.58
  -3  -3  -1 2822.08   74.63
  -3  -3  -1 3605.70  102.69
  -3   3  -1 3324.36   85.25
  -3   3  -1 3323.81   93.61
   3  -3  -1 2450.56   80.55
   3   3  -1 2996.36   83.98
  -3  -3   1 2699.13   81.82
  -3  -3   1 2957.22   83.93
  -3  -3   1 3111.50   96.22
  -3   3   1 2089.39   74.51
  -3   3   1 2949.02   80.49
  -3   3   1 3138.80  113.99
   3  -3   1 2309.56   76.62
   3  -3   1 3058.58   81.10
   3  -3   1 3106.91   90.57
   3   3   1 2361.88   73.91
   3   3   1 2665.75   74.68
   3   3   1 3411.39   84.26
  -3  -4  -1  600.43   70.97
  -3  -4  -1  855.81   78.72
  -3   4  -1  756.44   75.95
  -3   4  -1  785.50   72.41
   3  -4  -1  547.07   54.92
   3   4  -1  708.88   66.65
  -3  -4   1  534.00   60.90
  -3  -4   1  714.03   64.05
  -3  -4   1  756.27   73.79
  -3   4   1  412.99   51.93
  -3   4   1  631.99   56.41
  -3   4   1  615.44   72.96
   3  -4   1  479.20   54.25
   3  -4   1  615.27   59.12
   3  -4   1  691.11   66.21
   3   4   1  494.03   56.08
   3   4   1  543.75   55.97
   3   4   1  849.22   67.98
  -3  -5  -1  846.79   77.61
  -3  -5  -1  893.62   89.46
  -3   5  -1  692.39   76.56
  -3   5  -1  839.37   90.46
   3  -5  -1  577.68   70.47
   3   5  -1  707.78   79.22
  -3  -5   1  614.77   75.79
  -3  -5   1  781.18   77.06
  -3  -5   1  837.04   97.10
  -3   5   1  691.11   53.20
  -3   5   1  770.11   74.51
  -3   5   1  702.68   84.26
   3  -5   1  649.98   65.60
   3  -5   1  838.04   78.17
   3  -5   1  847.78   85.14
   3   5   1  661.94   72.74
   3   5   1  805.87   71.30
   3   5   1  794.19   90.18
  -3  -6  -1   59.79   54.75
  -3  -6  -1  -82.76   70.03
  -3   6  -1   36.59   60.84
  -3   6  -1   -0.66   68.87
   3  -6  -1   68.26   44.68
   3   6  -1   72.58   63.83
  -3  -6   1   37.48   69.14
  -3  -6   1   -6.98   55.19
  -3  -6   1   82.60   77.67
  -3   6   1   -3.04   37.59
  -3   6   1   49.05   57.74
  -3   6   1   -9.19   50.93
  -3   6   1   74.40   67.26
   3  -6   1   41.52   43.24
   3  -6   1   13.95   58.24
   3  -6   1   88.69   62.22
   3   6   1   23.25   61.28
   3   6   1   98.65   57.08
   3   6   1   36.37   74.68
  -3  -7  -1   65.77   56.47
  -3  -7  -1   33.49   70.31
  -3   7  -1   22.14   64.77
  -3   7  -1    4.71   69.20
   3  -7  -1   68.81   46.34
   3  -7  -1   68.81   58.63
   3   7  -1   99.37   64.55
  -3  -7   1  109.34   58.63
  -3  -7   1   53.87   79.28
  -3   7   1   28.40   36.21
  -3   7   1    7.86   63.11
  -3   7   1   80.38   47.50
  -3   7   1   36.70   66.71
   3  -7   1   28.95   46.45
   3  -7   1   31.33   59.24
   3   7   1   -2.93   62.39
   3   7   1   80.99   58.57
   3   7   1   52.37   61.78
  -3  -8  -1   59.51   56.69
  -3  -8  -1   85.14   73.46
  -3   8  -1   69.64   67.15
  -3   8  -1   62.83   71.14
   3  -8  -1   52.15   42.63
   3  -8  -1   75.57   60.90
   3   8  -1   64.99   68.09
  -3  -8   1  128.88   63.72
  -3  -8   1  229.25   80.49
  -3   8   1   74.13   38.86
  -3   8   1   -3.76   62.06
  -3   8   1   30.28   47.00
  -3   8   1   55.08   68.20
   3  -8   1   45.01   42.35
   3   8   1   32.11   63.61
   3   8   1   70.09   56.58
   3   8   1  119.63   59.79
  -3  -9  -1   98.04   60.45
  -3  -9  -1   94.94   70.97
  -3   9  -1  -14.28   64.16
  -3   9  -1   51.04   71.53
   3  -9  -1   14.84   43.01
   3  -9  -1  105.63   60.40
   3   9  -1   99.48   72.63
  -3  -9   1   23.58   65.16
  -3  -9   1   72.63   82.04
  -3   9   1   43.73   38.42
  -3   9   1  109.34   63.83
  -3   9   1   44.79   48.00
  -3   9   1   51.04   71.64
   3  -9   1   16.28   41.74
   3   9   1   96.88   67.59
   3   9   1   89.90   58.96
   3   9   1  102.19   63.61
  -3 -10  -1   93.95   65.44
  -3 -10  -1  134.08   75.73
  -3  10  -1  107.95   63.28
  -3  10  -1  121.85   72.96
   3 -10  -1   28.46   42.29
   3 -10  -1   23.25   58.96
   3  10  -1  168.02   69.09
  -3 -10   1   76.51   67.76
  -3 -10   1  187.12   85.09
  -3  10   1   98.82   64.66
  -3  10   1   63.66   46.28
  -3  10   1   24.36   69.37
   3 -10   1   22.70   44.45
   3  10   1   95.27   64.49
   3  10   1   84.37   59.01
   3  10   1   43.62   62.89
  -3 -11  -1  174.61   64.55
  -3 -11  -1   62.45   80.55
  -3  11  -1  144.38   67.43
  -3  11  -1   58.46   72.74
   3 -11  -1   76.01   41.58
   3 -11  -1  111.44   59.18
   3  11  -1   84.31   68.15
  -3 -11   1  128.71   66.32
  -3 -11   1  194.31   83.21
  -3  11   1  115.48   63.11
  -3  11   1   25.02   45.56
  -3  11   1  -11.90   69.14
   3 -11   1   96.55   46.34
   3 -11   1   55.75   63.22
   3  11   1  154.90   63.72
   3  11   1  106.68   60.07
   3  11   1   94.67   60.12
  -3 -12  -1   43.57   63.94
  -3 -12  -1  -17.77   80.33
  -3  12  -1   -7.14   60.79
  -3  12  -1    3.76   74.07
   3 -12  -1    6.70   41.96
   3 -12  -1   44.84   57.41
   3  12  -1   30.84   67.43
  -3 -12   1   11.51   66.21
  -3 -12   1   55.14   83.15
  -3  12   1   44.62   63.17
  -3  12   1  -43.01   60.73
  -3  12   1   35.15   43.13
  -3  12   1  -63.61   71.47
   3 -12   1    2.60   40.58
   3 -12   1  -29.89   61.89
   3  12   1   59.12   64.72
   3  12   1  -12.29   59.95
   3  12   1    0.89   61.39
  -3 -13  -1   46.78   60.56
  -3 -13  -1  131.87   85.81
  -3  13  -1  -57.85   69.09
  -3  13  -1  -55.91   75.18
   3 -13  -1  -15.17   45.56
   3 -13  -1   51.87   58.74
   3  13  -1   37.59   64.16
  -3 -13   1    2.93   66.21
  -3 -13   1   65.21   85.42
  -3  13   1    3.43   64.61
  -3  13   1   -9.02   60.79
  -3  13   1    2.88   43.57
  -3  13   1   21.09   72.80
   3 -13   1  -14.45   43.24
   3 -13   1    0.61   64.88
   3  13   1  -30.06   57.74
   3  13   1   31.50   62.89
   3  13   1  -24.30   62.83
  -3 -14  -1   75.07   65.71
  -3 -14  -1    2.55   86.47
  -3  14  -1   -6.42   71.91
  -3  14  -1  -67.10   79.88
   3 -14  -1    4.04   42.24
   3 -14  -1   32.33   62.17
   3  14  -1   -2.88   66.54
  -3 -14   1  -10.08   66.87
  -3 -14   1  103.63   83.93
  -3  14   1   -3.04   65.10
  -3  14   1   -9.08   64.27
  -3  14   1   75.62   78.67
   3 -14   1   12.95   51.32
   3 -14   1  -29.12   69.81
   3  14   1   16.72   61.73
   3  14   1   46.67   64.99
   3  14   1   28.73   65.38
  -3 -15  -1   45.89   69.14
  -3 -15  -1   89.79   88.58
  -3  15  -1    5.65   72.80
  -3  15  -1   75.29   81.60
   3 -15  -1    9.96   45.23
   3 -15  -1   15.67   66.10
   3  15  -1  -27.74   68.76
  -3 -15   1   33.33   69.37
  -3 -15   1   86.31   87.19
  -3  15   1   46.50   66.38
  -3  15   1  -17.94   77.28
   3 -15   1   30.23   53.31
   3 -15   1   42.18   70.14
   3  15   1   24.14   63.61
   3  15   1   50.16   70.20
   3  15   1  109.00   71.86
  -3 -16  -1   33.22   66.49
  -3 -16  -1  -29.78   93.78
  -3  16  -1   32.11   73.85
  -3  16  -1  -76.18   83.70
   3 -16  -1   48.55   46.89
   3 -16  -1  -26.96   67.87
   3  16  -1   56.30   68.87
  -3 -16   1  -17.66   69.37
  -3 -16   1   33.88   89.35
  -3  16   1   11.63   66.10
  -3  16   1  -58.57   78.72
   3 -16   1  -28.01   53.09
   3 -16   1  -30.72   71.41
   3  16   1  -39.25   66.76
   3  16   1   52.20   73.41
   3  16   1  -51.82   74.90
   3  16   1  -31.00   72.52
  -3 -17  -1  197.19   73.57
  -3 -17  -1  301.38   99.81
  -3  17  -1  262.13   81.10
  -3  17  -1  186.40   91.07
   3 -17  -1  138.95   50.88
   3 -17  -1  167.41   73.19
   3  17  -1  279.07   79.22
  -3 -17   1  252.22   77.95
  -3 -17   1  241.98   93.89
  -3  17   1  228.69   83.37
  -3  17   1  108.51   86.03
   3 -17   1  139.34   60.45
   3 -17   1  167.30   79.83
   3  17   1  212.58   71.14
   3  17   1  212.47  112.33
   3  17   1  149.97   77.39
   3  17   1   83.10   88.80
  -3 -18  -1  125.61   72.47
  -3 -18  -1   41.41  104.13
  -3  18  -1  101.42   78.50
  -3  18  -1    7.70   92.23
   3 -18  -1  147.42   59.18
   3 -18  -1   19.43   71.30
   3  18  -1   27.46   80.55
  -3 -18   1   15.94   72.24
  -3 -18   1   66.76   96.44
  -3  18   1   96.66   80.38
  -3  18   1   22.59   85.20
   3 -18   1  -24.80   75.62
   3  18   1   29.73   78.89
   3  18   1   24.64   82.71
  -3 -19  -1  150.14  108.51
  -3  19  -1   19.38   82.76
  -3  19  -1   22.53   92.34
   3 -19  -1   36.09   59.79
   3 -19  -1   64.22   75.84
   3  19  -1   85.75   85.20
  -3 -19   1  143.94   76.06
  -3 -19   1   76.18   98.93
  -3  19   1   47.33   82.82
  -3  19   1    4.43   88.19
   3 -19   1  -12.23   82.38
   3  19   1  -37.53   78.78
   3  19   1   69.59   84.81
  -3 -20  -1   61.34  110.33
  -3  20  -1   -0.11   84.59
  -3  20  -1   -1.88   95.00
   3 -20  -1   11.07   77.61
   3  20  -1  -17.55   86.25
  -3 -20   1   -8.91   77.95
  -3 -20   1  125.39   95.88
  -3  20   1  -45.56   81.49
  -3  20   1   20.76   90.02
   3 -20   1   48.11   80.77
   3  20   1   51.82   84.37
   3  20   1   69.86   86.92
  -3  21  -1   86.69   89.96
  -3  21  -1  197.41   98.60
   3 -21  -1  133.31   82.93
   3  21  -1   58.68   90.79
  -3 -21   1  244.03   92.95
  -3 -21   1  136.30  101.59
  -3  21   1    3.49   85.14
  -3  21   1  125.67   92.73
   3 -21   1   70.47   86.80
   3  21   1  114.26   85.92
   3  21   1  135.58   84.87
  -3  22  -1   -9.69   99.48
  -3  22   1  -82.98   93.78
   3  22   1  -30.89   75.73
  -4   0  -1  390.95   63.22
  -4   0  -1  548.89   73.57
   4   0  -1  515.57   63.94
  -4   0   1  313.89   58.68
  -4   0   1  423.17   64.16
  -4   0   1  598.77   76.34
   4   0   1  378.50   54.64
   4   0   1  463.86   60.07
   4   0   1  495.08   63.33
  -4  -1  -1  398.31   60.40
  -4  -1  -1  519.33   71.75
  -4   1  -1  507.71   66.49
  -4   1  -1  447.31   71.36
   4  -1  -1  325.13   53.87
   4   1  -1  398.54   64.99
  -4  -1   1  264.40   60.45
  -4  -1   1  462.81   65.10
  -4  -1   1  518.72   73.57
  -4   1   1  306.31   57.63
  -4   1   1  373.24   63.17
  -4   1   1  565.67   79.88
   4  -1   1  315.66   59.12
   4  -1   1  497.69   57.52
   4  -1   1  480.19   61.89
   4   1   1  326.13   58.29
   4   1   1  486.95   61.23
   4   1   1  490.54   59.73
  -4  -2  -1  276.36   64.22
  -4  -2  -1  293.46   75.18
  -4   2  -1  284.49   66.65
  -4   2  -1  386.86   67.15
   4  -2  -1  200.02   60.40
   4   2  -1  202.17   52.37
  -4  -2   1  243.20   59.68
  -4  -2   1  330.83   60.12
  -4  -2   1  249.18   73.68
  -4   2   1  183.63   54.31
  -4   2   1  352.14   66.43
  -4   2   1  322.19   75.34
   4  -2   1  237.16   58.96
   4  -2   1  195.97   60.18
   4  -2   1  243.69   58.35
   4   2   1  176.04   62.50
   4   2   1  265.06   54.53
   4   2   1  336.92   59.07
  -4  -3  -1    4.76   57.19
  -4  -3  -1   40.41   71.91
  -4   3  -1   26.52   61.01
  -4   3  -1   14.01   70.92
   4  -3  -1  -10.46   53.42
   4   3  -1   -4.93   58.46
  -4  -3   1   52.15   59.95
  -4  -3   1   -2.60   58.90
  -4  -3   1  110.22   71.53
  -4   3   1   15.39   50.82
  -4   3   1   63.66   61.34
  -4   3   1  100.76   84.87
   4  -3   1   34.32   54.25
   4  -3   1   48.83   55.97
   4  -3   1  117.75   58.35
   4   3   1  -12.46   50.27
   4   3   1   -7.03   54.75
   4   3   1   60.67   60.56
  -4  -4  -1   40.30   56.85
  -4  -4  -1  133.69   80.49
  -4   4  -1   53.81   62.45
  -4   4  -1   54.47   72.36
   4  -4  -1   58.68   56.47
   4   4  -1   69.59   60.45
  -4  -4   1  118.97   60.73
  -4  -4   1   96.66   72.63
  -4   4   1   27.29   51.26
  -4   4   1  104.52   64.38
  -4   4   1    1.05   76.73
   4  -4   1   63.89   56.58
   4  -4   1   77.01   58.35
   4  -4   1   19.43   56.13
   4   4   1   23.42   57.57
   4   4   1   19.27   54.31
   4   4   1    0.66   63.89
  -4  -5  -1   55.03   57.74
  -4  -5  -1   -6.42   73.74
  -4   5  -1    3.32   61.01
  -4   5  -1   43.62   71.58
   4  -5  -1   20.43   53.26
   4   5  -1   -3.04   61.23
  -4  -5   1  -40.52   59.95
  -4  -5   1   48.55   72.47
  -4   5   1   33.33   43.07
  -4   5   1  -30.06   58.74
  -4   5   1  -30.23   72.02
   4  -5   1   -2.88   56.30
   4  -5   1   17.55   56.91
   4  -5   1  -39.53   65.05
   4   5   1  -16.94   58.46
   4   5   1    1.22   54.70
   4   5   1   22.92   78.33
  -4  -6  -1   13.56   56.25
  -4  -6  -1   45.23   70.42
  -4   6  -1    6.70   62.11
  -4   6  -1  -20.21   75.12
   4  -6  -1   12.46   53.59
   4   6  -1   44.01   63.66
  -4  -6   1  -31.67   60.84
  -4  -6   1   61.06   75.90
  -4   6   1   11.90   42.74
  -4   6   1    9.36   62.61
  -4   6   1   15.83   52.54
  -4   6   1  -54.53   68.81
   4  -6   1    5.48   54.03
   4  -6   1   17.16   58.18
   4   6   1    5.43   60.51
   4   6   1   31.89   54.09
   4   6   1   29.67   71.08
  -4  -7  -1  515.12   63.61
  -4  -7  -1  799.90   99.65
  -4   7  -1  668.75   72.58
  -4   7  -1  624.52   78.22
   4  -7  -1  499.79   58.46
   4   7  -1  576.24   74.46
  -4  -7   1  662.71   71.25
  -4  -7   1  652.53   83.54
  -4   7   1  353.03   48.55
  -4   7   1  541.64   66.43
  -4   7   1  190.94   54.53
  -4   7   1  461.98   75.79
   4  -7   1  438.73   55.80
   4   7   1  395.10   67.54
   4   7   1  576.68   63.39
   4   7   1  725.66   82.10
  -4  -8  -1  363.60   66.49
  -4  -8  -1  363.94   74.74
  -4   8  -1  269.88   69.48
  -4   8  -1  355.85   75.90
   4  -8  -1  258.86   53.48
   4   8  -1  222.93   71.03
  -4  -8   1  396.71   67.76
  -4  -8   1  343.56   83.70
  -4   8   1  174.27   42.74
  -4   8   1  359.62   65.38
  -4   8   1  119.85   53.53
  -4   8   1  165.14   70.81
   4  -8   1  161.93   51.26
   4   8   1  215.35   68.87
   4   8   1  307.08   61.50
   4   8   1  182.24   70.58
  -4  -9  -1  243.58   63.00
  -4  -9  -1  210.92   76.56
  -4   9  -1  293.41   69.14
  -4   9  -1  242.64   77.06
   4  -9  -1  134.03   50.21
   4   9  -1  221.72   70.47
  -4  -9   1  172.67   66.93
  -4  -9   1  242.97   83.81
  -4   9   1  138.90   40.63
  -4   9   1  248.29   67.76
  -4   9   1  122.18   50.71
  -4   9   1   55.69   70.58
   4  -9   1  185.62   50.21
   4   9   1  113.54   65.66
   4   9   1  219.17   61.95
   4   9   1  199.02   66.49
  -4 -10  -1  520.55   69.20
  -4 -10  -1  517.56   82.87
  -4  10  -1  460.04   71.53
  -4  10  -1  466.19   81.05
   4 -10  -1  308.41   54.58
   4 -10  -1  491.82   67.32
   4  10  -1  413.48   77.45
  -4 -10   1  454.73   70.36
  -4 -10   1  591.58   89.24
  -4  10   1  257.98   45.51
  -4  10   1  418.58   70.03
  -4  10   1  313.89   53.26
  -4  10   1  329.50   73.63
   4 -10   1  276.97   49.60
   4  10   1  268.72   71.14
   4  10   1  386.58   64.88
   4  10   1  426.94   66.43
  -4 -11  -1  390.84   65.27
  -4 -11  -1  377.55   79.66
  -4  11  -1  409.11   75.18
  -4  11  -1  243.86   79.66
   4 -11  -1  231.29   51.65
   4 -11  -1  290.97   67.48
   4  11  -1  349.71   79.61
  -4 -11   1  299.88   71.08
  -4 -11   1  422.40   88.08
  -4  11   1  204.28   44.51
  -4  11   1  227.36   68.20
  -4  11   1  233.78   53.98
  -4  11   1  225.76   72.85
   4 -11   1  226.70   51.26
   4  11   1  269.44   75.34
   4  11   1  291.86   64.88
   4  11   1  252.88   67.93
  -4 -12  -1  434.80   75.51
  -4 -12  -1  501.12   88.80
  -4  12  -1  472.77   78.33
  -4  12  -1  378.11   81.82
   4 -12  -1  246.30   51.26
   4 -12  -1  457.05   69.48
   4  12  -1  379.66   74.40
  -4 -12   1  567.83   79.22
  -4 -12   1  434.63   90.90
  -4  12   1  362.83   72.52
  -4  12   1  263.46   55.75
  -4  12   1  258.81   78.00
   4 -12   1  260.75   53.37
   4  12   1  309.79   77.17
   4  12   1  296.12   65.55
   4  12   1  350.54   72.63
  -4 -13  -1  353.42   74.07
  -4 -13  -1  569.82   91.84
  -4  13  -1  310.62   76.73
  -4  13  -1  511.64   83.93
   4 -13  -1  284.49   53.53
   4 -13  -1  480.03   76.67
   4  13  -1  406.23   76.62
  -4 -13   1  372.79   78.89
  -4 -13   1  501.56   96.82
  -4  13   1  296.56   74.24
  -4  13   1  310.13   75.62
  -4  13   1  269.88   79.00
   4 -13   1  273.48   53.15
   4  13   1  264.95   72.85
   4  13   1  461.76   71.58
   4  13   1  280.90   74.07
  -4 -14  -1  352.92   73.35
  -4 -14  -1  380.93   91.95
  -4  14  -1  281.23   78.61
  -4  14  -1  247.24   84.92
   4 -14  -1  181.36   52.26
   4 -14  -1  346.00   73.30
   4  14  -1  276.25   78.61
  -4 -14   1  227.03   75.23
  -4 -14   1  304.59   95.27
  -4  14   1  244.25   75.12
  -4  14   1  124.12   77.28
   4 -14   1  226.15   54.58
   4  14   1  219.45   73.24
   4  14   1  335.15   73.63
   4  14   1  189.83   70.47
  -4 -15  -1  364.32   77.34
  -4 -15  -1  411.21  100.31
  -4  15  -1  306.75   78.17
  -4  15  -1  345.34   89.79
   4 -15  -1  200.79   54.97
   4 -15  -1  369.42   76.40
   4  15  -1  359.45   80.99
  -4 -15   1  301.88   80.60
  -4 -15   1  370.41   98.65
  -4  15   1  283.00   78.45
  -4  15   1  118.53   80.60
   4 -15   1  215.07   54.97
   4  15   1  191.71   77.89
   4  15   1  243.92   75.51
   4  15   1  208.87   74.40
  -4 -16  -1  243.64   78.56
  -4 -16  -1  258.92  105.57
  -4  16  -1  228.47   80.49
  -4  16  -1  194.53   89.35
   4 -16  -1  118.91   56.58
   4 -16  -1   91.34   78.33
   4  16  -1  219.39   75.95
  -4 -16   1  220.50   78.50
  -4 -16   1  331.44  101.81
  -4  16   1  231.24   80.88
  -4  16   1   64.66   81.93
   4 -16   1  152.90   57.69
   4 -16   1  125.72   77.12
   4  16   1  155.73   69.09
   4  16   1  236.89  113.27
   4  16   1   83.59   76.29
  -4 -17  -1  112.71   78.33
  -4 -17  -1  123.40  107.29
  -4  17  -1  102.47   81.66
  -4  17  -1   33.55   90.07
   4 -17  -1   76.62   54.31
   4 -17  -1  169.90   80.55
   4  17  -1   11.63   76.67
  -4 -17   1  115.87   80.27
  -4 -17   1  128.55   96.55
  -4  17   1   33.77   80.33
  -4  17   1   61.12   84.09
   4 -17   1   16.83   54.42
   4 -17   1  100.92   80.94
   4  17   1   82.32   70.20
  -4 -18  -1  -75.95  109.06
  -4  18  -1   11.07   81.77
  -4  18  -1  -89.63   91.40
   4 -18  -1   29.73   60.45
   4 -18  -1  -25.30   76.45
   4  18  -1  -38.59   74.74
  -4 -18   1   47.78   82.93
  -4 -18   1   72.13   98.21
  -4  18   1   34.16   81.27
  -4  18   1   23.25   87.80
   4 -18   1  -15.67   56.52
   4 -18   1   -0.33   76.51
   4  18   1  -62.28   71.64
  -4 -19  -1   35.93  116.92
  -4  19  -1   41.52   84.20
  -4  19  -1   27.96   93.50
   4 -19  -1   65.82   83.04
   4  19  -1   34.43   77.56
  -4 -19   1   25.08   84.37
  -4 -19   1   43.07   99.76
  -4  19   1   69.37   82.87
  -4  19   1   -6.20   90.02
   4 -19   1  -48.33   55.30
   4 -19   1   70.69   84.15
   4  19   1   66.71   77.95
  -4 -20  -1  -17.72  123.95
  -4  20  -1   50.71   84.76
  -4  20  -1  -65.66   96.05
   4 -20  -1   29.62   86.97
   4  20  -1  -14.12   82.82
  -4 -20   1   49.27   89.46
  -4 -20   1  113.93  107.18
  -4  20   1   49.77   84.92
  -4  20   1   75.46   97.93
   4 -20   1   36.59   59.07
   4 -20   1  -84.37   87.97
   4  20   1   -6.64   79.16
   4  20   1   44.07   89.02
  -4  21  -1   96.38   89.02
  -4  21  -1   58.85   98.98
   4 -21  -1   37.81   87.86
   4  21  -1  -69.31   87.19
  -4 -21   1  142.72   97.32
  -4 -21   1  124.06  109.39
  -4  21   1  -28.84   85.48
  -4  21   1  -38.20   95.77
   4 -21   1   24.25   59.62
   4 -21   1   23.42   93.28
   4  21   1   57.30   84.76
   4  21   1   58.79   90.96
  -5   0  -1    5.04   60.01
  -5   0  -1   92.45   71.75
   5   0  -1   11.07   60.84
  -5   0   1  -18.10   64.44
  -5   0   1    4.04   73.74
   5   0   1   27.57   53.64
   5   0   1   41.41   57.13
   5   0   1    8.36   60.95
  -5  -1  -1 2171.38   88.19
  -5  -1  -1 2217.50  106.51
  -5   1  -1 1985.76   91.90
  -5   1  -1 2423.10  104.46
   5  -1  -1 1620.66   79.39
   5   1  -1 1921.82   91.51
  -5  -1   1 1887.44   89.35
  -5  -1   1 2280.39  102.97
  -5   1   1 1804.96  137.29
  -5   1   1 2074.95   86.08
  -5   1   1 2108.22  115.76
   5  -1   1 1818.74   87.36
   5  -1   1 2346.26   84.70
   5  -1   1 2061.33   86.47
   5   1   1 1631.18   85.75
   5   1   1 2171.16   84.26
   5   1   1 2048.82   80.66
  -5  -2  -1  216.13   64.49
  -5  -2  -1  196.97   78.72
  -5   2  -1  137.51   65.27
  -5   2  -1  178.48   74.57
   5  -2  -1  155.23   58.24
   5   2  -1  113.49   59.12
  -5  -2   1  129.65   60.18
  -5  -2   1  156.12   72.36
  -5   2   1  111.72   53.26
  -5   2   1  165.64   66.49
  -5   2   1  194.65   75.68
   5  -2   1  155.45   56.74
   5  -2   1  142.16   56.91
   5  -2   1  181.53   58.79
   5   2   1  102.47   64.49
   5   2   1  135.91   53.03
   5   2   1  165.75   59.24
  -5  -3  -1 1870.67   87.58
  -5  -3  -1 2314.16  103.36
  -5   3  -1 2305.08   93.89
  -5   3  -1 2134.84  101.03
   5  -3  -1 1525.83   85.70
   5   3  -1 1903.44   86.47
  -5  -3   1 1851.85   88.58
  -5  -3   1 2213.90  104.80
  -5   3   1 1407.47   76.01
  -5   3   1 2231.28   94.28
  -5   3   1 2073.62  107.34
   5  -3   1 1758.18   86.97
   5  -3   1 2361.93   86.64
   5  -3   1 2118.02   81.93
   5   3   1 1792.61   85.75
   5   3   1 2043.17   79.72
   5   3   1 2349.75   87.36
  -5  -4  -1   52.54   61.01
  -5  -4  -1  101.59   83.76
  -5   4  -1  -14.45   62.45
  -5   4  -1  100.04   70.36
   5  -4  -1  -12.62   53.81
   5   4  -1   14.45   57.63
  -5  -4   1  -73.24   59.68
  -5  -4   1  -10.57   73.35
  -5   4   1  -20.93   51.54
  -5   4   1   11.57   66.49
  -5   4   1   59.24   77.84
   5  -4   1   71.19   53.98
   5  -4   1   19.21   61.23
   5   4   1   18.99   57.69
   5   4   1  -55.14   53.87
   5   4   1   -1.44   65.32
  -5  -5  -1 1759.23   83.76
  -5  -5  -1 2330.54  107.01
  -5   5  -1 1938.93   85.86
  -5   5  -1 2000.27  105.18
   5  -5  -1 1339.54   83.87
   5   5  -1 1581.30   86.47
  -5  -5   1 1587.28   86.92
  -5  -5   1 2031.71  105.18
  -5   5   1 1236.19   76.29
  -5   5   1 2042.56   91.95
  -5   5   1 1765.10  106.68
   5  -5   1 1555.56   82.87
   5   5   1 1658.03   85.20
   5   5   1 1813.70   80.27
   5   5   1 2156.71   94.61
  -5  -6  -1  576.08   69.53
  -5  -6  -1  657.01   78.22
  -5   6  -1  627.78   72.30
  -5   6  -1  615.99   82.15
   5  -6  -1  543.75   64.22
   5   6  -1  637.47   73.85
  -5  -6   1  542.86   71.30
  -5  -6   1  704.12   83.93
  -5   6   1  392.06   54.97
  -5   6   1  590.30   68.65
  -5   6   1  474.49   79.77
   5  -6   1  393.89   63.72
   5   6   1  371.35   63.44
   5   6   1  516.56   62.17
   5   6   1  629.28   84.76
  -5  -7  -1 1186.75   89.30
  -5  -7  -1 1396.23   99.98
  -5   7  -1 1216.53   90.51
  -5   7  -1 1222.07  103.02
   5  -7  -1  977.05   83.54
   5   7  -1  980.81   88.80
  -5  -7   1 1165.55   89.41
  -5  -7   1 1177.01  101.59
  -5   7   1 1380.34   93.45
  -5   7   1  892.07   96.66
   5  -7   1  939.02   84.87
   5   7   1  900.15   83.93
   5   7   1 1102.83   75.51
   5   7   1 1279.48   98.49
  -5  -8  -1  255.93   65.60
  -5  -8  -1  323.36   84.87
  -5   8  -1  208.76   66.10
  -5   8  -1   55.86   78.83
   5  -8  -1  195.37   61.06
   5   8  -1  148.92   70.53
  -5  -8   1  217.90   66.32
  -5  -8   1  271.49   81.77
  -5   8   1  278.74   68.48
  -5   8   1  147.09   80.77
   5  -8   1  171.51   58.52
   5   8   1  190.83   65.71
   5   8   1  241.65   59.24
   5   8   1  234.84   82.60
  -5  -9  -1  595.51   71.64
  -5  -9  -1  662.49   85.59
  -5   9  -1  494.47   76.95
  -5   9  -1  582.88   81.38
   5  -9  -1  447.53   62.17
   5   9  -1  478.31   80.22
  -5  -9   1  779.63   79.94
  -5  -9   1  756.00   91.29
  -5   9   1  590.25   70.92
  -5   9   1  477.04   84.31
   5  -9   1  345.78   58.46
   5   9   1  465.74   74.63
   5   9   1  591.35   68.65
   5   9   1  651.25   85.48
  -5 -10  -1  157.33   63.11
  -5 -10  -1  220.11   82.82
  -5  10  -1  166.30   71.25
  -5  10  -1  241.98   83.37
   5 -10  -1  146.54   61.56
   5  10  -1  128.05   75.29
  -5 -10   1  166.19   66.49
  -5 -10   1  200.29   85.31
  -5  10   1  203.00   66.65
  -5  10   1  150.03   79.33
   5 -10   1   43.90   53.75
   5  10   1   93.12   72.63
   5  10   1  240.26   65.66
   5  10   1  205.72   76.40
  -5 -11  -1  327.90   68.87
  -5 -11  -1  359.06   87.25
  -5  11  -1  290.75   75.01
  -5  11  -1  233.18   84.15
   5 -11  -1  280.51   61.17
   5  11  -1  196.58   74.57
  -5 -11   1  268.72   71.64
  -5 -11   1  218.39   88.80
  -5  11   1  323.19   73.02
  -5  11   1  228.91   78.61
   5 -11   1  161.87   61.28
   5  11   1  260.91   72.52
   5  11   1  190.11   68.81
   5  11   1  360.34   75.84
  -5 -12  -1   63.39   67.65
  -5 -12  -1  103.19   87.19
  -5  12  -1   92.67   72.74
  -5  12  -1  107.84   84.65
   5 -12  -1   77.61   55.64
   5  12  -1  -32.39   77.34
  -5 -12   1   34.88   71.03
  -5 -12   1   83.93   92.40
  -5  12   1  124.45   71.69
  -5  12   1  -24.91   78.61
   5 -12   1   64.77   54.47
   5  12   1   24.64   74.90
   5  12   1   41.96   68.87
   5  12   1  118.30   75.46
  -5 -13  -1  105.63   69.86
  -5 -13  -1  169.24   94.00
  -5  13  -1   60.01   75.23
  -5  13  -1  -34.66   85.70
   5 -13  -1   99.20   59.01
   5  13  -1   30.23   83.76
  -5 -13   1  166.14   76.62
  -5 -13   1  123.34   94.00
  -5  13   1  159.44   76.56
  -5  13   1   25.08   81.60
   5 -13   1   64.72   54.14
   5  13   1   65.32   82.15
   5  13   1  113.88   71.03
   5  13   1  -45.84   76.12
  -5 -14  -1  -63.94   74.13
  -5 -14  -1  -76.51  101.25
  -5  14  -1    0.72   79.33
  -5  14  -1   94.83   88.69
   5 -14  -1   22.14   56.91
   5  14  -1   27.07   85.31
  -5 -14   1 -191.60   77.78
  -5 -14   1  148.59   95.00
  -5  14   1   53.37   75.68
  -5  14   1   13.40   89.07
   5 -14   1   58.68   54.09
   5  14   1   -9.80   83.15
   5  14   1  103.19   86.42
   5  14   1   24.52   78.39
  -5 -15  -1   22.70   82.15
  -5 -15  -1   37.98  100.20
  -5  15  -1  -19.60   80.33
  -5  15  -1   18.55   89.74
   5 -15  -1  -24.25   57.08
   5 -15  -1  -57.52   76.73
   5  15  -1  -34.77   78.78
  -5 -15   1    7.47   81.16
  -5 -15   1   89.46  101.31
  -5  15   1  139.06   81.16
  -5  15   1  -23.20   86.97
   5 -15   1   10.74   55.69
   5  15   1  -25.58   80.66
   5  15   1  152.02  112.88
  -5 -16  -1   99.32   80.83
  -5 -16  -1  229.30  103.97
  -5  16  -1   70.97   84.42
  -5  16  -1   93.89   94.39
   5 -16  -1   83.32   59.84
   5 -16  -1   41.35   78.50
   5  16  -1   93.67   81.88
  -5 -16   1  185.40   81.55
  -5 -16   1  163.31  106.46
  -5  16   1   85.97   81.32
  -5  16   1   23.86   87.36
   5 -16   1   72.69   60.84
   5  16   1   73.63   80.60
  -5 -17  -1    6.20  108.34
  -5  17  -1  -20.65   87.41
  -5  17  -1  -93.89   94.06
   5 -17  -1    3.49   61.28
   5 -17  -1   40.19   79.16
   5  17  -1   57.08   84.37
  -5 -17   1  142.05   86.03
  -5 -17   1  -92.84  102.53
  -5  17   1   56.02   82.98
  -5  17   1  -55.03   88.85
   5 -17   1  -32.44   55.14
   5  17   1  -45.73   81.71
  -5 -18  -1  -52.81  117.03
  -5  18  -1    9.36   87.52
  -5  18  -1   56.02   96.88
   5 -18  -1   69.81   86.69
   5  18  -1   15.78   85.64
  -5 -18   1    0.66   91.57
  -5 -18   1  -56.69  106.24
  -5  18   1   13.62   85.25
  -5  18   1   15.45   92.17
   5 -18   1   12.23   60.29
   5  18   1   51.60   85.59
  -5 -19  -1   32.61  128.32
  -5  19  -1  -99.37   91.07
  -5  19  -1   23.97   97.54
   5 -19  -1   10.68   92.78
   5  19  -1   24.64   80.16
  -5 -19   1   26.96   90.24
  -5 -19   1  145.15  112.05
  -5  19   1   -4.65   86.14
  -5  19   1  -22.86   92.45
   5 -19   1    9.25   61.50
   5  19   1  -23.42   79.28
  -5  20  -1  -93.00   93.89
  -5  20  -1  -47.17  100.26
   5 -20  -1  -41.30   97.32
   5  20  -1   10.74   88.91
  -5 -20   1  144.43  100.42
  -5 -20   1  -25.69  107.23
  -5  20   1   11.68   90.57
  -5  20   1   68.70   94.67
   5 -20   1   -9.08   64.33
   5  20   1   28.90   77.12
  -6   0  -1  757.93   83.15
  -6   0  -1  899.27   92.51
   6   0  -1  707.39   87.86
  -6   0   1  774.71   89.07
  -6   0   1  840.59   83.65
   6   0   1  605.03   66.16
   6   0   1  738.61   80.11
   6   0   1  706.17   76.95
  -6  -1  -1  189.72   65.71
  -6  -1  -1  288.37   80.00
  -6   1  -1  141.94   66.60
  -6   1  -1  157.83   75.68
   6  -1  -1  127.27   57.57
   6   1  -1  147.15   68.26
  -6  -1   1  116.86   65.32
  -6  -1   1  173.22   80.94
  -6   1   1   63.55   64.83
  -6   1   1  126.11   87.97
   6  -1   1  136.68   62.83
   6   1   1  117.58   62.94
   6   1   1  142.44   59.51
   6   1   1  116.59   61.56
  -6  -2  -1  315.27   67.54
  -6  -2  -1  432.75  100.09
  -6   2  -1  285.77   70.86
  -6   2  -1  391.34   85.64
   6  -2  -1  216.46   60.56
   6   2  -1  354.30   64.99
  -6  -2   1  395.27   66.65
  -6  -2   1  309.41   76.89
  -6   2   1  348.05   66.71
  -6   2   1  406.78   81.71
   6  -2   1  243.14   65.10
   6   2   1  225.98   69.75
   6   2   1  211.47   61.89
   6   2   1  260.47   62.11
  -6  -3  -1  235.45   65.60
  -6  -3  -1  399.70   85.86
  -6   3  -1  369.97   72.52
  -6   3  -1  278.24   83.70
   6  -3  -1  265.84   65.77
   6   3  -1  214.30   58.18
  -6  -3   1  371.63   71.58
  -6  -3   1  428.98   83.26
  -6   3   1  380.05   74.18
  -6   3   1  436.73   81.43
   6  -3   1  273.15   63.50
   6   3   1  318.54   66.82
   6   3   1  294.79   58.90
   6   3   1  356.13   66.60
  -6  -4  -1  611.06   70.92
  -6  -4  -1  745.81   93.56
  -6   4  -1  553.10   73.85
  -6   4  -1  556.70   83.76
   6  -4  -1  485.01   68.20
   6   4  -1  546.29   68.70
  -6  -4   1  654.52   73.13
  -6  -4   1  643.28   82.04
  -6   4   1  632.38   75.12
  -6   4   1  564.84   96.82
   6  -4   1  445.92   66.43
   6   4   1  428.93   58.96
   6   4   1  473.55   61.56
   6   4   1  617.71   73.68
  -6  -5  -1  459.71   67.71
  -6  -5  -1  716.80   91.90
  -6   5  -1  560.24   71.69
  -6   5  -1  483.51   83.48
   6  -5  -1  571.09   67.76
   6   5  -1  447.09   68.92
  -6  -5   1  693.94   73.13
  -6  -5   1  684.86   84.20
  -6   5   1  578.23   78.28
  -6   5   1  571.81   86.58
   6  -5   1  518.28   66.43
   6   5   1  438.78   65.82
   6   5   1  595.01   64.61
   6   5   1  561.74   74.07
  -6  -6  -1  511.86   70.47
  -6  -6  -1  551.27   90.18
  -6   6  -1  470.17   71.64
  -6   6  -1  470.23   81.99
   6  -6  -1  400.03   67.04
   6   6  -1  516.62   71.97
  -6  -6   1  501.78   72.91
  -6  -6   1  547.62   83.43
  -6   6   1  447.53   74.29
  -6   6   1  389.46   86.92
   6  -6   1  394.38   64.22
   6   6   1  393.33   66.93
   6   6   1  437.68   66.71
   6   6   1  460.98   77.50
  -6  -7  -1  667.20   73.85
  -6  -7  -1  739.55   95.50
  -6   7  -1  750.24   93.06
  -6   7  -1  740.22   93.34
   6  -7  -1  441.38   68.87
   6   7  -1  692.22   78.94
  -6  -7   1  756.44   79.77
  -6  -7   1  875.13   88.35
  -6   7   1  741.44   89.63
  -6   7   1  637.80   86.69
   6  -7   1  529.74   69.31
   6   7   1  566.17   71.36
   6   7   1  535.72   66.87
   6   7   1  875.07   91.01
  -6  -8  -1  486.61   74.46
  -6  -8  -1  467.46   92.01
  -6   8  -1  405.23   77.67
  -6   8  -1  378.44   86.86
   6  -8  -1  442.88   65.27
   6   8  -1  365.26   72.13
  -6  -8   1  390.95   75.40
  -6  -8   1  526.42   85.42
  -6   8   1  464.41   71.30
  -6   8   1  255.21   82.49
   6  -8   1  423.45   69.97
   6   8   1  291.47   71.58
   6   8   1  446.98   67.82
   6   8   1  401.25   81.77
  -6  -9  -1  603.20   74.07
  -6  -9  -1  732.25   90.51
  -6   9  -1  603.92   80.71
  -6   9  -1  589.75   91.18
   6  -9  -1  561.68   70.09
   6   9  -1  625.79   80.27
  -6  -9   1  786.00   94.33
  -6  -9   1  858.85   96.05
  -6   9   1  612.61   79.44
  -6   9   1  597.17   92.29
   6  -9   1  492.87   70.69
   6   9   1  467.85   72.69
   6   9   1  674.89   84.37
   6   9   1  841.03   90.18
  -6 -10  -1  208.04   70.09
  -6 -10  -1  360.73   89.46
  -6  10  -1  165.25   73.30
  -6  10  -1  176.27   87.08
   6 -10  -1  109.28   66.21
   6  10  -1  205.22   80.94
  -6 -10   1  136.91   73.74
  -6 -10   1  223.05   90.62
  -6  10   1  168.29   74.35
  -6  10   1  178.43   87.08
   6 -10   1  116.03   62.00
   6  10   1  221.50   74.13
   6  10   1  176.10   66.65
   6  10   1  205.99   93.95
  -6 -11  -1  209.04   75.01
  -6 -11  -1  180.86   91.51
  -6  11  -1  197.30   76.56
  -6  11  -1  226.64   87.14
   6 -11  -1  249.73   70.97
   6  11  -1  168.40   81.05
  -6 -11   1  287.32   74.74
  -6 -11   1  223.16   93.45
  -6  11   1  335.20   77.89
  -6  11   1  102.91   85.37
   6 -11   1  194.09   64.66
   6  11   1  158.66   81.60
   6  11   1   88.35   87.97
   6  11   1  148.53   95.27
  -6 -12  -1  187.73   73.24
  -6 -12  -1  128.27   92.45
  -6  12  -1  103.36   80.66
  -6  12  -1   89.07   87.86
   6 -12  -1  148.92   64.55
   6  12  -1  143.44   80.00
  -6 -12   1  176.54   77.95
  -6 -12   1  284.00   96.82
  -6  12   1  114.93   73.41
  -6  12   1  128.27   83.81
   6 -12   1   50.77   61.17
   6  12   1   77.28   80.60
   6  12   1  195.59   92.06
  -6 -13  -1  237.77   77.28
  -6 -13  -1  316.94   96.33
  -6  13  -1  247.18   81.60
  -6  13  -1  254.38   91.12
   6 -13  -1  245.63   68.87
   6  13  -1  225.87   83.32
  -6 -13   1  245.47   79.88
  -6 -13   1  323.36  101.97
  -6  13   1  251.33   80.16
  -6  13   1  169.40   85.86
   6 -13   1  201.34   65.49
   6  13   1  191.55   82.98
   6  13   1  214.52   87.41
  -6 -14  -1    0.11   85.48
  -6 -14  -1   34.99  103.52
  -6  14  -1   67.37   82.49
  -6  14  -1    6.86   92.12
   6 -14  -1   24.25   66.16
   6  14  -1    0.33   84.87
  -6 -14   1   55.14   80.71
  -6 -14   1   86.53  102.97
  -6  14   1  -66.32   79.61
  -6  14   1   -2.60   86.69
   6 -14   1    8.80   63.17
   6  14   1  -87.91   86.14
  -6 -15  -1   66.71   85.92
  -6 -15  -1   35.26  106.68
  -6  15  -1  -59.90   84.37
  -6  15  -1   49.05   98.15
   6 -15  -1   77.06   69.14
   6  15  -1   77.73   93.23
  -6 -15   1  161.82   82.71
  -6 -15   1  210.04  105.13
  -6  15   1  127.60   82.26
  -6  15   1   34.82   89.35
   6 -15   1   50.21   62.06
   6  15   1   -1.16   94.39
  -6 -16  -1   96.71  118.58
  -6  16  -1   80.99   86.86
  -6  16  -1  -40.41   96.49
   6 -16  -1   -3.71   66.04
   6  16  -1  -31.11   92.06
  -6 -16   1   98.15   90.79
  -6 -16   1  -26.41  106.51
  -6  16   1   87.97   83.81
  -6  16   1   16.72   90.02
   6 -16   1   29.51   62.45
   6  16   1  -38.14   96.38
  -6 -17  -1   32.22  117.47
  -6  17  -1   24.52   90.24
  -6  17  -1  136.41  101.09
   6  17  -1  132.70   91.73
  -6 -17   1   22.97   95.11
  -6 -17   1   61.12  109.67
  -6  17   1  -12.90   85.86
  -6  17   1   -2.21   94.72
   6 -17   1   16.61   64.66
   6  17   1   48.99   89.41
  -6  18  -1    5.15   93.61
  -6  18  -1   43.96  101.70
   6  18  -1   58.68   94.33
  -6 -18   1  121.02   91.18
  -6 -18   1  206.33  115.76
  -6  18   1   38.31   89.24
  -6  18   1   23.80   99.81
   6 -18   1   99.32   69.59
   6  18   1  135.47   89.13
  -6  19  -1    1.88  103.02
  -6  19   1   24.41  101.70
  -7   0  -1  -79.44   65.88
  -7   0  -1   -4.26   87.47
   7   0  -1   52.87   71.30
  -7   0   1  -48.66   65.93
  -7   0   1   48.94   86.80
   7   0   1   10.63   61.01
  -7  -1  -1  444.32   74.63
  -7  -1  -1  505.71   98.98
  -7   1  -1  253.44   69.48
  -7   1  -1  493.81   97.82
   7  -1  -1  338.19   69.86
   7   1  -1  319.76   77.78
  -7  -1   1  415.20   76.40
  -7  -1   1  425.99   87.41
  -7   1   1  363.83   70.75
  -7   1   1  442.10   95.05
   7  -1   1  392.23   67.26
   7   1   1  438.95   74.90
  -7  -2  -1  136.19   71.80
  -7  -2  -1  188.83   92.29
  -7   2  -1  103.30   75.29
  -7   2  -1  112.21   84.76
   7  -2  -1  143.33   61.73
   7   2  -1  198.41   70.14
  -7  -2   1  157.22   71.14
  -7  -2   1  207.05   82.87
  -7   2   1   88.19   68.48
  -7   2   1  195.42   95.77
   7  -2   1  155.51   66.93
   7   2   1  187.23   72.02
  -7  -3  -1  400.20   76.29
  -7  -3  -1  571.70   95.39
  -7   3  -1  444.54   76.73
  -7   3  -1  355.02   87.47
   7  -3  -1  405.29   68.98
   7   3  -1  383.26   62.89
  -7  -3   1  350.82   72.69
  -7  -3   1  417.36   88.52
  -7   3   1  431.97   78.39
  -7   3   1  567.99   97.65
   7  -3   1  241.59   69.86
   7   3   1  423.84   75.68
  -7  -4  -1  286.65   70.14
  -7  -4  -1  450.85   99.37
  -7   4  -1  387.69   79.94
  -7   4  -1  308.02   92.95
   7  -4  -1  329.28   73.19
   7   4  -1  350.10   71.30
  -7  -4   1  322.53   76.67
  -7  -4   1  386.91   90.46
  -7   4   1  376.72   78.78
  -7   4   1  291.53   94.83
   7  -4   1  253.77   68.76
   7   4   1  297.89   65.10
  -7  -5  -1  261.69   71.58
  -7  -5  -1  251.56   91.62
  -7   5  -1  172.56   76.67
  -7   5  -1  202.62   90.13
   7  -5  -1  171.45   67.04
   7   5  -1   99.32   66.27
  -7  -5   1  169.57   72.96
  -7  -5   1  158.94   83.32
  -7   5   1  202.89   73.79
  -7   5   1   79.61   90.96
   7  -5   1  131.92   68.20
   7   5   1  196.86   67.26
  -7  -6  -1   84.92   66.10
  -7  -6  -1  242.59   96.10
  -7   6  -1  113.93   78.67
  -7   6  -1   72.96   86.86
   7  -6  -1  157.50   67.98
   7   6  -1   83.48   68.98
  -7  -6   1  108.06   71.53
  -7  -6   1  144.77   84.15
  -7   6   1  128.16   74.74
  -7   6   1   34.43   86.86
   7  -6   1   61.78   67.71
   7   6   1  127.72   68.59
   7   6   1  107.90   97.16
  -7  -7  -1  129.38   75.73
  -7  -7  -1  179.42   89.30
  -7   7  -1  150.97   75.12
  -7   7  -1  141.06   85.20
   7  -7  -1  110.06   65.49
   7   7  -1  203.61   75.01
  -7  -7   1  129.82   77.28
  -7  -7   1   58.40   87.80
  -7   7   1   64.11   77.56
  -7   7   1   33.94   91.68
   7  -7   1   95.11   68.70
   7   7   1  127.16   75.84
   7   7   1  164.09   91.90
  -7  -8  -1   55.86   76.51
  -7  -8  -1   78.72   93.72
  -7   8  -1   86.36   72.80
  -7   8  -1  -34.77   85.92
   7  -8  -1   69.75   65.66
   7   8  -1  -44.62   73.63
  -7  -8   1   41.30   74.46
  -7  -8   1  -17.11   91.79
  -7   8   1   91.18   74.02
  -7   8   1   75.90   89.85
   7  -8   1   55.86   64.38
   7   8   1  -51.82   71.97
   7   8   1    2.27  101.14
  -7  -9  -1   53.20   77.28
  -7  -9  -1  -15.89  103.80
  -7   9  -1   71.25   78.61
  -7   9  -1   35.37   86.08
   7  -9  -1   57.57   67.43
   7   9  -1  168.79   73.41
  -7  -9   1   34.43   72.02
  -7  -9   1   64.55   89.41
  -7   9   1   51.37   71.91
  -7   9   1  103.97   88.91
   7  -9   1   11.24   66.65
   7   9   1    3.38   73.19
   7   9   1  111.00  109.61
  -7 -10  -1    6.09   74.74
  -7 -10  -1   -9.36  100.31
  -7  10  -1    9.63   80.44
  -7  10  -1 -102.97   94.50
   7 -10  -1   41.46   67.98
   7  10  -1   23.31   76.40
  -7 -10   1   63.66   76.78
  -7 -10   1  120.24   93.28
  -7  10   1  -29.51   71.03
  -7  10   1  -71.86   86.58
   7 -10   1   39.03   70.58
   7  10   1    7.47   78.72
   7  10   1  119.47  108.78
  -7 -11  -1   34.54   76.12
  -7 -11  -1  -24.64   99.98
  -7  11  -1  -80.94   81.49
  -7  11  -1   67.54   95.33
   7 -11  -1  -50.43   73.52
   7  11  -1   26.52   88.24
  -7 -11   1   63.83   85.14
  -7 -11   1   -3.65   99.92
  -7  11   1  121.85   81.49
  -7  11   1  -14.17   94.11
   7 -11   1   37.70   70.20
   7  11   1   58.29   82.15
  -7 -12  -1   63.77   85.53
  -7 -12  -1   28.07  104.08
  -7  12  -1   28.73   80.66
  -7  12  -1  108.89   97.32
   7 -12  -1   44.40   77.50
   7  12  -1   74.02   86.64
  -7 -12   1   23.25   74.96
  -7 -12   1  151.91  105.35
  -7  12   1  110.78   85.09
  -7  12   1  -12.62   96.16
   7 -12   1   95.55   69.81
   7  12   1   -4.21   87.14
  -7 -13  -1   15.00   90.24
  -7 -13  -1   45.34  110.66
  -7  13  -1  -17.72   83.81
  -7  13  -1   -9.96   97.88
   7 -13  -1   16.22   78.06
   7  13  -1 -110.28   82.98
  -7 -13   1   85.97   80.49
  -7 -13   1  -63.61  107.18
  -7  13   1   -8.58   83.81
  -7  13   1  -78.39   97.60
   7 -13   1  -46.45   67.65
   7  13   1  -85.92   90.46
  -7 -14  -1   32.05  109.45
  -7  14  -1   84.87   84.31
  -7  14  -1  206.22  101.81
   7 -14  -1  147.53   77.12
   7  14  -1  215.52   93.06
  -7 -14   1  130.59   85.31
  -7 -14   1  128.55  108.06
  -7  14   1   73.96   82.60
  -7  14   1   86.58   98.60
   7 -14   1  129.76   74.46
   7  14   1   12.12   93.39
  -7 -15  -1   -4.43  116.26
  -7  15  -1  119.30   93.39
  -7  15  -1   -0.83   97.65
   7  15  -1   65.16  100.81
  -7 -15   1    1.22   97.82
  -7 -15   1   16.50  110.22
  -7  15   1 -125.72   80.27
  -7  15   1    1.27   95.55
   7 -15   1  118.97   73.24
   7  15   1   39.80   95.39
  -7 -16  -1  -29.67  120.68
  -7  16  -1   24.41   93.50
  -7  16  -1   44.07  100.64
   7  16  -1   59.12  108.95
  -7 -16   1   69.14   92.40
  -7 -16   1   30.67  115.20
  -7  16   1   21.70   84.98
  -7  16   1   22.92   96.66
   7 -16   1    9.74   70.97
   7  16   1   45.34   98.49
  -7  17  -1   65.21   99.20
  -7  17  -1   76.23  102.91
   7  17  -1 -104.96  106.46
  -7 -17   1   28.07   94.33
  -7 -17   1  134.86  116.98
  -7  17   1  -27.62   89.52
  -7  17   1   54.14   98.32
   7 -17   1  -23.80   71.08
   7  17   1   81.71  106.46
  -8   0  -1   84.98   86.47
  -8   0  -1  108.51   98.32
   8   0  -1  193.15   83.81
  -8   0   1   44.73   82.43
  -8   0   1  159.66   95.16
   8   0   1  124.12   69.86
  -8  -1  -1  -10.30   86.42
  -8  -1  -1   54.47   97.16
  -8   1  -1   65.99   73.02
  -8   1  -1   -6.48   98.65
   8  -1  -1  -44.34   68.76
   8   1  -1  -56.91   73.74
  -8  -1   1   -7.03   73.79
  -8  -1   1  131.20   96.88
  -8   1   1    8.58   80.83
  -8   1   1  -21.09   95.27
   8  -1   1  -53.59   70.97
   8   1   1   13.01   79.72
  -8  -2  -1   97.10   86.03
  -8  -2  -1   13.67   94.94
  -8   2  -1   75.90   86.31
  -8   2  -1   95.83  100.53
   8  -2  -1  110.28   74.74
   8   2  -1  109.50   82.10
  -8  -2   1   57.57   80.00
  -8  -2   1  200.18   91.45
  -8   2   1  173.77   72.91
  -8   2   1  -57.80  106.68
   8  -2   1   94.33   67.32
   8   2   1   32.11   80.77
  -8  -3  -1   64.16   76.56
  -8  -3  -1    3.71   95.33
  -8   3  -1   10.02   90.85
  -8   3  -1 -108.95   94.06
   8  -3  -1   -1.77   72.96
   8   3  -1  -21.92   63.89
  -8  -3   1   20.32   68.87
  -8  -3   1    5.48   91.62
  -8   3   1  -69.92   76.01
  -8   3   1    3.93   90.46
   8  -3   1   19.93   77.12
   8   3   1   72.52   81.77
  -8  -4  -1  115.59   83.48
  -8  -4  -1  161.82  110.39
  -8   4  -1   83.59   92.06
  -8   4  -1   -4.76   94.06
   8  -4  -1   87.80   69.81
   8   4  -1  182.13   73.96
  -8  -4   1   29.95   89.24
  -8  -4   1  150.25   98.04
  -8   4   1  115.81   86.64
  -8   4   1  126.05   96.66
   8  -4   1  133.75   78.72
   8   4   1   44.79   65.55
  -8  -5  -1   42.90   87.75
  -8  -5  -1   31.44   98.04
  -8   5  -1  -99.92   88.69
  -8   5  -1   74.35   97.43
   8  -5  -1   29.51   79.77
   8   5  -1   39.25   75.29
  -8  -5   1   19.82   78.22
  -8  -5   1   16.11   91.23
  -8   5   1   72.36   90.96
  -8   5   1  124.67  101.25
   8  -5   1   20.98   73.24
   8   5   1   41.63   69.53
  -8  -6  -1  124.39   87.58
  -8  -6  -1   25.35   99.81
  -8   6  -1   -2.05   89.85
  -8   6  -1   37.76   98.15
   8  -6  -1   77.45   79.72
   8   6  -1  110.39   76.12
  -8  -6   1  113.43   76.34
  -8  -6   1  -34.32   93.89
  -8   6   1   14.12   79.05
  -8   6   1   74.96  101.47
   8  -6   1   21.26   71.53
   8   6   1   57.63   79.22
  -8  -7  -1  103.30   93.61
  -8  -7  -1   21.59  101.42
  -8   7  -1   61.34   87.03
  -8   7  -1  115.87   98.32
   8  -7  -1  132.42   77.95
   8   7  -1   25.30   77.56
  -8  -7   1  121.46   79.00
  -8  -7   1   95.16  100.98
  -8   7   1   68.87   87.36
  -8   7   1   85.14   98.65
   8  -7   1  108.95   75.07
   8   7   1   11.68   76.78
  -8  -8  -1  136.24   87.19
  -8  -8  -1   70.92  103.02
  -8   8  -1   27.85   84.26
  -8   8  -1  -19.49   95.55
   8  -8  -1   -1.11   75.84
   8   8  -1  -87.63   80.83
  -8  -8   1   12.07   86.42
  -8  -8   1   58.46   97.77
  -8   8   1   -9.36   86.42
  -8   8   1   51.71  109.83
   8  -8   1   42.18   74.24
   8   8   1   85.97   81.49
  -8  -9  -1   12.62   88.13
  -8  -9  -1  230.41  109.23
  -8   9  -1   21.70   79.22
  -8   9  -1   27.07   94.67
   8  -9  -1   21.81   72.69
   8   9  -1  192.65   89.96
  -8  -9   1   76.12   92.78
  -8  -9   1  -11.57  100.87
  -8   9   1   94.28   85.59
  -8   9   1  130.10  108.89
   8  -9   1  100.26   74.68
   8   9   1   39.14   86.20
  -8 -10  -1  117.09  100.87
  -8 -10  -1   76.67  106.84
  -8  10  -1  172.06   82.21
  -8  10  -1   66.43   97.16
   8 -10  -1  128.44   80.44
   8  10  -1  170.34   84.59
  -8 -10   1  199.46   85.20
  -8 -10   1  137.62  103.58
  -8  10   1   63.22   87.36
  -8  10   1   47.89  103.86
   8 -10   1   66.76   69.64
   8  10   1   49.16   87.36
  -8 -11  -1   87.41  112.66
  -8  11  -1  -41.13   91.51
  -8  11  -1   24.14   97.49
   8 -11  -1  105.74   75.51
   8  11  -1  178.81   93.28
  -8 -11   1  169.95   99.32
  -8 -11   1  -67.54  103.91
  -8  11   1  114.26   79.94
  -8  11   1  140.56  100.42
   8 -11   1   65.49   75.73
   8  11   1   74.85   86.25
  -8 -12  -1   59.12  114.98
  -8  12  -1   17.38   91.23
  -8  12  -1 -133.86   96.71
   8 -12  -1   20.10   76.01
   8  12  -1   30.23  100.42
  -8 -12   1   53.87  101.42
  -8 -12   1   41.30  105.74
  -8  12   1  121.68   78.39
  -8  12   1   57.30   96.82
   8 -12   1   62.11   77.67
   8  12   1   72.36   93.34
  -8 -13  -1  170.51  123.56
  -8  13  -1  -49.88   92.01
  -8  13  -1   22.97  108.23
   8  13  -1    8.03  104.96
  -8 -13   1   72.19   91.79
  -8 -13   1  138.51  115.92
  -8  13   1   75.46   88.47
  -8  13   1   37.26  104.74
   8 -13   1  135.63   83.32
   8  13   1   50.21  100.76
  -8 -14  -1  -16.50  135.36
  -8  14  -1   51.54   94.17
  -8  14  -1  -93.89  106.68
   8  14  -1    0.06  102.80
  -8 -14   1   68.81   95.33
  -8 -14   1  -72.24  116.20
  -8  14   1   16.88   90.29
  -8  14   1  -37.53  108.39
   8 -14   1  -62.56   80.88
   8  14   1  -31.33   98.82
  -8  15  -1  -59.12   95.11
  -8  15  -1 -126.94  107.34
   8  15  -1  -10.52  109.28
  -8 -15   1  -32.39   99.26
  -8 -15   1   42.41  117.53
  -8  15   1  -40.58   91.34
  -8  15   1  -19.21  107.68
   8 -15   1   68.76   82.15
   8  15   1   78.33  102.97
  -9   0  -1  136.02  103.36
  -9   0  -1   78.56  124.84
   9   0  -1   79.39   84.81
  -9   0   1   48.88  105.18
  -9   0   1   25.13  107.40
   9   0   1   95.22   86.86
  -9  -1  -1  189.66  114.21
  -9  -1  -1  102.80  108.28
  -9   1  -1  204.50  104.24
  -9   1  -1  251.94  113.65
   9  -1  -1  264.12   92.95
   9   1  -1  155.45   88.47
  -9  -1   1  132.70  106.84
  -9  -1   1  198.30  104.35
  -9   1   1  114.76  105.46
  -9   1   1   57.19  110.11
   9  -1   1  149.69   81.10
   9   1   1  165.36   89.90
  -9  -2  -1  -26.41  111.05
  -9  -2  -1  151.74  105.18
  -9   2  -1    0.61   97.05
  -9   2  -1    0.06  111.44
   9  -2  -1   43.96   76.62
   9   2  -1  139.34   85.97
  -9  -2   1  137.40   87.36
  -9  -2   1   56.25  100.31
  -9   2   1  128.38   86.31
  -9   2   1   16.11  112.88
   9  -2   1   45.06   77.12
   9   2   1  132.31   91.34
  -9  -3  -1  200.29  104.80
  -9  -3  -1  189.50  124.12
  -9   3  -1   79.66   91.34
  -9   3  -1  119.63  112.27
   9  -3  -1  123.07   77.17
   9   3  -1  104.30   75.51
  -9  -3   1  228.58   96.10
  -9  -3   1  140.84  103.41
  -9   3   1   93.95   94.78
  -9   3   1  210.64  115.98
   9  -3   1  204.06   79.05
   9   3   1  150.41   85.31
  -9  -4  -1  109.94  104.08
  -9  -4  -1   37.53  118.08
  -9   4  -1   88.58  116.81
  -9   4  -1  -13.29  104.13
   9  -4  -1   -0.22   79.33
   9   4  -1   29.51   79.77
  -9  -4   1   -5.48   89.24
  -9  -4   1   52.48  108.78
  -9   4   1   19.21   85.70
  -9   4   1   60.56  100.42
   9  -4   1   69.92   86.69
   9   4   1   76.73   74.24
  -9  -5  -1   98.04  101.70
  -9  -5  -1   95.44  113.49
  -9   5  -1  100.26  113.49
  -9   5  -1   35.04  104.63
   9  -5  -1   24.30   86.97
   9   5  -1   81.66   87.91
  -9  -5   1   92.17   94.33
  -9  -5   1   47.66  106.90
  -9   5   1  -24.08   88.74
  -9   5   1  202.67  113.38
   9  -5   1   51.93   85.70
   9   5   1  130.98   80.71
  -9  -6  -1   31.67   99.09
  -9  -6  -1  -29.29  113.88
  -9   6  -1  112.10  111.16
  -9   6  -1   18.82  101.42
   9  -6  -1   80.27   90.02
   9   6  -1   -2.66   83.87
  -9  -6   1   78.72   91.18
  -9  -6   1   38.31  103.52
  -9   6   1   43.46  105.85
  -9   6   1  -35.43  118.41
   9  -6   1  119.02   84.65
   9   6   1   96.71   88.41
  -9  -7  -1  155.89  103.91
  -9  -7  -1   48.38  112.16
  -9   7  -1   82.54  107.12
  -9   7  -1   51.54  110.39
   9  -7  -1   36.87   90.90
   9   7  -1  150.69   92.23
  -9  -7   1  168.57   99.26
  -9  -7   1  108.12  105.24
  -9   7   1   95.55   92.17
  -9   7   1  128.21  111.16
   9  -7   1   71.14   82.21
   9   7   1   33.16   86.75
  -9  -8  -1   43.18  115.76
  -9   8  -1   13.45  105.18
  -9   8  -1   10.13  110.17
   9  -8  -1    9.19   89.57
   9   8  -1   -7.81   92.51
  -9  -8   1  159.38  113.49
  -9  -8   1  108.84  108.67
  -9   8   1    1.44   88.74
  -9   8   1  100.15  107.68
   9  -8   1  -34.10   78.22
   9   8   1  137.29   89.90
  -9  -9  -1   65.82  121.24
  -9   9  -1  -54.36  103.14
  -9   9  -1   28.79  111.16
   9  -9  -1   30.89   85.42
   9   9  -1   49.21   97.05
  -9  -9   1  -34.54  101.86
  -9  -9   1  133.69  113.10
  -9   9   1    8.19  100.98
  -9   9   1  105.57  114.60
   9  -9   1  -58.07   75.40
   9   9   1  125.06   90.68
  -9 -10  -1  -34.38  122.46
  -9  10  -1   47.50  101.47
  -9  10  -1  -32.88  106.84
   9 -10  -1   65.49   94.00
   9  10  -1   30.78   94.22
  -9 -10   1  -50.93  105.02
  -9 -10   1   86.25  110.44
  -9  10   1   77.84  103.69
  -9  10   1  -34.77  114.87
   9 -10   1   25.80   79.05
   9  10   1   44.95   93.72
  -9 -11  -1   39.69  124.23
  -9  11  -1    6.64   98.21
  -9  11  -1   94.06  107.34
   9  11  -1  109.94   98.49
  -9 -11   1   32.66  103.69
  -9 -11   1   29.01  110.78
  -9  11   1  133.36   98.71
  -9  11   1   67.82  108.34
   9 -11   1   47.61   80.11
   9  11   1   58.79   94.17
  -9 -12  -1   97.99  139.45
  -9  12  -1  151.08  106.12
  -9  12  -1  131.65  107.12
   9  12  -1   60.56  102.86
  -9 -12   1   25.08  110.61
  -9 -12   1  123.23  118.25
  -9  12   1  104.63   94.50
  -9  12   1  -67.82  113.49
   9 -12   1  116.09   85.92
   9  12   1  101.70  112.44
 -10   0  -1   61.39  124.73
  10   0  -1  257.92  100.53
 -10   0   1  184.90  121.68
 -10   0   1  273.98  113.76
  10   0   1  283.00   98.15
 -10  -1  -1  125.17  122.07
 -10   1  -1   23.25  135.69
  10  -1  -1  107.62  100.64
  10   1  -1  151.58   99.92
 -10  -1   1  137.79  117.86
 -10  -1   1  111.22  114.93
 -10   1   1   38.86  102.97
 -10   1   1  104.52  124.67
  10  -1   1   86.42   87.14
  10   1   1   79.11   94.22
 -10  -2  -1  248.51  121.18
 -10   2  -1  271.82  123.40
 -10   2  -1  245.30  127.16
  10  -2  -1  247.24   94.67
  10   2  -1  167.02   98.32
 -10  -2   1  211.09  110.50
 -10  -2   1  206.38  113.60
 -10   2   1  257.26  112.33
 -10   2   1  206.16  124.62
  10  -2   1  100.26   83.81
  10   2   1  276.36  100.37
 -10  -3  -1   63.44  136.46
 -10   3  -1   32.16  114.87
 -10   3  -1    1.05  124.17
  10  -3  -1   57.19   88.52
  10   3  -1   50.60   83.70
 -10  -3   1  199.30  111.44
 -10  -3   1  107.34  115.26
 -10   3   1   81.10  101.59
 -10   3   1   36.65  125.89
  10  -3   1   66.93   82.54
  10   3   1   82.65   89.35
 -10  -4  -1   -6.98  131.54
 -10   4  -1   66.82  152.18
 -10   4  -1  102.08  123.73
  10  -4  -1  -23.31   86.80
  10   4  -1   97.65   90.29
 -10  -4   1   94.00  108.28
 -10  -4   1  161.65  120.74
 -10   4   1   55.69  103.52
 -10   4   1  132.09  113.99
  10  -4   1   74.68   87.63
  10   4   1   75.57   79.22
 -10  -5  -1  -45.95  123.90
 -10   5  -1  -14.23  122.95
  10  -5  -1   59.95   95.44
  10   5  -1   60.01   95.72
 -10  -5   1   54.03  107.01
 -10  -5   1  163.87  116.75
 -10   5   1    7.64  123.12
 -10   5   1   47.78  110.78
  10  -5   1   -8.08   92.17
  10   5   1   65.55   83.10
 -10  -6  -1  105.07  133.36
 -10   6  -1   18.49  119.30
  10  -6  -1   63.72  100.04
  10   6  -1   66.99   94.83
 -10  -6   1  -77.34  113.27
 -10  -6   1  160.77  119.69
 -10   6   1  -26.13  125.78
 -10   6   1  172.28  115.81
  10  -6   1  -19.54   91.34
  10   6   1   -6.92  111.94
 -10  -7  -1   39.58  133.25
 -10   7  -1  142.33  118.25
  10   7  -1   87.47  107.79
 -10  -7   1   67.43  131.87
 -10  -7   1  216.57  113.60
 -10   7   1  162.48  129.21
 -10   7   1  191.43  129.65
  10  -7   1  132.09   92.29
  10   7   1  124.17   94.89
 -10  -8  -1   54.47  136.96
 -10   8  -1  -36.37  114.71
  10   8  -1   47.06  112.33
 -10  -8   1   82.71  161.10
 -10  -8   1   91.07  118.25
 -10   8   1   39.31  107.40
 -10   8   1  -14.12  121.63
  10  -8   1  -22.97   85.48
  10   8   1   39.75   91.90
   0   3  -2   12.23   47.06
   0  -3   2   28.84   42.29
   0  -3   2   -4.32   42.52
   0   4  -2 9999.00   87.36
   0  -4   2 9634.73   86.36
   0  -4   2 8594.24   84.20
   0   5  -2  -15.83   47.55
   0  -5   2  -37.20   42.41
   0  -5   2   -3.65   51.21
   0  -6  -2 1265.58   55.47
   0   6  -2 1267.91   68.98
   0  -6   2 1273.61   64.49
   0  -6   2 1197.49   71.30
   0  -6   2 1227.44   68.37
   0   6   2 1128.73   55.69
   0   6   2 1232.09   58.52
   0  -7  -2  -11.79   42.24
   0   7  -2  -23.80   51.15
   0  -7   2  -68.92   46.17
   0  -7   2   13.78   53.26
   0  -7   2   33.99   46.23
   0   7   2   -1.77   46.34
   0   7   2  -12.12   47.11
   0  -8  -2 1737.75   65.99
   0   8  -2 1888.94   78.56
   0  -8   2 1721.92   70.03
   0  -8   2 1710.46   80.94
   0  -8   2 1574.33   74.79
   0   8   2 1788.90   69.37
   0   8   2 1746.55   69.53
   0  -9  -2 -100.92   46.50
   0   9  -2  -53.31   54.53
   0  -9   2  -45.73   46.61
   0  -9   2  -68.87   55.08
   0  -9   2 -115.65   51.65
   0   9   2  -25.24   51.65
   0   9   2 -105.57   52.43
   0 -10  -2 1498.54   69.26
   0  10  -2 1651.44   82.26
   0 -10   2 1273.17   71.41
   0 -10   2 1482.93   78.83
   0 -10   2 1326.37   80.16
   0  10   2 1409.96   72.19
   0  10   2 1587.94   69.59
   0 -11  -2  -16.77   48.05
   0 -11  -2  -51.76   65.99
   0  11  -2  -91.40   58.68
   0 -11   2  -33.60   48.61
   0 -11   2   28.40   56.69
   0 -11   2  -68.26   54.58
   0  11   2  -78.78   52.20
   0  11   2   12.07   51.71
   0 -12  -2  147.37   51.87
   0 -12  -2   52.98   68.48
   0  12  -2  184.40   61.89
   0 -12   2   71.97   57.57
   0 -12   2   93.78   56.30
   0  12   2  128.05   56.52
   0  12   2  120.08   58.02
   0 -13  -2  -31.78   53.42
   0 -13  -2   -2.10   70.47
   0  13  -2  -23.53   63.05
   0 -13   2   38.92   57.74
   0 -13   2    0.00   57.57
   0  13   2   -6.92   58.13
   0  13   2  -74.96   58.68
   0 -14  -2   19.82   54.70
   0 -14  -2  -45.23   71.75
   0  14  -2 -110.44   60.90
   0 -14   2   -1.94   61.39
   0 -14   2   26.24   59.51
   0  14   2   85.48   61.01
   0  14   2  -64.33   58.18
   0 -15  -2    8.08   57.96
   0 -15  -2   54.81   75.57
   0  15  -2   18.99   68.04
   0 -15   2    6.70   57.19
   0 -15   2   -2.60   61.23
   0  15   2   52.20   62.89
   0  15   2   11.29   61.45
   0 -16  -2  152.35   60.79
   0 -16  -2   52.20   77.45
   0  16  -2   29.51   69.03
   0  16  -2  121.46   85.97
   0 -16   2  148.14   65.82
   0 -16   2   89.07   66.32
   0  16   2   80.27   64.66
   0  16   2  137.79   67.82
   0 -17  -2  102.08   67.48
   0 -17  -2   73.08   86.64
   0  17  -2  130.37   74.29
   0  17  -2  102.58   88.24
   0 -17   2   50.77   64.33
   0 -17   2    7.53   68.15
   0  17   2  -33.88   68.65
   0  17   2  152.96   72.36
   0  17   2  125.22   79.94
   0 -18  -2  240.48   73.30
   0 -18  -2  196.47   93.72
   0  18  -2  212.19   80.49
   0  18  -2  127.77   93.28
   0 -18   2  114.43   70.81
   0 -18   2  110.50   69.97
   0  18   2  105.90   72.96
   0  18   2  111.94   74.18
   0 -19  -2   93.45   98.37
   0  19  -2   19.60   77.12
   0  19  -2   18.43   93.23
   0 -19   2   15.72   69.59
   0 -19   2  -34.27   73.13
   0  19   2  -57.74   75.62
   0  19   2   -1.83   76.12
   0  20  -2   23.53   81.38
   0  20  -2  111.44   97.93
   0 -20   2   36.70   74.46
   0 -20   2   23.36   73.96
   0  20   2   15.17   76.67
   0  20   2   37.48   80.00
   0  21  -2  -15.83   88.19
   0  21  -2   34.60  100.81
   0 -21   2   64.72   78.89
   0 -21   2    6.64   76.12
   0  21   2  -63.33   80.22
   0  21   2 -190.27   80.33
   0  22  -2   11.90   91.23
   0  22  -2  172.89  102.75
   0 -22   2  196.69   86.75
   0 -22   2  182.13   82.98
   0  22   2   78.17   83.98
   0  22   2   58.40   85.75
  -1   2  -2   99.43   41.19
   1   2  -2  126.44   49.66
  -1  -2   2   31.56   45.01
  -1  -2   2  110.78   46.39
   1  -2   2   87.47   41.08
  -1   3  -2 1452.59   58.79
   1   3  -2 1353.27   68.26
  -1  -3   2 1376.30   66.32
  -1  -3   2 1350.89   65.60
   1  -3   2 1330.19   60.73
  -1   4  -2  567.99   59.84
   1   4  -2  677.49   58.29
  -1  -4   2  635.09   56.30
  -1  -4   2  641.62   56.80
   1  -4   2  556.42   53.20
  -1   5  -2  214.02   55.19
   1  -5  -2  158.05   30.45
   1   5  -2  207.54   54.53
  -1  -5   2  257.48   51.71
  -1  -5   2  205.94   54.09
  -1   5   2  208.60   45.95
   1  -5   2  207.60   51.71
   1  -5   2  203.45   54.92
  -1  -6  -2  903.64   57.96
  -1   6  -2 1074.59   74.51
   1  -6  -2  704.95   46.67
   1   6  -2  995.43   73.24
  -1  -6   2 1054.05   71.91
  -1  -6   2 1112.40   75.79
  -1   6   2 1176.29   61.67
  -1   6   2 1080.24   62.00
   1  -6   2 1074.92   67.54
   1  -6   2  909.01   70.58
   1   6   2  894.17   56.08
   1   6   2 1069.11   59.18
  -1  -7  -2  648.38   59.57
  -1   7  -2  605.08   63.61
   1  -7  -2  443.77   38.81
   1   7  -2  602.65   59.18
  -1  -7   2  693.99   73.85
  -1  -7   2  651.25   76.56
  -1  -7   2  549.00   52.32
  -1   7   2  620.75   63.77
  -1   7   2  496.91   59.57
   1  -7   2  623.63   58.24
   1  -7   2  678.77   61.23
   1   7   2  580.23   60.18
   1   7   2  616.38   59.01
  -1  -8  -2 2639.06   70.42
  -1   8  -2 2524.86   84.15
   1   8  -2 2407.33   87.25
  -1  -8   2 2539.69   83.26
  -1  -8   2 2428.86   86.25
  -1  -8   2 2245.40   76.62
  -1   8   2 2325.01   70.58
  -1   8   2 2272.91   67.04
   1  -8   2 2382.25   77.45
   1  -8   2 2450.29   85.31
   1  -8   2 2336.30   82.82
   1   8   2 2003.42   69.20
   1   8   2 2521.42   69.81
  -1  -9  -2  620.97   68.37
  -1   9  -2  715.86   79.16
   1  -9  -2  690.73   76.51
   1   9  -2  709.44   83.37
  -1  -9   2  630.77   72.85
  -1  -9   2  668.97   66.04
  -1  -9   2  489.55   54.81
  -1   9   2  569.71   68.20
  -1   9   2  547.40   61.12
   1  -9   2  573.69   70.20
   1  -9   2  627.28   62.72
   1  -9   2  544.91   61.84
   1   9   2  444.60   54.25
   1   9   2  597.83   65.38
  -1 -10  -2 1307.32   75.12
  -1 -10  -2 1419.26   89.41
  -1  10  -2 1095.46   82.15
  -1  10  -2 1118.66  101.14
   1 -10  -2 1149.55   85.09
   1  10  -2 1160.45   86.36
  -1 -10   2 1169.87   81.66
  -1 -10   2 1081.95   80.44
  -1 -10   2  959.55   77.67
  -1  10   2 1147.11   71.03
   1 -10   2 1184.65   74.51
   1 -10   2 1065.73   80.11
   1 -10   2  978.93   80.66
   1  10   2 1014.19   70.86
   1  10   2 1175.79   68.42
  -1 -11  -2  632.60   71.91
  -1 -11  -2  924.40   80.33
  -1  11  -2  573.86   67.65
  -1  11  -2  674.28   81.27
   1 -11  -2  677.83   70.58
   1  11  -2  633.71   72.24
  -1 -11   2  777.81   94.28
  -1 -11   2  690.89   70.58
  -1 -11   2  515.90   58.74
  -1  11   2  470.45   58.02
  -1  11   2  615.05   65.38
   1 -11   2  661.05   74.96
   1 -11   2  644.17   66.49
   1 -11   2  493.81   63.17
   1  11   2  477.26   60.40
   1  11   2  613.17   58.68
  -1 -12  -2  420.24   64.88
  -1 -12  -2  407.50   76.95
  -1  12  -2  362.39   68.26
  -1  12  -2  348.88   78.33
   1 -12  -2  397.26   61.78
   1  12  -2  397.48   74.51
  -1 -12   2  508.87   70.31
  -1 -12   2  321.14   57.85
  -1  12   2  297.95   62.94
  -1  12   2  294.35   52.98
   1 -12   2  371.08   66.54
   1 -12   2  241.70   59.07
   1  12   2  252.83   62.72
   1  12   2  298.50   60.01
  -1 -13  -2  269.49   63.61
  -1 -13  -2  287.93   76.45
  -1  13  -2  284.38   68.65
  -1  13  -2  368.81   81.10
   1 -13  -2  316.16   64.16
   1  13  -2  321.14   75.01
  -1 -13   2  307.80   69.48
  -1 -13   2  248.46   58.52
  -1  13   2  225.31   66.16
  -1  13   2  176.43   55.75
   1 -13   2  274.42   66.65
   1 -13   2  235.67   61.56
   1  13   2  227.64   56.97
   1  13   2  280.07   60.23
  -1 -14  -2  433.47   64.00
  -1 -14  -2  508.48   82.43
  -1  14  -2  402.19   73.35
  -1  14  -2  428.87   84.87
   1 -14  -2  461.26   67.43
   1  14  -2  394.22   75.84
  -1 -14   2  426.33   75.18
  -1 -14   2  302.98   62.00
  -1  14   2  400.75   69.75
  -1  14   2  343.56   59.40
   1 -14   2  354.03   66.93
   1 -14   2  336.81   65.10
   1  14   2  350.10   62.17
   1  14   2  486.61   65.93
  -1 -15  -2  130.98   62.06
  -1 -15  -2   77.73   82.87
  -1  15  -2   23.86   69.53
  -1  15  -2   80.60   85.25
   1 -15  -2   27.35   62.72
   1  15  -2   61.73   78.22
  -1 -15   2  114.60   75.46
  -1 -15   2   86.64   59.90
  -1  15   2   -3.76   68.48
  -1  15   2   77.56   54.92
  -1  15   2   32.44   66.93
   1 -15   2  136.13   68.20
   1 -15   2   68.70   62.61
   1  15   2   -2.49   60.23
   1  15   2  127.27   62.34
  -1 -16  -2  -13.34   60.29
  -1 -16  -2  142.05   82.38
  -1  16  -2   88.85   73.46
  -1  16  -2   81.32   86.20
   1 -16  -2   34.93   66.60
   1  16  -2   95.05   69.42
  -1 -16   2   16.88   73.63
  -1 -16   2   54.64   64.00
  -1  16   2   69.81   69.59
  -1  16   2   71.30   59.18
   1 -16   2   81.32   67.43
   1 -16   2   40.97   67.10
   1  16   2  -24.80   61.39
   1  16   2  152.46   66.60
   1  16   2   67.26   67.82
  -1 -17  -2  187.23   67.59
  -1 -17  -2  216.79   89.52
  -1  17  -2  124.56   75.95
  -1  17  -2  246.41   87.19
   1 -17  -2  384.81   75.68
   1  17  -2  156.95   72.02
  -1 -17   2  194.65   74.96
  -1 -17   2  154.40   69.59
  -1  17   2  254.71   76.56
  -1  17   2  213.30   68.87
  -1  17   2  264.62   73.41
   1 -17   2  226.26   73.41
   1 -17   2  123.23   70.20
   1  17   2  195.64   69.92
   1  17   2  336.20   74.51
  -1 -18  -2  306.20   72.30
  -1 -18  -2  412.82   97.65
  -1  18  -2  343.18   86.92
  -1  18  -2  228.69   82.26
   1 -18  -2  316.60   77.12
   1  18  -2  218.23   75.68
  -1 -18   2  344.12   79.22
  -1 -18   2  290.81   72.47
  -1  18   2  264.12   80.66
  -1  18   2  136.19   76.01
   1 -18   2  230.57   77.17
   1 -18   2  270.16   74.79
   1  18   2  223.54   72.08
   1  18   2  123.12   74.40
  -1 -19  -2  169.29  101.53
  -1  19  -2  105.29   81.99
  -1  19  -2   44.18   81.21
   1  19  -2   62.11   75.62
  -1 -19   2  -34.27   75.18
  -1 -19   2  -12.95   68.20
  -1  19   2    5.04   80.66
  -1  19   2   -5.87   76.73
   1 -19   2   92.40   78.67
   1 -19   2   24.03   70.64
   1  19   2   22.31   72.47
   1  19   2  -66.87   74.74
  -1  20  -2   71.47   86.25
  -1  20  -2  136.85   86.03
   1  20  -2  131.04   82.15
   1  20  -2  178.31   97.93
  -1 -20   2  177.10   77.28
  -1 -20   2  116.26   73.19
  -1  20   2  162.54   84.65
  -1  20   2   62.56   80.66
   1 -20   2  136.57   81.77
   1 -20   2  194.76   73.74
   1  20   2  105.85   74.74
   1  20   2  170.01   79.94
  -1  21  -2   48.16   90.02
  -1  21  -2   -9.19   88.13
   1  21  -2   53.64   86.08
   1  21  -2  -12.40   96.94
  -1 -21   2  -17.11   78.78
  -1 -21   2   13.73   73.46
  -1  21   2  -13.01   84.59
  -1  21   2   46.11   83.32
   1 -21   2   61.39   82.21
   1 -21   2   82.43   75.95
   1  21   2  -33.33   75.34
   1  21   2   -8.25   82.82
  -1  22  -2   73.19   97.21
  -1  22  -2   65.10   90.40
   1  22  -2  -59.68   88.74
   1  22  -2  -25.52  101.47
  -1 -22   2  -22.70   84.31
  -1 -22   2    9.52   76.12
  -1  22   2   -5.81   87.75
  -1  22   2    1.27   85.70
   1 -22   2   22.37   90.02
   1 -22   2   60.95   81.16
   1  22   2   11.35   80.33
   1  22   2   62.67   85.31
  -2   0  -2 8158.01   74.51
   2   0  -2 7701.73   78.33
  -2   0   2 6874.26   76.89
  -2   0   2 7552.09   76.45
   2   0   2 6862.75   67.98
   2   0   2 8003.50   72.58
  -2   1  -2  507.15   50.16
   2  -1  -2  368.86   47.55
   2   1  -2  431.75   49.21
  -2  -1   2  438.89   49.21
  -2  -1   2  428.76   50.65
  -2   1   2  321.20   43.57
  -2   1   2  385.64   46.89
   2  -1   2  375.17   43.01
   2  -1   2  523.37   47.39
  -2   2  -2 5024.14   74.68
   2  -2  -2 4395.25   68.92
   2   2  -2 4443.35   75.84
  -2  -2   2 4012.27   72.13
  -2  -2   2 4293.33   78.00
  -2   2   2 2983.18   61.78
  -2   2   2 4351.96   71.36
   2  -2   2 4006.84   66.49
   2  -2   2 4632.91   73.24
  -2   3  -2 1010.54   65.82
   2  -3  -2  708.66   57.74
   2   3  -2 1075.26   75.62
  -2  -3   2  799.40   66.10
  -2  -3   2  914.55   70.47
  -2   3   2  530.18   56.13
  -2   3   2  837.26   62.28
   2  -3   2  739.83   53.59
   2  -3   2  872.14   65.10
  -2   4  -2 1051.01   70.31
  -2   4  -2  877.79   72.69
   2  -4  -2  759.37   59.40
   2   4  -2  979.43   75.23
  -2  -4   2  897.72   67.43
  -2  -4   2  916.93   73.46
  -2   4   2  571.20   49.66
  -2   4   2  966.31   65.21
   2  -4   2  701.02   53.98
   2  -4   2  986.79   67.37
  -2  -5  -2  106.57   44.90
  -2   5  -2  144.66   55.86
  -2   5  -2  128.77   54.86
   2  -5  -2  116.70   41.30
   2   5  -2  170.95   62.17
  -2  -5   2  123.18   54.47
  -2  -5   2  142.05   54.09
  -2  -5   2   78.00   61.89
  -2   5   2   72.13   33.94
  -2   5   2  148.25   49.16
   2  -5   2   46.61   38.92
   2  -5   2  107.07   51.04
   2   5   2   73.24   48.66
   2   5   2  128.10   47.06
  -2  -6  -2 4088.66   75.40
  -2   6  -2 4392.98   89.46
  -2   6  -2 3878.46   88.19
   2  -6  -2 2599.09   64.55
   2   6  -2 3791.71   90.73
  -2  -6   2 4035.24   87.86
  -2  -6   2 3912.12   93.72
  -2  -6   2 3393.01   85.03
  -2   6   2 2301.42   58.29
  -2   6   2 4010.99   78.17
   2  -6   2 2956.88   68.59
   2  -6   2 4210.07   83.93
   2   6   2 3794.37   71.47
  -2  -7  -2  138.57   54.31
  -2   7  -2  210.04   60.07
  -2   7  -2   91.84   57.91
   2  -7  -2  103.52   38.48
   2   7  -2  162.15   61.23
  -2  -7   2  112.33   57.41
  -2  -7   2  139.89   64.61
  -2  -7   2  147.15   64.61
  -2   7   2   89.57   34.60
  -2   7   2  178.26   54.70
   2  -7   2  125.45   44.34
   2  -7   2   71.25   55.47
   2   7   2   90.35   55.91
   2   7   2  229.74   51.71
  -2  -8  -2 2832.10   78.50
  -2   8  -2 2885.03   87.58
  -2   8  -2 2820.81   94.22
   2  -8  -2 1874.76   64.33
   2   8  -2 2962.86   94.89
  -2  -8   2 2705.44   84.81
  -2  -8   2 2639.73   89.24
  -2  -8   2 2580.94   91.84
  -2   8   2 2608.78   79.50
   2  -8   2 1864.69   71.14
   2  -8   2 2869.36   81.60
   2   8   2 2419.23   77.50
   2   8   2 2426.70   70.97
  -2  -9  -2  302.04   54.31
  -2   9  -2  309.68   63.44
  -2   9  -2  312.84   66.60
   2  -9  -2  202.84   39.75
   2   9  -2  290.31   62.94
  -2  -9   2  370.86   62.67
  -2  -9   2  360.78   66.38
  -2  -9   2  305.48   71.47
  -2   9   2  368.14   56.63
  -2   9   2  239.60   48.83
   2  -9   2  267.11   57.91
   2   9   2  268.66   53.37
   2   9   2  313.39   54.20
  -2 -10  -2  895.78   75.12
  -2 -10  -2 1038.94   88.58
  -2  10  -2  982.92   78.50
  -2  10  -2  955.40   91.18
   2 -10  -2  675.72   59.73
   2  10  -2  932.48   87.36
  -2 -10   2  971.29   80.60
  -2 -10   2  855.64   86.69
  -2 -10   2 1014.03   93.78
  -2  10   2 1081.01   76.67
  -2  10   2 1092.75   71.36
   2 -10   2  965.86   77.01
   2  10   2  656.13   69.09
   2  10   2 1076.86   71.08
  -2 -11  -2   36.70   56.19
  -2 -11  -2   27.13   73.91
  -2  11  -2  122.07   59.62
  -2  11  -2   73.63   68.04
   2 -11  -2   35.87   36.26
   2 -11  -2   28.01   48.50
   2  11  -2   45.17   60.45
  -2 -11   2   66.16   64.66
  -2 -11   2   96.27   70.36
  -2  11   2   61.50   56.58
  -2  11   2   95.88   53.81
   2 -11   2  108.12   57.85
   2 -11   2   71.03   58.90
   2  11   2   93.45   51.15
   2  11   2  -27.62   54.53
  -2 -12  -2  327.23   57.30
  -2 -12  -2  238.77   75.90
  -2  12  -2  277.63   64.11
  -2  12  -2  326.96   70.20
   2 -12  -2  178.48   39.97
   2 -12  -2  205.55   51.71
   2  12  -2  294.96   63.61
  -2 -12   2  270.21   68.98
  -2  12   2  205.50   57.80
  -2  12   2  276.86   56.80
   2 -12   2  316.60   61.67
   2 -12   2  206.99   65.44
   2  12   2  200.07   58.46
   2  12   2  307.52   60.67
  -2 -13  -2   65.55   54.58
  -2 -13  -2  -37.98   77.61
  -2  13  -2    9.47   63.17
  -2  13  -2   51.37   70.20
   2 -13  -2  -28.12   42.74
   2 -13  -2   60.95   52.48
   2  13  -2  -85.42   64.61
  -2 -13   2   85.31   63.72
  -2  13   2  -16.77   63.55
  -2  13   2   57.24   56.36
   2 -13   2   12.84   58.35
   2 -13   2  -13.23   66.16
   2  13   2  -33.49   61.12
   2  13   2   34.71   54.81
  -2 -14  -2   51.21   56.08
  -2 -14  -2  -13.90   81.82
  -2  14  -2   61.12   72.85
  -2  14  -2   54.86   71.80
   2 -14  -2   20.70   45.34
   2 -14  -2   84.76   56.58
   2  14  -2   25.24   72.96
  -2 -14   2  -24.97   63.22
  -2  14   2    1.27   64.44
  -2  14   2   67.15   59.51
  -2  14   2   27.85   63.94
   2 -14   2   55.58   61.56
   2 -14   2   28.68   65.93
   2  14   2  -32.22   61.78
   2  14   2   -5.65   55.75
  -2 -15  -2   48.77   60.12
  -2 -15  -2  134.41   86.03
  -2  15  -2   60.34   75.46
  -2  15  -2   35.21   75.57
   2 -15  -2   17.27   56.52
   2  15  -2   28.57   74.68
  -2 -15   2  -42.18   67.10
  -2  15   2   -2.33   66.99
  -2  15   2   43.57   59.35
  -2  15   2   -6.14   67.04
  -2  15   2   85.75   67.48
   2 -15   2   -1.77   72.69
   2 -15   2   76.01   71.14
   2  15   2   49.71   65.44
   2  15   2   61.56   61.89
  -2 -16  -2  150.36   70.42
  -2 -16  -2  182.91   93.45
  -2  16  -2   79.22   80.33
  -2  16  -2  120.46   81.10
   2 -16  -2  117.97   62.06
   2  16  -2  153.01   80.16
  -2 -16   2  140.45   70.92
  -2  16   2   70.14   69.48
  -2  16   2  -14.39   63.61
  -2  16   2   54.70   69.81
  -2  16   2  164.59   71.64
   2 -16   2  143.99   77.23
   2 -16   2   -9.63   71.25
   2  16   2   37.76   69.81
   2  16   2   92.12   64.94
   2  16   2   88.85   64.66
  -2 -17  -2   -0.28   74.02
  -2 -17  -2  149.03   96.44
  -2  17  -2  150.80   83.87
  -2  17  -2  -57.57   81.16
   2 -17  -2  -40.63   68.15
   2  17  -2    0.61   79.50
  -2 -17   2   58.02   73.13
  -2  17   2   97.54   73.57
  -2  17   2  -32.66   72.13
  -2  17   2   12.01   74.02
  -2  17   2  -49.66   75.23
   2 -17   2   -1.38   79.11
   2 -17   2  -18.21   72.41
   2 -17   2  -23.92   72.47
   2  17   2   -3.04   73.91
   2  17   2   53.15   71.80
   2  17   2   -6.53   65.77
   2  17   2   73.13   69.97
  -2 -18  -2   15.22  102.36
  -2  18  -2   70.47   86.14
  -2  18  -2   60.95   84.92
   2 -18  -2   64.94   68.65
   2  18  -2   66.10   85.48
  -2 -18   2   12.73   79.88
  -2  18   2   91.62   74.51
  -2  18   2   75.07   79.39
   2 -18   2   31.72   82.21
   2 -18   2   -9.19   75.01
   2  18   2   -6.20   78.22
   2  18   2   17.83   68.76
  -2  19  -2   11.40   87.52
  -2  19  -2   24.64   86.53
   2 -19  -2    4.15   70.14
   2  19  -2   10.30   88.30
  -2 -19   2   95.83   84.26
  -2  19   2  -21.54   75.46
  -2  19   2  -51.65   79.72
   2 -19   2   86.75   84.42
   2 -19   2    9.85   81.88
   2  19   2   59.90   83.65
   2  19   2    2.05   71.14
  -2  20  -2    1.66   93.84
  -2  20  -2   -7.09   87.97
   2  20  -2 -125.06   90.57
  -2 -20   2   38.64   86.03
  -2  20   2   49.38   80.00
  -2  20   2    7.81   83.21
   2 -20   2   84.31   89.35
   2 -20   2    8.86   77.89
   2  20   2    5.43   77.12
   2  20   2  -12.07   73.91
  -2  21  -2    2.60   97.49
  -2  21  -2  116.70   92.78
   2  21  -2 -116.15   97.27
  -2 -21   2   27.79   93.12
  -2 -21   2  -30.28   75.01
  -2  21   2   65.21   82.15
  -2  21   2  -71.69   85.03
   2 -21   2   79.44   92.17
   2 -21   2   45.62   77.78
   2  21   2  -42.29   73.91
   2  21   2   -1.27   78.33
  -3   0  -2   16.11   52.04
   3   0  -2    2.66   54.86
  -3   0   2    4.04   50.88
  -3   0   2   26.85   51.65
   3   0   2  -24.25   48.99
   3   0   2   32.22   45.34
  -3  -1  -2  293.19   48.83
  -3   1  -2  391.62   54.53
   3  -1  -2  381.98   53.81
   3   1  -2  396.49   53.53
  -3  -1   2  350.43   51.60
  -3  -1   2  387.80   55.30
  -3   1   2  334.60   50.32
  -3   1   2  366.21   53.42
   3  -1   2  306.09   50.77
   3  -1   2  372.46   51.76
   3   1   2  288.70   50.49
   3   1   2  278.68   49.60
  -3  -2  -2  314.28   51.21
  -3   2  -2  398.26   56.25
  -3   2  -2  420.02   59.40
   3  -2  -2  367.15   55.08
   3   2  -2  350.43   56.74
  -3  -2   2  403.52   55.91
  -3  -2   2  404.68   56.36
  -3  -2   2  340.13   65.21
  -3   2   2  300.99   47.06
  -3   2   2  341.74   55.19
   3  -2   2  330.44   51.32
   3  -2   2  396.38   53.20
   3   2   2  266.17   51.48
   3   2   2  354.80   45.56
  -3  -3  -2  122.68   50.71
  -3   3  -2   88.91   55.47
  -3   3  -2   91.01   59.62
   3  -3  -2  119.69   47.78
   3   3  -2   97.27   58.35
  -3  -3   2   58.46   52.20
  -3  -3   2  127.66   57.96
  -3  -3   2  141.06   64.88
  -3   3   2   79.66   45.62
  -3   3   2  111.99   56.13
   3  -3   2   77.95   49.38
   3  -3   2  116.70   49.66
   3   3   2   92.06   47.44
   3   3   2   69.26   45.51
  -3  -4  -2  428.43   53.31
  -3   4  -2  467.57   63.44
  -3   4  -2  397.48   65.44
   3  -4  -2  383.26   52.65
   3   4  -2  428.26   60.56
  -3  -4   2  445.32   56.58
  -3  -4   2  452.40   63.50
  -3  -4   2  360.89   70.42
  -3   4   2  297.28   48.55
  -3   4   2  392.50   58.02
   3  -4   2  286.43   52.48
   3  -4   2  558.97   58.24
   3   4   2  236.77   48.94
   3   4   2  409.05   49.60
  -3  -5  -2  430.20   53.59
  -3   5  -2  455.11   62.72
  -3   5  -2  467.13   65.71
   3  -5  -2  358.40   51.76
   3   5  -2  427.66   66.49
  -3  -5   2  409.50   58.68
  -3  -5   2  534.22   66.21
  -3  -5   2  379.49   73.96
  -3   5   2  215.13   41.52
  -3   5   2  372.46   53.48
   3  -5   2  261.08   50.71
   3  -5   2  444.98   58.07
   3  -5   2  401.91   52.37
   3   5   2  196.75   51.43
   3   5   2  269.33   47.55
  -3  -6  -2 1631.62   73.02
  -3   6  -2 1621.77   83.48
  -3   6  -2 1649.12   89.35
   3  -6  -2 1136.48   71.30
   3   6  -2 1380.07   82.49
  -3  -6   2 1317.73   75.79
  -3  -6   2 1373.98   81.38
  -3  -6   2 1394.13   95.99
  -3   6   2  919.81   57.30
  -3   6   2 1530.31   79.11
   3  -6   2 1002.73   64.16
   3  -6   2 1569.12   75.95
   3  -6   2 1549.14   75.51
   3   6   2 1144.51   71.64
   3   6   2 1516.09   67.21
  -3  -7  -2  573.69   68.65
  -3   7  -2  678.44   79.88
  -3   7  -2  720.23   73.35
   3  -7  -2  545.52   52.54
   3  -7  -2  651.09   73.13
   3   7  -2  713.70   69.14
  -3  -7   2  603.04   72.85
  -3  -7   2  648.93   67.15
  -3  -7   2  722.23   80.22
  -3   7   2  399.53   42.90
  -3   7   2  621.86   72.47
   3  -7   2  544.24   66.38
   3  -7   2  695.65   71.36
   3  -7   2  788.38   64.94
   3   7   2  385.91   58.79
   3   7   2  625.18   66.16
  -3  -8  -2 2028.28   79.05
  -3  -8  -2 2281.66   87.19
  -3   8  -2 2332.87   87.69
  -3   8  -2 2263.72   96.33
   3  -8  -2 1663.34   67.59
   3  -8  -2 1837.51   78.28
   3   8  -2 2080.70   93.50
  -3  -8   2 1926.47   82.93
  -3  -8   2 1920.44   89.41
  -3  -8   2 1932.84   98.76
  -3   8   2 1246.26   59.18
  -3   8   2 2311.06   82.98
   3  -8   2 1554.45   70.58
   3  -8   2 2313.71   80.94
   3  -8   2 2174.54   87.41
   3   8   2 1377.63   77.45
   3   8   2 2178.69   75.57
  -3  -9  -2  124.84   56.30
  -3  -9  -2  109.06   68.42
  -3   9  -2   76.40   61.78
  -3   9  -2   91.45   69.70
   3  -9  -2   68.26   42.18
   3  -9  -2  136.91   54.53
   3   9  -2  108.73   64.72
  -3  -9   2   30.01   58.02
  -3  -9   2  118.47   66.38
  -3  -9   2  121.57   74.85
  -3   9   2   81.66   37.04
  -3   9   2   63.00   60.62
   3  -9   2   81.66   46.06
   3  -9   2  117.75   52.20
   3  -9   2  187.67   61.84
   3   9   2   50.82   63.89
   3   9   2  137.96   52.98
  -3 -10  -2 1037.89   82.71
  -3 -10  -2 1061.25   93.28
  -3  10  -2  996.92   83.93
  -3  10  -2 1038.77   96.99
   3 -10  -2  599.66   62.06
   3 -10  -2  757.60   74.90
   3  10  -2  987.79   89.02
  -3 -10   2  862.51   89.02
  -3 -10   2  873.64   99.54
  -3  10   2  910.50   80.00
   3 -10   2  631.16   67.87
   3 -10   2  853.43   76.06
   3 -10   2 1025.16   84.48
   3  10   2  716.91   78.28
   3  10   2  994.82   75.01
  -3 -11  -2   23.64   58.46
  -3 -11  -2   32.77   74.29
  -3  11  -2  109.67   66.49
  -3  11  -2   23.03   69.42
   3 -11  -2   17.55   42.52
   3 -11  -2   62.39   55.91
   3  11  -2   45.51   67.37
  -3 -11   2   99.59   68.70
  -3 -11   2  -27.96   77.84
  -3  11   2  -28.79   62.94
   3 -11   2   28.29   42.13
   3  11   2   18.43   62.50
   3  11   2   54.36   57.46
  -3 -12  -2  615.55   69.81
  -3 -12  -2  683.86   83.54
  -3  12  -2  588.81   76.45
  -3  12  -2  708.11   79.44
   3 -12  -2  488.50   52.54
   3 -12  -2  549.95   62.72
   3  12  -2  636.14   76.29
  -3 -12   2  635.48   76.84
  -3 -12   2  581.56   84.59
  -3  12   2  599.49   73.24
  -3  12   2  694.49   74.02
  -3  12   2  219.17   62.56
   3 -12   2  418.52   51.43
   3  12   2  466.79   68.42
   3  12   2  602.26   74.29
  -3 -13  -2   -9.25   60.79
  -3 -13  -2  119.69   80.16
  -3  13  -2  -52.48   69.64
  -3  13  -2  -28.46   73.63
   3 -13  -2   18.88   42.90
   3 -13  -2   59.24   58.18
   3  13  -2   -3.99   64.99
  -3 -13   2  -24.58   68.76
  -3 -13   2    8.53   81.38
  -3  13   2    3.93   64.66
  -3  13   2  -42.41   57.85
  -3  13   2   -4.48   65.38
  -3  13   2   71.19   63.00
   3 -13   2    1.66   50.32
   3  13   2  -28.07   55.86
   3  13   2   26.35   61.34
  -3 -14  -2  203.61   63.72
  -3 -14  -2  223.16   85.09
  -3  14  -2  220.50   74.96
  -3  14  -2  174.33   77.67
   3 -14  -2  156.89   46.67
   3 -14  -2  201.01   60.29
   3  14  -2  241.92   69.03
  -3 -14   2  232.62   75.73
  -3 -14   2  154.51   78.67
  -3  14   2  178.09   67.93
  -3  14   2  187.45   65.55
  -3  14   2   85.25   67.48
  -3  14   2  213.80   66.43
   3 -14   2  185.29   56.91
   3  14   2   87.47   60.95
   3  14   2  265.12   65.82
  -3 -15  -2   46.23   66.38
  -3 -15  -2   78.89   90.46
  -3  15  -2   46.50   74.46
  -3  15  -2   41.80   78.22
   3 -15  -2   48.66   48.00
   3 -15  -2   47.00   62.34
   3  15  -2   15.39   69.64
  -3 -15   2   71.91   73.74
  -3 -15   2   69.97   80.77
  -3  15   2   80.05   68.48
  -3  15   2  112.88   65.49
  -3  15   2  -29.29   72.19
  -3  15   2   66.04   68.59
   3 -15   2   33.60   55.14
   3 -15   2   25.47   69.42
   3  15   2   68.37   63.66
   3  15   2  112.05   67.43
   3  15   2   58.96   59.68
  -3 -16  -2   78.61   68.31
  -3 -16  -2  148.20   99.15
  -3  16  -2   87.47   78.45
  -3  16  -2  127.66   83.76
   3 -16  -2   66.93   48.66
   3 -16  -2  142.44   72.24
   3  16  -2   38.59   69.81
  -3 -16   2  134.30   75.34
  -3 -16   2   -8.64   85.86
  -3  16   2   83.48   71.64
  -3  16   2   49.16   68.98
  -3  16   2  135.13   76.56
  -3  16   2  115.37   70.97
   3 -16   2  107.84   57.08
   3 -16   2  123.34   72.47
   3  16   2  117.36   64.88
   3  16   2  183.68   72.02
   3  16   2   99.20   60.67
  -3 -17  -2   82.49   69.20
  -3 -17  -2  107.29  106.62
  -3  17  -2   65.10   80.16
  -3  17  -2    7.36   83.93
   3 -17  -2    0.17   51.48
   3 -17  -2    5.26   71.80
   3  17  -2   13.67   76.78
  -3 -17   2  -40.91   74.57
  -3 -17   2   11.85   91.45
  -3  17   2   32.33   72.52
  -3  17   2   18.60   77.84
   3 -17   2   -6.75   79.44
   3  17   2   76.45   73.35
   3  17   2   86.03   64.16
  -3 -18  -2  270.10  110.28
  -3  18  -2  153.79   83.93
  -3  18  -2  142.39   88.47
   3 -18  -2   36.32   74.40
   3  18  -2   75.79   85.97
  -3 -18   2  112.77   76.67
  -3 -18   2  176.43   93.45
  -3  18   2   65.27   75.57
  -3  18   2  123.73   81.05
   3 -18   2   15.11   79.77
   3  18   2  147.87   76.67
   3  18   2   59.29   66.43
  -3  19  -2   47.50   86.75
  -3  19  -2   -4.71   90.46
   3  19  -2   79.50   88.69
  -3 -19   2   51.93   77.78
  -3 -19   2   75.79   92.01
  -3  19   2  -24.08   71.53
  -3  19   2   98.54   82.15
   3 -19   2  -29.34   80.88
   3  19   2   -4.71   78.89
   3  19   2  -22.70   71.97
  -3  20  -2  288.76   92.17
  -3  20  -2  138.79   94.55
   3  20  -2  265.95   96.66
  -3 -20   2  153.90   82.43
  -3  20   2  207.54   75.79
  -3  20   2   70.09   84.81
   3 -20   2  200.51   87.08
   3  20   2  144.49   81.55
   3  20   2   30.39   75.29
  -3  21  -2  125.17   95.44
  -3  21  -2    4.48   95.16
   3  21  -2   44.18   95.27
  -3 -21   2    0.33   87.75
  -3  21   2   79.44   88.63
  -3  21   2   64.99   87.41
   3 -21   2  -22.09   83.54
   3  21   2   -7.36   83.32
   3  21   2    9.30   78.00
  -4   0  -2 1610.75   80.99
  -4   0  -2 1679.07   86.36
   4   0  -2 1464.44   82.71
  -4   0   2 1259.16   72.41
  -4   0   2 1591.87   81.43
  -4   0   2 1390.59   83.26
   4   0   2 1392.03   75.62
   4   0   2 1657.03   71.47
  -4  -1  -2   -0.17   54.47
  -4  -1  -2   70.09   61.78
  -4   1  -2  -12.90   56.63
  -4   1  -2   30.34   63.61
   4  -1  -2   55.91   53.64
   4   1  -2    3.38   54.58
  -4  -1   2   36.15   55.69
  -4  -1   2   30.39   57.35
  -4  -1   2   88.30   66.93
  -4   1   2   44.73   48.00
  -4   1   2  172.28   56.91
  -4   1   2   68.81   59.35
   4  -1   2   -2.77   53.20
   4  -1   2   58.85   53.81
   4   1   2   59.84   54.64
   4   1   2   31.56   51.87
  -4  -2  -2 1077.53   75.57
  -4  -2  -2 1061.80   83.37
  -4   2  -2 1034.79   80.38
  -4   2  -2  960.72   82.98
   4  -2  -2  854.09   69.81
   4   2  -2  995.98   79.28
  -4  -2   2  945.60   67.98
  -4  -2   2  943.94   76.34
  -4  -2   2  855.48   88.19
  -4   2   2  779.47   67.21
  -4   2   2 1003.45   74.74
  -4   2   2  809.03   84.04
   4  -2   2  761.31   74.79
   4  -2   2 1072.54   70.86
   4  -2   2  839.48   70.75
   4   2   2  876.57   76.95
   4   2   2 1022.66   66.27
  -4  -3  -2   91.29   56.25
  -4  -3  -2  142.99   61.62
  -4   3  -2  106.01   56.74
  -4   3  -2   86.14   65.32
   4  -3  -2  106.29   58.68
   4   3  -2  105.24   58.57
  -4  -3   2  111.00   55.36
  -4  -3   2  163.26   62.00
  -4  -3   2  131.76   70.69
  -4   3   2   46.89   47.17
  -4   3   2  121.68   61.45
  -4   3   2   97.38   63.89
   4  -3   2   48.16   50.88
   4  -3   2   89.63   52.92
   4  -3   2   79.28   52.59
   4   3   2   96.49   56.19
   4   3   2   99.98   47.39
  -4  -4  -2 1154.70   73.35
  -4  -4  -2 1237.29   89.13
  -4   4  -2 1298.25   83.59
  -4   4  -2 1199.82   90.51
   4  -4  -2  996.81   76.23
   4   4  -2 1180.77   84.37
  -4  -4   2 1057.37   75.01
  -4  -4   2 1066.12   81.66
  -4  -4   2 1074.81   94.17
  -4   4   2  786.72   68.15
  -4   4   2 1258.39   82.93
  -4   4   2  919.14   88.69
   4  -4   2  860.07   74.02
   4  -4   2 1303.67   73.30
   4  -4   2 1190.46   71.69
   4   4   2  875.30   72.30
   4   4   2 1142.19   68.09
  -4  -5  -2  246.79   59.07
  -4  -5  -2  198.58   68.37
  -4   5  -2  277.41   62.94
  -4   5  -2  202.73   69.70
   4  -5  -2  227.42   57.69
   4   5  -2  196.47   59.68
  -4  -5   2  246.52   59.29
  -4  -5   2  242.70   63.05
  -4  -5   2  332.88   76.06
  -4   5   2  117.36   45.01
  -4   5   2  278.79   61.78
  -4   5   2  275.64   75.07
   4  -5   2  145.76   53.26
   4  -5   2  246.07   53.92
   4  -5   2  285.05   55.47
   4   5   2  133.64   56.47
   4   5   2  217.01   51.82
  -4  -6  -2 1447.83   78.83
  -4  -6  -2 1463.61  100.37
  -4   6  -2 1471.36   85.48
  -4   6  -2 1373.26   93.45
   4  -6  -2  998.03   74.68
   4   6  -2 1341.48   89.24
  -4  -6   2 1124.69   75.46
  -4  -6   2 1372.82   83.70
  -4  -6   2 1320.72   98.32
  -4   6   2  851.16   60.73
  -4   6   2 1285.29   77.34
  -4   6   2 1036.34   88.24
   4  -6   2 1067.45   74.46
   4  -6   2 1595.75   80.27
   4  -6   2 1279.92   77.67
   4   6   2  905.91   74.74
   4   6   2 1259.83   65.93
  -4  -7  -2  374.23   61.95
  -4  -7  -2  342.40   70.64
  -4   7  -2  392.56   69.14
  -4   7  -2  388.24   72.69
   4  -7  -2  239.15   55.91
   4   7  -2  448.42   74.63
  -4  -7   2  281.51   60.84
  -4  -7   2  402.58   67.37
  -4  -7   2  402.80   80.27
  -4   7   2  209.43   43.73
  -4   7   2  430.04   63.89
  -4   7   2  301.49   78.06
   4  -7   2  212.42   53.59
   4  -7   2  368.36   61.89
   4  -7   2  367.48   59.68
   4   7   2  156.67   56.30
   4   7   2  236.17   52.54
  -4  -8  -2  649.37   67.43
  -4  -8  -2  673.45   74.96
  -4   8  -2  548.06   69.64
  -4   8  -2  710.54   78.61
   4  -8  -2  475.32   59.84
   4   8  -2  588.92   72.30
  -4  -8   2  625.01   69.37
  -4  -8   2  631.66   86.14
  -4   8   2  406.84   47.11
  -4   8   2  609.62   67.93
  -4   8   2  413.04   73.19
   4  -8   2  459.32   54.92
   4  -8   2  603.31   64.27
   4  -8   2  590.97   62.94
   4   8   2  429.43   66.32
   4   8   2  655.13   71.19
  -4  -9  -2   46.78   57.80
  -4  -9  -2    9.69   74.02
  -4   9  -2   88.41   67.98
  -4   9  -2  -32.77   71.47
   4  -9  -2   81.88   51.04
   4  -9  -2   50.88   60.12
   4   9  -2   34.99   66.65
  -4  -9   2   99.09   63.50
  -4  -9   2   62.50   81.77
  -4   9   2   -7.92   35.65
  -4   9   2   58.57   58.35
  -4   9   2   17.88   67.71
   4  -9   2   36.15   45.23
   4  -9   2   33.60   57.91
   4  -9   2   87.86   57.57
   4   9   2   54.97   63.17
   4   9   2  122.29   57.30
  -4 -10  -2  472.00   64.22
  -4 -10  -2  534.83   77.50
  -4  10  -2  502.23   72.63
  -4  10  -2  511.64   78.06
   4 -10  -2  363.16   55.42
   4 -10  -2  499.35   68.59
   4  10  -2  560.46   78.89
  -4 -10   2  550.61   69.81
  -4 -10   2  428.87   85.09
  -4  10   2  305.48   45.40
  -4  10   2  573.75   68.98
   4 -10   2  369.47   54.86
   4 -10   2  483.90   65.82
   4  10   2  284.66   68.04
   4  10   2  435.90   64.27
  -4 -11  -2  237.05   64.11
  -4 -11  -2  214.19   75.95
  -4  11  -2  191.66   71.03
  -4  11  -2  120.13   78.78
   4 -11  -2  112.10   51.65
   4 -11  -2  107.40   64.05
   4  11  -2  135.08   77.89
  -4 -11   2  198.74   70.53
  -4 -11   2  248.07   84.31
  -4  11   2   88.35   40.80
  -4  11   2  229.13   68.76
   4 -11   2  114.60   48.99
   4  11   2   59.95   71.58
   4  11   2   98.54   59.73
  -4 -12  -2   70.09   68.31
  -4 -12  -2   92.89   78.28
  -4  12  -2   83.21   71.91
  -4  12  -2   32.94   78.50
   4 -12  -2   79.00   48.00
   4 -12  -2  122.79   65.71
   4  12  -2  187.06   73.91
  -4 -12   2  130.98   75.29
  -4 -12   2   77.06   87.30
  -4  12   2  -10.74   42.90
  -4  12   2   88.74   67.37
  -4  12   2  -14.73   70.25
   4 -12   2   56.19   48.66
   4  12   2   74.29   73.57
   4  12   2  162.70   64.55
  -4 -13  -2   22.37   67.71
  -4 -13  -2   59.29   84.37
  -4  13  -2   23.92   71.97
  -4  13  -2   16.39   81.93
   4 -13  -2   26.79   49.66
   4 -13  -2   55.86   67.87
   4  13  -2  142.05   75.12
  -4 -13   2   67.21   70.03
  -4 -13   2   68.76   85.42
  -4  13   2  -23.31   68.92
  -4  13   2    7.36   45.40
  -4  13   2   61.34   71.03
   4 -13   2   92.34   51.32
   4  13   2   23.20   68.87
   4  13   2   76.40   63.00
  -4 -14  -2  123.23   71.25
  -4 -14  -2   62.39   90.62
  -4  14  -2   42.41   76.06
  -4  14  -2  -24.64   84.04
   4 -14  -2   40.74   50.99
   4 -14  -2   42.90   68.48
   4  14  -2   26.13   76.67
  -4 -14   2   80.94   76.45
  -4 -14   2   68.65   88.69
  -4  14   2  -14.78   69.37
  -4  14   2  -39.91   69.92
   4 -14   2   10.46   51.32
   4  14   2   41.19   69.31
   4  14   2   89.46   67.87
  -4 -15  -2   69.20   74.29
  -4 -15  -2   43.35   97.71
  -4  15  -2  -57.19   77.61
  -4  15  -2  -38.36   86.47
   4 -15  -2  -43.90   51.93
   4 -15  -2   14.06   69.97
   4  15  -2  -50.65   77.50
  -4 -15   2   -2.66   79.55
  -4 -15   2   62.50   91.23
  -4  15   2   57.24   76.01
  -4  15   2   62.34   73.91
  -4  15   2 -143.38   72.19
   4 -15   2   35.54   52.87
   4  15   2   17.94   71.86
   4  15   2   36.59   72.41
   4  15   2   80.16   69.86
   4  15   2   81.16   71.41
  -4 -16  -2  146.70   74.96
  -4 -16  -2  -34.99  102.08
  -4  16  -2   85.75   81.71
  -4  16  -2  -70.09   89.07
   4 -16  -2    9.91   56.85
   4 -16  -2   32.55   70.75
   4  16  -2   41.19   72.13
  -4 -16   2   82.60   76.12
  -4 -16   2   47.11   97.88
  -4  16   2    1.77   75.84
  -4  16   2  -67.37   78.28
   4 -16   2   37.64   55.03
   4  16   2   43.51   70.09
   4  16   2   -2.16   72.80
  -4 -17  -2  123.29  111.16
  -4  17  -2  -17.94   82.49
  -4  17  -2  -44.62   91.57
   4 -17  -2    3.10   72.08
   4  17  -2    9.25   76.84
  -4 -17   2  159.71   80.66
  -4 -17   2  199.46   97.21
  -4  17   2   41.80   78.94
  -4  17   2    7.36   79.28
   4 -17   2   14.89   56.08
   4  17   2    6.42   72.74
   4  17   2    3.38   73.85
  -4  18  -2  -17.55   85.31
  -4  18  -2  -34.38   92.78
   4 -18  -2    4.21   80.49
   4  18  -2  -29.56   78.33
  -4 -18   2   85.64   80.60
  -4 -18   2  -28.95   97.65
  -4  18   2   32.00   80.60
  -4  18   2  -70.53   86.03
   4 -18   2    0.83   53.75
   4  18   2    3.93   70.09
   4  18   2   99.98   79.55
  -4  19  -2   -5.65   83.21
  -4  19  -2  -38.36   97.16
   4  19  -2   47.11   80.44
  -4 -19   2   17.44   82.38
  -4 -19   2   22.86   92.29
  -4  19   2   29.06   82.49
  -4  19   2  -28.73   88.19
   4 -19   2   46.23   56.74
   4  19   2  -55.08   73.41
   4  19   2  -50.43   73.52
  -4  20  -2  -61.62   87.80
  -4  20  -2  -56.30   98.49
   4  20  -2  148.64   87.30
  -4 -20   2   79.33   84.92
  -4 -20   2   46.11   96.66
  -4  20   2  -14.12   85.81
  -4  20   2   28.07   88.74
   4 -20   2   39.31   57.46
   4 -20   2  -10.80   83.15
   4  20   2  -78.89   75.34
   4  20   2  -59.18   71.58
  -5   0  -2  -22.92   60.56
  -5   0  -2   27.46   67.71
   5   0  -2    5.54   61.12
  -5   0   2  -24.52   52.43
  -5   0   2  -11.79   60.84
  -5   0   2  -51.37   62.89
   5   0   2   35.87   51.10
   5   0   2  -37.53   50.21
   5   0   2  -20.54   47.89
  -5  -1  -2  141.22   58.18
  -5  -1  -2   66.49   69.75
  -5   1  -2  113.43   63.05
  -5   1  -2   98.98   67.48
   5  -1  -2  121.57   56.25
   5   1  -2  124.84   59.12
  -5  -1   2   56.58   57.30
  -5  -1   2   80.00   61.84
  -5  -1   2  150.41   66.04
  -5   1   2   79.61   50.60
  -5   1   2  100.92   60.18
  -5   1   2   62.45   70.03
   5  -1   2   67.15   57.35
   5  -1   2  108.12   51.76
   5  -1   2   44.84   48.99
   5   1   2   34.38   56.58
   5   1   2  106.62   53.64
   5   1   2  102.19   46.95
  -5  -2  -2  143.44   60.23
  -5  -2  -2  285.88   68.26
  -5   2  -2  218.28   61.73
  -5   2  -2  176.38   71.19
   5  -2  -2  176.65   54.92
   5   2  -2  124.01   54.81
  -5  -2   2  200.18   56.69
  -5  -2   2  183.52   59.84
  -5  -2   2  206.27   68.31
  -5   2   2   92.01   50.43
  -5   2   2  108.56   61.78
  -5   2   2  116.59   64.72
   5  -2   2  151.96   57.52
   5  -2   2  214.52   56.13
   5  -2   2   59.12   49.33
   5   2   2   69.20   60.56
   5   2   2  189.33   54.20
  -5  -3  -2  120.68   59.35
  -5  -3  -2  109.34   73.52
  -5   3  -2   97.43   63.89
  -5   3  -2   19.98   71.47
   5  -3  -2   33.82   55.25
   5   3  -2   90.13   58.29
  -5  -3   2   39.97   51.60
  -5  -3   2   88.74   60.90
  -5  -3   2   15.61   68.76
  -5   3   2   70.14   49.49
  -5   3   2  137.96   65.21
  -5   3   2  141.56   69.81
   5  -3   2   32.44   58.18
   5  -3   2   91.68   54.81
   5  -3   2   90.46   58.02
   5   3   2  122.12   58.90
   5   3   2   44.73   48.77
  -5  -4  -2  339.52   61.50
  -5  -4  -2  390.45   79.66
  -5   4  -2  343.56   65.66
  -5   4  -2  371.08   74.90
   5  -4  -2  259.08   63.11
   5   4  -2  263.29   64.99
  -5  -4   2  271.54   57.85
  -5  -4   2  376.12   66.04
  -5  -4   2  385.69   73.79
  -5   4   2  282.94   54.20
  -5   4   2  368.59   66.71
  -5   4   2  320.26   72.63
   5  -4   2  249.67   56.30
   5  -4   2  365.54   57.85
   5  -4   2  330.78   60.73
   5   4   2  263.68   56.08
   5   4   2  279.68   53.26
  -5  -5  -2  280.79   58.52
  -5  -5  -2  275.30   73.91
  -5   5  -2  383.59   68.76
  -5   5  -2  354.75   71.64
   5  -5  -2  344.39   61.89
   5   5  -2  310.13   66.71
  -5  -5   2  235.17   57.35
  -5  -5   2  373.96   67.98
  -5  -5   2  334.32   80.16
  -5   5   2  200.24   53.92
  -5   5   2  288.54   65.05
  -5   5   2  309.24   79.77
   5  -5   2  247.90   60.23
   5  -5   2  394.88   59.84
   5  -5   2  198.41   61.39
   5   5   2  192.10   54.70
   5   5   2  298.67   55.08
  -5  -6  -2  459.99   63.22
  -5  -6  -2  589.47   88.80
  -5   6  -2  582.33   73.02
  -5   6  -2  539.98   78.22
   5  -6  -2  417.64   61.23
   5   6  -2  459.21   66.65
  -5  -6   2  566.22   69.09
  -5  -6   2  551.88   84.70
  -5   6   2  376.50   53.81
  -5   6   2  531.29   68.31
  -5   6   2  501.56   77.17
   5  -6   2  376.56   62.83
   5  -6   2  474.27   60.95
   5  -6   2  445.26   62.22
   5   6   2  323.74   62.45
   5   6   2  441.55   57.96
  -5  -7  -2  205.77   62.06
  -5  -7  -2  303.10   76.29
  -5   7  -2  192.49   65.44
  -5   7  -2  184.24   76.73
   5  -7  -2  191.99   55.97
   5   7  -2  156.95   67.26
  -5  -7   2  211.09   65.32
  -5  -7   2  207.54   78.78
  -5   7   2  181.19   45.62
  -5   7   2  229.19   63.39
  -5   7   2   94.61   50.82
  -5   7   2  300.77   81.27
   5  -7   2  133.75   59.95
   5  -7   2  239.65   63.28
   5  -7   2  201.40   58.02
   5   7   2  114.37   63.39
   5   7   2  225.70   55.30
  -5  -8  -2  670.57   80.88
  -5  -8  -2  695.27   81.60
  -5   8  -2  577.40   71.30
  -5   8  -2  694.32   84.37
   5  -8  -2  538.60   67.10
   5   8  -2  569.71   77.78
  -5  -8   2  588.20   75.95
  -5  -8   2  540.81   86.75
  -5   8   2  359.95   48.99
  -5   8   2  496.69   64.44
  -5   8   2  401.58   77.78
   5  -8   2  371.08   64.55
   5  -8   2  585.98   68.26
   5  -8   2  524.09   66.82
   5   8   2  360.23   64.66
   5   8   2  601.15   72.69
  -5  -9  -2  183.41   63.55
  -5  -9  -2  241.04   77.06
  -5   9  -2  242.14   72.19
  -5   9  -2  178.43   80.33
   5  -9  -2  230.68   60.56
   5   9  -2  141.44   72.24
  -5  -9   2  207.66   64.61
  -5  -9   2  200.62   84.70
  -5   9   2  190.33   45.84
  -5   9   2  249.62   68.65
  -5   9   2  135.91   80.71
   5  -9   2  135.47   57.08
   5  -9   2  267.22   69.97
   5   9   2   76.95   70.14
   5   9   2  217.90   58.07
  -5 -10  -2  403.96   65.99
  -5 -10  -2  517.84   90.68
  -5  10  -2  546.68   78.28
  -5  10  -2  432.69   83.98
   5 -10  -2  430.53   66.21
   5  10  -2  401.80   79.33
  -5 -10   2  532.23   73.13
  -5 -10   2  538.76   90.79
  -5  10   2  240.65   48.22
  -5  10   2  602.98   72.74
  -5  10   2  292.47   75.84
   5 -10   2  331.94   60.73
   5  10   2  329.23   72.63
   5  10   2  469.01   67.93
  -5 -11  -2  -21.76   62.28
  -5 -11  -2   28.79   83.87
  -5  11  -2   11.74   72.80
  -5  11  -2  -63.44   82.54
   5 -11  -2  -40.08   55.97
   5  11  -2   28.73   73.24
  -5 -11   2   48.55   68.81
  -5 -11   2   54.81   89.96
  -5  11   2   80.33   43.46
  -5  11   2   23.64   64.27
  -5  11   2   46.23   74.51
   5 -11   2   23.53   53.15
   5  11   2   18.21   71.14
   5  11   2   45.28   64.49
  -5 -12  -2  254.82   69.53
  -5 -12  -2  415.92   91.12
  -5  12  -2  336.37   80.33
  -5  12  -2  257.48   85.81
   5 -12  -2  272.15   60.79
   5  12  -2  264.51   81.38
  -5 -12   2  322.19   73.52
  -5 -12   2  212.42   96.05
  -5  12   2  142.50   48.16
  -5  12   2  330.89   72.08
  -5  12   2   94.94   76.89
   5 -12   2  224.48   58.13
   5  12   2  148.20   73.24
   5  12   2  221.50   68.87
  -5 -13  -2  -49.99   68.42
  -5 -13  -2   57.24   92.95
  -5  13  -2   46.34   77.61
  -5  13  -2    4.54   87.19
   5 -13  -2   33.49   57.24
   5 -13  -2   60.23   73.41
   5  13  -2   39.03   85.97
  -5 -13   2   57.63   76.01
  -5 -13   2  102.42   93.56
  -5  13   2   30.78   46.72
  -5  13   2   19.76   73.52
  -5  13   2   -7.42   52.26
  -5  13   2  -76.62   80.27
   5 -13   2    5.31   53.53
   5  13   2   37.31   79.94
   5  13   2   45.89   72.08
  -5 -14  -2  177.98   81.99
  -5 -14  -2  175.99  100.37
  -5  14  -2   85.70   84.70
  -5  14  -2   68.48   88.52
   5 -14  -2  147.70   60.23
   5 -14  -2   34.32   77.06
   5  14  -2  223.32   81.77
  -5 -14   2  159.05   80.66
  -5 -14   2  166.52   99.15
  -5  14   2   47.44   50.43
  -5  14   2  151.35   77.56
  -5  14   2  135.08   71.19
  -5  14   2  -37.37   81.21
   5 -14   2   96.77   58.63
   5  14   2   47.17   82.60
   5  14   2  112.88   90.29
  -5 -15  -2   34.16  109.11
  -5 -15  -2   93.95  105.85
  -5  15  -2   90.73   85.25
  -5  15  -2   -9.08   89.68
   5 -15  -2   75.90   63.72
   5 -15  -2   35.98   78.00
   5  15  -2  118.41   85.03
  -5 -15   2  176.16   84.59
  -5 -15   2   59.95   99.48
  -5  15   2  137.07   79.94
  -5  15   2   42.68   81.77
   5 -15   2   39.91   58.85
   5  15   2   94.89   77.78
  -5 -16  -2  -74.24  118.03
  -5  16  -2  101.42   91.68
  -5  16  -2   -4.54   93.67
   5 -16  -2  171.06   88.41
   5  16  -2  -17.72   84.37
  -5 -16   2   59.95   81.66
  -5 -16   2  113.54   98.82
  -5  16   2   50.32   80.66
  -5  16   2   82.49   83.76
   5 -16   2   44.34   59.79
   5  16   2   35.37   82.21
  -5  17  -2  -61.06   89.52
  -5  17  -2    0.06   95.77
   5 -17  -2   -6.42   85.31
   5  17  -2  107.95   90.79
  -5 -17   2   37.20   84.76
  -5 -17   2   56.30  100.15
  -5  17   2  100.81   85.42
  -5  17   2  -39.08   83.93
   5 -17   2   -1.61   58.02
   5  17   2  -22.09   81.93
  -5  18  -2  196.69   95.39
  -5  18  -2  112.49   99.54
   5  18  -2  315.50   88.08
  -5 -18   2  158.27   86.69
  -5 -18   2  127.44  104.63
  -5  18   2  183.74   86.75
  -5  18   2   85.53   85.92
   5 -18   2  167.13   63.33
   5  18   2  143.71   79.05
   5  18   2  128.10   82.43
  -5  19  -2   16.11   99.37
   5  19  -2  134.30   83.93
  -5 -19   2   73.46   93.72
  -5 -19   2   78.33  106.24
  -5  19   2  -42.02   84.70
  -5  19   2   83.87   91.12
   5 -19   2   16.17   60.45
   5  19   2  -54.14   79.11
   5  19   2  -48.55   83.26
  -6   0  -2 1346.08   81.77
  -6   0  -2 1609.81  109.11
   6   0  -2 1313.58   91.90
  -6   0   2 1058.21   77.45
  -6   0   2 1409.80   89.13
  -6   0   2 1249.03   99.48
   6   0   2 1295.98   81.38
   6   0   2 1615.13   81.32
   6   0   2 1337.05   72.36
  -6  -1  -2   87.19   61.50
  -6  -1  -2   95.05   75.62
  -6   1  -2    2.44   64.22
  -6   1  -2  -19.98   76.67
   6  -1  -2    6.09   59.84
   6   1  -2   83.70   65.38
  -6  -1   2   81.10   58.07
  -6  -1   2   56.85   66.43
  -6  -1   2   33.88   69.09
  -6   1   2    2.16   55.19
  -6   1   2   -3.93   65.60
  -6   1   2  -17.88   69.92
   6  -1   2   50.43   60.62
   6  -1   2   13.84   54.25
   6  -1   2  -52.04   54.53
   6   1   2   31.83   61.34
   6   1   2   -3.65   56.19
   6   1   2   50.27   51.26
  -6  -2  -2  963.54   86.25
  -6  -2  -2  988.23  101.31
  -6   2  -2 1044.42   92.01
  -6   2  -2  793.97   97.05
   6  -2  -2  796.13   80.22
   6   2  -2  935.03   81.10
  -6  -2   2  750.68   81.99
  -6  -2   2  917.26   84.92
  -6  -2   2  835.99   95.61
  -6   2   2  656.90   75.07
  -6   2   2  904.42   83.93
  -6   2   2  927.06   81.27
   6  -2   2  715.36   83.43
   6  -2   2 1272.50   83.48
   6  -2   2  880.00   72.63
   6   2   2  812.19   82.93
   6   2   2  970.57   79.28
   6   2   2  898.66   74.51
  -6  -3  -2  -45.62   62.34
  -6  -3  -2  -18.55   80.38
  -6   3  -2  -30.50   64.66
  -6   3  -2  -15.45   70.92
   6  -3  -2  -15.89   61.67
   6   3  -2   23.58   61.84
  -6  -3   2  -20.26   65.49
  -6  -3   2   44.18   73.85
  -6   3   2  -73.96   51.32
  -6   3   2  -43.18   65.99
  -6   3   2   20.65   73.19
   6  -3   2  -22.42   58.52
   6  -3   2  -42.07   58.13
   6  -3   2   18.60   52.98
   6   3   2   82.21   64.33
   6   3   2  -36.09   57.08
   6   3   2  -32.61   57.74
  -6  -4  -2  577.79   67.37
  -6  -4  -2  782.40  104.96
  -6   4  -2  742.71   88.30
  -6   4  -2  657.51   83.98
   6  -4  -2  598.99   71.30
   6   4  -2  599.33   70.81
  -6  -4   2  686.08   71.41
  -6  -4   2  559.80   80.94
  -6   4   2  505.16   62.22
  -6   4   2  771.16   76.56
  -6   4   2  701.24   85.31
   6  -4   2  655.41   70.25
   6  -4   2  625.01   77.67
   6  -4   2  627.17   68.54
   6   4   2  451.35   60.07
   6   4   2  645.28   73.91
   6   4   2  592.79   73.79
  -6  -5  -2  101.36   62.56
  -6  -5  -2   13.40   77.89
  -6   5  -2   40.08   65.66
  -6   5  -2  -45.51   78.45
   6  -5  -2   14.17   63.05
   6   5  -2   75.18   63.17
  -6  -5   2   38.64   65.93
  -6  -5   2   65.05   76.18
  -6   5   2   61.50   54.14
  -6   5   2   61.89   65.49
  -6   5   2   62.00   85.14
   6  -5   2   40.19   58.02
   6  -5   2   12.46   59.29
   6  -5   2   95.22   64.66
   6   5   2   40.25   61.56
   6   5   2   -4.59   54.31
   6   5   2   19.93   55.36
  -6  -6  -2  573.64   69.26
  -6  -6  -2  603.09   94.83
  -6   6  -2  570.98   74.40
  -6   6  -2  717.13   86.31
   6  -6  -2  554.43   68.70
   6   6  -2  713.87   79.28
  -6  -6   2  715.80   77.01
  -6  -6   2  527.91   84.20
  -6   6   2  496.80   63.33
  -6   6   2  618.32   75.12
  -6   6   2  539.81   87.03
   6  -6   2  460.21   65.44
   6  -6   2  544.46   69.75
   6  -6   2  469.84   70.53
   6   6   2  489.22   66.21
   6   6   2  635.03   77.73
   6   6   2  461.54   61.34
  -6  -7  -2   92.12   61.89
  -6  -7  -2   16.77   85.75
  -6   7  -2  -12.79   71.58
  -6   7  -2  -75.68   79.94
   6  -7  -2    0.44   58.68
   6   7  -2    8.58   64.55
  -6  -7   2   -8.53   67.93
  -6  -7   2   -6.42   83.65
  -6   7   2   15.33   47.89
  -6   7   2   25.35   68.48
  -6   7   2  -16.17   55.36
  -6   7   2 -108.89   75.46
   6  -7   2   30.50   61.45
   6  -7   2  -28.40   62.94
   6  -7   2  -14.62   66.32
   6   7   2   22.03   62.56
   6   7   2   45.78   60.07
   6   7   2  -34.49   60.12
  -6  -8  -2  360.61   67.43
  -6  -8  -2  403.02   89.18
  -6   8  -2  344.01   75.68
  -6   8  -2  421.29   84.81
   6  -8  -2  309.46   67.82
   6   8  -2  303.37   73.63
  -6  -8   2  442.33   77.84
  -6  -8   2  240.82   87.97
  -6   8   2  197.91   52.32
  -6   8   2  319.93   70.75
  -6   8   2  200.07   68.48
  -6   8   2  279.96   89.18
   6  -8   2  280.51   69.42
   6  -8   2  328.06   88.47
   6   8   2  327.01   68.98
   6   8   2  238.99   63.55
   6   8   2  217.12   63.89
  -6  -9  -2  118.86   66.93
  -6  -9  -2  111.27   87.19
  -6   9  -2   16.72   69.81
  -6   9  -2   23.53   85.75
   6  -9  -2   72.08   61.84
   6   9  -2   33.38   75.57
  -6  -9   2   50.21   72.47
  -6  -9   2   41.19   85.37
  -6   9   2   -1.94   45.45
  -6   9   2   60.67   66.27
  -6   9   2   31.22   60.51
  -6   9   2   86.20   80.49
   6  -9   2   36.54   61.34
   6   9   2   34.21   64.44
   6   9   2   74.68   63.05
   6   9   2   32.88   69.26
  -6 -10  -2  214.74   71.75
  -6 -10  -2  178.59   97.32
  -6  10  -2  169.35   73.68
  -6  10  -2   48.94   85.92
   6 -10  -2  139.34   67.87
   6  10  -2  108.67   82.60
  -6 -10   2  262.74   81.21
  -6 -10   2  192.32   92.51
  -6  10   2   92.89   48.83
  -6  10   2  156.06   78.06
  -6  10   2   21.04   58.96
  -6  10   2  136.13   87.58
   6 -10   2  134.47   64.77
   6  10   2   17.66   71.36
   6  10   2  101.53   64.88
   6  10   2   99.59   73.41
  -6 -11  -2  133.69   79.61
  -6 -11  -2   51.82   96.94
  -6  11  -2   73.68   81.43
  -6  11  -2   59.51   86.53
   6 -11  -2    4.93   67.26
   6  11  -2  101.42   79.33
  -6 -11   2  102.03   76.89
  -6 -11   2  150.19   97.99
  -6  11   2   73.85   51.04
  -6  11   2  223.05   77.01
  -6  11   2   67.15   59.46
  -6  11   2  -62.17   83.15
   6 -11   2   32.55   60.95
   6  11   2   44.45   80.66
   6  11   2  104.85   66.60
   6  11   2  -32.11   87.41
  -6 -12  -2  129.60   73.24
  -6 -12  -2  160.88   99.76
  -6  12  -2   75.90   81.49
  -6  12  -2   17.88   90.62
   6 -12  -2  145.54   71.19
   6  12  -2  102.91   82.15
  -6 -12   2   72.30   74.35
  -6 -12   2  136.19   97.60
  -6  12   2   81.77   49.88
  -6  12   2  100.98   77.45
  -6  12   2   59.24   62.94
  -6  12   2   86.92   83.70
   6 -12   2   -6.26   62.11
   6  12   2  116.92   79.94
   6  12   2  112.99   69.37
   6  12   2  153.90   87.80
  -6 -13  -2   43.40   81.93
  -6 -13  -2  -41.30  101.20
  -6  13  -2    4.10   85.03
  -6  13  -2   68.15   92.62
   6 -13  -2  -66.54   65.99
   6  13  -2  -34.27   86.47
  -6 -13   2   41.69   77.45
  -6 -13   2  132.37   98.87
  -6  13   2   86.97   77.23
  -6  13   2  119.96   84.65
   6 -13   2   28.07   60.67
   6  13   2  -65.32   80.94
  -6 -14  -2    8.69  106.29
  -6  14  -2  -23.92   86.58
  -6  14  -2  -32.77   94.28
   6 -14  -2   53.59  101.64
   6  14  -2   11.29   95.33
  -6 -14   2   57.02   80.55
  -6 -14   2   78.61  103.19
  -6  14   2  -21.98   75.84
  -6  14   2  -34.77   89.90
   6 -14   2  -17.83   64.66
   6  14   2  -57.91   84.81
  -6  15  -2   26.63   89.13
  -6  15  -2    5.37   94.89
   6  15  -2  -48.11   97.82
  -6 -15   2    8.91   82.26
  -6 -15   2  -88.30  105.07
  -6  15   2  -41.30   78.78
  -6  15   2  -51.98   89.85
   6 -15   2   -9.52   60.84
   6  15   2  -11.13   94.83
  -6  16  -2   82.10   93.12
  -6  16  -2    3.60   98.71
   6  16  -2   52.59   90.29
  -6 -16   2  -28.23   86.25
  -6 -16   2   56.36  108.01
  -6  16   2   63.55   84.98
  -6  16   2   20.87   93.84
   6 -16   2   -3.76   62.83
   6  16   2   29.56   95.77
  -6  17  -2  -27.74  118.03
  -6  17  -2  -68.20  101.47
   6  17  -2   60.40   95.72
  -6 -17   2   72.91   93.12
  -6 -17   2   43.73  110.72
  -6  17   2  -39.75   84.42
  -6  17   2    0.06   94.17
   6 -17   2   24.25   62.94
   6  17   2  -10.19   83.59
  -6  18  -2 -121.96  102.86
   6  18  -2   52.04   98.04
  -6 -18   2   56.80   97.05
  -6 -18   2   58.07  112.49
  -6  18   2   18.60   89.18
  -6  18   2    6.42   91.79
   6 -18   2  -30.06   65.16
   6  18   2   37.31   93.12
  -7   0  -2   39.08   70.09
  -7   0  -2   78.56   83.87
   7   0  -2   14.39   70.36
  -7   0   2  -19.38   68.87
  -7   0   2   36.93   82.87
   7   0   2  -62.89   64.00
   7   0   2   32.33   64.44
   7   0   2   16.50   58.24
  -7  -1  -2   31.50   75.62
  -7  -1  -2   52.65   86.92
  -7   1  -2   49.77   71.58
  -7   1  -2  123.12   89.02
   7  -1  -2   86.25   68.26
   7   1  -2   31.06   73.35
  -7  -1   2   14.28   69.86
  -7  -1   2   58.29   81.55
  -7   1   2  -15.33   71.36
  -7   1   2   69.92   78.17
   7  -1   2   43.96   59.12
   7  -1   2   53.53   57.63
   7  -1   2   59.79   58.63
   7   1   2  -17.88   66.65
   7   1   2   55.08   61.28
   7   1   2  116.64   59.12
  -7  -2  -2   53.59   68.15
  -7  -2  -2  129.27   91.73
  -7   2  -2   27.24   70.58
  -7   2  -2  221.88   90.29
   7  -2  -2   57.46   63.11
   7   2  -2  159.44   74.13
  -7  -2   2  161.26   69.64
  -7  -2   2  122.57   81.16
  -7   2   2  150.97   71.53
  -7   2   2  146.81   78.67
   7  -2   2   66.43   67.65
   7  -2   2  151.69   67.76
   7  -2   2  176.43   61.89
   7   2   2   31.17   69.14
   7   2   2   58.29   66.71
   7   2   2  104.57   60.62
  -7  -3  -2   88.30   69.70
  -7  -3  -2   71.69   90.35
  -7   3  -2  144.54   71.58
  -7   3  -2   98.54   83.32
   7  -3  -2   55.97   65.49
   7   3  -2   51.87   66.49
  -7  -3   2   23.31   71.03
  -7  -3   2   12.62   76.12
  -7   3   2   93.56   75.62
  -7   3   2    7.47   81.21
   7  -3   2   50.32   70.36
   7  -3   2  112.55   69.09
   7  -3   2    0.00   61.17
   7   3   2   85.25   69.97
   7   3   2   72.36   63.66
   7   3   2   -0.28   65.71
  -7  -4  -2  117.14   69.20
  -7  -4  -2   55.08   93.12
  -7   4  -2   51.60   71.53
  -7   4  -2   25.85   84.31
   7  -4  -2   59.07   69.53
   7   4  -2   69.42   71.14
  -7  -4   2  123.29   69.86
  -7  -4   2   61.89   79.94
  -7   4   2   17.22   76.06
  -7   4   2   -1.94   86.36
   7  -4   2  157.89   69.20
   7  -4   2   57.96   67.37
   7  -4   2   24.69   60.34
   7   4   2   10.74   68.20
   7   4   2   53.64   60.56
   7   4   2   -9.25   58.13
  -7  -5  -2  103.63   70.03
  -7  -5  -2  196.20   91.18
  -7   5  -2  115.98   76.51
  -7   5  -2   94.44   82.93
   7  -5  -2  121.96   68.48
   7   5  -2  137.90   72.80
  -7  -5   2   84.26   76.23
  -7  -5   2  174.49   85.64
  -7   5   2  215.96   77.73
  -7   5   2  105.46   92.62
   7  -5   2  131.48   67.98
   7  -5   2  134.86   63.77
   7   5   2   62.11   68.98
   7   5   2  109.45   63.39
   7   5   2  128.82   64.55
  -7  -6  -2  274.59   81.10
  -7  -6  -2  348.88  107.23
  -7   6  -2  178.98   75.18
  -7   6  -2  163.09   92.78
   7  -6  -2  295.23   73.35
   7   6  -2  310.57   78.33
  -7  -6   2  269.77   75.90
  -7  -6   2  178.70   84.15
  -7   6   2  243.86   79.05
  -7   6   2  325.41   89.79
   7  -6   2  214.52   67.21
   7  -6   2  254.16   77.28
   7   6   2  252.72   64.55
   7   6   2  221.66   64.99
   7   6   2  134.14   66.43
  -7  -7  -2   43.79   70.20
  -7  -7  -2  119.19   95.61
  -7   7  -2  122.18   73.13
  -7   7  -2   95.05   90.51
   7  -7  -2   95.11   68.92
   7   7  -2   96.99   75.73
  -7  -7   2  107.84   72.91
  -7  -7   2   83.15   86.58
  -7   7   2  114.93   75.57
  -7   7   2  190.05   88.30
   7  -7   2  115.92   66.21
   7   7   2   45.01   75.46
   7   7   2   96.88   68.48
   7   7   2  138.57   68.42
  -7  -8  -2  266.06   76.12
  -7  -8  -2  342.01  105.07
  -7   8  -2  382.26   84.98
  -7   8  -2  321.09   93.61
   7  -8  -2  329.95   74.57
   7   8  -2  369.53   80.94
  -7  -8   2  344.73   77.95
  -7  -8   2  393.06   94.78
  -7   8   2  419.74   81.66
  -7   8   2   64.11   65.60
  -7   8   2  271.54   91.73
   7  -8   2  351.59   72.08
   7   8   2  268.50   80.38
   7   8   2  344.89   73.68
   7   8   2  381.76   76.62
  -7  -9  -2   79.16   73.57
  -7  -9  -2  104.80  102.53
  -7   9  -2  140.17   86.31
  -7   9  -2  150.19   93.00
   7  -9  -2  222.21   73.57
   7   9  -2   59.46   77.84
  -7  -9   2  117.64   80.33
  -7  -9   2  -14.39   95.00
  -7   9   2  105.41   82.87
  -7   9   2   58.46   78.56
  -7   9   2  197.86   93.28
   7  -9   2  142.00   71.25
   7   9   2  159.99   82.26
   7   9   2  176.82   73.68
   7   9   2  118.14   79.55
  -7 -10  -2  183.79   89.96
  -7 -10  -2  156.23  106.79
  -7  10  -2  164.53   86.08
  -7  10  -2   69.03   93.39
   7 -10  -2   58.52   72.52
   7  10  -2  177.15   88.19
  -7 -10   2  101.42   83.98
  -7 -10   2   89.46   95.16
  -7  10   2  138.46   75.46
  -7  10   2   59.18   93.06
   7 -10   2   87.14   75.95
   7  10   2   79.28   76.40
  -7 -11  -2  154.34   96.77
  -7 -11  -2  123.78  112.93
  -7  11  -2   75.18   84.31
  -7  11  -2  184.18   96.05
   7 -11  -2  144.49   71.80
   7  11  -2  142.16   94.50
  -7 -11   2  188.67   85.09
  -7 -11   2  165.30   98.54
  -7  11   2  151.46   79.16
  -7  11   2  101.92   97.16
   7 -11   2  154.18   74.35
   7  11   2   22.81   85.81
  -7 -12  -2   83.98  111.99
  -7  12  -2   39.47   84.31
  -7  12  -2   51.21   96.60
   7 -12  -2  142.16   85.64
   7  12  -2   34.16   92.67
  -7 -12   2  117.09   81.55
  -7 -12   2  236.72  109.45
  -7  12   2  162.70   86.31
  -7  12   2  -49.44   98.10
   7 -12   2  135.58   72.02
   7  12   2  136.13   93.61
  -7  13  -2  196.08   90.51
  -7  13  -2  217.84   98.32
   7  13  -2  103.91   95.99
  -7 -13   2  160.27   83.32
  -7 -13   2  175.05  110.44
  -7  13   2  122.23   84.48
  -7  13   2  -14.62   93.61
   7 -13   2   42.57   69.48
   7  13   2  112.27   88.69
  -7  14  -2  151.80   95.94
  -7  14  -2  181.47  105.41
   7  14  -2  144.93   95.61
  -7 -14   2  168.18   91.95
  -7 -14   2  151.96  108.39
  -7  14   2  221.94   89.63
  -7  14   2   60.90   97.82
   7 -14   2  188.78   71.58
   7  14   2   62.78   98.32
  -7  15  -2   86.25  105.90
   7  15  -2   49.77  106.68
  -7 -15   2   67.26   93.23
  -7 -15   2   68.04  108.45
  -7  15   2   28.46   87.25
  -7  15   2   28.46   93.78
   7 -15   2   67.93   71.19
   7  15   2   15.56   98.71
  -7  16  -2  149.80  110.00
   7  16  -2  169.62  117.14
  -7 -16   2  173.94   99.20
  -7 -16   2  206.44  113.21
  -7  16   2  116.86   84.81
  -7  16   2  174.27  102.64
   7 -16   2   78.45   70.09
   7  16   2   71.97   97.05
  -8   0  -2  791.70   95.66
  -8   0  -2  954.57  112.77
   8   0  -2  999.03   97.60
  -8   0   2 1083.56  106.90
  -8   0   2  964.26   99.26
   8   0   2  634.37   79.28
   8   0   2  757.55   88.19
   8   0   2  774.82   91.90
  -8  -1  -2  196.69  103.25
  -8  -1  -2  202.84  106.46
  -8   1  -2  159.60   82.04
  -8   1  -2  117.70   96.94
   8  -1  -2  238.32   88.08
   8   1  -2   83.87   82.26
  -8  -1   2  145.93   90.35
  -8  -1   2   88.69   95.44
  -8   1   2  152.52   87.47
  -8   1   2  187.01   92.89
   8  -1   2  110.28   66.04
   8  -1   2   -6.14   82.98
   8  -1   2  124.50   68.54
   8   1   2  222.71   78.94
   8   1   2  138.18   85.48
   8   1   2  106.24   67.32
  -8  -2  -2  886.37  115.20
  -8  -2  -2  941.73  115.37
  -8   2  -2  962.38  104.52
  -8   2  -2  929.55  114.87
   8  -2  -2  849.39   86.25
   8   2  -2  887.75   96.55
  -8  -2   2  890.74   96.88
  -8  -2   2  774.98   98.54
  -8   2   2  676.94   95.44
  -8   2   2  767.90   96.99
   8  -2   2  905.19  107.56
   8  -2   2  687.13   81.55
   8   2   2  655.07   89.30
   8   2   2  653.30   83.65
   8   2   2  764.30   85.59
  -8  -3  -2   32.77  101.20
  -8  -3  -2  120.96  117.03
  -8   3  -2   93.61   88.13
  -8   3  -2   57.91   96.82
   8  -3  -2  -19.15   70.75
   8   3  -2  121.13   72.52
  -8  -3   2   71.75   74.18
  -8  -3   2   42.57   85.64
  -8   3   2  -18.10   82.10
  -8   3   2   93.12   91.90
   8  -3   2   24.64   73.08
   8  -3   2   95.55   70.69
   8   3   2  303.43   84.09
   8   3   2    8.47   90.18
   8   3   2   46.11   77.23
  -8  -4  -2  682.59  106.40
  -8  -4  -2  911.56  114.65
  -8   4  -2  698.92  100.42
  -8   4  -2  773.32  105.35
   8  -4  -2  545.13   80.94
   8   4  -2  693.88   84.26
  -8  -4   2  645.61   97.10
  -8  -4   2  607.63  101.09
  -8   4   2  539.48   89.74
  -8   4   2  727.32  107.40
   8  -4   2  690.34   85.81
   8  -4   2  560.63   80.94
   8   4   2  541.31   84.15
   8   4   2  594.79   88.08
   8   4   2  544.52   78.11
  -8  -5  -2   52.87   80.66
  -8  -5  -2  148.42  105.13
  -8   5  -2   86.64   90.40
  -8   5  -2   53.31   96.82
   8  -5  -2   39.64   76.78
   8   5  -2   87.86   76.89
  -8  -5   2   61.73   91.12
  -8  -5   2  206.77   96.10
  -8   5   2   55.64   88.35
  -8   5   2  227.47  102.25
   8  -5   2  105.46   73.57
   8   5   2   61.89   73.02
  -8  -6  -2  500.23   96.94
  -8  -6  -2  434.19  123.62
  -8   6  -2  536.77  102.47
  -8   6  -2  513.91  101.47
   8  -6  -2  551.38   91.95
   8   6  -2  508.20   87.25
  -8  -6   2  472.72   96.10
  -8  -6   2  517.23  102.36
  -8   6   2  584.27   98.54
  -8   6   2  543.91  107.34
   8  -6   2  449.97   81.05
   8   6   2  366.04   84.09
  -8  -7  -2   45.84   86.03
  -8  -7  -2  106.62  106.84
  -8   7  -2   33.94   91.29
  -8   7  -2   43.01   95.83
   8  -7  -2   48.83   82.04
   8   7  -2  175.49   86.36
  -8  -7   2   78.17   80.94
  -8  -7   2   80.05   89.63
  -8   7   2   84.31   89.46
  -8   7   2   66.21   95.11
   8  -7   2   59.84   72.96
   8   7   2   31.67   73.02
  -8  -8  -2  238.21  116.37
  -8   8  -2  198.63   87.69
  -8   8  -2  167.02   94.78
   8  -8  -2  221.72   85.53
   8   8  -2  272.76   95.94
  -8  -8   2  372.52  103.41
  -8  -8   2  119.74   97.93
  -8   8   2  186.18   93.89
  -8   8   2  149.36   96.44
   8  -8   2  181.25   75.46
   8   8   2  127.27   82.43
  -8  -9  -2  -27.96  116.26
  -8   9  -2   44.01   89.24
  -8   9  -2  186.90  106.07
   8  -9  -2    5.26   79.88
   8   9  -2  146.04   86.42
  -8  -9   2   55.19   77.84
  -8  -9   2  -31.39  102.03
  -8   9   2  137.79   91.90
  -8   9   2   90.79  112.77
   8  -9   2   50.54   72.85
   8   9   2   24.91   84.59
  -8 -10  -2  144.71  123.73
  -8  10  -2  252.28   96.05
  -8  10  -2  157.89  105.63
   8  10  -2  315.72   95.94
  -8 -10   2  123.29   96.44
  -8 -10   2  248.57  112.05
  -8  10   2  139.40   88.74
  -8  10   2  189.77  105.35
   8 -10   2  189.22   75.62
   8  10   2  222.88   90.85
  -8  11  -2  170.56  104.08
  -8  11  -2    8.03  104.91
   8  11  -2   85.97  102.91
  -8 -11   2   61.12   95.27
  -8 -11   2   24.80  107.40
  -8  11   2  118.69   86.58
  -8  11   2   89.18  103.80
   8 -11   2   47.44   78.45
   8  11   2  -14.50   86.92
  -8  12  -2   14.23  108.62
   8  12  -2   31.11  105.07
  -8 -12   2   45.78   88.41
  -8 -12   2   75.07  108.95
  -8  12   2   83.98   79.22
  -8  12   2   88.13  107.62
   8 -12   2   -6.09   81.60
   8  12   2   88.41  100.37
  -8  13  -2   80.88  108.51
   8  13  -2  124.23  107.95
  -8 -13   2  109.61   93.84
  -8 -13   2    1.22  106.01
  -8  13   2   79.05   85.70
  -8  13   2   50.54  108.23
   8 -13   2   34.43   79.88
   8  13   2   41.02   98.32
  -8  14  -2  192.82  111.94
   8  14  -2  -27.79  110.83
  -8 -14   2   16.33   99.09
  -8 -14   2   76.78  117.42
  -8  14   2   32.44   93.39
  -8  14   2   12.01  105.85
   8 -14   2  -50.05   80.27
   8  14   2  -33.66   95.50
  -9   0  -2  -19.98  124.50
  -9   0  -2   -0.50  116.70
   9   0  -2   16.61   92.78
  -9   0   2  -60.23  107.12
  -9   0   2  122.95  103.02
   9   0   2   90.51   82.38
  -9  -1  -2   13.23  111.16
  -9   1  -2  239.76  112.21
  -9   1  -2   41.80  113.99
   9  -1  -2  282.89   92.62
   9   1  -2  231.02   95.94
  -9  -1   2  115.43   89.79
  -9  -1   2  112.82  111.61
  -9   1   2  182.52  110.00
  -9   1   2  125.83   97.49
   9  -1   2  184.79   82.98
   9   1   2  192.04   91.29
  -9  -2  -2   28.95  121.40
  -9   2  -2   77.23  108.45
  -9   2  -2  117.03  110.83
   9  -2  -2  289.14   93.78
   9   2  -2  145.26   89.07
  -9  -2   2   79.72   99.26
  -9  -2   2   79.22  105.74
  -9   2   2   92.34   86.31
  -9   2   2  227.31  104.74
   9  -2   2    2.71   78.83
   9   2   2  159.93   90.35
  -9  -3  -2  216.35  125.22
  -9   3  -2  198.47  130.15
  -9   3  -2  270.49  108.17
   9  -3  -2  279.12   85.03
   9   3  -2  180.42   83.59
  -9  -3   2  179.53   95.83
  -9  -3   2  271.10  101.47
  -9   3   2  197.63  102.91
  -9   3   2  252.50  105.79
   9  -3   2  218.12   80.16
   9   3   2  169.12   91.73
  -9  -4  -2  285.10  122.18
  -9   4  -2   77.17  114.04
   9  -4  -2   65.27   83.76
   9   4  -2   79.55   91.34
  -9  -4   2  124.56   94.44
  -9  -4   2  184.68   97.32
  -9   4   2   72.47   94.94
  -9   4   2  259.91  108.34
   9  -4   2  120.08   88.13
   9   4   2  111.77   86.14
  -9  -5  -2  514.85  131.37
  -9   5  -2  322.64  112.77
   9  -5  -2  422.06   99.76
   9   5  -2  391.06   95.27
  -9  -5   2  298.28   98.49
  -9  -5   2  202.45   98.04
  -9   5   2  288.76   93.78
  -9   5   2  400.25  113.71
   9  -5   2  296.34   90.13
   9   5   2  220.00   79.33
  -9  -6  -2  154.95  131.76
  -9   6  -2  153.46  111.11
   9   6  -2  210.87   96.27
  -9  -6   2  210.31  100.42
  -9  -6   2   39.64  107.56
  -9   6   2  121.40  102.42
  -9   6   2  125.28  117.86
   9  -6   2  228.08   86.42
   9   6   2  174.94   89.52
  -9   7  -2   99.26  109.50
   9   7  -2  196.20   97.99
  -9  -7   2  130.87   94.00
  -9  -7   2  152.96  103.08
  -9   7   2  196.86   92.45
  -9   7   2  226.92  105.85
   9  -7   2  193.48   87.58
   9   7   2   93.72   86.86
  -9   8  -2  223.71  109.61
   9   8  -2  121.68  102.14
  -9  -8   2   65.99  103.80
  -9  -8   2  126.55  111.72
  -9   8   2   89.68  105.57
  -9   8   2  149.80  105.68
   9  -8   2  124.62   83.98
   9   8   2  174.33   89.74
  -9   9  -2   67.21  107.34
   9   9  -2  146.93  107.73
  -9  -9   2  132.42  106.84
  -9  -9   2   97.93  111.11
  -9   9   2  101.92  103.41
  -9   9   2  112.93  110.06
   9  -9   2  137.68   83.98
   9   9   2   55.86   94.11
  -9  10  -2   85.31  108.95
   9  10  -2   86.75  104.30
  -9 -10   2   42.68   99.32
  -9 -10   2  112.16  107.34
  -9  10   2   56.63  101.25
  -9  10   2   59.29  123.45
   9 -10   2  -12.01   78.39
   9  10   2   53.75   93.17
  -9  11  -2   45.45  109.23
  -9 -11   2   78.50   99.87
  -9 -11   2   75.90  115.76
  -9  11   2   50.16  101.14
  -9  11   2  -47.66  114.93
   9 -11   2  138.90   85.64
   9  11   2  163.15   95.44
 -10   0  -2   71.91  123.67
 -10   0   2   99.15  118.97
 -10   0   2  106.90  113.76
  10   0   2   68.65   92.06
 -10   1  -2  102.42  138.18
 -10  -1   2   79.61  102.53
 -10  -1   2  102.19  121.79
 -10   1   2  -49.27  112.27
 -10   1   2   14.78  104.08
  10  -1   2   29.78   82.60
  10   1   2   12.18  104.41
 -10   2  -2   68.54  129.71
 -10  -2   2  180.20  109.00
 -10  -2   2   48.22  115.37
 -10   2   2   92.95  116.03
 -10   2   2  130.32  115.09
  10  -2   2  157.44   87.69
  10   2   2   47.89   96.77
 -10   3  -2   49.77  130.87
 -10  -3   2  164.36  100.81
 -10  -3   2   27.68  109.28
 -10   3   2  116.75  110.44
 -10   3   2   36.04  111.38
  10  -3   2   39.64   87.30
  10   3   2  175.10  100.92
 -10   4  -2  276.80  130.21
 -10  -4   2   95.94  104.30
 -10  -4   2  104.74  107.40
 -10   4   2   32.16  133.86
 -10   4   2  245.47  118.97
  10  -4   2  114.10   92.06
  10   4   2  142.33   93.00
 -10   5  -2    9.80  118.69
 -10  -5   2   60.34  107.34
 -10  -5   2   27.51  109.61
 -10   5   2   85.48  101.47
 -10   5   2  108.45  114.60
  10  -5   2   93.72   92.29
  10   5   2  113.27   89.96
 -10   6  -2  -32.88  127.33
 -10  -6   2   36.54  111.38
 -10  -6   2   48.61  112.60
 -10   6   2   16.77  123.90
 -10   6   2   64.44  121.40
  10  -6   2  114.26   91.84
  10   6   2  -26.02   98.54
   0   4  -3  -40.30   42.96
   0  -4   3   -8.08   43.24
   0  -4   3  -22.53   42.79
   0   5  -3  332.82   48.44
   0  -5   3  329.67   46.23
   0  -5   3  322.91   49.38
   0   6  -3    1.72   47.55
   0  -6   3    5.37   48.61
   0  -6   3   66.60   49.44
   0   7  -3  288.20   51.32
   0  -7   3  194.70   48.77
   0  -7   3  202.51   50.82
   0   8  -3  -13.62   51.37
   0  -8   3  -72.63   49.60
   0  -8   3  -18.93   49.33
   0   9  -3   92.56   55.86
   0  -9   3  116.75   54.09
   0  -9   3   48.72   51.32
   0   9   3  126.66   45.84
   0 -10  -3   -7.53   62.50
   0  10  -3    9.96   57.85
   0 -10   3   30.23   53.53
   0 -10   3   21.59   53.53
   0  10   3  -37.76   49.27
   0  10   3  -28.84   48.27
   0 -11  -3   -7.09   47.55
   0  11  -3   -4.71   57.08
   0 -11   3   -6.92   55.58
   0 -11   3  -38.48   57.80
   0 -11   3  -19.98   51.04
   0  11   3  -46.11   52.04
   0  11   3  -42.68   48.61
   0 -12  -3  -30.89   50.43
   0  12  -3   21.42   60.56
   0 -12   3  -16.77   57.80
   0 -12   3   72.96   59.73
   0 -12   3  -65.27   51.82
   0  12   3  -44.23   53.48
   0  12   3  -27.18   52.37
   0 -13  -3  634.20   69.20
   0  13  -3  595.51   70.64
   0 -13   3  512.52   68.70
   0 -13   3  597.11   67.48
   0 -13   3  471.39   63.66
   0  13   3  544.35   60.45
   0  13   3  510.25   59.95
   0 -14  -3    8.53   54.31
   0  14  -3  -40.19   63.28
   0 -14   3 -105.24   67.65
   0 -14   3   14.78   58.90
   0 -14   3   20.10   58.96
   0  14   3  -14.67   57.13
   0  14   3  -23.64   58.74
   0 -15  -3  118.80   61.17
   0 -15  -3  180.86   77.06
   0  15  -3  163.15   72.58
   0 -15   3  147.87   64.00
   0 -15   3  192.54   63.55
   0  15   3   98.54   61.56
   0  15   3  199.85   63.83
   0 -16  -3    7.47   62.11
   0 -16  -3   69.97   81.49
   0  16  -3  -42.96   71.30
   0 -16   3  -50.21   60.67
   0 -16   3  -18.99   61.28
   0  16   3   84.98   65.10
   0  16   3   47.55   66.21
   0 -17  -3  168.68  111.05
   0  17  -3  106.12   75.12
   0 -17   3   57.08   67.54
   0 -17   3   32.99   67.15
   0  17   3  -10.30   65.93
   0  18  -3   57.08   81.66
   0 -18   3    0.50   70.42
   0 -18   3  -30.23   67.10
   0  18   3   10.02   68.76
   0  19  -3   59.07   88.52
   0 -19   3   72.13   73.13
   0 -19   3   35.21   73.19
   0  19   3   46.61   73.74
   0  20  -3   24.69  103.52
   0 -20   3   19.04   75.34
   0 -20   3   71.64   74.40
   0  20   3   75.01   77.73
   0  21  -3  -78.72  103.97
   0 -21   3  -73.02   76.89
   0 -21   3   37.87   77.17
   0  21   3    6.37   80.83
   1   3  -3  524.31   50.82
  -1  -3   3  495.42   48.38
  -1  -3   3  446.53   49.93
  -1   4  -3  436.24   48.33
   1   4  -3  408.61   50.16
  -1  -4   3  476.54   51.10
  -1  -4   3  358.40   53.20
   1  -4   3  451.57   47.22
  -1   5  -3 2344.83   74.18
   1   5  -3 2127.70   72.19
  -1  -5   3 1998.11   69.59
  -1  -5   3 2047.49   73.74
   1  -5   3 2120.95   63.05
   1  -5   3 2007.74   71.75
  -1   6  -3  359.95   59.07
   1   6  -3  300.55   53.64
  -1  -6   3  333.38   50.16
  -1  -6   3  292.47   55.42
   1  -6   3  296.29   47.50
   1  -6   3  284.61   52.32
  -1   7  -3  713.09   73.46
   1   7  -3  698.25   77.89
  -1  -7   3  613.44   59.07
  -1  -7   3  602.65   57.85
   1  -7   3  511.03   62.39
   1  -7   3  595.51   58.18
  -1   8  -3   73.02   57.19
   1   8  -3  122.68   61.56
  -1  -8   3   27.51   52.54
  -1  -8   3   96.77   56.91
   1  -8   3   78.11   48.38
   1  -8   3   86.75   54.92
  -1   9  -3   17.88   58.52
   1  -9  -3   58.68   34.16
   1   9  -3   67.26   61.34
  -1  -9   3  101.09   55.86
  -1  -9   3   39.42   57.85
  -1   9   3   23.75   41.74
  -1   9   3   78.94   41.74
   1  -9   3   59.24   45.45
   1  -9   3   56.47   56.13
  -1  10  -3   91.51   62.45
   1  10  -3   11.74   65.82
  -1 -10   3   59.73   56.08
  -1 -10   3   37.26   58.85
  -1 -10   3   88.63   51.37
  -1  10   3  166.41   51.71
  -1  10   3   93.84   43.68
   1 -10   3   90.79   46.95
   1 -10   3  160.43   59.90
   1  10   3  118.58   45.95
   1  10   3  155.89   48.50
  -1 -11  -3  -35.04   49.60
  -1  11  -3   50.77   61.28
   1  11  -3   15.78   64.72
  -1 -11   3   77.17   56.52
  -1 -11   3    8.80   64.33
  -1 -11   3   67.54   51.04
  -1  11   3   16.17   51.43
  -1  11   3   32.55   46.56
   1 -11   3   39.42   47.55
   1 -11   3   75.84   59.84
   1  11   3   22.03   47.94
   1  11   3   83.54   49.66
  -1 -12  -3  -23.31   48.50
  -1  12  -3  -49.66   63.22
   1  12  -3   41.46   67.59
  -1 -12   3  -16.28   59.95
  -1 -12   3  -45.78   66.21
  -1 -12   3   30.61   55.47
  -1  12   3  -30.39   55.80
  -1  12   3   81.16   48.88
   1 -12   3  -17.55   48.00
   1 -12   3   -9.63   61.73
   1 -12   3   37.31   63.05
   1  12   3  -17.38   50.77
   1  12   3   20.54   51.15
  -1 -13  -3   -0.17   51.37
  -1  13  -3   -0.39   64.44
   1  13  -3  -81.55   71.41
  -1 -13   3   28.01   64.00
  -1 -13   3   -4.21   68.87
  -1 -13   3   47.00   57.02
  -1  13   3   -3.71   58.18
  -1  13   3   30.56   52.48
   1 -13   3   33.99   50.60
   1 -13   3  -14.67   61.06
   1 -13   3   -3.99   61.67
   1  13   3   24.97   53.31
   1  13   3   86.92   56.13
  -1 -14  -3   77.89   53.98
  -1  14  -3  -24.19   66.87
   1 -14  -3   59.73   71.47
   1  14  -3  -66.27   73.74
  -1 -14   3   -9.85   72.80
  -1 -14   3  -56.80   58.24
  -1  14   3   -5.54   59.18
  -1  14   3   29.56   51.48
   1 -14   3   -5.65   55.58
   1 -14   3   40.19   64.66
   1 -14   3  -34.05   65.82
   1  14   3   12.51   55.47
   1  14   3  -49.71   57.85
  -1 -15  -3   20.15   55.69
  -1 -15  -3  103.08   85.86
  -1  15  -3  -47.78   74.85
  -1  15  -3   80.16   85.64
   1 -15  -3   23.92   77.06
   1  15  -3   64.83   80.71
  -1 -15   3  -21.04   75.12
  -1 -15   3   19.54   63.05
  -1  15   3    7.09   60.45
  -1  15   3   60.29   54.58
   1 -15   3   -1.72   67.10
   1 -15   3   56.80   68.70
   1  15   3   14.23   58.52
   1  15   3  -14.45   61.78
  -1 -16  -3   69.70   63.33
  -1 -16  -3   45.56   87.58
  -1  16  -3   26.79   75.62
  -1  16  -3   90.46   90.40
   1  16  -3    3.21   73.41
  -1 -16   3   26.90   75.34
  -1 -16   3   12.07   66.76
  -1  16   3   70.97   63.05
  -1  16   3   67.65   60.79
   1 -16   3  -41.80   69.48
   1 -16   3   21.37   68.26
   1 -16   3   12.07   68.31
   1  16   3   70.14   62.00
   1  16   3  143.22   67.26
  -1  17  -3  -75.29   78.17
  -1  17  -3  -23.14   90.73
   1  17  -3    9.85   71.86
  -1 -17   3   20.10   74.40
  -1 -17   3   -4.21   66.82
  -1  17   3  -32.61   64.05
   1 -17   3    8.08   72.80
   1 -17   3   22.59   72.69
   1  17   3  -57.35   63.44
  -1  18  -3  -78.94   83.21
  -1  18  -3  -50.32   96.71
   1  18  -3  -47.22   76.29
  -1 -18   3    8.47   71.36
  -1 -18   3   24.86   67.43
  -1  18   3  -54.42   66.87
   1 -18   3   59.51   76.29
   1 -18   3  -36.21   70.69
   1  18   3  -31.94   65.88
  -1  19  -3   68.48  121.57
  -1  19  -3   -3.65  100.87
   1  19  -3   41.46   82.43
  -1 -19   3   51.93   74.51
  -1 -19   3   -5.59   71.08
  -1  19   3   64.49   70.97
   1 -19   3  -28.57   79.16
   1 -19   3  -18.05   69.86
   1  19   3   35.76   71.36
  -1  20  -3   67.65  104.35
  -1 -20   3  -22.20   74.96
  -1 -20   3   28.51   74.96
  -1  20   3  -41.19   72.74
   1 -20   3   78.89   82.21
   1 -20   3   46.61   75.84
   1  20   3    7.75   71.97
  -1  21  -3   69.14  106.90
  -1 -21   3  112.44   80.44
  -1 -21   3  138.01   76.45
  -1  21   3   50.10   75.79
   1 -21   3  -51.37   84.37
   1 -21   3   34.38   77.34
   1  21   3   33.71   76.78
   2   1  -3  208.76   47.78
  -2  -1   3  167.85   49.49
   2   2  -3   46.39   51.93
  -2  -2   3   16.17   44.34
  -2  -2   3   47.94   50.05
  -2   3  -3  950.53   63.61
   2   3  -3  912.77   67.15
  -2  -3   3  804.44   62.72
  -2  -3   3  708.72   64.61
   2  -3   3  683.70   49.93
   2  -3   3  965.64   57.24
  -2   4  -3  881.44   65.32
   2   4  -3  764.63   71.03
  -2  -4   3  888.86   64.11
  -2  -4   3  708.16   71.19
   2  -4   3  826.25   53.26
   2  -4   3  759.54   56.19
  -2   5  -3  652.36   58.46
   2   5  -3  668.64   65.93
  -2  -5   3  624.18   57.08
  -2  -5   3  592.52   64.22
   2  -5   3  464.03   54.92
   2  -5   3  644.00   61.39
  -2   6  -3  338.25   53.59
   2   6  -3  458.38   61.50
  -2  -6   3  477.92   56.58
  -2  -6   3  343.95   63.17
   2  -6   3  242.97   39.31
   2  -6   3  494.86   54.58
  -2   7  -3 1468.92   75.68
   2  -7  -3 1149.88   56.80
   2   7  -3 1398.72   80.49
  -2  -7   3 1354.49   74.90
  -2  -7   3 1320.06   80.44
  -2   7   3  870.42   47.50
  -2   7   3  966.97   56.25
   2  -7   3 1036.45   62.61
   2  -7   3 1565.30   72.02
  -2   8  -3  632.38   73.41
  -2   8  -3  639.19   71.47
   2  -8  -3  443.54   53.09
   2   8  -3  507.43   60.29
  -2  -8   3  584.82   60.12
  -2  -8   3  585.49   64.99
  -2   8   3  460.59   54.20
   2  -8   3  639.57   70.42
  -2   9  -3  793.14   76.40
  -2   9  -3  816.56   76.78
   2  -9  -3  452.35   52.48
   2   9  -3  658.73   81.16
  -2  -9   3  706.78   71.30
  -2  -9   3  656.85   79.05
  -2   9   3  650.81   69.26
   2  -9   3  882.38   71.41
   2   9   3  466.08   57.08
   2   9   3  648.21   60.29
  -2 -10  -3   63.28   50.99
  -2  10  -3   54.25   59.57
  -2  10  -3  142.05   71.03
   2 -10  -3   97.60   37.15
   2  10  -3   41.46   56.91
  -2 -10   3   91.57   61.23
  -2 -10   3  115.48   64.05
  -2 -10   3   -8.36   48.27
  -2  10   3   20.87   54.14
  -2  10   3   29.45   50.32
   2 -10   3   67.76   54.42
   2  10   3  118.91   48.61
   2  10   3   37.26   49.71
  -2 -11  -3  220.83   50.43
  -2  11  -3  340.85   64.00
  -2  11  -3  399.15   79.77
   2 -11  -3  203.12   39.64
   2  11  -3  267.06   63.50
  -2 -11   3  318.04   61.62
  -2 -11   3  306.25   67.65
  -2 -11   3  237.83   55.69
  -2  11   3  263.29   57.96
  -2  11   3  282.78   54.20
   2 -11   3  358.73   60.84
   2  11   3  171.78   51.32
   2  11   3  293.74   54.86
  -2 -12  -3   67.54   52.48
  -2  12  -3   39.75   60.01
  -2  12  -3  123.12   80.05
   2 -12  -3   72.02   40.03
   2  12  -3    5.87   62.94
  -2 -12   3  116.09   59.18
  -2 -12   3  111.00   66.38
  -2 -12   3   41.91   54.81
  -2  12   3   23.75   56.58
  -2  12   3  152.13   53.75
   2 -12   3   87.75   59.68
   2 -12   3   74.24   58.74
   2  12   3   61.84   54.09
   2  12   3   55.91   56.25
  -2 -13  -3  630.00   73.52
  -2  13  -3  679.99   84.15
  -2  13  -3  640.51   88.80
   2 -13  -3  388.52   45.56
   2  13  -3  609.85   80.16
  -2 -13   3  734.40   81.16
  -2 -13   3  640.02   74.24
  -2 -13   3  382.87   58.68
  -2  13   3  526.75   61.67
  -2  13   3  592.52   71.97
   2 -13   3  578.62   68.37
   2 -13   3  522.43   67.98
   2  13   3  638.36   76.45
   2  13   3  634.48   75.90
  -2 -14  -3  168.74   58.74
  -2  14  -3  168.68   76.12
  -2  14  -3  189.50   84.20
   2 -14  -3  161.76   41.91
   2  14  -3  164.59   76.56
  -2 -14   3  198.35   71.75
  -2 -14   3  161.37   58.63
  -2  14   3  155.17   59.35
  -2  14   3  216.24   57.08
   2 -14   3   99.70   64.77
   2 -14   3  258.86   75.95
   2  14   3  122.29   60.73
   2  14   3  141.17   63.55
  -2 -15  -3  382.87   70.81
  -2 -15  -3  421.34   90.90
  -2  15  -3  320.37   86.14
  -2  15  -3  325.96   86.14
   2 -15  -3  244.14   46.89
   2  15  -3  417.08   85.70
  -2 -15   3  328.28   75.34
  -2 -15   3  262.52   66.93
  -2  15   3  352.75   63.28
   2 -15   3  338.91   80.49
   2 -15   3  181.41   67.98
   2  15   3  168.18   64.77
   2  15   3  318.65   69.20
  -2 -16  -3  111.55   70.25
  -2 -16  -3  148.14   93.28
  -2  16  -3   89.63   83.43
  -2  16  -3  153.01   90.18
   2 -16  -3   68.42   50.88
   2  16  -3  104.35   85.14
  -2 -16   3   96.33   75.84
  -2 -16   3   29.56   64.55
  -2  16   3   52.76   71.14
  -2  16   3  103.69   76.95
   2 -16   3   17.33   80.71
   2 -16   3   -1.72   67.54
   2  16   3    2.05   67.71
   2  16   3   29.84   61.50
  -2  17  -3   83.26   89.96
  -2  17  -3  -11.46   78.67
   2  17  -3   75.29   87.97
  -2 -17   3    8.36   77.56
  -2 -17   3   28.90   63.61
  -2  17   3   42.74   72.69
   2 -17   3  100.26   80.88
   2 -17   3   30.23   75.46
   2  17   3   42.41   70.81
  -2  18  -3 -127.88   90.51
  -2  18  -3  -19.82   83.04
   2  18  -3  -20.37   89.57
  -2 -18   3   -9.02   82.10
  -2 -18   3   78.83   69.37
  -2  18   3   34.54   74.02
   2 -18   3   53.15   83.93
   2 -18   3  100.98   82.65
   2  18   3    6.98   68.42
  -2  19  -3  179.42   92.73
  -2 -19   3  147.70   87.41
  -2 -19   3  131.15   75.40
  -2  19   3   48.77   76.45
   2 -19   3  145.43   89.63
   2 -19   3   53.87   80.44
   2  19   3   91.73   70.14
  -2  20  -3   48.00   92.73
  -2 -20   3  -33.49   89.24
  -2 -20   3  -18.05   71.03
  -2  20   3    8.47   78.28
   2 -20   3  -91.45   87.52
   2 -20   3  117.47   81.32
   2  20   3   -7.14   70.53
  -3   0  -3  -16.33   47.72
   3   0  -3  -17.33   45.56
  -3   0   3  -29.62   46.89
  -3   0   3   32.39   49.55
   3   0   3  -55.97   44.95
   3   0   3  -44.95   42.46
  -3   1  -3 5187.67   77.28
   3  -1  -3 4897.69   83.21
   3   1  -3 4791.73   82.38
  -3  -1   3 4557.12   76.73
  -3  -1   3 4677.36   82.32
  -3   1   3 4227.51   72.19
  -3   1   3 4465.72   79.16
   3  -1   3 4477.46   74.68
   3  -1   3 5232.51   73.19
  -3   2  -3   40.30   51.98
   3  -2  -3  105.85   46.95
   3   2  -3  101.14   55.36
  -3  -2   3   70.42   47.78
  -3  -2   3  109.23   55.64
  -3   2   3   37.92   40.91
  -3   2   3   86.14   49.49
   3  -2   3   81.16   46.45
   3  -2   3   93.28   43.79
  -3   3  -3 4032.58   78.94
   3  -3  -3 3450.36   75.07
   3   3  -3 3463.26   83.93
  -3  -3   3 3507.55   78.06
  -3  -3   3 3331.39   82.26
  -3   3   3 2876.94   67.15
  -3   3   3 3152.58   70.53
   3  -3   3 3323.64   73.96
   3  -3   3 3954.69   76.18
  -3   4  -3  214.24   56.36
   3  -4  -3  158.22   47.39
   3   4  -3  120.96   63.11
  -3  -4   3  230.46   49.60
  -3  -4   3  220.22   58.35
  -3   4   3  122.46   42.57
  -3   4   3  122.90   51.54
   3  -4   3  132.70   44.56
   3  -4   3  179.81   49.82
  -3   5  -3 5058.24   90.62
  -3   5  -3 4846.37   89.90
   3  -5  -3 4135.72   78.33
   3   5  -3 4773.91   99.15
  -3  -5   3 4680.96   86.75
  -3  -5   3 4298.31   88.80
  -3   5   3 3184.03   64.99
  -3   5   3 4383.18   81.71
   3  -5   3 3716.20   73.68
   3  -5   3 4838.18   82.49
  -3   6  -3  303.93   61.34
  -3   6  -3  224.37   60.56
   3  -6  -3  185.90   46.28
   3   6  -3  178.54   61.28
  -3  -6   3  280.84   54.81
  -3  -6   3  193.70   57.91
  -3   6   3  167.96   34.60
  -3   6   3  285.77   51.04
   3  -6   3   99.98   45.45
   3  -6   3  281.84   50.99
   3   6   3  187.12   51.93
  -3   7  -3 2478.13   85.70
  -3   7  -3 2555.64   91.84
   3  -7  -3 1845.42   71.41
   3   7  -3 2297.55   88.96
  -3  -7   3 2435.78   79.61
  -3  -7   3 2318.47   88.30
  -3  -7   3 1634.39   81.88
  -3   7   3 1408.25   56.30
  -3   7   3 2442.87   78.00
   3  -7   3 2129.53   72.52
   3  -7   3 2610.50   76.95
   3   7   3 2278.56   64.49
  -3  -8  -3  343.40   57.80
  -3   8  -3  361.22   64.05
  -3   8  -3  311.73   65.60
   3  -8  -3  316.71   48.66
   3   8  -3  345.72   70.75
  -3  -8   3  310.29   58.13
  -3  -8   3  296.56   66.99
  -3  -8   3  284.00   65.16
  -3   8   3  212.53   36.09
  -3   8   3  284.38   54.70
   3  -8   3  231.90   49.05
   3  -8   3  319.93   55.97
   3   8   3  195.09   56.47
   3   8   3  276.58   50.43
  -3  -9  -3   24.14   57.02
  -3   9  -3   98.04   61.23
  -3   9  -3   25.85   64.22
   3  -9  -3    6.81   43.29
   3   9  -3  119.47   64.38
  -3  -9   3   61.89   56.19
  -3  -9   3   35.60   65.82
  -3  -9   3   79.11   64.55
  -3   9   3   53.31   32.55
  -3   9   3   85.81   54.81
   3  -9   3   27.85   45.45
   3  -9   3  157.72   55.91
   3   9   3  132.31   59.84
   3   9   3   87.19   51.48
  -3 -10  -3  -49.55   55.36
  -3  10  -3   23.75   63.11
  -3  10  -3  -86.75   63.33
   3 -10  -3   43.07   41.35
   3  10  -3  126.00   64.83
  -3 -10   3    1.00   58.57
  -3 -10   3  -24.75   65.38
  -3 -10   3   81.32   67.10
  -3  10   3  -26.85   57.57
   3 -10   3   27.29   44.90
   3 -10   3  -11.29   54.75
   3  10   3    8.14   55.97
   3  10   3   17.22   51.21
  -3 -11  -3  243.20   61.23
  -3  11  -3  197.52   64.72
  -3  11  -3  258.70   74.13
   3 -11  -3   89.63   44.62
   3  11  -3  255.54   70.86
  -3 -11   3  281.34   63.66
  -3 -11   3  181.64   70.64
  -3  11   3  247.13   63.17
   3 -11   3  188.78   47.61
   3 -11   3  208.04   62.17
   3  11   3  150.80   60.34
   3  11   3  194.31   55.69
  -3 -12  -3    2.66   54.86
  -3  12  -3  -47.06   68.09
  -3  12  -3   46.95   70.14
   3 -12  -3  -37.26   41.46
   3  12  -3   -3.27   64.72
  -3 -12   3   40.58   62.50
  -3 -12   3   46.89   68.20
  -3  12   3    6.48   61.39
  -3  12   3   20.54   52.15
   3 -12   3   15.45   46.17
   3 -12   3   24.69   63.61
   3  12   3  -29.40   50.99
   3  12   3  -49.38   57.74
  -3 -13  -3  291.30   61.28
  -3 -13  -3  155.84   75.84
  -3  13  -3  276.63   73.91
  -3  13  -3  231.40   76.89
   3 -13  -3  141.78   46.67
   3 -13  -3  229.91   59.24
   3  13  -3  235.72   71.47
  -3 -13   3  226.48   74.96
  -3  13   3  210.04   65.60
  -3  13   3  261.46   64.00
   3 -13   3  151.91   54.97
   3 -13   3  326.13   70.25
   3  13   3  182.52   57.41
   3  13   3  154.01   63.33
  -3 -14  -3  -10.24   63.00
  -3  14  -3   64.05   72.91
  -3  14  -3   74.90   80.33
   3 -14  -3   33.66   48.05
   3 -14  -3   60.07   61.39
   3  14  -3   14.06   69.14
  -3 -14   3   22.20   72.30
  -3  14   3   -4.21   65.93
  -3  14   3   68.20   63.39
   3 -14   3   37.59   56.80
   3  14   3   29.95   54.70
   3  14   3   45.12   63.94
  -3 -15  -3   54.75   65.55
  -3 -15  -3   35.76   94.89
  -3  15  -3   56.85   80.33
  -3  15  -3   90.73   83.98
   3 -15  -3   44.68   50.54
   3  15  -3   18.49   71.53
  -3 -15   3   45.45   76.56
  -3  15   3  145.26   68.70
  -3  15   3   98.26   64.83
   3 -15   3   43.18   59.18
   3  15   3   34.38   59.24
   3  15   3  152.85   66.65
  -3  16  -3    2.49   79.94
  -3  16  -3   15.28   84.59
   3 -16  -3   84.98   76.95
   3  16  -3    0.55   80.77
  -3 -16   3   52.15   77.39
  -3  16   3   -6.42   69.59
   3 -16   3   56.25   59.24
   3  16   3    2.44   65.93
  -3  17  -3   -0.78   84.04
  -3  17  -3  111.33   88.52
   3  17  -3  105.85   89.02
  -3 -17   3   -1.77   75.12
  -3  17   3   64.22   73.13
   3  17   3   37.20   69.97
  -3  18  -3  -51.65   90.57
   3  18  -3    7.53   91.01
  -3 -18   3   32.99   75.07
  -3  18   3  -44.90   73.68
   3  18   3   -9.58   74.96
  -3  19  -3  -76.34   92.06
  -3 -19   3  -13.06   76.45
  -3  19   3   45.84   77.23
   3 -19   3    5.59   77.84
   3  19   3  -24.58   75.62
  -3  20  -3  -40.74   98.71
  -3 -20   3  106.73   82.98
  -3  20   3   82.82   78.56
   3 -20   3   24.30   77.61
   3  20   3   49.44   78.67
  -4   0  -3   79.33   56.19
   4   0  -3  115.65   52.92
  -4   0   3   68.65   50.05
  -4   0   3  224.10   53.53
   4   0   3  155.67   51.93
   4   0   3  126.66   48.33
  -4  -1  -3   43.13   49.99
  -4   1  -3  164.25   55.42
   4  -1  -3  149.47   59.51
   4   1  -3  125.61   53.70
  -4  -1   3  128.71   52.65
  -4  -1   3  189.00   55.03
  -4   1   3   81.10   47.00
  -4   1   3  213.03   55.30
   4  -1   3   48.83   50.05
   4  -1   3   53.81   47.72
   4   1   3   89.79   50.27
   4   1   3   43.46   43.46
  -4  -2  -3  176.21   53.09
  -4   2  -3  233.01   56.47
   4  -2  -3  199.68   51.93
   4   2  -3  243.09   57.52
  -4  -2   3  216.57   48.05
  -4  -2   3  237.88   56.02
  -4   2   3  181.75   47.89
  -4   2   3  190.55   53.64
   4  -2   3  210.42   52.98
   4  -2   3  279.46   51.82
   4   2   3  173.66   52.81
   4   2   3  264.79   48.44
  -4  -3  -3  372.85   53.26
  -4   3  -3  628.11   65.77
   4  -3  -3  424.67   51.48
   4   3  -3  485.01   61.62
  -4  -3   3  508.48   58.02
  -4  -3   3  527.03   62.34
  -4   3   3  348.38   48.77
  -4   3   3  442.82   58.07
   4  -3   3  334.10   51.04
   4  -3   3  495.08   52.26
   4   3   3  327.90   52.92
   4   3   3  389.01   50.93
  -4  -4  -3  485.78   55.69
  -4   4  -3  665.20   66.04
  -4   4  -3  598.61   65.16
   4  -4  -3  534.00   60.01
   4   4  -3  597.72   63.11
  -4  -4   3  492.76   57.85
  -4  -4   3  631.16   77.17
  -4   4   3  505.82   51.60
  -4   4   3  644.17   61.73
   4  -4   3  612.83   73.08
   4  -4   3  619.92   64.44
   4   4   3  387.02   51.10
   4   4   3  558.97   58.68
  -4  -5  -3  325.90   53.92
  -4   5  -3  434.74   61.34
  -4   5  -3  383.70   67.82
   4  -5  -3  359.01   54.09
   4   5  -3  480.63   65.99
  -4  -5   3  356.91   56.74
  -4  -5   3  379.38   64.55
  -4  -5   3  365.60   68.81
  -4   5   3  250.89   48.33
  -4   5   3  413.70   57.96
   4  -5   3  367.26   55.30
   4  -5   3  434.80   57.24
   4   5   3  227.47   50.27
   4   5   3  257.98   49.66
  -4  -6  -3  579.73   70.64
  -4   6  -3  737.45   79.28
  -4   6  -3  685.25   83.65
   4  -6  -3  580.28   57.63
   4   6  -3  790.21   76.67
  -4  -6   3  673.84   72.02
  -4  -6   3  761.03   70.47
  -4  -6   3  505.71   72.19
  -4   6   3  436.18   44.79
  -4   6   3  628.22   62.78
   4  -6   3  600.77   71.14
   4  -6   3  801.17   73.74
   4   6   3  568.93   68.04
   4   6   3  634.81   64.49
  -4  -7  -3  361.56   56.58
  -4   7  -3  446.37   67.10
  -4   7  -3  466.35   69.31
   4  -7  -3  401.75   55.42
   4   7  -3  596.78   70.36
  -4  -7   3  411.38   62.34
  -4  -7   3  470.12   68.70
  -4  -7   3  365.71   71.69
  -4   7   3  247.96   41.74
  -4   7   3  464.30   58.24
   4  -7   3  293.74   53.92
   4  -7   3  551.44   59.62
   4   7   3  264.57   57.19
   4   7   3  303.32   51.98
  -4  -8  -3  323.52   58.35
  -4   8  -3  205.50   65.21
  -4   8  -3  229.58   70.97
   4  -8  -3  181.53   53.70
   4   8  -3  276.74   69.31
  -4  -8   3  279.51   59.24
  -4  -8   3  321.48   68.81
  -4  -8   3  269.88   72.80
  -4   8   3  164.70   41.19
  -4   8   3  189.28   61.67
   4  -8   3  160.99   49.27
   4  -8   3  312.06   58.63
   4  -8   3  151.85   57.96
   4   8   3   27.46   60.79
   4   8   3  174.61   50.99
  -4  -9  -3  224.04   57.19
  -4   9  -3  271.93   67.98
  -4   9  -3  264.79   71.80
   4  -9  -3  234.84   56.91
   4   9  -3  235.00   70.25
  -4  -9   3  371.74   64.05
  -4  -9   3  273.98   65.88
  -4  -9   3  251.50   74.46
  -4   9   3  171.23   40.52
  -4   9   3  346.05   62.78
   4  -9   3  193.48   49.77
   4  -9   3  371.91   61.01
   4   9   3  138.90   62.72
   4   9   3  326.90   56.74
  -4 -10  -3  742.60   75.68
  -4  10  -3  742.43   87.08
  -4  10  -3  664.87   78.72
   4 -10  -3  572.03   61.50
   4  10  -3  729.15   84.59
  -4 -10   3  673.01   69.20
  -4 -10   3  685.80   76.29
  -4 -10   3  557.03   80.49
  -4  10   3  426.16   47.11
  -4  10   3  660.78   79.55
   4 -10   3  443.99   57.57
   4 -10   3  867.16   79.00
   4  10   3  353.36   66.54
   4  10   3  699.03   74.07
  -4 -11  -3  469.23   66.04
  -4  11  -3  449.85   75.84
  -4  11  -3  396.27   80.27
   4 -11  -3  341.63   55.80
   4  11  -3  523.87   78.28
  -4 -11   3  580.06   74.90
  -4 -11   3  444.10   79.00
  -4 -11   3  378.05   78.33
  -4  11   3  246.46   44.56
  -4  11   3  344.84   65.60
   4 -11   3  348.32   54.42
   4 -11   3  510.92   68.15
   4  11   3  254.05   68.76
   4  11   3  422.06   63.33
  -4 -12  -3  555.09   71.80
  -4  12  -3  510.09   79.77
  -4  12  -3  617.15   84.09
   4 -12  -3  360.73   58.63
   4 -12  -3  325.41   66.49
   4  12  -3  456.00   79.77
  -4 -12   3  575.13   83.26
  -4 -12   3  344.12   84.09
  -4  12   3  336.75   49.49
  -4  12   3  415.48   68.48
   4 -12   3  335.43   55.47
   4 -12   3  536.55   73.52
   4  12   3  297.61   68.37
   4  12   3  413.54   67.26
  -4 -13  -3  280.56   67.32
  -4 -13  -3  244.41   90.68
  -4  13  -3  203.12   78.11
  -4  13  -3  181.58   81.71
   4 -13  -3  161.37   59.07
   4 -13  -3  195.03   64.05
   4  13  -3  279.79   82.65
  -4 -13   3  253.11   80.22
  -4 -13   3  153.85   81.10
  -4  13   3  230.30   71.97
   4 -13   3  157.94   53.53
   4 -13   3  288.54   71.19
   4  13   3  141.61   67.76
   4  13   3  190.27   65.88
  -4 -14  -3  291.75   75.51
  -4 -14  -3  216.96   94.94
  -4  14  -3  220.94   81.82
  -4  14  -3   87.69   84.70
   4 -14  -3  172.56   57.46
   4 -14  -3  206.05   68.42
   4  14  -3  211.14   80.71
  -4 -14   3  205.88   81.27
  -4 -14   3  193.70   81.38
  -4  14   3  213.52   73.85
   4 -14   3  123.84   57.08
   4  14   3  192.32   69.09
   4  14   3  204.67   66.21
  -4  15  -3   19.60   80.94
  -4  15  -3   -5.31   86.69
   4 -15  -3  148.09   74.18
   4  15  -3   92.06   75.95
  -4 -15   3   69.86   78.00
  -4 -15   3   89.52   83.21
  -4  15   3   34.60   74.18
   4 -15   3   33.77   55.58
   4  15   3   12.51   61.67
  -4  16  -3   39.91   85.70
  -4  16  -3  131.87   90.24
   4  16  -3   44.79   81.71
  -4 -16   3  109.67   80.71
  -4 -16   3   81.82   89.46
  -4  16   3   34.43   75.40
   4 -16   3   71.41   57.80
   4  16   3  110.28   64.49
  -4  17  -3  -51.43   94.83
   4  17  -3  102.75   83.26
  -4 -17   3  107.12   82.38
  -4 -17   3  149.42   88.69
  -4  17   3  118.08   79.55
   4 -17   3   47.06   55.86
   4  17   3   -7.92   66.60
  -4  18  -3   60.07   97.16
  -4 -18   3  -22.48   81.49
  -4 -18   3   87.08   90.46
  -4  18   3   95.16   79.66
   4 -18   3   -1.83   55.08
   4  18   3   31.17   70.64
  -4  19  -3   32.39  102.25
  -4 -19   3   84.87   83.65
  -4  19   3   71.80   82.15
   4 -19   3  -38.59   56.47
   4  19   3   64.61   73.13
  -5   0  -3   -6.42   57.19
   5   0  -3   11.96   56.85
  -5   0   3  -93.95   51.65
  -5   0   3   40.91   56.58
   5   0   3   32.05   53.98
   5   0   3   22.03   49.71
  -5  -1  -3  -34.93   53.87
  -5  -1  -3  -62.22   64.05
  -5   1  -3   51.15   58.13
  -5   1  -3   -2.99   65.82
   5  -1  -3   12.18   61.95
   5   1  -3   30.67   53.87
  -5  -1   3   66.65   54.75
  -5  -1   3   -7.53   57.35
  -5   1   3  -46.17   46.78
  -5   1   3  111.33   59.51
   5  -1   3   28.01   56.13
   5  -1   3    4.26   51.98
   5   1   3  -41.58   51.26
   5   1   3   20.32   48.16
  -5  -2  -3  246.30   58.57
  -5   2  -3  132.81   63.05
  -5   2  -3  205.00   67.21
   5  -2  -3  149.14   59.51
   5   2  -3  179.81   60.95
  -5  -2   3  196.25   55.25
  -5  -2   3  170.29   59.12
  -5  -2   3  138.29   63.22
  -5   2   3  123.12   50.05
  -5   2   3  164.81   58.24
   5  -2   3  110.00   55.47
   5  -2   3  203.12   53.31
   5   2   3  135.85   57.24
   5   2   3  131.92   51.60
  -5  -3  -3   56.52   56.58
  -5   3  -3  -19.15   57.85
  -5   3  -3   64.55   67.43
   5  -3  -3  -26.19   48.94
   5   3  -3   29.12   60.34
  -5  -3   3  -22.25   49.27
  -5  -3   3    9.08   61.67
  -5  -3   3   51.65   68.31
  -5   3   3    5.76   44.18
  -5   3   3   12.95   58.35
   5  -3   3   23.58   57.46
   5  -3   3    1.49   52.32
   5   3   3   -1.00   56.63
   5   3   3   -3.93   50.32
  -5  -4  -3   86.97   57.19
  -5  -4  -3  102.86   66.43
  -5   4  -3    4.43   58.40
  -5   4  -3   44.29   67.98
   5  -4  -3   54.58   55.47
   5   4  -3   22.70   60.79
  -5  -4   3   28.23   54.58
  -5  -4   3  -11.02   63.66
  -5  -4   3  146.09   72.47
  -5   4   3   48.27   48.27
  -5   4   3   68.26   62.17
   5  -4   3  102.14   55.80
   5  -4   3   45.12   53.53
   5   4   3   43.35   49.88
   5   4   3   57.96   47.28
  -5  -5  -3   91.62   54.92
  -5   5  -3  114.87   64.88
  -5   5  -3   18.21   68.87
   5  -5  -3   68.20   57.57
   5   5  -3  112.82   65.49
  -5  -5   3   23.31   56.13
  -5  -5   3   59.18   66.65
  -5  -5   3   97.10   71.03
  -5   5   3   90.02   50.54
  -5   5   3   64.49   62.22
   5  -5   3   38.20   58.18
   5  -5   3   73.24   53.70
   5   5   3   56.52   50.43
   5   5   3   66.99   49.44
  -5  -6  -3   62.50   55.36
  -5   6  -3   56.80   63.00
  -5   6  -3   71.58   71.03
   5  -6  -3  113.88   55.53
   5   6  -3  -13.45   62.00
  -5  -6   3  130.98   59.18
  -5  -6   3  126.50   63.39
  -5  -6   3   70.42   73.96
  -5   6   3   79.61   47.22
  -5   6   3   72.30   63.33
   5  -6   3  105.74   59.95
   5  -6   3   73.08   59.35
   5   6   3   18.77   55.91
   5   6   3   37.53   51.65
  -5  -7  -3   73.85   57.52
  -5   7  -3   23.42   62.61
  -5   7  -3  -15.94   72.69
   5  -7  -3   74.63   53.81
   5   7  -3    5.65   70.09
  -5  -7   3   30.12   59.62
  -5  -7   3  -42.57   64.27
  -5  -7   3  -35.15   80.44
  -5   7   3   34.05   42.07
  -5   7   3   53.09   64.83
   5  -7   3    2.49   56.69
   5  -7   3   25.85   59.29
   5  -7   3   33.99   53.26
   5   7   3   27.46   56.69
   5   7   3   30.01   51.98
  -5  -8  -3   57.91   57.63
  -5   8  -3   38.70   69.59
  -5   8  -3   86.75   75.07
   5  -8  -3    7.97   53.64
   5   8  -3   43.18   71.19
  -5  -8   3   72.08   59.73
  -5  -8   3   20.87   62.06
  -5  -8   3   14.73   78.06
  -5   8   3   32.99   45.12
  -5   8   3  -19.38   61.39
   5  -8   3  -17.00   55.53
   5  -8   3   12.07   61.73
   5  -8   3   62.50   58.57
   5   8   3   55.58   57.19
   5   8   3  -33.38   52.98
  -5  -9  -3  -12.95   58.07
  -5   9  -3  -72.91   67.82
  -5   9  -3    4.98   76.62
   5  -9  -3  -11.29   55.08
   5   9  -3  -19.82   69.59
  -5  -9   3   14.84   63.17
  -5  -9   3  -17.94   64.88
  -5  -9   3  -57.80   77.73
  -5   9   3   -9.58   41.58
  -5   9   3  -39.91   60.34
   5  -9   3   55.69   57.13
   5  -9   3   26.57   60.34
   5  -9   3  -38.59   59.84
   5   9   3  -97.71   65.66
   5   9   3  -30.50   54.36
  -5 -10  -3  -32.55   58.74
  -5  10  -3  -38.25   70.58
  -5  10  -3   12.07   77.78
   5 -10  -3   56.08   60.01
   5  10  -3  -61.23   72.24
  -5 -10   3  -23.31   69.26
  -5 -10   3  -58.90   81.66
  -5  10   3   -5.31   42.52
  -5  10   3   65.38   67.26
   5 -10   3  -11.40   58.40
   5 -10   3  -55.47   62.39
   5 -10   3  -20.59   67.04
   5  10   3  -13.67   66.71
   5  10   3  -37.64   56.25
  -5 -11  -3   56.02   62.00
  -5 -11  -3   12.18   87.63
  -5  11  -3   43.01   73.91
  -5  11  -3    7.92   84.31
   5 -11  -3   15.56   62.56
   5 -11  -3   16.44   68.87
   5  11  -3   30.39   77.78
  -5 -11   3    0.61   70.69
  -5 -11   3   53.26   83.93
  -5  11   3   22.59   42.46
  -5  11   3  -28.40   67.87
   5 -11   3   15.89   55.30
   5 -11   3   24.86   65.05
   5 -11   3   21.04   71.80
   5  11   3  -37.98   70.14
   5  11   3   80.94   57.30
  -5 -12  -3    5.65   66.93
  -5 -12  -3  -23.47   97.43
  -5  12  -3  -70.47   77.84
  -5  12  -3   26.57   88.24
   5 -12  -3  -51.21   59.57
   5 -12  -3  -29.17   72.58
   5  12  -3   12.79   85.92
  -5 -12   3  -31.11   75.23
  -5 -12   3   93.45   86.03
  -5  12   3  -21.15   44.29
  -5  12   3  -84.20   67.32
   5 -12   3  -36.81   54.20
   5 -12   3   -3.76   64.61
   5 -12   3   16.05   74.35
   5  12   3   22.86   73.19
   5  12   3   68.26   67.43
  -5 -13  -3  -33.60   90.46
  -5 -13  -3  133.20  100.09
  -5  13  -3 -114.10   82.65
  -5  13  -3 -141.00   88.91
   5 -13  -3  -80.44   62.78
   5 -13  -3  -54.14   76.51
   5  13  -3   22.75   82.04
  -5 -13   3  -31.11   78.72
  -5 -13   3   92.23   89.18
  -5  13   3  -80.44   66.87
   5 -13   3   -6.98   57.74
   5  13   3   40.97   75.68
  -5  14  -3   15.67   86.75
  -5  14  -3  -73.41   90.35
   5 -14  -3   77.95   95.77
   5  14  -3   59.24   85.14
  -5 -14   3  115.48   83.65
  -5 -14   3   81.66   92.62
  -5  14   3   51.43   72.13
   5 -14   3   64.72   59.51
   5  14   3  -13.18   74.79
  -5  15  -3  -19.54  125.28
  -5  15  -3    4.65   94.17
   5  15  -3   96.38   86.47
  -5 -15   3   48.33   81.60
  -5 -15   3  -59.73   95.72
  -5  15   3   43.13   75.73
   5 -15   3  -27.35   59.35
   5  15   3   53.48   77.06
  -5  16  -3  -31.22   97.16
   5  16  -3  134.41   98.71
  -5 -16   3  121.63   86.31
  -5 -16   3  112.49   96.77
  -5  16   3   16.28   76.40
   5 -16   3   35.82   59.18
   5  16   3   42.02   77.50
  -5  17  -3  -56.36  100.81
  -5 -17   3  112.21   81.60
  -5 -17   3   40.69  100.70
  -5  17   3  127.00   82.54
   5 -17   3   13.90   61.12
   5  17   3    0.11   71.53
  -5  18  -3   15.11  106.46
  -5 -18   3   47.39   86.31
  -5 -18   3  -83.98   90.73
  -5  18   3   56.30   83.21
   5 -18   3   58.35   61.01
   5  18   3   94.11   73.85
  -6   0  -3   17.83   59.95
  -6   0  -3   84.76   71.36
   6   0  -3  180.36   65.27
  -6   0   3   75.40   56.25
  -6   0   3   82.60   65.60
  -6   0   3   55.91   63.33
   6   0   3   80.88   56.74
   6   0   3   83.21   55.42
  -6  -1  -3   58.24   59.46
  -6  -1  -3   75.90   73.08
  -6   1  -3  113.54   70.53
  -6   1  -3   61.84   71.97
   6  -1  -3  155.84   66.93
   6   1  -3   22.37   53.59
  -6  -1   3   41.63   59.01
  -6  -1   3   30.89   62.00
  -6  -1   3   46.56   64.99
  -6   1   3   78.17   53.98
  -6   1   3  153.01   66.65
  -6   1   3   46.39   66.04
   6  -1   3   18.16   60.73
   6  -1   3   44.62   58.13
   6   1   3  100.15   57.02
   6   1   3   70.69   54.58
  -6  -2  -3  -55.08   63.50
  -6  -2  -3 -116.53   74.51
  -6   2  -3   19.15   64.72
  -6   2  -3  -21.26   74.29
   6  -2  -3  -45.01   60.73
   6   2  -3    1.49   59.62
  -6  -2   3   43.73   61.17
  -6  -2   3    3.71   65.38
  -6  -2   3    6.59   66.54
  -6   2   3  -28.90   52.92
  -6   2   3   44.79   64.11
  -6   2   3    7.53   62.83
   6  -2   3  -14.62   62.50
   6  -2   3    6.81   56.74
   6   2   3   70.86   62.78
   6   2   3   70.20   56.91
  -6  -3  -3    8.41   60.79
  -6  -3  -3  -44.95   77.73
  -6   3  -3   17.38   67.43
  -6   3  -3   -6.59   73.79
   6  -3  -3   62.50   56.36
   6   3  -3   -7.20   59.12
  -6  -3   3  -16.50   54.03
  -6  -3   3   -4.04   64.38
  -6  -3   3   28.68   71.91
  -6   3   3    6.09   47.94
  -6   3   3   29.06   62.50
  -6   3   3    3.93   61.39
   6  -3   3  -13.67   59.95
   6  -3   3   30.01   57.02
   6   3   3   50.21   63.22
   6   3   3   10.63   57.80
  -6  -4  -3   53.98   62.34
  -6  -4  -3    7.20   75.51
  -6   4  -3   65.55   68.26
  -6   4  -3  -73.35   72.91
   6  -4  -3  -28.79   55.25
   6   4  -3   41.02   62.61
  -6  -4   3   12.46   54.14
  -6  -4   3   67.76   67.98
  -6  -4   3  145.82   75.01
  -6   4   3   17.16   53.92
  -6   4   3   41.63   62.83
  -6   4   3  -28.73   67.10
   6  -4   3   26.19   60.40
   6  -4   3   -1.94   57.74
   6   4   3   30.01   52.92
   6   4   3   76.45   58.63
  -6  -5  -3   70.09   62.94
  -6  -5  -3  -27.07   81.93
  -6   5  -3   49.44   66.38
  -6   5  -3    8.86   76.78
   6  -5  -3   44.12   60.18
   6   5  -3  -13.56   67.43
  -6  -5   3   61.62   59.73
  -6  -5   3  -28.34   67.10
  -6  -5   3   69.09   74.96
  -6   5   3   43.90   53.81
  -6   5   3   13.34   72.30
  -6   5   3   -2.60   68.76
   6  -5   3   25.63   59.35
   6  -5   3   22.92   58.02
   6   5   3   18.82   58.29
   6   5   3    6.64   53.81
  -6  -6  -3   40.63   64.05
  -6  -6  -3   35.43  100.81
  -6   6  -3  105.74   72.13
  -6   6  -3 -112.55   78.50
   6  -6  -3   11.46   65.21
   6   6  -3   29.23   67.59
  -6  -6   3   34.60   63.66
  -6  -6   3    0.39   74.90
  -6  -6   3  -39.91   79.22
  -6   6   3  -59.01   52.92
  -6   6   3   38.81   67.21
   6  -6   3  -13.45   59.18
   6  -6   3   47.50   58.52
   6  -6   3   30.34   61.23
   6   6   3  -28.51   58.79
   6   6   3   73.08   55.08
  -6  -7  -3   -1.66   62.28
  -6  -7  -3   14.12   82.04
  -6   7  -3   28.12   72.80
  -6   7  -3   79.88   79.88
   6  -7  -3   14.89   60.56
   6   7  -3   78.17   71.41
  -6  -7   3  -19.21   62.50
  -6  -7   3   21.76   74.35
  -6  -7   3   85.86   81.10
  -6   7   3   10.52   51.48
  -6   7   3  -21.15   70.92
   6  -7   3  -12.46   63.28
   6  -7   3    9.08   66.82
   6  -7   3  -47.61   60.84
   6   7   3   17.00   63.00
   6   7   3    9.69   59.73
  -6  -8  -3   42.18   67.54
  -6  -8  -3   63.44   95.99
  -6   8  -3  -11.68   71.47
  -6   8  -3   59.90   82.82
   6  -8  -3   94.11   64.61
   6   8  -3   53.03   77.06
  -6  -8   3   49.55   71.36
  -6  -8   3   38.97   81.55
  -6   8   3  -16.11   48.16
  -6   8   3   17.11   70.14
   6  -8   3   58.85   64.61
   6  -8   3  -58.90   65.77
   6  -8   3   -3.38   64.00
   6   8   3  -69.37   66.21
   6   8   3   23.09   61.01
  -6  -9  -3   10.85   69.03
  -6  -9  -3   62.89   93.67
  -6   9  -3   19.93   73.35
  -6   9  -3  -51.71   86.31
   6  -9  -3   94.00   66.16
   6   9  -3   25.52   85.20
  -6  -9   3   31.06   76.56
  -6  -9   3  106.51   88.80
  -6   9   3    6.14   49.93
  -6   9   3   26.13   71.25
   6  -9   3   38.59   62.11
   6  -9   3   51.32   72.24
   6  -9   3   82.21   66.65
   6   9   3    9.36   65.10
   6   9   3   79.11   64.94
  -6 -10  -3   49.10   67.65
  -6 -10  -3   14.23   94.78
  -6  10  -3   11.29   77.95
  -6  10  -3  -42.29   87.80
   6 -10  -3   20.04   63.61
   6  10  -3  -27.68   83.87
  -6 -10   3   10.08   71.91
  -6 -10   3   66.32   93.17
  -6  10   3   56.80   48.88
  -6  10   3  104.46   70.36
   6 -10   3  -17.77   61.12
   6 -10   3   42.74   72.96
   6 -10   3  -31.17   68.20
   6  10   3  -37.76   72.91
   6  10   3   32.16   65.55
  -6 -11  -3  111.11   95.83
  -6 -11  -3   -8.14  100.04
  -6  11  -3  158.11   85.03
  -6  11  -3  169.95   93.61
   6 -11  -3  109.00   67.93
   6  11  -3  109.23   84.37
  -6 -11   3   31.28   75.68
  -6 -11   3   79.33   94.11
  -6  11   3   68.76   67.93
   6 -11   3   21.48   65.55
   6  11   3    9.36   78.06
  -6  12  -3   -0.17   83.70
  -6  12  -3  -13.73   94.61
   6  12  -3   51.04   88.35
  -6 -12   3 -134.19   75.34
  -6 -12   3   -0.06   94.00
  -6  12   3  -18.88   76.06
  -6  12   3  -64.49   90.46
   6 -12   3    4.04   64.83
   6  12   3    1.11   74.40
  -6  13  -3   23.31   94.94
   6  13  -3  -82.71   88.63
  -6 -13   3  142.39   83.10
  -6 -13   3  -32.61   96.82
  -6  13   3  146.37   80.00
  -6  13   3  -25.58   89.02
   6 -13   3    3.16   67.43
   6  13   3   96.27   81.71
  -6  14  -3   70.36  101.47
   6  14  -3  -18.32  100.09
  -6 -14   3  -26.57   83.37
  -6 -14   3   70.47   99.92
  -6  14   3  -23.58   79.94
   6 -14   3   37.59   61.84
   6  14   3   15.17   88.13
  -6  15  -3   68.81  103.63
  -6 -15   3  133.69   88.41
  -6 -15   3   11.46   97.54
  -6  15   3   87.63   79.83
  -6  15   3   23.25   95.88
   6 -15   3   89.79   65.88
   6  15   3  128.88   90.57
  -6  16  -3  -15.50  105.29
  -6 -16   3   63.39   91.79
  -6 -16   3   22.86   99.26
  -6  16   3  -11.29   77.61
  -6  16   3  -69.14   95.33
   6 -16   3  -34.43   63.66
   6  16   3   20.87   84.81
  -6  17  -3   97.21  107.95
  -6 -17   3   13.84   94.61
  -6  17   3  -18.21   83.04
   6 -17   3   75.57   66.27
   6  17   3  -19.82   86.31
  -7   0  -3   64.44   71.80
  -7   0  -3   53.20   85.31
   7   0  -3   63.00   75.90
  -7   0   3   89.13   63.94
  -7   0   3    6.42   69.37
  -7   0   3  -13.40   72.80
   7   0   3  100.64   64.72
   7   0   3    2.88   62.56
  -7  -1  -3  632.21   87.08
  -7  -1  -3  655.90   93.84
  -7   1  -3  635.86   90.40
  -7   1  -3  723.06   91.23
   7  -1  -3  536.94   84.59
   7   1  -3  684.30   87.86
  -7  -1   3  740.99   83.65
  -7  -1   3  632.21   78.56
  -7  -1   3  464.25   76.56
  -7   1   3  569.76   72.47
  -7   1   3  605.86   78.00
  -7   1   3  478.86   76.40
   7  -1   3  594.90   74.40
   7  -1   3  763.36   91.07
   7   1   3  645.72   76.78
   7   1   3  625.62   72.41
  -7  -2  -3   47.28   90.62
  -7  -2  -3   17.00   80.77
  -7   2  -3   35.76   78.39
  -7   2  -3   97.65   79.83
   7  -2  -3  -53.37   67.54
   7   2  -3  -23.92   67.98
  -7  -2   3   54.53   69.31
  -7  -2   3   13.73   69.48
  -7  -2   3   24.36   74.74
  -7   2   3  -46.56   60.90
  -7   2   3    8.58   69.14
  -7   2   3   69.09   70.92
   7  -2   3  -13.18   70.92
   7  -2   3   87.86   65.99
   7  -2   3   18.10   63.83
   7   2   3   70.69   70.81
   7   2   3  114.65   73.91
  -7  -3  -3  284.66   95.27
  -7  -3  -3  426.49   93.34
  -7   3  -3  231.13   83.48
  -7   3  -3  385.80   93.89
   7  -3  -3  351.76   67.82
   7   3  -3  328.06   76.34
  -7  -3   3  306.86   77.56
  -7  -3   3  330.78   79.77
  -7  -3   3  332.99   81.21
  -7   3   3  366.70   66.54
  -7   3   3  310.79   72.30
  -7   3   3  255.10   78.94
   7  -3   3  293.52   70.53
   7  -3   3  235.72   69.48
   7  -3   3  270.77   66.65
   7   3   3  171.73   77.78
   7   3   3  302.65   68.76
  -7  -4  -3  340.96   82.71
  -7  -4  -3  124.89   95.16
  -7   4  -3  272.09   85.25
  -7   4  -3  213.14   88.52
   7  -4  -3   70.64   63.61
   7   4  -3  166.25   76.23
  -7  -4   3  126.66   67.32
  -7  -4   3  236.94   77.67
  -7  -4   3  133.64   79.28
  -7   4   3  113.27   59.90
  -7   4   3  205.22   78.94
  -7   4   3  135.24   77.01
   7  -4   3   92.89   66.71
   7  -4   3   80.94   68.42
   7  -4   3  112.33   66.82
   7   4   3  128.55   74.35
   7   4   3  167.08   80.71
  -7  -5  -3  382.09   83.70
  -7  -5  -3  293.24   98.82
  -7   5  -3  392.78   82.26
  -7   5  -3  582.28   96.44
   7  -5  -3  488.22   82.76
   7   5  -3  453.79   80.33
  -7  -5   3  373.07   84.92
  -7  -5   3  440.28   85.53
  -7  -5   3  263.24   83.98
  -7   5   3  310.51   66.93
  -7   5   3  318.93   87.63
  -7   5   3  186.29   76.89
   7  -5   3  330.50   73.52
   7  -5   3  354.47   72.80
   7  -5   3  304.48   67.82
   7   5   3  230.68   72.19
   7   5   3  275.53   69.59
  -7  -6  -3  307.41   80.44
  -7  -6  -3  315.05  102.80
  -7   6  -3  260.25   78.17
  -7   6  -3  272.15   93.34
   7  -6  -3  220.55   72.91
   7   6  -3  329.11   90.96
  -7  -6   3  314.00   83.59
  -7  -6   3  236.05   85.59
  -7   6   3  178.20   69.53
  -7   6   3  250.45   94.89
  -7   6   3  192.10   79.72
   7  -6   3  239.21   71.53
   7  -6   3  196.42   72.08
   7  -6   3  205.22   68.76
   7   6   3  180.97   70.97
   7   6   3  267.17   68.65
  -7  -7  -3  523.26   84.81
  -7  -7  -3  436.57  104.24
  -7   7  -3  524.04   90.35
  -7   7  -3  494.59   98.15
   7  -7  -3  405.68   79.28
   7   7  -3  491.54   94.94
  -7  -7   3  508.15   94.11
  -7  -7   3  304.48   92.56
  -7   7   3  458.55   89.24
  -7   7   3  245.52   81.32
   7  -7   3  373.96   73.74
   7   7   3  306.69   74.07
   7   7   3  346.28   88.58
  -7  -8  -3  220.11  102.47
  -7  -8  -3  286.04  113.49
  -7   8  -3  324.24   88.91
  -7   8  -3  263.40   95.83
   7  -8  -3  178.70   73.30
   7   8  -3  196.64   83.32
  -7  -8   3  251.72   84.98
  -7  -8   3  172.22   90.73
  -7   8   3  294.07   89.41
  -7   8   3  262.18   86.80
   7  -8   3  215.24   73.24
   7   8   3  129.93   75.95
  -7   9  -3  175.88   94.44
  -7   9  -3  170.90  100.81
   7   9  -3  196.75   91.07
  -7  -9   3  223.76   88.58
  -7  -9   3  232.35   95.88
  -7   9   3  148.14   83.59
  -7   9   3  131.81   96.22
   7  -9   3   47.17   73.96
   7   9   3  145.60   81.10
  -7  10  -3  121.13   96.38
   7  10  -3  168.02  101.14
  -7 -10   3  108.95   82.76
  -7 -10   3   42.07   96.71
  -7  10   3  -27.40   85.42
  -7  10   3   69.31   86.25
   7 -10   3   42.18   74.13
   7  10   3  123.23   77.89
  -7  11  -3   83.70  102.19
   7  11  -3  147.98  100.48
  -7 -11   3  105.02   83.76
  -7 -11   3   72.13   98.60
  -7  11   3  107.84   82.71
  -7  11   3  105.35   89.18
   7 -11   3  140.28   75.18
   7  11   3  102.58   84.09
  -7  12  -3  116.03  106.90
  -7 -12   3  -12.18   85.53
  -7 -12   3  -56.91  102.36
  -7  12   3  -65.71   75.79
  -7  12   3   41.35   94.94
   7 -12   3   27.40   72.36
   7  12   3   87.52   90.79
  -7  13  -3   53.31  104.02
  -7 -13   3  125.78   81.71
  -7 -13   3   79.33  106.62
  -7  13   3   54.42   77.89
  -7  13   3   89.02  104.08
   7 -13   3   10.35   72.85
   7  13   3  -36.70   87.80
  -7  14  -3   85.20  107.62
  -7 -14   3  -52.54   91.73
  -7 -14   3  -24.47  106.01
  -7  14   3   11.90   84.04
  -7  14   3    4.43   98.15
   7 -14   3   34.93   71.19
   7  14   3  -50.21   92.12
  -7  15  -3   33.05  166.47
  -7 -15   3   -8.14   98.71
  -7 -15   3    6.59  110.55
  -7  15   3   12.95   85.03
  -7  15   3 -215.07   96.77
   7 -15   3   -1.22   70.47
   7  15   3   30.12   88.85
  -8   0  -3  675.23  116.20
  -8   0  -3  634.59  109.56
   8   0  -3  670.96   99.65
  -8   0   3  503.44   94.28
  -8   0   3  454.34   89.57
   8   0   3  407.56   73.35
  -8  -1  -3  176.54  100.31
  -8   1  -3  -67.21  101.03
  -8   1  -3  127.44  103.30
   8  -1  -3  145.26   87.86
   8   1  -3  192.98   84.70
  -8  -1   3  195.37   88.30
  -8  -1   3  150.91   82.21
  -8   1   3   89.02   87.47
  -8   1   3  161.26   79.88
   8  -1   3   11.07   71.69
   8   1   3  142.55   76.73
  -8  -2  -3  277.74  104.74
  -8   2  -3  236.77  105.96
  -8   2  -3  397.48  104.24
   8  -2  -3  462.20   94.22
   8   2  -3  160.32   80.94
  -8  -2   3  280.01   81.66
  -8  -2   3  315.22   88.58
  -8   2   3  255.82   89.13
  -8   2   3  246.63   86.08
   8  -2   3  246.41   82.87
   8   2   3  254.10   78.39
  -8  -3  -3  241.31  113.16
  -8   3  -3  149.03  102.31
   8  -3  -3  246.02   82.54
   8   3  -3  253.33   87.91
  -8  -3   3  303.15   87.30
  -8  -3   3   33.82   90.02
  -8   3   3  275.75  102.86
  -8   3   3  187.95   89.63
   8  -3   3   95.16   76.06
   8   3   3  219.17   83.32
  -8  -4  -3  233.78  111.16
  -8   4  -3  184.29   96.22
   8  -4  -3  271.98   92.17
   8   4  -3  145.15   83.21
  -8  -4   3  207.43   84.65
  -8  -4   3  216.57   85.31
  -8   4   3  138.68   81.43
  -8   4   3  122.84   84.53
   8  -4   3  163.09   78.17
   8   4   3  158.88   79.66
  -8   5  -3  147.04   94.61
   8   5  -3  211.14   89.57
  -8  -5   3  111.38   92.12
  -8  -5   3  161.54   94.33
  -8   5   3  121.79   84.53
  -8   5   3  243.09   89.68
   8  -5   3  159.66   75.40
   8   5   3  122.40   71.25
  -8   6  -3  241.37  106.73
   8   6  -3  281.73   85.59
  -8  -6   3  205.39   91.90
  -8  -6   3   80.00   94.50
  -8   6   3  178.65   87.52
  -8   6   3   85.64   90.62
   8  -6   3  237.60   80.88
   8   6   3  263.51   83.59
  -8   7  -3  372.85  109.06
   8   7  -3  395.99  100.92
  -8  -7   3  286.49   97.10
  -8  -7   3  167.63   98.71
  -8   7   3  357.07  112.88
  -8   7   3  178.31   93.72
   8  -7   3  281.62   77.95
   8   7   3  285.55   81.21
  -8   8  -3   -4.65  106.01
  -8  -8   3   20.82   89.68
  -8  -8   3   65.49   97.93
  -8   8   3  -16.61  103.74
  -8   8   3   -5.37   95.33
   8  -8   3  163.15   76.01
   8   8   3  118.53   82.98
  -8   9  -3  236.61  107.95
  -8  -9   3  279.96  101.47
  -8  -9   3   97.27  100.15
  -8   9   3   99.15  105.90
  -8   9   3  266.28  107.62
   8  -9   3  169.62   79.83
   8   9   3  143.49   87.75
  -8  10  -3   15.72  117.03
  -8 -10   3    6.09   93.45
  -8 -10   3  -89.74  104.02
  -8  10   3    0.44  100.15
  -8  10   3   52.54  106.84
   8 -10   3   -9.02   77.23
   8  10   3   48.99   87.58
  -8 -11   3  223.38  104.41
  -8 -11   3  175.32  107.95
  -8  11   3  160.38   88.52
  -8  11   3  143.66  100.53
   8 -11   3   75.46   77.23
   8  11   3   90.46   86.58
  -8 -12   3   44.84   90.40
  -8 -12   3   29.51  106.35
  -8  12   3   25.02   91.01
  -8  12   3  -19.32   96.44
   8 -12   3  -18.66   82.21
   8  12   3   24.97   96.22
  -9   0   3  139.51  100.81
  -9   0   3  106.07   92.73
   9   0   3  251.11   84.26
  -9  -1   3  612.61  110.61
  -9  -1   3  416.36   97.77
  -9   1   3  639.68  121.63
  -9   1   3  435.35   98.21
   9  -1   3  553.21   91.57
   9   1   3  582.50   99.54
  -9  -2   3  159.05   96.82
  -9  -2   3  128.99   95.16
  -9   2   3   81.55  112.16
  -9   2   3  179.31   97.32
   9  -2   3    4.43   81.43
   9   2   3  205.88   93.61
  -9  -3   3  318.21  101.64
  -9  -3   3  299.33   98.26
  -9   3   3  289.92  114.37
  -9   3   3  330.44  101.59
   9  -3   3  419.02   89.85
   9   3   3  372.35   94.39
  -9  -4   3  -96.66   88.19
  -9  -4   3  -55.69  101.81
  -9   4   3  -38.70   99.37
  -9   4   3   16.66   94.17
   9  -4   3   34.77   86.36
   9   4   3  156.17   85.92
  -9  -5   3  172.83  102.36
  -9  -5   3   88.47   95.99
  -9   5   3  203.50  101.42
  -9   5   3  170.07   96.82
   9  -5   3   93.84   90.90
   9   5   3  200.79   81.60
  -9  -6   3  125.83   96.66
  -9  -6   3   93.84  101.70
  -9   6   3   68.87  104.08
  -9   6   3  127.22   98.71
   9  -6   3   56.91   87.08
   9   6   3   -0.94   83.26
  -9  -7   3  105.68  103.41
  -9  -7   3   36.04  108.34
  -9   7   3   69.64  112.77
  -9   7   3  226.81  101.92
   9  -7   3  241.20   87.86
   9   7   3  141.67   83.65
  -9  -8   3   30.67  103.86
  -9  -8   3   43.29  107.73
  -9   8   3   75.68  106.35
  -9   8   3  100.76  103.30
   9  -8   3   35.60   85.03
   9   8   3   60.01   87.97
  -9  -9   3   31.11   97.49
  -9  -9   3   28.62  109.50
  -9   9   3  -78.11  108.34
  -9   9   3   48.11  109.28
   9  -9   3   36.26   82.32
   9   9   3  -20.21   87.97
 -10   0   3   36.76  128.49
   0  -5   4   -5.09   41.58
   0  -5   4   33.82   41.46
   0   6  -4  400.20   52.98
   0  -6   4  346.61   49.05
   0  -6   4  326.35   48.88
   0   7  -4   20.76   51.10
   0  -7   4   -9.47   47.17
   0  -7   4  -43.90   46.78
   0   8  -4  514.46   58.46
   0  -8   4  427.66   53.48
   0  -8   4  445.92   54.86
   0   9  -4  -63.00   53.48
   0  -9   4  -40.30   51.98
   0  -9   4  -11.63   52.65
   0  10  -4  567.38   66.04
   0 -10   4  612.45   73.74
   0 -10   4  596.89   73.30
   0  11  -4   44.34   60.73
   0 -11   4   31.78   56.97
   0 -11   4   20.59   54.64
   0  12  -4  116.09   64.33
   0 -12   4   93.45   62.56
   0 -12   4  113.60   56.91
   0  13  -4   37.42   65.21
   0 -13   4  -38.36   64.88
   0 -13   4   72.58   60.79
   0  13   4  -69.48   58.02
   0  13   4   21.20   56.02
   0  14  -4   36.15   72.13
   0 -14   4   48.83   70.64
   0 -14   4  149.75   64.83
   0  14   4   33.33   60.62
   0  14   4  139.89   60.23
   0  15  -4  -60.40   73.02
   0 -15   4   15.94   66.54
   0  15   4   16.33   61.95
   0  15   4   89.35   63.33
   0 -16   4   45.56   65.82
   0 -16   4   75.40   67.87
   0  16   4   69.59   66.10
   0 -17   4   -0.94   68.04
   0 -17   4    2.27   69.86
   0  17   4  -25.58   68.20
   0 -18   4    7.70   72.58
   0 -18   4  -55.53   72.13
   0  18   4    8.64   72.13
   0 -19   4    9.41   73.57
   0 -19   4    9.02   73.02
   0  19   4   42.57   75.51
   1   5  -4  198.63   50.05
  -1  -5   4  298.50   48.61
  -1  -5   4  222.93   49.16
   1  -5   4  272.81   40.08
   1  -5   4  221.22   49.71
  -1   6  -4  227.25   54.86
   1   6  -4  240.98   56.52
  -1  -6   4  161.48   51.93
  -1  -6   4  141.89   48.77
   1  -6   4  250.23   42.35
   1  -6   4  167.80   49.38
  -1   7  -4  373.57   60.01
   1   7  -4  346.50   60.62
  -1  -7   4  358.79   53.03
  -1  -7   4  254.66   53.92
   1  -7   4  286.21   45.84
   1  -7   4  325.41   54.25
  -1   8  -4  812.30   76.12
   1   8  -4  669.74   79.50
  -1  -8   4  705.73   68.09
  -1  -8   4  632.16   71.53
   1  -8   4  619.37   60.18
   1  -8   4  556.70   60.34
  -1   9  -4  386.36   63.72
   1   9  -4  323.69   66.76
  -1  -9   4  415.86   59.46
  -1  -9   4  277.69   60.01
   1  -9   4  306.42   48.44
   1  -9   4  269.66   59.79
  -1  10  -4  333.05   65.38
   1  10  -4  434.30   69.48
  -1 -10   4  357.46   60.23
  -1 -10   4  382.98   68.37
   1 -10   4  331.61   51.76
   1 -10   4  285.05   62.67
  -1  11  -4  310.07   66.38
   1  11  -4  402.85   74.29
  -1 -11   4  390.79   64.22
  -1 -11   4  283.17   68.87
   1 -11   4  378.27   56.02
   1 -11   4  296.62   64.00
  -1  12  -4  385.91   69.70
   1  12  -4  555.54   78.67
  -1 -12   4  554.54   71.86
  -1 -12   4  344.45   71.25
  -1  12   4  385.03   52.87
   1 -12   4  460.43   61.06
   1 -12   4  471.83   69.64
  -1  13  -4  114.15   72.52
   1  13  -4  113.76   79.72
  -1 -13   4  224.32   69.20
  -1 -13   4   76.95   71.41
  -1  13   4  151.19   59.24
  -1  13   4  168.07   50.27
   1 -13   4   80.83   57.74
   1 -13   4  131.98   67.82
   1  13   4  123.56   53.59
   1  13   4  175.88   56.25
  -1  14  -4  441.38   82.65
   1  14  -4  264.57   74.35
  -1 -14   4  421.01   78.28
  -1 -14   4  256.81   78.28
  -1  14   4  364.38   63.28
  -1  14   4  328.34   62.22
   1 -14   4  335.59   64.05
   1 -14   4  441.94   74.35
   1  14   4  257.76   57.57
   1  14   4  417.86   61.62
  -1  15  -4  198.74   82.87
   1  15  -4  251.28   74.90
  -1 -15   4  300.83   75.40
  -1  15   4  237.66   63.72
  -1  15   4  264.84   62.61
   1 -15   4  249.18   74.79
   1  15   4  199.57   60.79
   1  15   4  298.50   63.55
  -1 -16   4   91.73   74.85
  -1 -16   4  147.70   63.89
  -1  16   4   70.36   65.38
   1 -16   4   97.88   75.79
   1  16   4   82.82   62.00
  -1 -17   4   39.14   74.63
  -1 -17   4   -5.26   64.77
  -1  17   4    9.30   67.04
   1 -17   4   -2.27   74.07
   1 -17   4  -13.78   72.85
   1  17   4   34.32   64.77
  -1 -18   4  -12.18   73.19
  -1 -18   4  154.62   70.97
  -1  18   4  123.56   71.41
   1 -18   4  151.63   82.38
   1 -18   4   48.16   78.83
   1  18   4   52.81   68.31
  -1 -19   4   74.90   77.45
  -1 -19   4   38.70   71.25
  -1  19   4  138.79   75.01
   1 -19   4  106.12   81.32
   1 -19   4  -14.01   77.01
   1  19   4   33.11   69.26
  -2  -3   4  181.03   45.01
   2   4  -4 2140.16   74.35
  -2  -4   4 2242.13   69.37
  -2  -4   4 1946.34   70.92
   2   5  -4  198.08   56.41
  -2  -5   4  144.77   47.17
  -2  -5   4  156.61   52.76
   2  -5   4  119.58   36.21
   2  -5   4  183.19   47.06
  -2   6  -4 2495.96   75.07
   2   6  -4 2335.91   80.66
  -2  -6   4 2188.65   73.63
  -2  -6   4 2036.64   78.11
   2  -6   4 1982.22   63.00
   2  -6   4 2244.01   69.70
  -2   7  -4   40.19   55.75
   2   7  -4   59.40   52.20
  -2  -7   4  -14.84   51.60
  -2  -7   4   12.57   55.75
   2  -7   4  -36.93   39.80
   2  -7   4   23.14   48.22
  -2   8  -4  743.82   75.68
   2   8  -4  762.53   80.55
  -2  -8   4  612.17   72.08
  -2  -8   4  652.64   77.95
   2  -8   4  662.44   64.11
   2  -8   4  803.83   67.26
  -2   9  -4   93.50   58.46
   2   9  -4   78.39   61.01
  -2  -9   4   99.76   56.63
  -2  -9   4  105.02   61.28
   2  -9   4  184.02   54.09
  -2  10  -4  834.27   79.55
   2  10  -4  669.74   83.10
  -2 -10   4  778.58   77.56
  -2 -10   4  788.38   86.80
  -2  10   4  690.06   61.84
   2 -10   4  877.01   75.51
  -2  11  -4   85.09   62.17
   2  11  -4   28.90   61.95
  -2 -11   4   28.79   61.67
  -2 -11   4   -3.10   61.62
  -2  11   4    9.74   54.86
  -2  11   4   28.23   49.93
   2 -11   4   90.40   56.36
  -2  12  -4  263.73   67.71
   2  12  -4  241.04   75.40
  -2 -12   4  270.65   72.74
  -2 -12   4  320.76   68.81
  -2  12   4  244.80   58.68
  -2  12   4  226.48   54.86
   2 -12   4  324.58   62.28
  -2  13  -4   25.69   69.14
  -2  13  -4   65.21   84.26
   2  13  -4  -55.91   75.29
  -2 -13   4   26.35   65.49
  -2 -13   4   34.10   65.16
  -2  13   4   14.28   59.73
  -2  13   4   40.91   56.19
   2 -13   4  123.40   64.27
   2 -13   4   30.06   60.23
   2  13   4  -22.48   57.57
   2  13   4  167.80   58.74
  -2  14  -4   74.07   72.41
  -2  14  -4  201.12   90.85
   2  14  -4  157.67   83.10
  -2 -14   4  139.56   70.03
  -2 -14   4  122.07   61.45
  -2  14   4   77.17   60.29
  -2  14   4   78.22   57.19
   2 -14   4   75.12   65.32
   2  14   4  113.76   62.61
   2  14   4  212.25   64.05
  -2  15  -4 -136.68   92.73
   2  15  -4   34.82   90.51
  -2 -15   4   -3.71   71.36
  -2  15   4  -29.67   62.67
   2 -15   4   12.40   65.71
   2  15   4   -4.43   58.35
   2  15   4  -60.45   64.72
  -2  16  -4   62.28  100.48
  -2 -16   4   26.96   82.10
  -2 -16   4  -60.23   62.83
  -2  16   4   45.62   65.10
   2 -16   4   -7.86   82.38
   2  16   4  -67.54   59.24
  -2  17  -4  -57.08  119.36
  -2 -17   4  -76.89   82.60
  -2 -17   4   -1.33   66.16
  -2  17   4   27.13   67.15
   2 -17   4    4.21   82.32
   2  17   4  -37.31   62.17
  -2 -18   4    1.38   86.80
  -2 -18   4   47.72   69.81
  -2  18   4  -10.85   70.58
   2 -18   4   19.38   85.31
   2  18   4  -79.16   64.83
  -2 -19   4  -33.94   87.58
  -2 -19   4   33.66   71.53
  -2  19   4  -13.95   69.37
   2 -19   4   10.08   88.80
   2  19   4    4.93   68.98
  -3   0   4  -44.84   44.68
  -3  -1   4  102.14   43.24
  -3  -1   4   49.10   43.24
  -3   1   4   91.29   44.90
   3   2  -4  555.32   56.91
  -3  -2   4  550.83   52.09
  -3  -2   4  473.16   53.53
   3   3  -4  139.01   59.62
  -3  -3   4  244.75   50.10
  -3  -3   4  182.80   52.70
   3   4  -4  730.81   73.68
  -3  -4   4  735.40   62.22
  -3  -4   4  636.75   68.92
   3  -4   4  653.47   59.07
   3  -4   4  771.99   59.24
  -3   5  -4  431.75   58.63
   3   5  -4  494.64   63.77
  -3  -5   4  446.09   56.02
  -3  -5   4  370.63   59.18
   3  -5   4  323.47   45.40
   3  -5   4  426.71   48.27
  -3   6  -4  670.52   65.16
   3   6  -4  746.97   73.30
  -3  -6   4  717.52   68.76
  -3  -6   4  647.60   64.55
   3  -6   4  494.14   58.29
   3  -6   4  653.69   64.94
  -3   7  -4   87.69   60.90
   3   7  -4   12.12   59.57
  -3  -7   4   63.39   51.37
  -3  -7   4   43.90   59.35
  -3   7   4   27.68   33.05
  -3   7   4   50.21   49.05
   3  -7   4   58.29   44.73
   3  -7   4   84.59   51.98
  -3   8  -4 1408.69   84.31
  -3   8  -4 1519.41   97.32
   3   8  -4 1291.93   85.64
  -3  -8   4 1335.84   79.55
  -3  -8   4 1431.16   88.80
  -3   8   4  959.11   55.36
  -3   8   4 1177.28   66.38
   3  -8   4 1142.74   66.27
   3  -8   4 1562.81   73.68
  -3   9  -4  135.41   63.66
  -3   9  -4  164.53   72.91
   3   9  -4  165.53   65.32
  -3  -9   4  170.29   60.73
  -3  -9   4  156.45   67.21
  -3   9   4  130.82   34.49
  -3   9   4   85.59   53.81
   3  -9   4  117.03   46.23
   3  -9   4   50.71   56.63
  -3  10  -4 1028.31   85.48
  -3  10  -4 1098.23  104.85
   3  10  -4  894.95   90.13
  -3 -10   4  997.86   85.09
  -3 -10   4  942.61   89.90
  -3  10   4  845.90   70.64
   3 -10   4  767.29   70.36
   3 -10   4 1040.05   81.93
  -3  11  -4   68.37   65.21
  -3  11  -4  228.53   78.61
   3  11  -4  191.99   67.21
  -3 -11   4  144.49   65.77
  -3 -11   4  113.54   69.86
  -3  11   4  130.32   58.90
   3 -11   4  106.35   48.38
   3 -11   4  154.51   63.77
   3  11   4   80.55   47.89
   3  11   4  124.34   55.58
  -3  12  -4  563.67   80.33
  -3  12  -4  732.52   87.75
   3  12  -4  648.43   79.11
  -3 -12   4  791.37   91.01
  -3 -12   4  655.41   78.28
  -3  12   4  626.51   64.38
  -3  12   4  594.29   67.37
   3 -12   4  453.01   54.64
   3 -12   4  809.47   87.69
   3  12   4  609.85   72.30
   3  12   4  638.47   72.52
  -3  13  -4   38.09   78.06
  -3  13  -4  127.83   79.83
   3  13  -4  -17.88   74.63
  -3 -13   4   66.65   74.35
  -3  13   4   82.87   65.16
  -3  13   4  -54.14   60.56
   3 -13   4   57.35   55.25
   3  13   4  -34.88   51.93
   3  13   4   -4.59   60.01
  -3  14  -4  191.27  112.93
  -3  14  -4  164.81   84.31
   3  14  -4   95.22   79.33
  -3 -14   4  226.98   78.45
  -3 -14   4  137.13   61.39
  -3  14   4  179.26   67.04
   3 -14   4  155.40   60.07
   3  14   4   82.04   58.13
   3  14   4  196.92   66.71
  -3  15  -4  -23.14   83.98
  -3 -15   4   20.76   73.79
  -3 -15   4  -19.65   60.73
  -3  15   4  -17.16   67.65
   3 -15   4  -26.79   60.45
   3  15   4   12.90   61.12
  -3  16  -4   93.23  139.89
  -3 -16   4   65.32   76.29
  -3 -16   4   33.11   64.27
  -3  16   4   67.48   71.80
   3 -16   4   82.43   61.50
   3  16   4   36.54   65.71
  -3 -17   4  107.68   78.22
  -3 -17   4  -30.12   64.66
  -3  17   4   25.02   75.12
   3  17   4  -13.34   67.48
  -3 -18   4   94.78   79.77
  -3 -18   4   35.15   68.54
  -3  18   4  -39.75   75.62
   3  18   4  -23.97   70.58
   4   0  -4 1026.93   72.19
  -4   0   4  852.49   65.88
  -4   0   4  891.52   68.09
   4  -1  -4   20.87   45.23
   4   1  -4   10.74   53.31
  -4  -1   4   31.44   52.15
  -4  -1   4  -11.02   53.87
  -4   1   4    5.31   44.07
  -4   1   4    0.33   48.55
   4  -1   4   58.02   47.06
   4  -1   4   39.47   45.51
   4  -2  -4  877.29   73.74
   4   2  -4  853.65   75.68
  -4  -2   4  885.09   65.88
  -4  -2   4  849.44   75.12
  -4   2   4  846.79   64.49
  -4   2   4  751.79   69.64
   4  -2   4  741.27   65.71
   4  -2   4  893.12   63.44
  -4   3  -4  -15.17   72.47
   4  -3  -4  -48.27   65.05
   4   3  -4   27.90   55.25
  -4  -3   4   41.96   51.32
  -4  -3   4   17.94   55.19
  -4   3   4   31.33   42.79
  -4   3   4  -26.19   50.88
   4  -3   4  -21.70   45.95
   4  -3   4  -16.39   49.16
  -4   4  -4  573.36   64.00
   4   4  -4  580.61   64.33
  -4  -4   4  487.72   57.74
  -4  -4   4  602.93   64.66
  -4   4   4  453.18   50.43
  -4   4   4  468.29   55.86
   4  -4   4  491.98   57.30
   4  -4   4  613.44   67.21
  -4   5  -4  317.77   60.01
   4   5  -4  288.43   68.20
  -4  -5   4  308.19   57.63
  -4  -5   4  296.01   63.50
  -4   5   4  255.60   49.33
  -4   5   4  220.78   57.13
   4  -5   4  177.87   53.09
   4  -5   4  312.29   54.64
  -4   6  -4  968.41   79.28
   4   6  -4  872.25   84.53
  -4  -6   4  955.51   72.08
  -4  -6   4  823.15   79.16
  -4   6   4  583.94   57.69
  -4   6   4  884.21   73.02
   4  -6   4  723.06   69.03
   4  -6   4  902.15   71.03
  -4   7  -4   62.67   61.50
  -4   7  -4   89.96   63.83
   4   7  -4   47.55   63.00
  -4  -7   4   18.38   57.63
  -4  -7   4   82.82   61.56
  -4   7   4   34.77   37.26
  -4   7   4   11.18   56.30
   4  -7   4   34.05   49.05
   4  -7   4   38.81   52.37
  -4   8  -4  309.57   70.09
  -4   8  -4  295.01   70.03
   4   8  -4  260.75   70.20
  -4  -8   4  333.60   63.11
  -4  -8   4  421.18   68.37
  -4   8   4  182.02   40.19
  -4   8   4  244.25   59.84
   4  -8   4  193.82   51.37
   4  -8   4  218.56   55.14
   4   8   4  179.86   57.74
  -4   9  -4  130.21   68.70
  -4   9  -4  101.70   69.20
   4  -9  -4   18.88   55.14
   4   9  -4   43.01   74.35
  -4  -9   4   60.01   61.78
  -4  -9   4   58.18   67.26
  -4   9   4   57.02   39.31
  -4   9   4   46.17   55.30
   4  -9   4   42.02   48.94
   4  -9   4   76.67   60.67
   4   9   4   68.76   60.56
   4   9   4   96.55   49.93
  -4  10  -4   91.23   72.69
  -4  10  -4   83.43   73.13
   4 -10  -4   92.01   55.14
   4  10  -4  126.83   73.41
  -4 -10   4   77.89   63.11
  -4 -10   4  107.51   73.30
  -4  10   4   35.49   41.58
  -4  10   4  119.58   59.95
   4 -10   4   21.37   50.99
   4 -10   4   43.79   62.34
   4  10   4   51.87   63.39
   4  10   4   44.68   52.81
  -4  11  -4  -49.71   76.23
  -4  11  -4  -35.54   76.73
   4 -11  -4   -7.58   58.18
   4  11  -4  -54.58   74.90
  -4 -11   4   63.44   66.54
  -4 -11   4   29.29   76.40
  -4  11   4  -10.30   39.36
  -4  11   4  -95.72   61.01
   4 -11   4  -15.94   51.32
   4 -11   4  -30.50   63.55
   4  11   4  -11.24   61.84
   4  11   4  -80.05   57.35
  -4  12  -4   58.85   78.72
  -4  12  -4  130.32   83.26
   4 -12  -4   92.62   59.18
   4  12  -4  245.02   80.05
  -4 -12   4  207.38   80.22
  -4  12   4  152.52   64.27
   4 -12   4   54.53   51.43
   4  12   4   26.02   62.89
   4  12   4  107.40   62.83
  -4  13  -4  109.61   85.59
   4  13  -4   89.46   86.36
  -4 -13   4  115.09   78.00
  -4  13   4    1.77   66.32
   4 -13   4   40.30   54.36
   4  13   4    2.16   66.38
   4  13   4   80.83   64.38
  -4  14  -4   46.56   87.75
  -4 -14   4   87.36   79.77
  -4  14   4    1.77   66.99
   4 -14   4   29.62   55.14
   4  14   4    4.48   59.57
  -4 -15   4   -3.16   80.88
  -4  15   4   18.99   67.82
   4 -15   4   60.84   57.24
   4  15   4    4.65   59.29
   4  15   4    1.77    9.63
  -4 -16   4  -13.73   80.00
  -4  16   4    4.32   75.73
   4 -16   4   33.88   57.80
   4  16   4  -11.02   63.94
  -4 -17   4   64.27   84.53
  -4  17   4  -51.76   75.01
   4 -17   4    6.59   57.57
   4  17   4  -50.88   63.83
   5   0  -4   48.33   52.98
  -5   0   4  -27.29   52.43
  -5   0   4   11.07   55.58
   5   0   4   16.50   50.54
   5   0   4  -53.20   50.82
  -5   1  -4  -45.12   62.17
   5  -1  -4  -27.57   54.58
   5   1  -4   81.16   55.03
  -5  -1   4  -24.14   55.14
  -5  -1   4   -6.31   56.25
  -5   1   4  -51.37   47.83
  -5   1   4   -1.44   56.47
   5  -1   4   15.11   53.48
   5  -1   4   -6.64   49.82
   5   1   4  -13.45   50.27
   5   1   4  -14.62   52.15
  -5   2  -4   86.69   62.34
   5  -2  -4   62.78   60.62
   5   2  -4   21.04   59.29
  -5  -2   4   42.07   54.75
  -5  -2   4   45.89   58.18
  -5   2   4   47.61   49.88
  -5   2   4  -20.15   58.79
   5  -2   4   55.03   56.41
   5  -2   4   27.35   52.32
   5   2   4  -14.17   55.42
   5   2   4    6.75   47.72
  -5   3  -4   38.53   59.12
   5  -3  -4   22.59   56.19
   5   3  -4   30.23   61.12
  -5  -3   4   89.02   51.76
  -5  -3   4   91.95   62.56
  -5   3   4  -10.19   42.79
  -5   3   4  -91.51   55.58
   5  -3   4   51.71   55.42
   5  -3   4   -5.31   50.49
   5   3   4   -0.94   54.97
   5   3   4    3.04   50.88
  -5   4  -4   22.86   60.23
   5  -4  -4   19.65   53.75
   5   4  -4   54.75   62.34
  -5  -4   4   66.38   57.69
  -5  -4   4   29.95   59.24
  -5   4   4   11.40   50.82
  -5   4   4  -24.58   53.48
   5  -4   4  -33.33   51.93
   5  -4   4  -11.96   57.52
   5   4   4   37.09   49.33
   5   4   4   73.52   50.49
  -5   5  -4   85.64   65.55
  -5   5  -4   34.54   68.54
   5  -5  -4   19.60   57.35
   5   5  -4  118.25   64.49
  -5  -5   4   38.64   57.41
  -5  -5   4   22.20   62.72
  -5   5   4   79.44   50.49
  -5   5   4  164.42   64.27
   5  -5   4   47.33   57.13
   5  -5   4   47.44   58.02
   5   5   4   56.13   51.04
   5   5   4   43.62   54.47
  -5   6  -4   36.37   64.77
  -5   6  -4   55.19   70.58
   5  -6  -4   60.84   57.35
   5   6  -4  -41.63   71.64
  -5  -6   4   -8.86   59.90
  -5  -6   4  131.54   67.59
  -5   6   4   79.00   50.38
  -5   6   4  110.06   63.94
   5  -6   4   78.22   58.52
   5  -6   4  116.48   62.45
   5   6   4    6.81   54.03
   5   6   4   67.26   48.77
  -5   7  -4   -8.36   65.66
  -5   7  -4    1.72   73.96
   5  -7  -4   30.28   57.35
   5   7  -4   73.08   72.63
  -5  -7   4  107.62   64.49
  -5  -7   4   57.41   62.67
  -5   7   4    0.61   45.40
  -5   7   4   61.39   61.01
   5  -7   4   62.78   57.85
   5  -7   4  -16.61   60.45
   5   7   4    9.52   56.63
   5   7   4   24.91   56.41
  -5   8  -4   39.42   72.63
  -5   8  -4  121.85   79.00
   5  -8  -4   79.28   56.63
   5   8  -4   70.25   71.69
  -5  -8   4  174.33   62.78
  -5  -8   4   99.59   68.20
  -5   8   4    4.21   46.34
  -5   8   4   88.85   63.77
   5  -8   4   59.68   57.30
   5  -8   4  -54.97   60.79
   5   8   4  133.42   60.18
   5   8   4   23.75   58.07
  -5   9  -4  187.39   75.62
  -5   9  -4   77.95   79.00
   5  -9  -4  138.07   63.17
   5   9  -4  216.62   79.88
  -5  -9   4  135.91   69.75
  -5  -9   4  154.40   71.75
  -5  -9   4   36.59   76.01
  -5   9   4   98.60   46.06
  -5   9   4   72.19   67.54
   5  -9   4   88.91   57.80
   5  -9   4  183.74   64.33
   5   9   4  136.79   65.60
   5   9   4   83.76   57.80
  -5  10  -4  268.66   79.61
  -5  10  -4  186.62   84.15
   5 -10  -4  262.07   64.27
   5  10  -4  373.68   84.48
  -5 -10   4  219.45   75.29
  -5 -10   4  153.29   78.72
  -5  10   4  196.58   47.83
  -5  10   4  199.35   66.49
   5 -10   4  196.64   61.89
   5  10   4   40.91   65.10
   5  10   4  153.79   62.89
  -5  11  -4   31.83   87.58
   5  11  -4  194.70   90.68
  -5 -11   4   87.41   76.40
  -5 -11   4   -9.58   73.63
  -5  11   4    5.59   63.00
   5 -11   4   57.69   56.36
   5  11   4   61.67   69.26
   5  11   4  104.41   61.06
  -5  12  -4  210.92   94.50
  -5 -12   4  231.35   81.93
  -5 -12   4   58.90   77.89
  -5  12   4  135.30   69.86
   5 -12   4  155.95   61.34
   5  12   4  123.40   74.07
  -5 -13   4   31.28   83.76
  -5 -13   4   65.44   81.27
  -5  13   4  -17.83   69.81
   5 -13   4  -24.86   57.19
   5  13   4   35.26   77.06
  -5 -14   4   24.75   84.20
  -5 -14   4   78.33   84.15
  -5  14   4   79.05   73.35
   5 -14   4   74.02   59.90
   5  14   4   57.57   72.30
  -5 -15   4   -1.11   86.36
  -5 -15   4  -82.04   85.20
  -5  15   4  -38.75   71.47
   5 -15   4   -4.43   61.23
   5  15   4   -7.53   74.18
  -5 -16   4   49.44   89.74
  -5 -16   4   72.08   91.62
  -5  16   4   -9.85   75.18
   5 -16   4   49.33   62.06
   5  16   4   34.71   76.23
  -6   0  -4   37.15   72.47
   6   0  -4   46.34   58.07
  -6   0   4    5.59   60.12
  -6   0   4  107.90   64.49
   6   0   4  -11.85   55.03
   6   0   4   52.15   59.46
  -6  -1  -4    3.93   67.37
  -6   1  -4   99.92   81.60
  -6   1  -4    2.10   72.24
   6  -1  -4  -46.45   60.29
   6   1  -4   44.23   65.99
  -6  -1   4    3.60   61.12
  -6  -1   4   55.64   69.59
  -6   1   4    4.15   54.31
  -6   1   4   62.45   61.23
   6  -1   4   63.72   64.22
   6  -1   4  -50.71   57.63
   6   1   4   13.95   59.51
   6   1   4   77.95   60.51
  -6  -2  -4  -38.48   67.98
  -6   2  -4   45.78   86.42
   6  -2  -4   18.43   68.59
   6   2  -4   20.21   62.78
  -6  -2   4   92.73   65.27
  -6  -2   4   82.82   65.60
  -6   2   4  109.72   57.24
  -6   2   4   50.10   64.44
   6  -2   4  -26.30   62.94
   6  -2   4  -11.96   58.13
   6   2   4   44.12   64.27
   6   2   4  118.47   56.02
  -6  -3  -4  -54.81   75.29
  -6   3  -4   -5.65   71.58
  -6   3  -4    3.88   74.40
   6  -3  -4    8.47   70.47
   6   3  -4    1.66   65.21
  -6  -3   4  -12.01   60.07
  -6  -3   4  -10.68   66.43
  -6   3   4   19.71   51.93
  -6   3   4   40.74   71.41
   6  -3   4  -14.23   59.62
   6  -3   4  -63.66   58.46
   6   3   4   35.82   62.78
   6   3   4   -9.80   57.80
  -6   4  -4  117.58   70.75
  -6   4  -4   62.78   78.45
   6  -4  -4  -23.09   58.35
   6   4  -4   50.60   72.24
  -6  -4   4   54.58   59.07
  -6  -4   4   95.33   71.08
  -6   4   4   57.63   56.80
  -6   4   4   41.69   73.19
   6  -4   4   14.84   62.61
   6  -4   4   74.85   60.84
   6   4   4   35.32   52.65
   6   4   4   11.18   70.53
  -6  -5  -4  -34.93   79.16
  -6   5  -4   41.80   67.10
  -6   5  -4  -54.31   78.61
   6  -5  -4  -31.94   62.45
   6   5  -4   33.66   71.80
  -6  -5   4   50.21   65.71
  -6  -5   4  -62.67   73.91
  -6   5   4   57.57   57.69
  -6   5   4   20.59   65.55
   6  -5   4   37.04   60.84
   6  -5   4  -51.04   56.47
   6   5   4   -4.48   61.39
   6   5   4   -6.92   59.57
  -6   6  -4  123.62   83.10
  -6   6  -4  168.35   84.87
   6  -6  -4  219.34   67.65
   6   6  -4  236.44   74.79
  -6  -6   4  203.12   70.25
  -6  -6   4  160.77   75.79
  -6  -6   4   77.34   78.17
  -6   6   4  195.64   60.95
  -6   6   4  126.94   74.29
   6  -6   4   68.76   64.38
   6  -6   4  253.94   69.37
   6   6   4  185.57   60.67
   6   6   4  108.12   61.39
  -6   7  -4   16.72   81.60
  -6   7  -4   -8.30   83.76
   6  -7  -4  -88.58   68.42
   6   7  -4    3.10   76.84
  -6  -7   4  -52.59   73.79
  -6  -7   4  -49.66   79.16
  -6   7   4  -10.02   55.86
  -6   7   4   23.86   77.28
   6  -7   4   33.27   65.55
   6   7   4  -38.75   61.45
   6   7   4    2.93   61.39
  -6   8  -4  181.64   88.08
   6   8  -4  224.21   90.18
  -6  -8   4  192.49   76.01
  -6  -8   4  123.95   82.87
  -6   8   4  121.40   74.51
   6  -8   4  107.07   68.70
   6   8   4   79.72   72.58
   6   8   4  105.24   76.73
  -6   9  -4  -10.57   91.95
  -6  -9   4   29.95   72.41
  -6  -9   4   32.99   83.76
  -6   9   4  -46.50   75.34
   6  -9   4   -0.39   65.10
   6   9   4  -50.10   71.03
  -6 -10   4  100.76   78.56
  -6 -10   4  -21.31   83.37
  -6  10   4   83.04   77.17
   6 -10   4   31.50   64.72
   6  10   4   90.24   75.34
  -6 -11   4   39.58   78.94
  -6 -11   4   25.80   86.69
  -6  11   4   28.40   75.18
   6 -11   4   81.21   67.10
   6  11   4   48.11   77.17
  -6 -12   4  110.33   81.77
  -6 -12   4  -14.78   88.91
  -6  12   4   11.46   76.89
   6 -12   4  -10.57   67.26
   6  12   4   58.40   77.28
  -6 -13   4  -21.26   83.48
  -6 -13   4   55.19   94.22
  -6  13   4   84.53   74.57
   6 -13   4  117.92   70.36
   6  13   4    4.04   86.03
  -6 -14   4   34.66   88.35
  -6 -14   4 -118.08   93.12
  -6  14   4  -28.46   77.95
   6 -14   4    4.10   62.78
   6  14   4   24.91   84.09
  -6 -15   4  -34.60   90.29
  -6  15   4  114.10   80.60
   6 -15   4   -4.37   63.66
   6  15   4   -9.02   87.41
  -7   0  -4   60.67   92.51
  -7   0  -4   39.42   99.65
   7   0  -4    4.43   68.42
  -7   0   4   20.37   71.91
   7   0   4  -21.87   68.76
  -7  -1  -4  110.33  103.69
  -7   1  -4  362.66  116.70
   7  -1  -4  266.95   92.12
   7   1  -4  300.55   81.05
  -7  -1   4  202.01   75.84
  -7   1   4  206.88   78.50
   7  -1   4  259.42   75.95
   7   1   4  180.25   73.68
   7   1   4  203.23   89.18
  -7   2  -4  135.96  120.96
   7   2  -4   37.98   82.87
  -7  -2   4   32.33   78.61
  -7   2   4   78.00   80.88
   7  -2   4   60.29   73.30
   7   2   4   76.01   73.79
  -7  -3   4  147.26   73.79
  -7   3   4  103.69   81.60
   7  -3   4   74.63   73.19
   7   3   4   25.80   72.63
  -7  -4   4   36.81   82.21
  -7  -4   4  -43.73   81.38
  -7   4   4  -32.55   84.04
   7  -4   4   67.98   72.24
   7   4   4  -28.90   70.69
  -7  -5   4  179.75   88.47
  -7  -5   4   44.62   81.55
  -7   5   4   79.05   72.80
   7  -5   4  120.08   70.97
   7   5   4  102.03   71.91
  -7  -6   4    7.53   77.06
  -7  -6   4    1.83   85.14
  -7   6   4   82.26   75.68
   7  -6   4  107.12   68.98
   7   6   4   57.35   68.31
  -7  -7   4  172.72   85.31
  -7  -7   4   51.26   89.13
  -7   7   4  161.82  103.52
   7  -7   4   70.69   68.15
   7   7   4  174.94   76.56
  -7  -8   4  215.57   82.38
  -7  -8   4  104.02   93.45
  -7   8   4  277.08   97.49
   7  -8   4  204.33   73.52
   7   8   4   75.84   76.23
  -7  -9   4   32.83   83.81
  -7  -9   4   80.88   92.06
  -7   9   4   20.15   82.54
   7  -9   4   46.50   74.51
   7   9   4   89.68   80.88
  -7 -10   4  210.04   81.71
  -7 -10   4  -80.27   93.95
  -7  10   4  109.39   85.25
   7 -10   4  156.95   74.96
   7  10   4   94.00   78.67
  -7 -11   4  164.31   90.18
  -7 -11   4  -22.14   96.77
  -7  11   4   52.76   86.58
   7 -11   4   94.94   73.35
   7  11   4   79.33   83.65
  -7 -12   4  139.06   94.17
  -7 -12   4   34.05   98.98
  -7  12   4   92.12   91.45
   7 -12   4  -36.81   72.02
   7  12   4  106.12   86.75
  -7  13   4   72.24   83.37
  -8   0   4  810.86  107.18
   8   0   4  729.03   85.42
  -8  -1   4  119.85   89.13
  -8  -1   4  130.54   81.71
  -8   1   4  174.77   93.50
  -8   1   4  100.53   77.61
   8  -1   4   89.02   74.51
   8   1   4  258.36   83.32
  -8  -2   4  779.19   93.95
  -8  -2   4  466.85   89.18
  -8   2   4  964.26  119.91
   8  -2   4 1011.15  110.89
   8   2   4  996.53  111.88
  -8  -3   4   99.92   90.85
  -8  -3   4   27.46   87.63
  -8   3   4   54.86  102.03
   8  -3   4   16.50   80.00
   8   3   4  431.92   87.97
  -8  -4   4  785.06  106.51
  -8  -4   4  429.65   89.30
  -8   4   4  529.19  113.04
   8  -4   4  550.89   89.02
   8   4   4  645.61   88.52
  -8  -5   4   72.85   91.95
  -8  -5   4   37.09   90.96
  -8   5   4  131.87  100.09
   8  -5   4   84.20   75.95
   8   5   4  125.78   74.63
  -8  -6   4  648.10  106.68
  -8  -6   4  310.85   97.10
  -8   6   4  457.72   90.35
   8  -6   4  452.24   85.81
   8   6   4  434.02   83.59
  -8  -7   4   52.87   92.78
  -8  -7   4   46.06   92.67
  -8   7   4   72.36  101.25
   8  -7   4  -60.56   75.18
   8   7   4  102.03   77.50
  -8  -8   4  252.11  102.31
  -8  -8   4  179.98   99.37
  -8   8   4  174.99  103.36
   8  -8   4  255.26   78.22
   8   8   4  196.42   96.44
  -8  -9   4   38.64   98.43
  -8  -9   4  -21.31   97.27
  -8   9   4  104.96   99.32
   8  -9   4  125.72   81.32
   8   9   4  146.26   85.14
  -8 -10   4  120.52  101.42
  -8  10   4   36.54   92.12
   8  10   4   45.23   96.94
  -9   0   4   62.45   98.43
  -9   0   4    2.77   87.47
   9   0   4   10.80   81.82
  -9  -1   4  -25.35  106.35
  -9  -1   4   96.66   90.29
  -9   1   4   -1.55  134.25
  -9   1   4  112.60   88.08
   9  -1   4  119.63   85.59
   9   1   4   98.10   91.18
  -9  -2   4  139.56   94.72
  -9  -2   4   53.64   90.07
  -9   2   4   -3.49  105.52
  -9   2   4  124.73   88.19
   9  -2   4   -8.03   79.50
   9   2   4   44.29   98.87
  -9  -3   4  172.45   96.22
  -9  -3   4  108.56   97.60
  -9   3   4  127.11  110.06
   9  -3   4  176.71   88.02
   9   3   4  142.83   89.46
  -9  -4   4  124.67  100.70
  -9  -4   4  158.83   99.09
  -9   4   4  182.52  137.07
  -9   4   4  139.84   87.58
   9  -4   4   16.72   87.41
   9   4   4  263.07  103.19
   0  -6   5  -72.80   43.51
   0  -7   5  759.70   65.66
   0  -7   5  612.72   65.21
   0  -8   5   -2.33   54.14
   0  -8   5    6.86   48.83
   0   9  -5  156.95   59.01
   0  -9   5  197.08   57.19
   0  -9   5  109.34   52.87
   0  10  -5    6.42   62.00
   0 -10   5    5.59   57.91
   0 -10   5  -21.48   53.37
   0  11  -5  219.17   68.48
   0 -11   5  202.40   64.27
   0 -11   5  151.46   60.34
   0 -12   5   12.73   58.90
   0 -13   5  828.30   87.58
   0 -14   5  -11.74   64.27
   0 -15   5  352.53   72.52
   0 -16   5   -7.20   68.26
   0  16   5  -72.63   62.83
   0 -17   5   59.68   74.74
   0  17   5   75.34   64.72
  -1  -6   5   96.99   50.60
  -1  -6   5   98.37   52.54
   1  -6   5   57.63   53.20
  -1  -7   5  328.67   55.97
  -1  -7   5  276.25   59.24
   1  -7   5  393.22   47.89
   1  -7   5  280.67   57.52
   1   8  -5   70.53   67.54
  -1  -8   5   61.39   56.80
  -1  -8   5   46.89   58.85
   1  -8   5  100.87   46.39
   1  -8   5   77.28   53.87
  -1   9  -5   70.03   62.39
   1   9  -5   12.57   65.88
  -1  -9   5   -1.11   55.14
  -1  -9   5   -8.19   60.73
   1  -9   5   27.46   47.44
   1  -9   5   47.44   58.18
  -1  10  -5   25.74   67.21
   1  10  -5   52.70   70.81
  -1 -10   5   -8.41   59.73
  -1 -10   5   32.55   64.55
   1 -10   5   20.48   49.77
   1 -10   5   -9.36   59.46
  -1  11  -5  444.76   74.85
   1  11  -5  464.30   80.38
  -1 -11   5  517.73   69.64
  -1 -11   5  191.16   68.81
   1 -11   5  379.94   59.07
   1 -11   5  354.30   67.76
  -1 -12   5  -11.02   66.21
   1 -12   5  -66.04   63.89
  -1 -13   5  146.32   68.59
   1 -13   5  146.32   70.86
  -1 -14   5   88.47   70.25
   1 -14   5   43.29   70.81
  -1 -15   5  -16.17   71.58
  -1  15   5  -83.54   59.73
   1 -15   5  -56.47   72.02
  -1 -16   5    1.33   73.30
  -1  16   5  -24.80   62.17
   1 -16   5   28.84   76.45
   1  16   5   14.01   63.17
  -1 -17   5  -32.22   74.07
  -1  17   5  -30.01   60.84
   1 -17   5   17.05   80.05
   1  17   5   32.00   65.99
  -2  -5   5  165.64   49.66
  -2  -5   5  187.78   54.92
  -2  -6   5   97.27   51.32
  -2  -6   5  146.26   56.36
   2  -6   5   61.01   39.14
   2  -6   5   78.11   46.83
   2   7  -5  155.01   80.38
  -2  -7   5  131.70   55.47
  -2  -7   5  201.34   58.68
   2  -7   5  155.17   40.63
   2  -7   5  236.39   50.49
   2   8  -5  -23.03   56.74
  -2  -8   5   87.14   57.63
  -2  -8   5   72.58   59.57
   2  -8   5   20.98   46.00
   2  -8   5   40.36   50.88
  -2   9  -5   56.41   62.94
   2   9  -5   96.55   62.67
  -2  -9   5  106.57   60.84
  -2  -9   5   64.66   61.78
   2  -9   5   14.95   53.92
  -2  10  -5  339.58   70.86
   2  10  -5  394.66   77.01
  -2 -10   5  341.35   65.49
  -2 -10   5  313.61   64.83
   2 -10   5  313.56   57.69
  -2  11  -5  393.78   80.77
   2  11  -5  399.70   89.90
  -2 -11   5  288.09   67.43
   2 -11   5  358.23   64.49
  -2 -12   5  152.63   65.82
  -2 -13   5  510.36   75.73
  -2 -14   5   23.14   74.02
  -2  14   5  -52.98   62.34
  -2 -15   5  242.97   82.15
  -2  15   5  187.45   67.48
  -2 -16   5  -44.90   81.10
  -2  16   5   14.84   67.76
   2 -16   5   50.16   71.91
  -2 -17   5  154.51   86.36
  -2  17   5   50.54   70.14
   2 -17   5   58.13   72.63
   2  17   5   74.79   64.33
  -3  -3   5 1653.10   69.53
  -3  -3   5 1523.23   72.74
  -3  -4   5   29.51   50.38
  -3  -4   5  116.31   54.36
  -3  -5   5  844.85   71.19
  -3  -5   5  742.99   75.51
   3  -5   5  723.28   62.45
   3  -5   5  947.10   64.44
   3   6  -5   56.30   62.67
  -3  -6   5   57.19   53.64
  -3  -6   5   69.26   59.35
   3  -6   5   35.54   42.74
   3  -6   5  133.36   54.03
   3   7  -5  162.98   63.89
  -3  -7   5  170.12   58.35
  -3  -7   5  103.14   61.45
   3  -7   5  118.69   47.17
   3  -7   5  108.95   56.85
  -3   8  -5   25.35   80.49
   3   8  -5   76.29   65.82
  -3  -8   5   29.51   57.08
  -3  -8   5   -7.03   63.72
   3  -8   5   38.20   44.23
   3  -8   5  -10.57   56.41
  -3   9  -5   92.29   70.47
  -3   9  -5  235.22   79.05
   3   9  -5   16.00   67.04
  -3  -9   5   48.44   61.62
  -3  -9   5    4.71   63.00
   3  -9   5   57.46   47.22
   3  -9   5   89.96   59.18
  -3  10  -5  -63.94   76.84
  -3  10  -5   46.11   94.33
   3  10  -5  100.64   95.16
  -3 -10   5   49.38   67.43
   3 -10   5  -21.65   48.05
   3 -10   5   40.69   61.73
  -3 -11   5  114.43   72.52
  -3  11   5   46.34   58.18
   3 -11   5   24.52   49.60
  -3 -12   5   96.05   73.13
  -3  12   5   30.84   59.40
  -3  12   5  -16.44   58.68
   3 -12   5  -41.24   47.55
  -3 -13   5   91.62   73.68
  -3  13   5  -23.80   61.67
   3 -13   5   41.35   50.99
  -3 -14   5  104.02   75.40
  -3  14   5   54.31   63.77
   3 -14   5   33.77   56.63
  -3 -15   5   -2.27   73.68
  -3  15   5   49.93   70.42
   3 -15   5   51.04   59.24
   3  15   5   50.16   62.72
  -3 -16   5   58.85   78.17
  -3  16   5   25.52   70.92
   3 -16   5   35.15   61.62
   3  16   5   34.54   67.37
  -4   0   5   -2.38   50.54
  -4   0   5   73.85   54.81
  -4  -1   5   54.42   53.92
  -4  -1   5  -16.72   55.03
  -4   1   5    7.53   45.62
  -4  -2   5   26.96   49.49
  -4  -2   5   70.69   58.52
  -4  -3   5  192.10   56.02
  -4  -3   5  210.04   59.62
   4   4  -5   68.70   69.81
  -4  -4   5   14.50   52.59
  -4  -4   5   45.17   55.69
   4  -4   5  -23.03   53.75
   4   5  -5   17.99   62.94
  -4  -5   5   22.59   58.40
  -4  -5   5   98.26   58.90
   4  -5   5   61.28   51.48
   4  -5   5   20.59   51.10
   4   6  -5   94.55   67.43
  -4  -6   5  136.19   54.70
  -4  -6   5  122.07   61.95
   4  -6   5   68.20   52.65
   4  -6   5   66.04   51.54
   4   7  -5   75.40   74.18
  -4  -7   5  117.97   61.62
  -4  -7   5   60.01   65.99
  -4   7   5   38.48   39.42
  -4   7   5    7.75   59.12
   4  -7   5    5.70   51.21
   4  -7   5   31.67   57.13
  -4   8  -5  271.54   73.52
   4   8  -5  400.03   82.04
  -4  -8   5  298.89   73.41
  -4  -8   5  398.59   75.62
   4  -8   5  292.08   53.53
   4  -8   5  292.96   64.83
  -4  -9   5  220.44   73.24
  -4   9   5  127.55   40.36
   4  -9   5  161.43   52.26
  -4 -10   5  517.50   77.61
  -4  10   5  311.84   44.29
  -4  10   5  421.73   65.27
   4 -10   5  383.15   59.40
  -4 -11   5  251.22   78.50
  -4  11   5  168.90   63.94
   4 -11   5  219.83   57.41
  -4 -12   5  169.95   75.95
  -4  12   5  187.95   67.32
   4 -12   5   79.16   57.35
  -4 -13   5  402.25   84.98
  -4  13   5  232.07   69.70
   4 -13   5  233.07   58.57
  -4 -14   5  196.36   82.21
  -4  14   5  199.19   68.42
   4 -14   5  163.15   57.85
   4  14   5  184.51   61.12
  -4 -15   5  153.01   83.93
  -4  15   5  184.79   70.25
   4 -15   5  140.28   60.45
   4  15   5  129.60   61.62
  -5   0   5   -8.41   57.24
  -5   0   5  -34.32   58.02
   5   0   5  -22.59   55.19
  -5  -1   5 1028.09   89.90
  -5  -1   5 1116.11   83.65
  -5   1   5 1029.09   73.57
  -5   1   5  962.10   81.88
   5   1   5 1003.01   75.62
   5   2  -5   89.52   64.61
  -5  -2   5   43.62   60.56
  -5  -2   5  -10.91   60.84
  -5   2   5   64.00   53.15
  -5   2   5   47.66   56.30
   5  -2   5   31.28   59.07
   5  -2   5   20.21   50.32
   5   2   5  -14.89   58.85
   5   3  -5  801.17   90.02
  -5  -3   5  754.33   84.26
  -5  -3   5  717.96   79.44
  -5   3   5  612.95   74.57
  -5   3   5  656.57   78.78
   5  -3   5  511.19   62.50
   5  -3   5  694.66   74.18
   5   3   5  685.19   80.11
   5   4  -5   87.69   69.81
  -5  -4   5  112.77   60.40
  -5  -4   5   93.34   63.89
  -5   4   5  101.86   54.09
  -5   4   5  -38.64   64.49
   5  -4   5   59.57   56.52
   5  -4   5   -1.22   58.57
   5   5  -5  849.50  101.31
  -5  -5   5  800.89   82.71
  -5  -5   5  820.88   88.69
  -5   5   5  603.20   65.16
  -5   5   5  552.99   74.07
   5  -5   5  666.42   83.26
   5  -5   5  770.00   79.05
  -5  -6   5   51.26   65.10
  -5   6   5   47.17   51.65
  -5   6   5  -60.95   60.07
   5  -6   5   10.96   60.62
   5  -6   5   49.60   60.29
  -5  -7   5  494.09   71.69
  -5   7   5  340.19   53.09
  -5   7   5  432.97   74.79
   5  -7   5  390.84   61.73
  -5  -8   5  118.03   72.36
  -5   8   5  158.83   54.70
  -5   8   5   31.44   68.15
   5  -8   5   70.03   61.17
  -5  -9   5  164.97   74.46
  -5   9   5  199.24   74.35
   5  -9   5  121.68   59.73
  -5 -10   5   15.33   75.12
  -5  10   5   32.50   68.42
   5 -10   5   67.37   58.24
  -5 -11   5   65.77   80.00
  -5  11   5  -14.45   72.52
   5 -11   5   47.94   57.91
  -5 -12   5  -53.20   82.60
  -5  12   5   -5.31   66.04
   5 -12   5    1.83   59.84
   5  12   5   48.27   73.68
  -5 -13   5  110.94   83.37
  -5  13   5   74.24   70.20
   5 -13   5  106.12   60.67
   5  13   5   94.67   70.92
  -5 -14   5   89.30   86.42
  -5  14   5  136.07   78.28
   5 -14   5   57.52   62.89
   5  14   5   43.57   71.97
  -6   0   5  327.07   76.73
   6   0   5  206.66   64.44
   6   0   5  240.65   65.99
  -6  -1   5  204.11   72.19
  -6   1   5   50.49   65.99
   6  -1   5   -6.37   64.55
   6  -1   5   80.00   63.17
   6   1   5   71.69   63.72
   6   1   5  -12.79   60.79
  -6  -2   5  207.10   73.41
  -6   2   5  139.73   74.63
   6  -2   5  195.09   69.20
   6  -2   5  176.16   64.16
   6   2   5  140.06   69.70
   6   2   5  161.82   68.42
  -6  -3   5  252.33   72.58
  -6   3   5   99.48   77.67
   6  -3   5   74.07   65.38
   6   3   5  149.53   66.04
   6   3   5  147.98   64.16
  -6  -4   5  159.16   74.29
  -6   4   5  145.54   85.09
   6  -4   5  119.58   66.82
   6   4   5   79.22   60.45
  -6  -5   5  123.67   75.51
  -6   5   5   38.92   77.84
   6  -5   5   86.20   65.55
   6   5   5   71.53   61.06
   6   5   5   78.78   68.09
  -6  -6   5  115.70   82.54
  -6   6   5   65.88   79.94
   6  -6   5  104.85   64.72
   6   6   5  132.64   66.82
   6   6   5   47.61   77.84
  -6  -7   5   84.26   69.59
  -6   7   5  135.47   77.95
   6  -7   5  215.63   71.19
   6   7   5  125.56   69.97
  -6  -8   5   65.99   78.39
  -6   8   5   56.47   93.28
   6  -8   5    3.65   68.15
   6   8   5  -38.86   68.48
  -6  -9   5  244.69   80.60
  -6   9   5  129.04   89.68
   6  -9   5  119.36   67.54
   6   9   5  220.50   74.96
  -6 -10   5   87.03   84.26
  -6  10   5   65.16   84.26
   6 -10   5   76.34   68.92
   6  10   5   47.28   77.23
  -6 -11   5  223.16   84.37
  -6  11   5  232.12   84.37
   6 -11   5  122.23   68.09
   6  11   5   75.34   75.62
  -6 -12   5  130.26   85.53
  -6  12   5  -14.84   77.78
   6 -12   5   75.90   66.82
   6  12   5  -45.78   78.39
  -7   0   5   20.76   77.06
   7   0   5  100.09   68.98
  -7  -1   5  280.79   86.69
  -7   1   5  266.78   82.43
   7  -1   5  201.34   71.14
   7   1   5  284.22   76.29
  -7  -2   5  -12.40   83.10
  -7   2   5   42.41   82.76
   7  -2   5  136.13   74.96
   7   2   5  221.88   76.12
  -7  -3   5  295.35   91.29
  -7   3   5  206.33   88.30
   7  -3   5  228.91   77.45
   7   3   5  263.02   76.67
  -7  -4   5   93.34   88.74
  -7   4   5  135.63  102.86
   7  -4   5   75.40   73.57
   7   4   5  167.63   63.61
  -7  -5   5   81.10   80.55
  -7   5   5   53.31   88.47
   7  -5   5  123.56   73.24
   7   5   5   95.39   69.59
  -7  -6   5  265.45   88.74
  -7   6   5  228.47   93.50
   7  -6   5  192.54   72.02
   7   6   5  160.05   72.63
  -7  -7   5  163.31   90.51
  -7   7   5   70.25   85.59
   7  -7   5   71.03   68.87
   7   7   5   26.35   82.60
  -7  -8   5  151.35   93.45
  -7   8   5   58.90   91.45
   7  -8   5  120.30   71.41
   7   8   5  105.02   78.11
  -7  -9   5  -22.75   87.97
  -7   9   5   76.95  106.62
   7  -9   5  -45.73   73.08
   7   9   5  -79.22   74.35
  -8   0   5  275.42   93.50
   8   0   5  244.58   86.75
  -8  -1   5   31.44   88.69
  -8   1   5  -20.70   80.71
   8  -1   5  -21.98   78.11
   8   1   5  135.63   86.31
  -8  -2   5  200.85  107.90
  -8   2   5  122.29   91.68
   8  -2   5  215.18   80.66
   8   2   5  126.17   83.65
  -8  -3   5   98.26   92.51
  -8   3   5  -58.74  105.90
   8  -3   5  -36.04   79.05
   8   3   5   33.66   91.29
  -8  -4   5    8.58  106.51
   8  -4   5   67.87   81.77
   8   4   5   91.18   69.75
   0  -8   6  917.15   77.50
   0  -9   6   17.49   65.21
   0  -9   6  -16.94   55.86
   0 -10   6   12.07   60.29
   0 -11   6   16.72   61.56
   0 -12   6  108.17   67.37
   0 -13   6   45.28   66.82
   0 -14   6   33.27   71.69
  -1  -7   6  232.07   59.62
  -1  -8   6  361.61   63.50
  -1  -8   6  273.53   60.62
   1  -8   6  269.16   58.35
   1  -8   6  300.16   64.99
  -1  -9   6   69.14   58.18
   1  -9   6   63.77   83.81
   1  -9   6   98.49   63.83
  -1 -10   6  146.59   63.22
   1 -10   6  105.35   64.61
  -1 -11   6  196.31   65.60
   1 -11   6  253.11   67.76
  -1 -12   6  162.09   65.44
   1 -12   6  235.94   69.53
  -1 -13   6  123.23   68.59
   1 -13   6  141.56   71.41
  -1 -14   6  193.70   72.47
   1 -14   6  135.02   73.46
  -2  -6   6  192.27   56.30
  -2  -7   6   95.88   58.52
  -2  -7   6  -15.94   57.63
  -2  -8   6  117.31   58.79
   2  -8   6  137.96   44.68
   2  -8   6  153.51   52.81
  -2  -9   6   44.68   60.01
   2  -9   6   28.84   48.66
  -2 -10   6    4.65   63.28
   2 -10   6   50.93   53.15
  -2 -11   6   79.39   67.54
  -2 -12   6  -57.91   73.24
  -2 -13   6   52.92   77.78
  -3  -5   6   46.34   52.76
  -3  -6   6  177.93   62.56
  -3  -6   6  206.27   65.49
  -3  -7   6   89.41   62.45
   3  -7   6   88.80   47.44
   3  -7   6   48.27   55.47
  -3  -8   6  202.40   68.59
   3  -8   6  205.27   50.27
  -3  -9   6   81.60   68.04
   3  -9   6  -60.56   47.83
  -3 -10   6  180.25   71.30
   3 -10   6  125.33   50.99
  -3 -11   6    2.55   69.03
   3 -11   6   68.59   51.43
  -3 -12   6  108.23   71.86
   3 -12   6   87.75   52.43
  -3 -13   6   96.94   73.91
   3 -13   6   60.51   52.09
  -4   0   6  472.72   63.00
  -4  -1   6    9.36   59.29
  -4   2   6  466.85   56.97
  -4  -3   6  221.88   59.68
  -4  -4   6  212.58   69.53
  -4  -4   6  259.53   62.94
  -4  -5   6  198.91   64.33
  -4  -6   6  261.24   66.82
  -4  -7   6   90.02   70.53
   4  -7   6  -12.23   53.20
  -4  -8   6   70.09   72.13
   4  -8   6    8.30   55.91
  -4  -9   6   86.31   74.68
   4  -9   6   48.44   54.03
  -4 -10   6   39.31   76.40
   4 -10   6   78.50   53.42
  -4 -11   6  -13.18   76.29
   4 -11   6  -41.41   56.19
  -5   0   6  -39.91   70.25
  -5  -1   6  230.96   63.89
  -5   1   6  147.59   65.77
  -5  -2   6   42.35   63.11
  -5   2   6  135.74   64.88
  -5  -3   6   91.62   67.65
  -5  -4   6   15.50   64.88
  -5  -5   6   56.13   67.32
   5  -5   6  -19.76   60.23
  -5  -6   6   84.37   67.76
   5  -6   6   68.81   62.67
  -5  -7   6   18.55   73.02
   5  -7   6   18.88   66.43
  -5  -8   6  264.23   74.35
   5  -8   6  226.09   66.93
  -5  -9   6   31.22   82.26
   5  -9   6    7.03   62.06
  -5 -10   6  120.30   81.88
  -5  10   6  130.98   81.38
  -6   0   6 1296.53  111.22
   6   0   6 1227.11   93.39
  -6  -1   6   63.89   79.50
  -6   1   6   26.57   78.11
   6  -1   6   13.73   68.26
   6   1   6  150.69   69.92
  -6  -2   6  886.48  109.11
  -6   2   6  669.36   84.59
   6  -2   6  665.48   76.78
   6   2   6  969.57  105.24
  -6  -3   6   67.82   80.55
  -6   3   6  -62.39   71.53
   6  -3   6   75.79   74.51
   6   3   6  178.92   69.14
  -6  -4   6  502.39   84.26
  -6   4   6  454.45   89.07
   6  -4   6  417.25   72.19
   6   4   6  286.43   74.51
  -6  -5   6   12.35   79.05
  -6   5   6   58.02   89.52
   6  -5   6   50.54   67.59
   6   5   6  120.91   64.16
  -6  -6   6  237.27   74.07
  -6   6   6  267.06  113.93
   6  -6   6  125.45   67.71
   6   6   6  217.73   67.71
  -6  -7   6   15.78   72.41
  -6   7   6  -24.30   88.74
  -1  -9   7   56.74   60.07
  -2  -8   7   60.84   65.60
  -3  -7   7   86.25   67.82

_computing_structure_solution     'SHELXT 2014/4 (Sheldrick, 2014)'
;
_shelx_hkl_checksum              90907
_olex2_submission_special_instructions 'No special instructions were received'
loop_
_space_group_symop_operation_xyz
'x, y, z'
'-x, -y, z+1/2'
'x+1/2, -y+1/2, z'
'-x+1/2, y+1/2, z+1/2'
loop_
_atom_site_label
_atom_site_type_symbol
_atom_site_fract_x
_atom_site_fract_y
_atom_site_fract_z
_atom_site_U_iso_or_equiv
_atom_site_adp_type
_atom_site_occupancy
_atom_site_site_symmetry_order
_atom_site_calc_flag
_atom_site_refinement_flags_posn
_atom_site_refinement_flags_adp
_atom_site_refinement_flags_occupancy
_atom_site_disorder_assembly
_atom_site_disorder_group
Fe1 Fe 0.7385(2) 0.48409(10) 0.6873(3) 0.0423(7) Uani 1 1 d . U . . .
Cl1 Cl 0.9227(4) 0.4642(3) 0.8285(8) 0.0786(17) Uani 1 1 d . U . . .
Cl2 Cl 0.5587(3) 0.49698(17) 0.8447(6) 0.0428(12) Uani 1 1 d . U . . .
N2 N 0.7110(10) 0.4204(5) 0.491(2) 0.039(4) Uani 1 1 d . U . . .
C1 C 0.7832(12) 0.5975(6) 0.196(3) 0.054(5) Uani 1 1 d . U . . .
H1A H 0.8462 0.5856 0.1057 0.081 Uiso 1 1 calc GR . . . .
H1B H 0.8130 0.6337 0.2576 0.081 Uiso 1 1 calc GR . . . .
H1C H 0.7013 0.6058 0.1375 0.081 Uiso 1 1 calc GR . . . .
C2 C 0.7663(11) 0.5468(6) 0.331(2) 0.031(4) Uani 1 1 d . U . . .
C3 C 0.7618(13) 0.4876(6) 0.2403(19) 0.032(4) Uani 1 1 d . U . . .
H3A H 0.8488 0.4806 0.1929 0.038 Uiso 1 1 calc R . . . .
H3B H 0.7058 0.4931 0.1350 0.038 Uiso 1 1 calc R . . . .
C4 C 0.7216(13) 0.4296(6) 0.324(3) 0.037(4) Uani 1 1 d . U . . .
C5 C 0.7012(12) 0.3810(6) 0.179(3) 0.048(4) Uani 1 1 d . U . . .
H5A H 0.7056 0.3410 0.2335 0.073 Uiso 1 1 calc GR . . . .
H5B H 0.7679 0.3846 0.0874 0.073 Uiso 1 1 calc GR . . . .
H5C H 0.6173 0.3865 0.1232 0.073 Uiso 1 1 calc GR . . . .
C12 C 0.6691(16) 0.3644(7) 0.563(2) 0.040(4) Uani 1 1 d . U . . .
C13 C 0.5410(15) 0.3467(7) 0.531(2) 0.042(4) Uani 1 1 d . U . . .
H13 H 0.4868 0.3699 0.4558 0.050 Uiso 1 1 calc R . . . .
C14 C 0.4979(18) 0.2950(6) 0.611(2) 0.051(5) Uani 1 1 d . U . . .
H14 H 0.4140 0.2815 0.5847 0.061 Uiso 1 1 calc R . . . .
C15 C 0.5713(18) 0.2621(8) 0.727(3) 0.062(5) Uani 1 1 d . U . . .
H15 H 0.5379 0.2275 0.7851 0.075 Uiso 1 1 calc R . . . .
C16 C 0.6934(19) 0.2807(8) 0.758(2) 0.063(6) Uani 1 1 d . U . . .
H16 H 0.7458 0.2584 0.8374 0.075 Uiso 1 1 calc R . . . .
C17 C 0.7439(16) 0.3322(6) 0.674(3) 0.053(4) Uani 1 1 d . U . . .
H17 H 0.8297 0.3440 0.6957 0.064 Uiso 1 1 calc R . . . .
N1 N 0.7563(12) 0.5521(5) 0.5015(18) 0.041(3) Uani 1 1 d D U . . .
C6 C 0.732(3) 0.6127(10) 0.566(4) 0.022(9) Uiso 0.5 1 d D . P A 1
C7 C 0.622(3) 0.6468(12) 0.548(4) 0.034(10) Uiso 0.5 1 d D . P A 1
H7 H 0.5536 0.6325 0.4769 0.040 Uiso 0.5 1 calc R . P A 1
C8 C 0.613(3) 0.7017(13) 0.633(5) 0.062(12) Uiso 0.5 1 d D . P A 1
H8 H 0.5393 0.7253 0.6109 0.074 Uiso 0.5 1 calc R . P A 1
C9 C 0.699(4) 0.7235(15) 0.742(6) 0.072(16) Uiso 0.5 1 d D . P A 1
H9 H 0.6849 0.7608 0.8008 0.086 Uiso 0.5 1 calc R . P A 1
C10 C 0.813(4) 0.6901(16) 0.773(5) 0.056(15) Uiso 0.5 1 d D . P A 1
H10 H 0.8769 0.7045 0.8521 0.068 Uiso 0.5 1 calc R . P A 1
C11 C 0.829(3) 0.6344(13) 0.680(6) 0.049(9) Uiso 0.5 1 d D . P A 1
H11 H 0.9057 0.6119 0.6950 0.059 Uiso 0.5 1 calc R . P A 1
C6A C 0.783(4) 0.6057(14) 0.593(5) 0.053(15) Uiso 0.5 1 d D . P A 2
C7A C 0.687(3) 0.6471(13) 0.577(4) 0.034(10) Uiso 0.5 1 d D . P A 2
H7A H 0.6170 0.6403 0.4983 0.041 Uiso 0.5 1 calc R . P A 2
C8A C 0.694(3) 0.6997(14) 0.680(6) 0.043(10) Uiso 0.5 1 d D . P A 2
H8A H 0.6241 0.7271 0.6764 0.052 Uiso 0.5 1 calc R . P A 2
C9A C 0.792(3) 0.7124(15) 0.780(4) 0.030(11) Uiso 0.5 1 d D . P A 2
H9A H 0.7960 0.7494 0.8427 0.036 Uiso 0.5 1 calc R . P A 2
C10A C 0.895(3) 0.6704(11) 0.794(4) 0.029(8) Uiso 0.5 1 d D . P A 2
H10A H 0.9665 0.6797 0.8659 0.035 Uiso 0.5 1 calc R . P A 2
C11A C 0.890(2) 0.6143(11) 0.701(5) 0.031(7) Uiso 0.5 1 d D . P A 2
H11A H 0.9555 0.5849 0.7119 0.037 Uiso 0.5 1 calc R . P A 2
loop_
_atom_site_aniso_label
_atom_site_aniso_U_11
_atom_site_aniso_U_22
_atom_site_aniso_U_33
_atom_site_aniso_U_23
_atom_site_aniso_U_13
_atom_site_aniso_U_12
Fe1 0.0366(14) 0.0730(14) 0.0172(15) -0.004(2) 0.0021(17) -0.0039(12)
Cl1 0.034(3) 0.181(5) 0.021(4) -0.013(4) 0.000(2) -0.003(3)
Cl2 0.036(2) 0.067(3) 0.025(3) -0.001(3) 0.0035(19) 0.003(2)
N2 0.034(8) 0.054(7) 0.029(9) 0.001(6) 0.001(6) 0.008(5)
C1 0.052(11) 0.068(10) 0.042(12) 0.023(11) 0.009(11) -0.007(7)
C2 0.024(8) 0.048(8) 0.020(9) -0.006(6) 0.005(8) 0.003(7)
C3 0.031(8) 0.053(7) 0.012(11) 0.002(6) -0.001(7) 0.012(7)
C4 0.042(9) 0.047(8) 0.022(9) 0.003(6) 0.002(7) 0.014(7)
C5 0.074(9) 0.047(7) 0.025(9) 0.002(8) -0.004(9) 0.007(6)
C12 0.051(6) 0.041(6) 0.030(7) -0.001(5) 0.004(5) 0.008(5)
C13 0.066(9) 0.044(9) 0.015(12) 0.003(7) 0.000(7) 0.007(7)
C14 0.099(13) 0.041(9) 0.013(12) -0.003(7) 0.002(8) -0.001(9)
C15 0.117(13) 0.062(11) 0.007(14) -0.001(8) 0.009(9) 0.022(10)
C16 0.109(13) 0.065(12) 0.013(15) 0.013(8) 0.006(9) 0.027(9)
C17 0.070(10) 0.064(10) 0.024(11) -0.002(9) -0.010(10) 0.030(9)
N1 0.042(7) 0.062(8) 0.018(8) -0.007(6) 0.004(7) -0.016(7)
loop_
_atom_type_symbol
_atom_type_description
_atom_type_scat_dispersion_real
_atom_type_scat_dispersion_imag
_atom_type_scat_source
C C 0.0000 0.0010 'International Tables Vol C Tables 4.2.6.8 and 6.1.1.4'
H H 0.0000 0.0000 'International Tables Vol C Tables 4.2.6.8 and 6.1.1.4'
Cl Cl 0.0550 0.0530 'International Tables Vol C Tables 4.2.6.8 and 6.1.1.4'
Fe Fe 0.1990 0.3060 'International Tables Vol C Tables 4.2.6.8 and 6.1.1.4'
N N 0.0010 0.0010 'International Tables Vol C Tables 4.2.6.8 and 6.1.1.4'
loop_
_geom_angle_atom_site_label_1
_geom_angle_atom_site_label_2
_geom_angle_atom_site_label_3
_geom_angle
Cl2 Fe1 Cl1 120.0(2)
N2 Fe1 Cl1 108.7(4)
N2 Fe1 Cl2 110.2(3)
N1 Fe1 Cl1 112.6(4)
N1 Fe1 Cl2 109.7(4)
N1 Fe1 N2 92.0(5)
C4 N2 Fe1 125.3(11)
C4 N2 C12 122.9(14)
C12 N2 Fe1 111.7(11)
H1A C1 H1B 109.5
H1A C1 H1C 109.5
H1B C1 H1C 109.5
C2 C1 H1A 109.5
C2 C1 H1B 109.5
C2 C1 H1C 109.5
C3 C2 C1 111.1(16)
N1 C2 C1 126.8(15)
N1 C2 C3 122.1(14)
C2 C3 H3A 105.9
C2 C3 H3B 105.9
C2 C3 C4 125.8(14)
H3A C3 H3B 106.2
C4 C3 H3A 105.9
C4 C3 H3B 105.9
N2 C4 C3 125.3(15)
N2 C4 C5 124.4(15)
C3 C4 C5 110.3(16)
C4 C5 H5A 109.5
C4 C5 H5B 109.5
C4 C5 H5C 109.5
H5A C5 H5B 109.5
H5A C5 H5C 109.5
H5B C5 H5C 109.5
C13 C12 N2 117.9(14)
C17 C12 N2 121.3(15)
C17 C12 C13 120.5(16)
C12 C13 H13 121.1
C14 C13 C12 117.9(17)
C14 C13 H13 121.1
C13 C14 H14 118.6
C13 C14 C15 122.7(19)
C15 C14 H14 118.6
C14 C15 H15 121.1
C16 C15 C14 117.9(19)
C16 C15 H15 121.1
C15 C16 H16 119.1
C15 C16 C17 121.7(18)
C17 C16 H16 119.1
C12 C17 C16 119.2(17)
C12 C17 H17 120.4
C16 C17 H17 120.4
C2 N1 Fe1 127.5(11)
C2 N1 C6 115.4(18)
C2 N1 C6A 123(2)
C6 N1 Fe1 116.1(15)
C6A N1 Fe1 108(2)
C7 C6 N1 128(3)
C7 C6 C11 118(2)
C11 C6 N1 113(3)
C6 C7 H7 120.1
C6 C7 C8 120(3)
C8 C7 H7 120.1
C7 C8 H8 117.6
C9 C8 C7 125(3)
C9 C8 H8 117.6
C8 C9 H9 120.6
C8 C9 C10 119(3)
C10 C9 H9 120.6
C9 C10 H10 120.9
C9 C10 C11 118(3)
C11 C10 H10 120.9
C6 C11 C10 120(3)
C6 C11 H11 119.9
C10 C11 H11 119.9
C7A C6A N1 113(3)
C7A C6A C11A 123(2)
C11A C6A N1 124(3)
C6A C7A H7A 120.8
C6A C7A C8A 118(3)
C8A C7A H7A 120.8
C7A C8A H8A 118.8
C9A C8A C7A 122(3)
C9A C8A H8A 118.8
C8A C9A H9A 120.2
C8A C9A C10A 120(3)
C10A C9A H9A 120.2
C9A C10A H10A 119.6
C9A C10A C11A 121(3)
C11A C10A H10A 119.6
C6A C11A C10A 115(3)
C6A C11A H11A 122.3
C10A C11A H11A 122.3
loop_
_geom_bond_atom_site_label_1
_geom_bond_atom_site_label_2
_geom_bond_distance
Fe1 Cl1 2.244(6)
Fe1 Cl2 2.240(5)
Fe1 N2 2.064(14)
Fe1 N1 2.063(13)
N2 C4 1.27(2)
N2 C12 1.428(19)
C1 H1A 0.9800
C1 H1B 0.9800
C1 H1C 0.9800
C1 C2 1.52(2)
C2 C3 1.481(18)
C2 N1 1.289(19)
C3 H3A 0.9900
C3 H3B 0.9900
C3 C4 1.495(18)
C4 C5 1.55(2)
C5 H5A 0.9800
C5 H5B 0.9800
C5 H5C 0.9800
C12 C13 1.42(2)
C12 C17 1.35(2)
C13 H13 0.9500
C13 C14 1.37(2)
C14 H14 0.9500
C14 C15 1.37(2)
C15 H15 0.9500
C15 C16 1.36(2)
C16 H16 0.9500
C16 C17 1.41(2)
C17 H17 0.9500
N1 C6 1.46(2)
N1 C6A 1.40(2)
C6 C7 1.38(4)
C6 C11 1.41(4)
C7 H7 0.9500
C7 C8 1.38(3)
C8 H8 0.9500
C8 C9 1.30(4)
C9 H9 0.9500
C9 C10 1.43(5)
C10 H10 0.9500
C10 C11 1.43(3)
C11 H11 0.9500
C6A C7A 1.37(4)
C6A C11A 1.40(4)
C7A H7A 0.9500
C7A C8A 1.40(3)
C8A H8A 0.9500
C8A C9A 1.31(4)
C9A H9A 0.9500
C9A C10A 1.43(4)
C10A H10A 0.9500
C10A C11A 1.43(3)
C11A H11A 0.9500
loop_
_geom_torsion_atom_site_label_1
_geom_torsion_atom_site_label_2
_geom_torsion_atom_site_label_3
_geom_torsion_atom_site_label_4
_geom_torsion
Fe1 N2 C4 C3 3.0(19)
Fe1 N2 C4 C5 179.6(9)
Fe1 N2 C12 C13 109.3(14)
Fe1 N2 C12 C17 -64(2)
Fe1 N1 C6 C7 -100(3)
Fe1 N1 C6 C11 71(3)
Fe1 N1 C6A C7A -115(3)
Fe1 N1 C6A C11A 60(4)
N2 C12 C13 C14 -175.5(15)
N2 C12 C17 C16 173.1(16)
C1 C2 C3 C4 -167.5(12)
C1 C2 N1 Fe1 -178.1(9)
C1 C2 N1 C6 14(3)
C1 C2 N1 C6A -12(3)
C2 C3 C4 N2 -15(2)
C2 C3 C4 C5 167.7(12)
C2 N1 C6 C7 70(4)
C2 N1 C6 C11 -119(3)
C2 N1 C6A C7A 77(4)
C2 N1 C6A C11A -108(4)
C3 C2 N1 Fe1 2(2)
C3 C2 N1 C6 -166.0(18)
C3 C2 N1 C6A 168(2)
C4 N2 C12 C13 -67(2)
C4 N2 C12 C17 120.0(19)
C12 N2 C4 C3 178.4(13)
C12 N2 C4 C5 -5(2)
C12 C13 C14 C15 4(3)
C13 C12 C17 C16 0(3)
C13 C14 C15 C16 -3(3)
C14 C15 C16 C17 0(3)
C15 C16 C17 C12 1(3)
C17 C12 C13 C14 -2(2)
N1 C2 C3 C4 12(2)
N1 C6 C7 C8 174(3)
N1 C6 C11 C10 -172(3)
N1 C6A C7A C8A 172(3)
N1 C6A C11A C10A -175(3)
C6 N1 C6A C7A -1(5)
C6 N1 C6A C11A 174(10)
C6 C7 C8 C9 -5(6)
C7 C6 C11 C10 0(5)
C7 C8 C9 C10 3(6)
C8 C9 C10 C11 1(6)
C9 C10 C11 C6 -2(6)
C11 C6 C7 C8 3(5)
C6A N1 C6 C7 -175(9)
C6A N1 C6 C11 -4(6)
C6A C7A C8A C9A 5(6)
C7A C6A C11A C10A -1(5)
C7A C8A C9A C10A -3(6)
C8A C9A C10A C11A 0(5)
C9A C10A C11A C6A 2(5)
C11A C6A C7A C8A -3(6)
