#------------------------------------------------------------------------------
#$Date: 2019-11-25 10:28:36 +0200 (Mon, 25 Nov 2019) $
#$Revision: 240676 $
#$URL: file:///home/coder/svn-repositories/cod/cif/4/13/01/4130102.cif $
#------------------------------------------------------------------------------
#
# This file is available in the Crystallography Open Database (COD),
# http://www.crystallography.net/
#
# All data on this site have been placed in the public domain by the
# contributors.
#
data_4130102
loop_
_publ_author_name
'Reed, Douglas A.'
'Xiao, Dianne J.'
'Gonzalez, Miguel I.'
'Darago, Lucy E.'
'Herm, Zoey R.'
'Grandjean, Fernande'
'Long, Jeffrey R.'
_publ_section_title
;
 Reversible CO Scavenging via Adsorbate-Dependent Spin State Transitions
 in an Iron(II)-Triazolate Metal-Organic Framework.
;
_journal_issue                   17
_journal_name_full               'Journal of the American Chemical Society'
_journal_page_first              5594
_journal_page_last               5602
_journal_paper_doi               10.1021/jacs.6b00248
_journal_volume                  138
_journal_year                    2016
_chemical_formula_moiety         '(C264 H240 Cl6 Fe24 N168 O24) Fe3'
_chemical_formula_sum            'C264 H240 Cl6 Fe27 N168 O24'
_chemical_formula_weight         7870.49
_space_group_crystal_system      cubic
_space_group_IT_number           226
_space_group_name_Hall           '-F 4a 2 3'
_space_group_name_H-M_alt        'F m -3 c'
_atom_sites_solution_hydrogens   geom
_atom_sites_solution_primary     direct
_atom_sites_solution_secondary   difmap
_audit_creation_date             2015-10-21
_audit_creation_method
;
Olex2 1.2
(compiled 2015.09.30 svn.r3233 for OlexSys, GUI svn.r5103)
;
_cell_angle_alpha                90
_cell_angle_beta                 90
_cell_angle_gamma                90
_cell_formula_units_Z            4
_cell_length_a                   38.0680(11)
_cell_length_b                   38.0680(11)
_cell_length_c                   38.0680(11)
_cell_measurement_reflns_used    9591
_cell_measurement_temperature    100
_cell_measurement_theta_max      35.252
_cell_measurement_theta_min      2.609
_cell_volume                     55167(3)
_computing_cell_refinement       'SAINT v8.34A (Bruker, 2013)'
_computing_data_collection       'Bruker APEX 2'
_computing_data_reduction        'SAINT v8.34A (Bruker, 2013)'
_computing_molecular_graphics    'Olex2 (Dolomanov et al., 2009)'
_computing_publication_material  'Olex2 (Dolomanov et al., 2009)'
_computing_structure_refinement  'ShelXL (Sheldrick, 2015)'
_computing_structure_solution    'ShelXT (Sheldrick, 2015)'
_diffrn_ambient_temperature      100
_diffrn_detector_area_resol_mean 10.42
_diffrn_measured_fraction_theta_full 0.998
_diffrn_measured_fraction_theta_max 0.999
_diffrn_measurement_device_type  'Bruker PHOTON100 CMOS diffractometer'
_diffrn_measurement_method       '\w/\q scans'
_diffrn_radiation_type           synchrotron
_diffrn_radiation_wavelength     0.7749
_diffrn_reflns_av_R_equivalents  0.0715
_diffrn_reflns_av_unetI/netI     0.0146
_diffrn_reflns_Laue_measured_fraction_full 0.998
_diffrn_reflns_Laue_measured_fraction_max 0.999
_diffrn_reflns_limit_h_max       56
_diffrn_reflns_limit_h_min       -56
_diffrn_reflns_limit_k_max       56
_diffrn_reflns_limit_k_min       -56
_diffrn_reflns_limit_l_max       56
_diffrn_reflns_limit_l_min       -56
_diffrn_reflns_number            264419
_diffrn_reflns_point_group_measured_fraction_full 0.998
_diffrn_reflns_point_group_measured_fraction_max 0.999
_diffrn_reflns_theta_full        27.706
_diffrn_reflns_theta_max         35.322
_diffrn_reflns_theta_min         2.021
_diffrn_source                   'Advanced Light Source station 11.3.1'
_diffrn_standards_number         0
_exptl_absorpt_coefficient_mu    0.868
_exptl_absorpt_correction_T_max  0.9582
_exptl_absorpt_correction_T_min  0.8856
_exptl_absorpt_correction_type   multi-scan
_exptl_absorpt_process_details
;
SADABS-2014/5 (Bruker,2014) was used for absorption correction.
wR2(int) was 0.1064 before and 0.0648 after correction.
The Ratio of minimum to maximum transmission is 0.9242.
The \l/2 correction factor is Not present.
;
_exptl_crystal_colour            yellow
_exptl_crystal_density_diffrn    0.948
_exptl_crystal_density_method    'not measured'
_exptl_crystal_description       cube
_exptl_crystal_F_000             14040
_exptl_crystal_size_max          0.06
_exptl_crystal_size_mid          0.06
_exptl_crystal_size_min          0.06
_refine_diff_density_max         1.465
_refine_diff_density_min         -0.479
_refine_diff_density_rms         0.106
_refine_ls_extinction_method     none
_refine_ls_goodness_of_fit_ref   1.120
_refine_ls_hydrogen_treatment    constr
_refine_ls_matrix_type           full
_refine_ls_number_parameters     108
_refine_ls_number_reflns         4188
_refine_ls_number_restraints     56
_refine_ls_restrained_S_all      1.139
_refine_ls_R_factor_all          0.0556
_refine_ls_R_factor_gt           0.0505
_refine_ls_shift/su_max          0.001
_refine_ls_shift/su_mean         0.000
_refine_ls_structure_factor_coef Fsqd
_refine_ls_weighting_details
'w=1/[\s^2^(Fo^2^)+(0.0983P)^2^+182.7640P] where P=(Fo^2^+2Fc^2^)/3'
_refine_ls_weighting_scheme      calc
_refine_ls_wR_factor_gt          0.1595
_refine_ls_wR_factor_ref         0.1651
_reflns_Friedel_coverage         0.000
_reflns_number_gt                3583
_reflns_number_total             4188
_reflns_threshold_expression     'I > 2\s(I)'
_cod_data_source_file            ja6b00248_si_002.cif
_cod_data_source_block           djx014s
_cod_original_cell_volume        55167(5)
_cod_original_sg_symbol_Hall     '-F 4c 2 3'
_cod_database_code               4130102
_shelx_space_group_comment
;
The symmetry employed for this shelxl refinement is uniquely defined
by the following loop, which should always be used as a source of
symmetry information in preference to the above space-group names.
They are only intended as comments.
;
_shelx_estimated_absorpt_t_max   0.950
_shelx_estimated_absorpt_t_min   0.950
_olex2_refinement_description
;
1. Fixed Uiso
 At 1.2 times of:
  All C(H) groups
2. Restrained distances
 O003-C6 \\sim O003-C11
 with sigma of 0.02
 N14-C6 \\sim N4-C11
 with sigma of 0.02
3. Rigid bond restraints
 O003, C6, N4, C11, N14
 with sigma for 1-2 distances of 0.01 and sigma for 1-3 distances of 0.01
4. Uiso/Uaniso restraints and constraints
O003 \\sim C6 \\sim N4 \\sim C11 \\sim N14: within 2A with sigma of 0.02 and
sigma for terminal atoms of 0.04
5. Others
 Fixed Sof: C6(0.4) H6(0.4) N4(0.1) C11(0.1) H11(0.1) N14(0.4)
6.a Aromatic/amide H refined with riding coordinates:
 C0AA(H0AA), C4(H4), C6(H6), C11(H11)
;
_shelx_res_file
;
    djx014s.res created by SHELXL-2014/7

TITL djx014s_a.res in Fm-3c
REM Old TITL DJX014S in Fm-3c #226
REM SHELXT solution in Fm-3c
REM R1 0.187, Rweak 0.004, Alpha 0.022, Orientation as input
REM Formula found by SHELXT: C36 N28 Cl Fe4
CELL 0.7749 38.068 38.068 38.068 90 90 90
ZERR 4 0.0011 0.0011 0.0011 0 0 0
LATT 4
SYMM -X,-Y,+Z
SYMM -X,+Y,-Z
SYMM +X,-Y,-Z
SYMM +Z,+X,+Y
SYMM +Z,-X,-Y
SYMM -Z,-X,+Y
SYMM -Z,+X,-Y
SYMM +Y,+Z,+X
SYMM -Y,+Z,-X
SYMM +Y,-Z,-X
SYMM -Y,-Z,+X
SYMM 0.5+Y,0.5+X,0.5-Z
SYMM 0.5-Y,0.5-X,0.5-Z
SYMM 0.5+Y,0.5-X,0.5+Z
SYMM 0.5-Y,0.5+X,0.5+Z
SYMM 0.5+X,0.5+Z,0.5-Y
SYMM 0.5-X,0.5+Z,0.5+Y
SYMM 0.5-X,0.5-Z,0.5-Y
SYMM 0.5+X,0.5-Z,0.5+Y
SYMM 0.5+Z,0.5+Y,0.5-X
SYMM 0.5+Z,0.5-Y,0.5+X
SYMM 0.5-Z,0.5+Y,0.5+X
SYMM 0.5-Z,0.5-Y,0.5-X
SFAC C H Cl Fe N O
DISP C 0.004 0.002 13.872
DISP Cl 0.169 0.19 870.405
DISP Fe 0.368 0.995 4430.405
DISP H -0 0 0.627
DISP N 0.008 0.004 24.297
DISP O 0.014 0.007 40.889
UNIT 864 480 24 96 672 96
SADI O003 C6 O003 C11
SADI N14 C6 N4 C11
DELU O003 C6 > N14
SIMU 0.02 0.04 2 O003 C6 > N14

L.S. 100
PLAN  60
SIZE 0.06 0.06 0.06
TEMP -273.15
BOND $H
LIST 6
MORE -1
CONF
fmap 2
acta
OMIT 5 7 9
OMIT 5 9 11
REM <olex2.extras>
REM <HklSrc "%./DJX014S-mask.hkl">
REM </olex2.extras>

WGHT    0.098300  182.763992
FVAR       0.03472
FE1   4    0.681800    0.500000    0.254059    10.50000    0.01812    0.00719 =
         0.01143    0.00000   -0.00006    0.00000
CL02  3    0.750000    0.500000    0.250000    10.12500    0.01477    0.01132 =
         0.01477    0.00000    0.00000    0.00000
O003  6    0.626222    0.500000    0.255235    10.50000    0.02241    0.04209 =
         0.03157    0.00000    0.00168    0.00000
N2    5    0.687492    0.539214    0.294073    11.00000    0.01970    0.01022 =
         0.01528   -0.00205   -0.00187    0.00337
N1    5    0.714092    0.539552    0.317158    11.00000    0.01631    0.01057 =
         0.01820   -0.00359   -0.00099    0.00277
N3    5    0.666435    0.566516    0.299075    11.00000    0.02166    0.01475 =
         0.01637   -0.00614   -0.00509    0.00686
C1AA  1    0.679825    0.585125    0.326251    11.00000    0.01790    0.01683 =
         0.01721   -0.00686   -0.00546    0.00685
C0AA  1    0.709896    0.567814    0.337518    11.00000    0.01818    0.01591 =
         0.02250   -0.00763   -0.00660    0.00726
AFIX  43
H0AA  2    0.724776    0.574804    0.356293    11.00000   -1.20000
AFIX   0
C4    1    0.676704    0.633499    0.369404    11.00000    0.01874    0.01862 =
         0.01850   -0.00766   -0.00914    0.00907
AFIX  43
H4    2    0.697243    0.624527    0.380377    11.00000   -1.20000
AFIX   0
C3    1    0.663222    0.616882    0.339742    11.00000    0.01852    0.01634 =
         0.01732   -0.00738   -0.00633    0.00793
PART -1
C6    1    0.604071    0.517936    0.268165    10.40000    0.05952    0.08822 =
         0.11999   -0.03613    0.00121   -0.00396
AFIX  43
H6    2    0.613913    0.536365    0.281813    10.40000   -1.20000
AFIX   0
PART 0
PART 2
N4    5    0.575427    0.500000    0.282677    10.10000    0.05099    0.09791 =
         0.12892    0.00000    0.05932    0.00000
C11   1    0.609205    0.500000    0.282150    10.10000    0.05163    0.08907 =
         0.08103    0.00000    0.02418    0.00000
AFIX  43
H11   2    0.621417    0.500000    0.303914    10.10000   -1.20000
AFIX   0
PART 0
PART -1
N14   5    0.570177    0.518835    0.268450    10.40000    0.07251    0.23713 =
         0.27452   -0.05628    0.05595    0.00052
HKLF 4

REM  djx014s_a.res in Fm-3c
REM R1 =  0.0505 for    3583 Fo > 4sig(Fo)  and  0.0556 for all    4188 data
REM    108 parameters refined using     56 restraints

END

WGHT      0.0967    192.9494

REM Highest difference peak  1.465,  deepest hole -0.479,  1-sigma level  0.106
Q1    1   0.7508  0.5761  0.3617  11.00000  0.05    1.47
Q2    1   0.5955  0.5671  0.2702  11.00000  0.05    1.37
Q3    1   0.6971  0.5000  0.2515  10.50000  0.05    1.02
Q4    1   0.6724  0.5000  0.2489  10.50000  0.05    0.76
Q5    1   0.7500  0.5900  0.4100  10.50000  0.05    0.59
Q6    1   0.5410  0.5309  0.2776  11.00000  0.05    0.50
Q7    1   0.5784  0.5612  0.2566  11.00000  0.05    0.46
Q8    1   0.6937  0.5774  0.3316  11.00000  0.05    0.42
Q9    1   0.6691  0.6006  0.3346  11.00000  0.05    0.37
Q10   1   0.5664  0.5542  0.2423  11.00000  0.05    0.36
Q11   1   0.6009  0.5000  0.2429  10.50000  0.05    0.35
Q12   1   0.6701  0.6478  0.3773  11.00000  0.05    0.35
Q13   1   0.6061  0.5000  0.2332  10.50000  0.05    0.32
Q14   1   0.5808  0.5404  0.2394  11.00000  0.05    0.32
Q15   1   0.7256  0.5309  0.3160  11.00000  0.05    0.32
Q16   1   0.7378  0.5573  0.4010  11.00000  0.05    0.31
Q17   1   0.6737  0.5777  0.3116  11.00000  0.05    0.30
Q18   1   0.6326  0.4798  0.2515  11.00000  0.05    0.30
Q19   1   0.5503  0.5000  0.2393  10.50000  0.05    0.30
Q20   1   0.7039  0.5382  0.3081  11.00000  0.05    0.30
Q21   1   0.7303  0.5700  0.4017  11.00000  0.05    0.30
Q22   1   0.7132  0.5542  0.3242  11.00000  0.05    0.30
Q23   1   0.6208  0.5000  0.3267  10.50000  0.05    0.29
Q24   1   0.5720  0.5000  0.2712  10.50000  0.05    0.28
Q25   1   0.6690  0.6223  0.3558  11.00000  0.05    0.28
Q26   1   0.6508  0.5623  0.2890  11.00000  0.05    0.28
Q27   1   0.5666  0.5098  0.2338  11.00000  0.05    0.27
Q28   1   0.7503  0.5203  0.2402  11.00000  0.05    0.27
Q29   1   0.5710  0.5000  0.2384  10.50000  0.05    0.26
Q30   1   0.5664  0.5117  0.2424  11.00000  0.05    0.26
Q31   1   0.6377  0.4890  0.2508  11.00000  0.05    0.25
Q32   1   0.5536  0.5345  0.2611  11.00000  0.05    0.25
Q33   1   0.6785  0.5540  0.2978  11.00000  0.05    0.24
Q34   1   0.7287  0.5193  0.2212  11.00000  0.05    0.22
Q35   1   0.6180  0.5545  0.2514  11.00000  0.05    0.22
Q36   1   0.6377  0.5000  0.2572  10.50000  0.05    0.22
Q37   1   0.5775  0.5000  0.2658  10.50000  0.05    0.22
Q38   1   0.6840  0.5309  0.2907  11.00000  0.05    0.21
Q39   1   0.7500  0.5225  0.2500  10.25000  0.05    0.21
Q40   1   0.7129  0.6294  0.3692  11.00000  0.05    0.21
Q41   1   0.5529  0.5000  0.3047  10.50000  0.05    0.21
Q42   1   0.7780  0.5208  0.2469  11.00000  0.05    0.20
Q43   1   0.6888  0.5312  0.2829  11.00000  0.05    0.20
Q44   1   0.7135  0.5000  0.3382  10.50000  0.05    0.20
Q45   1   0.6390  0.5823  0.2783  11.00000  0.05    0.20
Q46   1   0.6977  0.5000  0.3240  10.50000  0.05    0.20
Q47   1   0.6301  0.5000  0.2629  10.50000  0.05    0.19
Q48   1   0.5841  0.5000  0.2611  10.50000  0.05    0.19
Q49   1   0.7287  0.5000  0.2427  10.50000  0.05    0.18
Q50   1   0.7419  0.5803  0.2530  11.00000  0.05    0.18
Q51   1   0.7509  0.5115  0.2287  11.00000  0.05    0.18
Q52   1   0.7450  0.6724  0.3587  11.00000  0.05    0.17
Q53   1   0.7092  0.5000  0.3296  10.50000  0.05    0.17
Q54   1   0.7172  0.5172  0.2428  11.00000  0.05    0.17
Q55   1   0.6297  0.5621  0.2732  11.00000  0.05    0.17
Q56   1   0.7500  0.7034  0.2500  10.25000  0.05    0.17
Q57   1   0.7500  0.5907  0.2500  10.25000  0.05    0.17
Q58   1   0.6424  0.5888  0.2820  11.00000  0.05    0.16
Q59   1   0.6998  0.5000  0.2199  10.50000  0.05    0.16
Q60   1   0.7443  0.6833  0.3091  11.00000  0.05    0.16
;
_shelx_res_checksum              85865
_shelx_hkl_file
;
   0   4   0 2940.01   96.69
   0   4   2    0.22    3.32
   0   4   4 3531.02   11.16
   0   6   0 5159.30   58.32
   0   6   2 1527.07    2.55
   0   6   4   48.66    1.05
   0   6   6 3334.30   18.35
   0   8   0  967.24    1.06
   0   8   2    1.24    0.98
   0   8   4   15.21    0.32
   0   8   6   59.56    0.54
   0   8   8 3177.99  117.79
   0  10   0  176.04    0.57
   0  10   2  204.73    0.27
   0  10   4  352.02    0.81
   0  10   6  967.47    1.98
   0  10   8   38.24    0.74
   0  10  10 3117.43   24.50
   0  12   0 4814.49   91.00
   0  12   2  208.96    2.74
   0  12   4  590.56    2.72
   0  12   6   97.58    1.60
   0  12   8 1968.47   12.67
   0  12  10  162.43    1.01
   0  12  12 2211.92   17.04
   0  14   0  991.84    7.94
   0  14   2  722.45    4.86
   0  14   4  652.72    3.19
   0  14   6  348.25    2.08
   0  14   8  500.29    3.19
   0  14  10 2089.68   10.63
   0  14  12   33.23    0.51
   0  14  14 1707.79   10.76
   0  16   0 8583.60  192.21
   0  16   2  507.26    2.54
   0  16   4 2119.53    9.27
   0  16   6  387.89    2.09
   0  16   8 2728.94   16.33
   0  16  10   15.05    0.35
   0  16  12 2512.99   13.32
   0  16  14  156.53    1.29
   0  16  16 2311.86   18.44
   0  18   0   84.38    1.00
   0  18   2  581.66    1.91
   0  18   4  271.87    2.62
   0  18   6  766.79    2.81
   0  18   8   16.40    0.81
   0  18  10  526.09    2.38
   0  18  12    1.93    0.34
   0  18  14  215.84    0.93
   0  18  16   63.08    0.94
   0  18  18  204.85    1.38
   0  20   0   65.52    2.35
   0  20   2   45.70    0.89
   0  20   4  350.90    2.33
   0  20   6   10.58    0.38
   0  20   8   16.71    0.43
   0  20  10    0.25    0.34
   0  20  12  218.88    1.60
   0  20  14  356.66    2.51
   0  20  16  760.68    4.68
   0  20  18    1.08    0.45
   0  20  20   37.72    1.09
   0  22   0  114.10    1.98
   0  22   2  686.64    3.94
   0  22   4  517.65    4.07
   0  22   6  722.87    4.03
   0  22   8  468.92    2.45
   0  22  10   48.47    0.67
   0  22  12    7.79    0.54
   0  22  14  582.08    3.44
   0  22  16  404.37    2.21
   0  22  18 1202.14    6.03
   0  22  20    7.37    0.41
   0  22  22  321.50    2.93
   0  24   0 5749.64   57.77
   0  24   2  659.89    3.61
   0  24   4    1.28    0.40
   0  24   6  493.82    2.42
   0  24   8  224.67    1.22
   0  24  10   13.69    0.43
   0  24  12  629.45    4.18
   0  24  14  527.83    3.79
   0  24  16 2102.14   12.68
   0  24  18    9.01    0.73
   0  24  20   96.72    0.71
   0  24  22   66.64    0.81
   0  24  24   12.90    0.99
   0  26   0   55.75    2.05
   0  26   2  888.01    3.92
   0  26   4   39.56    0.52
   0  26   6  194.47    1.06
   0  26   8   22.25    0.85
   0  26  10  102.01    0.69
   0  26  12   30.33    0.92
   0  26  14  241.92    1.19
   0  26  16  133.24    1.67
   0  26  18   29.68    0.51
   0  26  20   46.29    0.59
   0  26  22  667.70    3.42
   0  26  24   14.37    0.85
   0  26  26  105.14    1.26
   0  28   0 3878.27   47.33
   0  28   2  411.69    2.99
   0  28   4 1232.88    6.87
   0  28   6  126.85    0.89
   0  28   8  126.15    1.44
   0  28  10   47.55    0.60
   0  28  12  644.55    4.04
   0  28  14  193.78    1.62
   0  28  16 1024.89    6.06
   0  28  18  243.98    2.11
   0  28  20  260.99    2.12
   0  28  22  471.73    2.97
   0  28  24  501.39    3.70
   0  28  26   17.89    1.00
   0  28  28  891.67   10.25
   0  30   0   42.91    1.00
   0  30   2  645.16    3.44
   0  30   4  268.39    1.79
   0  30   6  165.82    1.28
   0  30   8  267.23    2.11
   0  30  10   90.34    1.04
   0  30  12   99.38    1.04
   0  30  14   57.38    0.89
   0  30  16    1.66    0.58
   0  30  18  116.77    1.23
   0  30  20  167.95    1.55
   0  30  22  498.45    3.77
   0  30  24  114.19    1.53
   0  30  26  249.24    2.37
   0  30  28  140.47    2.21
   0  30  30   22.81    1.83
   0  32   0 1526.94   20.82
   0  32   2  245.21    1.91
   0  32   4  647.18    3.96
   0  32   6   59.03    0.72
   0  32   8  221.09    2.10
   0  32  10    2.73    0.56
   0  32  12  311.02    2.60
   0  32  14  212.90    1.85
   0  32  16  552.61    3.86
   0  32  18    0.78    0.69
   0  32  20  308.43    3.25
   0  32  22    5.67    0.80
   0  32  24  362.14    3.61
   0  32  26    1.62    0.90
   0  32  28  434.32    4.07
   0  32  30   44.21    1.34
   0  32  32  178.55    3.93
   0  34   0   17.68    0.90
   0  34   2   97.10    1.07
   0  34   4    2.29    0.59
   0  34   6   88.43    0.95
   0  34   8    0.65    0.59
   0  34  10  275.49    1.95
   0  34  12  235.59    1.61
   0  34  14  350.77    2.29
   0  34  16   14.66    0.70
   0  34  18  204.87    1.67
   0  34  20    0.10    0.77
   0  34  22    0.24    0.81
   0  34  24    1.43    0.90
   0  34  26   46.29    1.26
   0  34  28    0.04    0.95
   0  34  30   61.60    1.50
   0  34  32   13.75    1.13
   0  34  34   68.39    2.24
   0  36   0    6.60    1.14
   0  36   2   27.83    0.80
   0  36   4    2.16    0.57
   0  36   6    2.99    0.67
   0  36   8   10.43    0.77
   0  36  10   20.31    0.84
   0  36  12  141.65    1.69
   0  36  14  125.41    1.64
   0  36  16  262.63    2.41
   0  36  18    6.77    0.89
   0  36  20    4.54    0.88
   0  36  22    2.65    0.91
   0  36  24   33.02    1.09
   0  36  26    7.91    1.08
   0  36  28   30.99    1.29
   0  36  30   75.49    1.80
   0  36  32   22.11    1.26
   0  36  34    5.68    1.12
   0  36  36    7.50    1.66
   0  38   0  174.96    3.68
   0  38   2   19.55    0.99
   0  38   4   85.44    1.44
   0  38   6  116.50    1.64
   0  38   8  143.51    1.74
   0  38  10  231.60    2.27
   0  38  12   23.34    0.93
   0  38  14  320.83    2.73
   0  38  16  119.98    1.61
   0  38  18   95.81    1.48
   0  38  20    4.49    0.90
   0  38  22    0.85    0.95
   0  38  24   33.26    1.14
   0  38  26   33.94    1.18
   0  38  28  161.14    2.19
   0  38  30   64.74    1.62
   0  38  32   16.60    1.19
   0  38  34   14.72    1.15
   0  38  36    1.22    1.10
   0  38  38   62.06    2.18
   0  40   0   16.71    2.68
   0  40   2    4.02    0.99
   0  40   4   77.18    1.69
   0  40   6   29.77    1.17
   0  40   8  324.09    3.46
   0  40  10   23.05    1.11
   0  40  12  427.50    4.07
   0  40  14   52.52    1.34
   0  40  16  411.79    3.91
   0  40  18   77.32    1.59
   0  40  20    8.22    1.00
   0  40  22  112.84    2.45
   0  40  24    5.27    1.09
   0  40  26   53.28    1.56
   0  40  28   66.90    1.59
   0  40  30   30.90    1.33
   0  40  32   77.58    1.90
   0  40  34    0.15    1.17
   0  40  36   92.28    1.97
   0  40  38    3.18    1.16
   0  40  40  122.10    3.21
   0  42   0   34.31    2.37
   0  42   2   75.50    1.55
   0  42   4    0.01    0.94
   0  42   6   96.86    1.66
   0  42   8   38.22    1.29
   0  42  10  103.02    1.68
   0  42  12   17.20    1.13
   0  42  14   60.61    1.40
   0  42  16   49.75    1.37
   0  42  18   18.97    1.09
   0  42  20    3.78    0.98
   0  42  22  277.30    3.00
   0  42  24    7.33    1.07
   0  42  26    0.00    1.06
   0  42  28   36.31    1.36
   0  42  30   28.82    1.42
   0  42  32    3.02    1.32
   0  42  34   60.76    1.59
   0  42  36   33.50    1.41
   0  42  38   45.14    1.67
   0  44   0 1441.85   28.33
   0  44   2  158.83    2.40
   0  44   4  147.61    2.21
   0  44   6   31.53    1.14
   0  44   8   61.64    1.82
   0  44  10   12.04    1.16
   0  44  12  324.67    3.61
   0  44  14   74.88    1.76
   0  44  16  253.58    3.26
   0  44  18    1.12    1.07
   0  44  20  106.91    2.20
   0  44  22    8.29    1.10
   0  44  24  249.40    3.28
   0  44  26   11.20    1.30
   0  44  28  216.48    2.83
   0  44  30    7.19    1.19
   0  44  32  202.12    2.94
   0  44  34    1.99    1.25
   0  46   0    1.58    2.24
   0  46   2  214.72    2.76
   0  46   4   29.46    1.30
   0  46   6    0.49    1.03
   0  46   8   21.63    1.27
   0  46  10    5.20    1.06
   0  46  12    1.38    1.03
   0  46  14  122.37    1.99
   0  46  16   26.11    1.26
   0  46  18  115.92    1.99
   0  46  20   70.75    1.87
   0  46  22   25.35    1.41
   0  46  24   13.18    1.28
   0  46  26  180.74    2.48
   0  46  28    0.03    1.20
   0  46  30   79.18    1.96
   0  46  32   18.70    1.44
   0  48   0  444.89    9.34
   0  48   2  120.99    2.13
   0  48   4  213.20    2.63
   0  48   6    0.57    1.06
   0  48   8   17.85    1.17
   0  48  10    7.40    1.13
   0  48  12   30.78    1.34
   0  48  14   88.99    1.89
   0  48  16  165.42    2.45
   0  48  18   18.02    1.30
   0  48  20   47.14    1.53
   0  48  22    6.39    1.21
   0  48  24   16.84    1.49
   0  48  26    0.33    1.28
   0  48  28  170.45    2.73
   0  48  30   37.19    1.77
   0  50   0  206.01    4.78
   0  50   2  127.14    2.04
   0  50   4   23.58    1.31
   0  50   6   11.71    1.19
   0  50   8   11.41    1.12
   0  50  10   11.70    1.18
   0  50  12   59.62    1.60
   0  50  14   70.39    1.66
   0  50  16   58.86    1.66
   0  50  18   13.09    1.30
   0  50  20    9.49    1.28
   0  50  22   17.11    1.43
   0  50  24   10.59    1.35
   0  50  26   21.59    1.50
   0  52   0   33.78    2.98
   0  52   2   69.60    1.79
   0  52   4    0.09    1.17
   0  52   6    0.09    1.12
   0  52   8    0.98    1.09
   0  52  10    1.89    1.15
   0  52  12   13.54    1.37
   0  52  14   75.14    2.00
   0  52  16   68.73    2.01
   0  52  18   91.68    3.00
   0  52  20    2.33    1.28
   0  52  22   45.53    1.67
   0  54   0   84.24    3.62
   0  54   2   71.57    1.67
   0  54   4   72.18    1.76
   0  54   6   23.76    1.36
   0  54   8    0.13    1.21
   0  54  10    3.11    1.22
   0  54  12    0.23    1.25
   0  54  14   33.53    1.50
   0  54  16   58.12    1.76
   0  56   0  254.21    6.39
   0  56   2   57.19    1.61
   0  56   4   53.92    1.61
   0  56   6    5.99    1.30
   0  56   8   50.30    1.68
   1   5   3   89.27    0.13
   1   7   3    0.96    0.31
   1   7   5  190.70    0.73
   1   9   3   21.86    0.42
   1   9   5   47.99    0.56
   1   9   7   66.04    0.44
   1  11   3   32.17    0.27
   1  11   5   48.73    0.29
   1  11   7   47.68    0.42
   1  11   9    3.01    0.21
   1  13   3   36.22    0.29
   1  13   5   12.65    0.23
   1  13   7   90.38    0.66
   1  13   9    7.91    0.26
   1  13  11   72.70    0.44
   1  15   3   14.03    0.27
   1  15   5   41.27    0.30
   1  15   7   13.14    0.27
   1  15   9   17.55    0.33
   1  15  11    1.76    0.22
   1  15  13   31.86    0.38
   1  17   3   21.14    0.27
   1  17   5    8.88    0.23
   1  17   7   20.39    0.31
   1  17   9    2.35    0.22
   1  17  11    1.71    0.24
   1  17  13   27.97    0.32
   1  17  15    0.11    0.25
   1  19   3   39.04    0.36
   1  19   5   20.31    0.26
   1  19   7    7.44    0.27
   1  19   9   46.94    0.45
   1  19  11   18.44    0.33
   1  19  13   63.10    0.45
   1  19  15    0.71    0.24
   1  19  17   15.59    0.30
   1  21   3  138.05    0.69
   1  21   5    3.98    0.24
   1  21   7    0.31    0.23
   1  21   9   26.16    0.38
   1  21  11    2.13    0.28
   1  21  13    7.23    0.31
   1  21  15   53.47    0.46
   1  21  17    3.61    0.28
   1  21  19   43.02    0.48
   1  23   3  230.27    1.13
   1  23   5   32.83    0.40
   1  23   7    3.31    0.26
   1  23   9   79.40    0.54
   1  23  11   39.60    0.43
   1  23  13   42.21    0.50
   1  23  15   30.70    0.42
   1  23  17    5.58    0.35
   1  23  19   57.19    0.54
   1  23  21    2.90    0.33
   1  25   3  262.72    1.16
   1  25   5   52.88    0.46
   1  25   7    0.09    0.27
   1  25   9   68.94    0.57
   1  25  11   21.88    0.39
   1  25  13   12.24    0.36
   1  25  15  106.40    0.76
   1  25  17   94.21    0.72
   1  25  19  113.27    0.78
   1  25  21    4.35    0.37
   1  25  23    6.17    0.39
   1  27   3  214.72    1.03
   1  27   5   34.57    0.44
   1  27   7    5.76    0.30
   1  27   9   45.65    0.51
   1  27  11   25.83    0.45
   1  27  13   68.97    0.65
   1  27  15    8.87    0.38
   1  27  17   58.25    0.63
   1  27  19   78.52    0.70
   1  27  21    5.46    0.42
   1  27  23    5.74    0.43
   1  27  25   80.73    0.87
   1  29   3  108.57    0.68
   1  29   5    7.40    0.34
   1  29   7   15.10    0.39
   1  29   9   16.95    0.40
   1  29  11    8.67    0.38
   1  29  13   77.13    0.68
   1  29  15    4.96    0.39
   1  29  17   26.17    0.48
   1  29  19  142.06    0.94
   1  29  21   18.17    0.48
   1  29  23   28.72    0.62
   1  29  25   16.72    0.65
   1  29  27    4.31    0.59
   1  31   3   39.80    0.52
   1  31   5    0.12    0.35
   1  31   7   17.81    0.43
   1  31   9   14.11    0.43
   1  31  11    1.73    0.40
   1  31  13   50.42    0.62
   1  31  15   21.36    0.49
   1  31  17    2.94    0.43
   1  31  19   29.42    0.56
   1  31  21    1.94    0.52
   1  31  23    0.74    0.55
   1  31  25   97.34    1.09
   1  31  27   31.77    0.78
   1  31  29   45.14    0.90
   1  33   3   12.81    0.43
   1  33   5    0.07    0.35
   1  33   7   49.08    0.62
   1  33   9    2.73    0.42
   1  33  11    1.52    0.41
   1  33  13   23.34    0.53
   1  33  15   11.10    0.50
   1  33  17   15.55    0.54
   1  33  19   15.19    0.57
   1  33  21    0.50    0.55
   1  33  23    0.82    0.57
   1  33  25   31.17    0.72
   1  33  27   11.64    0.70
   1  33  29   22.99    0.82
   1  33  31    0.86    0.74
   1  35   3    0.29    0.41
   1  35   5    9.31    0.45
   1  35   7   10.66    0.47
   1  35   9   22.75    0.54
   1  35  11    0.32    0.45
   1  35  13   45.17    0.68
   1  35  15    8.28    0.54
   1  35  17   20.18    0.61
   1  35  19    4.13    0.54
   1  35  21   11.15    0.64
   1  35  23    3.89    0.64
   1  35  25   32.17    0.77
   1  35  27   14.76    0.77
   1  35  29   29.64    0.86
   1  35  31    1.31    0.74
   1  35  33    5.05    0.76
   1  37   3    0.73    0.54
   1  37   5    7.78    0.57
   1  37   7   10.40    0.56
   1  37   9    1.39    0.52
   1  37  11   40.31    0.71
   1  37  13    1.28    0.55
   1  37  15   19.90    0.65
   1  37  17    2.80    0.58
   1  37  19   26.15    0.74
   1  37  21    4.21    0.66
   1  37  23    0.47    0.65
   1  37  25    5.95    0.69
   1  37  27    1.66    0.69
   1  37  29    0.95    0.70
   1  37  31   19.32    0.85
   1  37  33    7.28    0.80
   1  37  35   41.80    1.00
   1  39   3    7.31    0.73
   1  39   5    5.43    0.64
   1  39   7    0.03    0.62
   1  39   9   19.73    0.70
   1  39  11   11.61    0.64
   1  39  13   18.42    0.69
   1  39  15   14.97    0.69
   1  39  17    7.75    0.62
   1  39  19   36.84    0.83
   1  39  21    0.21    0.67
   1  39  23    0.71    0.67
   1  39  25    5.93    0.73
   1  39  27    0.20    0.69
   1  39  29    0.14    0.72
   1  39  31   12.60    0.87
   1  39  33    0.20    0.82
   1  39  35    9.75    0.86
   1  39  37   25.21    0.94
   1  41   3   32.98    0.86
   1  41   5    0.32    0.66
   1  41   7    0.96    0.67
   1  41   9   34.93    0.84
   1  41  11    1.08    0.68
   1  41  13    9.61    0.72
   1  41  15   51.76    0.94
   1  41  17   37.39    0.83
   1  41  19   69.06    1.10
   1  41  21    4.47    0.71
   1  41  23    8.25    0.76
   1  41  25    1.17    0.75
   1  41  27    3.99    0.75
   1  41  29    2.89    0.80
   1  41  31   44.96    1.07
   1  41  33   10.87    0.91
   1  41  35   49.03    1.14
   1  41  37    0.11    0.84
   1  41  39    5.92    0.91
   1  43   3   83.20    1.20
   1  43   5   12.06    0.75
   1  43   7    1.20    0.69
   1  43   9   52.67    0.96
   1  43  11   13.28    0.77
   1  43  13   28.84    0.85
   1  43  15   17.83    0.82
   1  43  17    3.42    0.74
   1  43  19   16.70    0.80
   1  43  21    3.77    0.73
   1  43  23    2.38    0.75
   1  43  25   15.07    0.86
   1  43  27    0.52    0.78
   1  43  29    4.38    0.83
   1  43  31    9.13    0.89
   1  43  33    2.52    0.87
   1  43  35    2.14    0.88
   1  43  37   14.17    1.03
   1  45   3  111.97    1.37
   1  45   5   21.20    0.83
   1  45   7    0.88    0.76
   1  45   9   17.18    0.81
   1  45  11   10.54    0.78
   1  45  13   17.72    0.82
   1  45  15    6.37    0.77
   1  45  17    0.24    0.76
   1  45  19   16.61    0.86
   1  45  21    0.32    0.81
   1  45  23    0.82    0.76
   1  45  25    1.01    0.82
   1  45  27   15.21    0.91
   1  45  29    5.63    0.83
   1  45  31    8.55    0.89
   1  45  33    0.32    0.87
   1  47   3   92.33    1.33
   1  47   5   11.77    0.83
   1  47   7    2.12    0.76
   1  47   9    8.88    0.80
   1  47  11   15.13    0.84
   1  47  13   21.47    0.88
   1  47  15    0.02    0.77
   1  47  17    9.06    0.88
   1  47  19    1.37    0.84
   1  47  21    8.20    0.85
   1  47  23   12.14    0.92
   1  47  25   39.25    1.08
   1  47  27    0.28    0.88
   1  47  29   35.63    1.05
   1  47  31    0.52    0.88
   1  49   3   59.20    1.13
   1  49   5    5.70    0.80
   1  49   7    7.06    0.80
   1  49   9    4.43    0.77
   1  49  11   11.50    0.84
   1  49  13   13.51    0.90
   1  49  15    2.32    0.80
   1  49  17    0.99    0.84
   1  49  19   14.62    0.89
   1  49  21    2.24    0.88
   1  49  23    2.90    0.92
   1  49  25   36.05    1.09
   1  49  27    0.10    0.91
   1  51   3   32.45    0.94
   1  51   5    0.86    0.81
   1  51   7    2.50    0.77
   1  51   9   17.71    0.88
   1  51  11   20.50    0.90
   1  51  13   27.43    0.96
   1  51  15    1.64    0.87
   1  51  17   16.21    0.96
   1  51  19   33.16    1.09
   1  51  21    2.32    0.90
   1  51  23    3.70    0.92
   1  51  25   79.26    3.94
   1  53   3   18.50    0.93
   1  53   5    0.08    0.80
   1  53   7    1.94    0.89
   1  53   9   15.83    0.89
   1  53  11    3.73    0.88
   1  53  13   14.03    0.92
   1  53  15    6.01    0.93
   1  53  17   45.68    1.15
   1  53  19   87.07    1.43
   1  55   3   16.12    0.90
   1  55   5    0.71    0.86
   1  55   7    2.35    0.85
   1  55   9   18.12    0.97
   1  55  11    2.19    0.87
   1  55  13   20.04    1.03
   2   2   214549.86  289.47
   2   4   2  380.43    0.33
   2   4   4 2026.03    1.17
   2   6   2  390.88    0.94
   2   6   4  274.24    0.63
   2   6   6  958.46    4.05
   2   8   2 2141.84   17.49
   2   8   4  220.34    1.54
   2   8   6    7.54    0.29
   2   8   8 1192.61    7.00
   2  10   2   22.11    0.53
   2  10   4   13.87    0.25
   2  10   6  175.99    0.41
   2  10   8    3.24    0.23
   2  10  10  761.09    3.46
   2  12   2  249.58    1.93
   2  12   4   14.93    0.21
   2  12   6   22.47    0.22
   2  12   8  317.31    1.71
   2  12  10    7.21    0.23
   2  12  12 1902.86    8.73
   2  14   2 3886.96   24.84
   2  14   4   26.64    0.19
   2  14   6  747.01    2.98
   2  14   8    4.20    0.26
   2  14  10 1554.12    6.73
   2  14  12    1.71    0.23
   2  14  14 1946.95    9.54
   2  16   2  911.04    6.05
   2  16   4   62.20    0.21
   2  16   6 1396.18    5.13
   2  16   8  491.21    1.82
   2  16  10  191.29    1.20
   2  16  12  463.86    1.71
   2  16  14  183.84    0.87
   2  16  16   40.67    0.65
   2  18   2 1043.94    4.29
   2  18   4   61.15    0.46
   2  18   6  254.25    0.85
   2  18   8   48.28    0.57
   2  18  10  375.43    1.42
   2  18  12  175.29    0.77
   2  18  14  815.68    3.11
   2  18  16  259.53    0.98
   2  18  18  278.67    1.37
   2  20   2  196.07    1.34
   2  20   4  559.09    2.10
   2  20   6  376.41    1.94
   2  20   8  113.73    0.96
   2  20  10   62.02    0.40
   2  20  12   48.27    0.41
   2  20  14  150.61    0.70
   2  20  16  280.09    1.20
   2  20  18   89.35    0.65
   2  20  20  133.54    1.11
   2  22   2  305.30    2.82
   2  22   4   14.51    0.33
   2  22   6  430.11    1.28
   2  22   8  175.40    0.77
   2  22  10  104.24    0.47
   2  22  12   23.69    0.47
   2  22  14  572.97    2.61
   2  22  16  437.72    2.04
   2  22  18  235.78    1.15
   2  22  20   77.06    0.54
   2  22  22  708.82    3.22
   2  24   2   73.45    0.58
   2  24   4  146.28    0.52
   2  24   6  177.37    0.87
   2  24   8   61.35    0.58
   2  24  10    0.82    0.27
   2  24  12   48.03    0.51
   2  24  14    0.01    0.30
   2  24  16  368.77    1.82
   2  24  18   11.90    0.47
   2  24  20    2.47    0.36
   2  24  22   13.93    0.36
   2  24  24   15.33    0.65
   2  26   2 1804.29    9.17
   2  26   4    0.09    0.27
   2  26   6   60.03    0.59
   2  26   8  286.67    1.75
   2  26  10   48.56    0.40
   2  26  12   82.14    0.54
   2  26  14 1398.94    5.11
   2  26  16  360.82    1.34
   2  26  18  210.69    0.91
   2  26  20   50.42    0.72
   2  26  22    2.12    0.38
   2  26  24   51.51    0.77
   2  26  26  180.87    1.45
   2  28   2   66.96    0.71
   2  28   4  221.15    0.93
   2  28   6  231.16    1.12
   2  28   8   23.70    0.45
   2  28  10  162.18    0.98
   2  28  12   66.42    0.58
   2  28  14   57.00    0.68
   2  28  16    9.88    0.39
   2  28  18    8.57    0.41
   2  28  20  208.04    1.24
   2  28  22   87.02    0.84
   2  28  24  245.60    1.46
   2  28  26   87.82    0.83
   2  28  28   32.95    1.07
   2  30   2 1568.12    8.43
   2  30   4    6.19    0.29
   2  30   6  233.26    1.32
   2  30   8   96.79    0.71
   2  30  10  210.87    1.26
   2  30  12   19.42    0.53
   2  30  14  563.98    2.75
   2  30  16  352.29    1.94
   2  30  18  456.49    2.10
   2  30  20   76.91    0.85
   2  30  22  236.45    1.75
   2  30  24   31.39    0.62
   2  30  26  589.74    3.22
   2  30  28   56.24    0.98
   2  30  30  479.34    4.91
   2  32   2   25.28    0.62
   2  32   4   55.37    0.52
   2  32   6  198.44    1.07
   2  32   8   46.19    0.65
   2  32  10   17.36    0.44
   2  32  12   83.44    0.81
   2  32  14    8.30    0.45
   2  32  16   90.55    0.83
   2  32  18   52.22    0.68
   2  32  20   48.72    0.85
   2  32  22   66.74    0.89
   2  32  24   71.01    0.94
   2  32  26   57.53    0.86
   2  32  28   28.63    0.80
   2  32  30   30.40    0.89
   2  32  32   45.26    1.41
   2  34   2  201.13    1.66
   2  34   4   12.27    0.49
   2  34   6    8.62    0.43
   2  34   8   19.55    0.54
   2  34  10   18.65    0.48
   2  34  12   57.64    0.63
   2  34  14  217.83    1.34
   2  34  16   25.41    0.59
   2  34  18   85.21    0.89
   2  34  20    0.40    0.55
   2  34  22    0.40    0.56
   2  34  24    3.35    0.61
   2  34  26   37.14    0.76
   2  34  28   26.44    0.81
   2  34  30  114.11    1.44
   2  34  32    6.60    0.75
   2  34  34    0.00    1.05
   2  36   2  156.75    1.49
   2  36   4   24.99    0.52
   2  36   6  122.61    0.95
   2  36   8   65.24    0.85
   2  36  10  140.96    1.07
   2  36  12  171.74    1.24
   2  36  14  141.85    1.16
   2  36  16  161.96    1.27
   2  36  18   38.77    0.74
   2  36  20    0.16    0.58
   2  36  22   27.39    0.74
   2  36  24    2.57    0.66
   2  36  26   62.13    1.03
   2  36  28   38.67    0.85
   2  36  30   83.16    1.14
   2  36  32   27.11    0.90
   2  36  34   11.85    0.85
   2  36  36    0.78    1.13
   2  38   2   18.98    1.03
   2  38   4    0.86    0.61
   2  38   6    0.17    0.59
   2  38   8   25.12    0.67
   2  38  10   44.63    0.80
   2  38  12    5.55    0.60
   2  38  14  180.33    1.46
   2  38  16  133.41    1.21
   2  38  18   34.17    0.79
   2  38  20   10.74    0.67
   2  38  22  100.06    1.18
   2  38  24    2.04    0.71
   2  38  26    0.04    0.68
   2  38  28   71.79    1.16
   2  38  30   16.26    0.85
   2  38  32    8.44    0.81
   2  38  34    0.00    0.77
   2  38  36    9.96    0.84
   2  38  38   21.94    1.37
   2  40   2    2.34    0.99
   2  40   4   46.32    0.89
   2  40   6    2.31    0.66
   2  40   8   74.62    1.11
   2  40  10   11.73    0.73
   2  40  12   60.35    0.87
   2  40  14    9.30    0.68
   2  40  16   42.95    0.83
   2  40  18    7.54    0.70
   2  40  20   39.12    0.85
   2  40  22    1.36    0.69
   2  40  24   17.93    0.79
   2  40  26    6.10    0.78
   2  40  28    4.82    0.77
   2  40  30    4.82    0.80
   2  40  32   17.02    0.92
   2  40  34    8.67    0.83
   2  40  36   27.34    1.00
   2  40  38   16.61    0.93
   2  40  40   28.42    1.41
   2  42   2  264.14    2.95
   2  42   4    1.86    0.69
   2  42   6   83.71    1.23
   2  42   8    4.26    0.71
   2  42  10  254.71    2.09
   2  42  12   59.42    1.01
   2  42  14  374.53    2.60
   2  42  16   33.87    0.91
   2  42  18   74.27    1.14
   2  42  20    4.96    0.74
   2  42  22   92.37    1.27
   2  42  24    0.51    0.76
   2  42  26   86.25    1.21
   2  42  28   18.83    0.92
   2  42  30  132.52    1.70
   2  42  32   13.54    0.87
   2  42  34   99.38    1.46
   2  42  36    8.89    0.87
   2  42  38   61.61    1.52
   2  44   2   19.48    1.09
   2  44   4   11.46    0.76
   2  44   6   81.67    1.15
   2  44   8    5.61    0.74
   2  44  10   18.62    0.77
   2  44  12   41.45    0.99
   2  44  14    1.43    0.75
   2  44  16   56.06    1.06
   2  44  18   31.08    0.84
   2  44  20   12.83    0.87
   2  44  22   36.59    0.97
   2  44  24   30.39    0.94
   2  44  26   34.31    0.94
   2  44  28   27.83    0.92
   2  44  30   25.20    0.95
   2  44  32   25.88    1.02
   2  44  34   22.92    0.99
   2  46   2  560.18    5.28
   2  46   4    2.73    0.76
   2  46   6    7.27    0.76
   2  46   8   18.91    0.84
   2  46  10   11.28    0.81
   2  46  12   19.94    0.86
   2  46  14  180.61    1.80
   2  46  16   41.65    1.02
   2  46  18  142.03    1.66
   2  46  20    0.19    0.82
   2  46  22   24.87    0.97
   2  46  24    1.76    0.81
   2  46  26  187.07    1.93
   2  46  28    6.64    0.85
   2  46  30  171.70    1.83
   2  46  32    5.90    0.93
   2  48   2    6.44    1.20
   2  48   4   31.53    0.90
   2  48   6    9.48    0.81
   2  48   8    2.38    0.80
   2  48  10    0.04    0.74
   2  48  12   28.68    0.87
   2  48  14   45.94    0.99
   2  48  16   72.41    1.14
   2  48  18    0.03    0.78
   2  48  20    0.01    0.82
   2  48  22   11.11    0.93
   2  48  24    4.57    0.91
   2  48  26    0.03    0.89
   2  48  28   90.40    1.38
   2  48  30    7.59    1.07
   2  50   2   55.77    1.49
   2  50   4    6.52    0.86
   2  50   6    4.68    0.82
   2  50   8   16.48    0.88
   2  50  10   12.23    0.86
   2  50  12   13.43    0.86
   2  50  14   48.69    1.07
   2  50  16   78.72    1.32
   2  50  18   16.84    0.96
   2  50  20    0.34    0.85
   2  50  22    4.58    0.91
   2  50  24    8.16    0.96
   2  50  26    1.80    0.95
   2  52   2  161.88    2.46
   2  52   4   23.87    0.93
   2  52   6   19.29    0.91
   2  52   8    2.57    0.83
   2  52  10    5.69    0.86
   2  52  12    5.64    0.87
   2  52  14   44.35    1.11
   2  52  16   28.71    1.06
   2  52  18   72.81    1.42
   2  52  20    5.81    0.94
   2  52  22    1.05    0.96
   2  54   2   23.15    1.38
   2  54   4    7.94    0.87
   2  54   6    0.64    0.84
   2  54   8    0.57    0.84
   2  54  10    8.79    0.92
   2  54  12    8.06    0.91
   2  54  14   70.85    1.28
   2  54  16   79.03    1.38
   2  56   2    3.50    1.37
   2  56   4   12.77    0.89
   2  56   6    8.68    0.90
   2  56   8    0.03    0.89
   3   7   5    0.25    0.18
   3   9   5   10.35    0.25
   3   9   7   65.75    0.55
   3  11   5   31.61    0.23
   3  11   7    0.23    0.20
   3  11   9  187.99    0.96
   3  13   5   12.84    0.22
   3  13   7   32.00    0.30
   3  13   9   47.94    0.36
   3  13  11  186.57    0.92
   3  15   5   52.28    0.42
   3  15   7   12.12    0.30
   3  15   9  205.54    1.04
   3  15  11    8.19    0.24
   3  15  13   38.05    0.35
   3  17   5    4.40    0.22
   3  17   7  178.89    0.96
   3  17   9    2.18    0.25
   3  17  11  119.36    0.68
   3  17  13    3.29    0.23
   3  17  15   32.19    0.41
   3  19   5  103.15    0.53
   3  19   7   11.62    0.29
   3  19   9    1.29    0.24
   3  19  11   21.95    0.31
   3  19  13    4.14    0.28
   3  19  15   11.61    0.29
   3  19  17   89.94    0.60
   3  21   5   85.66    0.59
   3  21   7   34.39    0.41
   3  21   9   28.19    0.41
   3  21  11  140.85    0.81
   3  21  13   10.97    0.32
   3  21  15  117.49    0.78
   3  21  17   91.87    0.66
   3  21  19   12.26    0.33
   3  23   5   79.85    0.51
   3  23   7    4.55    0.27
   3  23   9    2.30    0.26
   3  23  11   32.93    0.43
   3  23  13   38.19    0.46
   3  23  15    0.04    0.29
   3  23  17  408.53    1.78
   3  23  19   27.22    0.44
   3  23  21   28.58    0.46
   3  25   5   89.46    0.61
   3  25   7    2.81    0.30
   3  25   9    0.87    0.28
   3  25  11   94.07    0.63
   3  25  13    2.16    0.30
   3  25  15   89.10    0.64
   3  25  17   86.26    0.68
   3  25  19   20.72    0.40
   3  25  21   50.45    0.58
   3  25  23   45.16    0.58
   3  27   5  147.79    0.86
   3  27   7    7.42    0.31
   3  27   9    2.48    0.31
   3  27  11   53.58    0.56
   3  27  13   17.73    0.42
   3  27  15    0.99    0.36
   3  27  17   69.46    0.66
   3  27  19   47.18    0.59
   3  27  21  244.09    1.34
   3  27  23    0.27    0.42
   3  27  25  148.16    1.10
   3  29   5  136.08    0.86
   3  29   7   29.51    0.42
   3  29   9    1.47    0.34
   3  29  11  135.89    0.91
   3  29  13    3.77    0.39
   3  29  15    3.03    0.40
   3  29  17   12.78    0.43
   3  29  19   10.10    0.44
   3  29  21    9.61    0.47
   3  29  23  231.67    1.46
   3  29  25    0.33    0.51
   3  29  27  105.98    1.14
   3  31   5  146.50    0.90
   3  31   7    9.83    0.40
   3  31   9   36.92    0.56
   3  31  11   49.52    0.57
   3  31  13    8.98    0.43
   3  31  15    7.00    0.43
   3  31  17   66.45    0.78
   3  31  19    4.19    0.45
   3  31  21  107.92    0.98
   3  31  23   17.44    0.61
   3  31  25   36.87    0.72
   3  31  27   12.50    0.66
   3  31  29    6.78    0.75
   3  33   5   59.78    0.66
   3  33   7   92.70    0.80
   3  33   9   17.97    0.48
   3  33  11   76.03    0.74
   3  33  13   35.63    0.57
   3  33  15   87.87    0.82
   3  33  17   17.42    0.55
   3  33  19   33.24    0.62
   3  33  21    0.19    0.53
   3  33  23  149.99    1.28
   3  33  25   32.30    0.78
   3  33  27  105.97    1.24
   3  33  29   18.99    0.82
   3  33  31   44.34    1.02
   3  35   5   36.08    0.56
   3  35   7   54.49    0.66
   3  35   9   81.51    0.83
   3  35  11    9.50    0.55
   3  35  13   15.78    0.56
   3  35  15   24.85    0.60
   3  35  17   63.37    0.83
   3  35  19    7.38    0.57
   3  35  21   13.91    0.65
   3  35  23   20.47    0.71
   3  35  25    1.50    0.66
   3  35  27   11.89    0.72
   3  35  29    6.96    0.78
   3  35  31    0.58    0.74
   3  35  33   36.68    0.96
   3  37   5   30.80    0.68
   3  37   7   67.82    0.91
   3  37   9   10.33    0.58
   3  37  11  146.15    1.17
   3  37  13    7.09    0.56
   3  37  15   63.76    0.97
   3  37  17   31.66    0.70
   3  37  19    6.69    0.62
   3  37  21   23.70    0.74
   3  37  23   11.92    0.72
   3  37  25    4.29    0.70
   3  37  27   38.92    0.92
   3  37  29    3.75    0.75
   3  37  31    6.18    0.80
   3  37  33    8.30    0.82
   3  37  35   57.42    1.09
   3  39   5   40.55    0.83
   3  39   7   18.31    0.70
   3  39   9   37.31    0.78
   3  39  11   67.94    0.94
   3  39  13  150.35    1.32
   3  39  15    1.51    0.62
   3  39  17  139.40    1.30
   3  39  19    9.76    0.69
   3  39  21   51.86    0.92
   3  39  23    4.61    0.74
   3  39  25    9.56    0.75
   3  39  27    1.60    0.72
   3  39  29   24.50    0.85
   3  39  31   17.14    0.87
   3  39  33  137.75    1.55
   3  39  35    5.51    0.83
   3  39  37  186.58    1.78
   3  41   5   15.11    0.76
   3  41   7   27.69    0.87
   3  41   9    2.56    0.67
   3  41  11  121.09    1.34
   3  41  13   26.75    0.75
   3  41  15   32.76    0.82
   3  41  17   31.41    0.86
   3  41  19    0.03    0.73
   3  41  21    9.29    0.76
   3  41  23   38.21    0.92
   3  41  25    1.36    0.75
   3  41  27    1.19    0.79
   3  41  29    5.44    0.81
   3  41  31   10.03    0.87
   3  41  33   17.17    0.90
   3  41  35   48.58    1.11
   3  41  37    2.12    0.83
   3  41  39   69.36    1.33
   3  43   5   21.41    0.80
   3  43   7    3.51    0.68
   3  43   9    6.22    0.72
   3  43  11   28.23    0.88
   3  43  13   22.24    0.82
   3  43  15   20.31    0.82
   3  43  17   66.26    1.14
   3  43  19    8.57    0.80
   3  43  21   58.10    1.04
   3  43  23    0.35    0.73
   3  43  25   27.65    0.90
   3  43  27    1.34    0.79
   3  43  29   34.31    0.97
   3  43  31    3.32    0.86
   3  43  33   75.94    1.31
   3  43  35    1.05    0.84
   3  43  37   26.89    1.88
   3  45   5   47.70    0.98
   3  45   7    2.08    0.72
   3  45   9    5.07    0.78
   3  45  11   52.67    1.01
   3  45  13    3.28    0.76
   3  45  15   41.64    0.93
   3  45  17   40.62    1.01
   3  45  19    7.58    0.83
   3  45  21    2.85    0.80
   3  45  23   53.78    1.09
   3  45  25   11.93    0.85
   3  45  27  118.93    1.48
   3  45  29   12.07    0.89
   3  45  31   26.90    1.01
   3  45  33   19.22    0.98
   3  47   5   88.88    1.27
   3  47   7    0.14    0.73
   3  47   9    2.48    0.76
   3  47  11   21.37    0.86
   3  47  13    3.63    0.80
   3  47  15    9.33    0.82
   3  47  17   83.57    1.27
   3  47  19    0.30    0.80
   3  47  21    7.09    0.87
   3  47  23    3.70    0.85
   3  47  25    9.05    0.91
   3  47  27   43.72    1.10
   3  47  29   74.88    1.29
   3  47  31    0.64    0.94
   3  49   5   69.56    1.17
   3  49   7   11.01    0.82
   3  49   9   10.07    0.83
   3  49  11   35.35    0.95
   3  49  13   13.63    0.85
   3  49  15   22.58    0.93
   3  49  17   20.64    0.93
   3  49  19    3.02    0.84
   3  49  21    0.29    0.88
   3  49  23   80.84    1.33
   3  49  25   13.14    0.98
   3  49  27  183.05    2.04
   3  51   5   56.20    1.16
   3  51   7   11.70    0.88
   3  51   9    0.28    0.80
   3  51  11   15.07    0.87
   3  51  13    1.25    0.82
   3  51  15    0.18    0.86
   3  51  17   26.82    1.03
   3  51  19    6.06    0.93
   3  51  21   57.97    1.24
   3  51  23   27.46    1.10
   3  53   5   37.76    1.02
   3  53   7   18.40    0.93
   3  53   9    0.10    0.84
   3  53  11   73.99    1.22
   3  53  13    0.10    0.85
   3  53  15    0.92    0.90
   3  53  17   11.42    0.95
   3  53  19    1.66    0.89
   3  55   5   30.35    1.00
   3  55   7    5.41    0.87
   3  55   9   12.76    0.92
   3  55  11   53.81    1.14
   3  55  13    5.22    1.02
   4   4   4 2858.66   19.23
   4   6   4 2144.47   40.72
   4   6   6   91.87    3.47
   4   8   4 1448.16   12.40
   4   8   6    1.90    0.38
   4   8   8  330.58    1.05
   4  10   4   90.06    1.39
   4  10   6  176.13    1.08
   4  10   8   96.21    0.44
   4  10  10  187.26    1.14
   4  12   4   25.54    0.40
   4  12   6   19.21    0.20
   4  12   8  265.88    1.12
   4  12  10   27.82    0.21
   4  12  12  142.99    1.01
   4  14   4 2132.72    8.45
   4  14   6  160.08    0.63
   4  14   8  101.71    0.60
   4  14  10    0.77    0.26
   4  14  12   85.86    0.55
   4  14  14    7.20    0.33
   4  16   4  418.62    1.55
   4  16   6  118.82    0.62
   4  16   8  336.63    1.33
   4  16  10    7.49    0.25
   4  16  12  410.76    1.28
   4  16  14  326.37    1.30
   4  16  16  490.37    2.49
   4  18   4    0.10    0.33
   4  18   6    5.99    0.23
   4  18   8  131.74    0.84
   4  18  10   25.96    0.29
   4  18  12    1.42    0.28
   4  18  14    0.25    0.23
   4  18  16   20.31    0.37
   4  18  18    0.11    0.36
   4  20   4  828.19    4.06
   4  20   6  537.28    2.05
   4  20   8  805.54    3.06
   4  20  10   60.86    0.61
   4  20  12   52.09    0.63
   4  20  14  408.54    1.49
   4  20  16  141.28    0.68
   4  20  18  110.50    0.67
   4  20  20  580.19    3.85
   4  22   4  277.04    4.01
   4  22   6    4.21    0.34
   4  22   8   75.44    0.70
   4  22  10    7.32    0.22
   4  22  12   51.80    0.71
   4  22  14    9.83    0.27
   4  22  16   16.54    0.50
   4  22  18   49.90    0.42
   4  22  20  313.24    1.91
   4  22  22  121.67    1.61
   4  24   4   72.39    0.90
   4  24   6   73.01    0.69
   4  24   8  365.45    1.66
   4  24  10  127.77    0.89
   4  24  12    1.83    0.35
   4  24  14  176.95    0.83
   4  24  16  283.88    1.22
   4  24  18  159.32    0.92
   4  24  20   95.65    0.77
   4  24  22  208.10    1.35
   4  24  24  324.25    2.41
   4  26   4   64.13    0.63
   4  26   6   54.31    0.43
   4  26   8   83.55    0.67
   4  26  10   16.89    0.37
   4  26  12   81.58    0.61
   4  26  14    1.04    0.32
   4  26  16   13.57    0.39
   4  26  18   17.89    0.38
   4  26  20  114.91    0.90
   4  26  22  116.44    0.81
   4  26  24    9.07    0.45
   4  26  26   23.08    0.81
   4  28   4   48.83    0.53
   4  28   6  336.18    1.79
   4  28   8   10.02    0.38
   4  28  10   16.29    0.48
   4  28  12  345.86    1.28
   4  28  14  403.57    1.54
   4  28  16  348.33    1.42
   4  28  18   21.79    0.50
   4  28  20    0.07    0.40
   4  28  22   43.49    0.77
   4  28  24   24.18    0.54
   4  28  26    5.41    0.54
   4  28  28  169.42    2.01
   4  30   4  270.80    1.47
   4  30   6    7.45    0.35
   4  30   8  185.30    0.92
   4  30  10    6.78    0.45
   4  30  12   13.48    0.37
   4  30  14    0.05    0.42
   4  30  16   87.44    0.56
   4  30  18    0.66    0.43
   4  30  20  160.61    0.93
   4  30  22    7.08    0.48
   4  30  24  211.58    1.29
   4  30  26    0.17    0.59
   4  30  28  123.61    1.23
   4  30  30    0.48    0.96
   4  32   4   52.62    0.61
   4  32   6   50.07    0.67
   4  32   8    0.02    0.39
   4  32  10    0.11    0.40
   4  32  12   99.23    0.80
   4  32  14  106.49    0.82
   4  32  16  329.17    1.53
   4  32  18   11.72    0.53
   4  32  20    0.71    0.51
   4  32  22   92.11    1.25
   4  32  24   20.20    0.66
   4  32  26   14.45    0.71
   4  32  28  172.55    1.51
   4  32  30   32.27    0.87
   4  32  32  121.84    2.51
   4  34   4    0.98    0.65
   4  34   6   13.23    0.44
   4  34   8    0.62    0.42
   4  34  10    9.23    0.47
   4  34  12    7.29    0.47
   4  34  14   38.70    0.66
   4  34  16    3.16    0.50
   4  34  18   13.06    0.60
   4  34  20    0.13    0.53
   4  34  22    1.05    0.60
   4  34  24    2.00    0.63
   4  34  26    3.74    0.68
   4  34  28    6.36    0.69
   4  34  30   29.24    0.91
   4  34  32    1.94    0.75
   4  34  34   13.93    1.19
   4  36   4  104.75    1.79
   4  36   6    2.95    0.50
   4  36   8  188.34    1.42
   4  36  10    6.71    0.57
   4  36  12   42.88    0.79
   4  36  14   13.65    0.57
   4  36  16    2.75    0.53
   4  36  18   29.21    0.69
   4  36  20  142.30    1.32
   4  36  22   27.39    0.79
   4  36  24   78.72    1.18
   4  36  26   38.45    0.91
   4  36  28    1.28    0.71
   4  36  30   17.91    0.82
   4  36  32   16.08    0.81
   4  36  34    0.37    0.76
   4  36  36   70.38    1.75
   4  38   4   91.14    1.87
   4  38   6    0.31    0.60
   4  38   8   19.12    0.68
   4  38  10    7.07    0.60
   4  38  12    0.37    0.58
   4  38  14    9.77    0.61
   4  38  16   20.24    0.69
   4  38  18    6.68    0.64
   4  38  20   45.40    0.87
   4  38  22    1.24    0.69
   4  38  24   28.49    0.88
   4  38  26    0.30    0.71
   4  38  28   18.62    0.85
   4  38  30    0.30    0.76
   4  38  32   21.45    0.91
   4  38  34    1.52    0.79
   4  38  36    0.04    0.81
   4  38  38    8.02    1.19
   4  40   4    0.36    0.91
   4  40   6   47.44    0.97
   4  40   8    2.44    0.65
   4  40  10    3.32    0.65
   4  40  12   57.55    0.90
   4  40  14   66.84    0.93
   4  40  16   27.18    0.73
   4  40  18    7.54    0.73
   4  40  20    0.01    0.70
   4  40  22    0.01    0.71
   4  40  24    0.17    0.72
   4  40  26    0.58    0.72
   4  40  28   11.59    0.80
   4  40  30   43.74    0.98
   4  40  32   16.36    0.88
   4  40  34    4.99    0.80
   4  40  36    0.85    0.83
   4  40  38    3.43    0.86
   4  40  40    3.39    1.30
   4  42   4  127.80    1.80
   4  42   6   10.86    0.73
   4  42   8  121.97    1.37
   4  42  10    0.23    0.72
   4  42  12   30.44    0.82
   4  42  14    6.25    0.73
   4  42  16    0.01    0.69
   4  42  18    4.75    0.72
   4  42  20  147.53    1.55
   4  42  22   32.76    0.82
   4  42  24   48.21    0.96
   4  42  26   32.35    0.92
   4  42  28    0.60    0.78
   4  42  30    0.44    0.80
   4  42  32   33.84    1.00
   4  42  34    1.36    0.87
   4  42  36   46.02    1.09
   4  42  38    1.36    1.19
   4  44   4   94.49    1.74
   4  44   6   10.44    0.75
   4  44   8    6.81    0.80
   4  44  10    3.97    0.75
   4  44  12   74.06    1.19
   4  44  14   40.97    0.98
   4  44  16  166.54    1.64
   4  44  18    3.31    0.74
   4  44  20   17.72    0.87
   4  44  22   47.83    1.08
   4  44  24   19.52    0.88
   4  44  26    0.12    0.77
   4  44  28  120.16    1.64
   4  44  30   14.59    0.88
   4  44  32   81.39    1.38
   4  44  34    0.18    0.87
   4  46   4   67.48    1.37
   4  46   6   11.51    0.80
   4  46   8   37.92    0.93
   4  46  10    0.90    0.75
   4  46  12    0.17    0.76
   4  46  14   14.52    0.84
   4  46  16   31.57    0.95
   4  46  18   10.31    0.85
   4  46  20   26.47    0.95
   4  46  22    9.58    0.90
   4  46  24   33.33    1.00
   4  46  26    5.81    0.86
   4  46  28   48.39    1.08
   4  46  30   13.11    0.95
   4  46  32    1.01    0.88
   4  48   4    0.96    1.10
   4  48   6   41.01    1.03
   4  48   8   12.34    0.86
   4  48  10    1.08    0.79
   4  48  12   13.21    0.82
   4  48  14   41.31    0.95
   4  48  16   67.77    1.08
   4  48  18    6.78    0.84
   4  48  20    4.90    0.85
   4  48  22   42.58    1.24
   4  48  24    0.38    0.88
   4  48  26    2.95    0.89
   4  48  28   35.31    1.07
   4  48  30   16.37    1.29
   4  50   4   24.65    1.34
   4  50   6    2.21    0.79
   4  50   8    5.86    0.80
   4  50  10   11.74    0.82
   4  50  12    5.87    0.83
   4  50  14    9.80    0.89
   4  50  16   54.88    1.16
   4  50  18    8.35    0.87
   4  50  20    0.07    0.87
   4  50  22   26.75    0.98
   4  50  24    2.62    0.92
   4  50  26    2.05    0.97
   4  52   4   20.93    1.36
   4  52   6   13.50    0.90
   4  52   8   67.56    1.15
   4  52  10   16.93    0.90
   4  52  12    6.16    0.86
   4  52  14   32.52    1.04
   4  52  16    2.23    0.87
   4  52  18    3.33    0.94
   4  52  20   16.84    1.03
   4  52  22    5.47    1.11
   4  54   4    0.86    1.27
   4  54   6    8.94    0.85
   4  54   8    7.77    0.86
   4  54  10    3.84    0.89
   4  54  12    0.80    0.85
   4  54  14    5.87    0.97
   4  54  16   19.26    1.06
   4  56   4   26.48    1.41
   4  56   6   15.73    0.98
   4  56   8    1.01    0.90
   5   9   7   22.84    0.31
   5  11   7   12.66    0.22
   5  11   9   41.93    0.26
   5  13   7   21.28    0.29
   5  13   9    6.27    0.26
   5  13  11  139.85    0.58
   5  15   7    7.41    0.28
   5  15   9  113.98    0.70
   5  15  11    0.04    0.23
   5  15  13   24.68    0.29
   5  17   7   10.90    0.24
   5  17   9   20.63    0.31
   5  17  11    0.10    0.22
   5  17  13   12.13    0.30
   5  17  15    5.29    0.25
   5  19   7    2.58    0.24
   5  19   9   68.83    0.54
   5  19  11   86.38    0.57
   5  19  13   77.70    0.54
   5  19  15    1.92    0.27
   5  19  17    0.39    0.27
   5  21   7   11.00    0.32
   5  21   9    5.30    0.28
   5  21  11    2.37    0.24
   5  21  13   25.35    0.41
   5  21  15   71.44    0.58
   5  21  17   17.78    0.39
   5  21  19  173.65    0.93
   5  23   7    4.24    0.30
   5  23   9    5.12    0.29
   5  23  11    6.83    0.31
   5  23  13  125.50    0.80
   5  23  15    0.05    0.29
   5  23  17   14.69    0.35
   5  23  19  147.58    0.86
   5  23  21   24.23    0.44
   5  25   7    7.85    0.32
   5  25   9    3.64    0.30
   5  25  11    2.46    0.32
   5  25  13   14.56    0.36
   5  25  15   62.31    0.59
   5  25  17    8.88    0.35
   5  25  19  147.12    0.85
   5  25  21   46.06    0.53
   5  25  23  114.90    0.90
   5  27   7   27.01    0.43
   5  27   9   11.78    0.40
   5  27  11    0.08    0.33
   5  27  13   59.92    0.59
   5  27  15    0.31    0.36
   5  27  17    3.22    0.39
   5  27  19   47.98    0.62
   5  27  21    8.42    0.42
   5  27  23   29.55    0.52
   5  27  25   70.27    0.80
   5  29   7   15.90    0.42
   5  29   9    6.92    0.39
   5  29  11    0.09    0.36
   5  29  13   10.47    0.42
   5  29  15    1.08    0.39
   5  29  17    7.78    0.45
   5  29  19   57.27    0.66
   5  29  21    1.84    0.43
   5  29  23  111.37    1.02
   5  29  25    0.79    0.52
   5  29  27   65.86    1.01
   5  31   7    0.46    0.37
   5  31   9   79.46    0.69
   5  31  11   33.17    0.52
   5  31  13   22.09    0.48
   5  31  15    0.74    0.41
   5  31  17    1.67    0.43
   5  31  19    9.27    0.47
   5  31  21  104.52    1.02
   5  31  23   24.86    0.64
   5  31  25  118.88    1.12
   5  31  27    0.99    0.63
   5  31  29   21.19    0.75
   5  33   7   28.74    0.49
   5  33   9   22.86    0.49
   5  33  11    1.91    0.42
   5  33  13    7.07    0.45
   5  33  15   19.97    0.53
   5  33  17    0.01    0.48
   5  33  19   26.01    0.60
   5  33  21   14.58    0.60
   5  33  23    6.32    0.61
   5  33  25   24.42    0.75
   5  33  27    0.07    0.65
   5  33  29    5.71    0.77
   5  33  31   13.53    0.79
   5  35   7    2.88    0.46
   5  35   9  119.24    1.01
   5  35  11   30.47    0.63
   5  35  13  104.22    1.03
   5  35  15    6.22    0.52
   5  35  17    8.91    0.57
   5  35  19   24.79    0.67
   5  35  21    9.89    0.64
   5  35  23   39.08    0.87
   5  35  25   47.56    0.94
   5  35  27   31.13    0.85
   5  35  29   49.63    1.00
   5  35  31    0.02    0.72
   5  35  33    3.33    0.79
   5  37   7   15.85    0.63
   5  37   9   50.37    0.79
   5  37  11   20.95    0.65
   5  37  13   28.78    0.65
   5  37  15   94.44    1.05
   5  37  17    4.71    0.57
   5  37  19   88.97    1.11
   5  37  21    0.92    0.64
   5  37  23    1.53    0.65
   5  37  25    2.51    0.70
   5  37  27    0.35    0.72
   5  37  29    0.00    0.75
   5  37  31   18.85    0.88
   5  37  33    2.91    0.79
   5  37  35   73.86    1.21
   5  39   7   13.62    0.66
   5  39   9   86.33    1.09
   5  39  11   15.43    0.69
   5  39  13  107.06    1.13
   5  39  15   16.64    0.71
   5  39  17    1.13    0.66
   5  39  19   40.50    0.88
   5  39  21    0.16    0.66
   5  39  23    4.44    0.72
   5  39  25    0.81    0.71
   5  39  27    0.00    0.71
   5  39  29    0.07    0.75
   5  39  31    7.30    0.82
   5  39  33    1.39    0.80
   5  39  35   29.38    0.98
   5  39  37   72.52    1.22
   5  41   7   30.54    0.82
   5  41   9   13.88    0.74
   5  41  11   50.20    0.88
   5  41  13   23.89    0.78
   5  41  15   40.04    0.85
   5  41  17    2.53    0.71
   5  41  19   43.89    0.91
   5  41  21    3.69    0.73
   5  41  23   45.47    0.99
   5  41  25    1.38    0.72
   5  41  27    3.22    0.76
   5  41  29    1.70    0.80
   5  41  31   26.57    0.96
   5  41  33    2.56    0.81
   5  41  35  127.84    1.62
   5  41  37    1.56    0.82
   5  41  39   76.24    3.07
   5  43   7   10.03    0.73
   5  43   9   13.05    0.76
   5  43  11    0.07    0.68
   5  43  13   67.08    1.08
   5  43  15    2.79    0.72
   5  43  17    1.20    0.75
   5  43  19   15.29    0.78
   5  43  21   14.90    0.83
   5  43  23    1.81    0.76
   5  43  25   38.09    0.98
   5  43  27    0.90    0.77
   5  43  29    5.33    0.81
   5  43  31   25.23    1.02
   5  43  33    4.36    0.89
   5  43  35    2.83    0.89
   5  45   7    6.89    0.75
   5  45   9    0.19    0.71
   5  45  11    1.70    0.72
   5  45  13   19.71    0.83
   5  45  15    7.68    0.76
   5  45  17    0.47    0.74
   5  45  19   59.55    1.06
   5  45  21    1.91    0.81
   5  45  23    1.17    0.83
   5  45  25   18.68    0.92
   5  45  27    8.04    0.86
   5  45  29   10.08    0.86
   5  45  31   65.66    1.36
   5  45  33    5.81    0.89
   5  47   7    0.04    0.75
   5  47   9   12.97    0.81
   5  47  11   39.81    0.96
   5  47  13   29.61    0.93
   5  47  15    0.37    0.78
   5  47  17    0.50    0.81
   5  47  19   35.17    1.00
   5  47  21    3.80    0.88
   5  47  23   24.13    0.94
   5  47  25  151.38    1.75
   5  47  27    7.05    0.93
   5  47  29   91.74    1.48
   5  47  31   10.32    0.97
   5  49   7    5.81    0.82
   5  49   9    9.58    0.85
   5  49  11   19.22    0.89
   5  49  13    8.97    0.82
   5  49  15    2.71    0.81
   5  49  17    0.08    0.82
   5  49  19   40.43    1.10
   5  49  21    0.22    0.83
   5  49  23    3.00    0.90
   5  49  25   42.66    1.17
   5  49  27    5.45    0.94
   5  51   7    7.53    0.84
   5  51   9   31.36    0.95
   5  51  11   14.40    0.89
   5  51  13   21.47    0.91
   5  51  15    0.02    0.85
   5  51  17    0.10    0.85
   5  51  19   10.98    0.93
   5  51  21   11.67    1.00
   5  51  23    3.05    0.91
   5  53   7   16.81    0.91
   5  53   9   20.34    0.94
   5  53  11    2.39    0.92
   5  53  13    6.35    0.87
   5  53  15   11.94    0.95
   5  53  17   11.99    0.94
   5  53  19   41.88    1.37
   5  55   7    9.32    0.90
   5  55   9   24.12    0.98
   5  55  11    3.89    0.91
   5  55  13   26.05    1.27
   6   6   6 7046.90  241.93
   6   8   6 2378.40   19.86
   6   8   8  778.12    4.71
   6  10   6 1860.92    9.61
   6  10   8   29.00    0.21
   6  10  10 1536.74    8.08
   6  12   6  129.04    0.59
   6  12   8  867.26    2.07
   6  12  10    7.58    0.24
   6  12  12  878.64    3.89
   6  14   6    4.38    0.35
   6  14   8   12.18    0.22
   6  14  10    0.42    0.22
   6  14  12  341.62    1.27
   6  14  14  190.50    0.88
   6  16   6  362.97    1.83
   6  16   8  218.12    0.78
   6  16  10  531.66    2.29
   6  16  12  254.63    1.16
   6  16  14   34.53    0.28
   6  16  16   25.22    0.39
   6  18   6  879.98    6.29
   6  18   8  481.13    2.88
   6  18  10  294.46    1.55
   6  18  12    5.13    0.24
   6  18  14   70.22    0.50
   6  18  16  587.08    2.04
   6  18  18    2.81    0.39
   6  20   6   67.86    1.02
   6  20   8   73.47    0.38
   6  20  10  113.53    0.75
   6  20  12   37.20    0.48
   6  20  14   61.07    0.54
   6  20  16  276.11    1.23
   6  20  18  130.95    0.77
   6  20  20  192.41    1.32
   6  22   6 1132.09    5.86
   6  22   8  253.79    1.25
   6  22  10  600.43    2.15
   6  22  12    7.91    0.41
   6  22  14    5.76    0.28
   6  22  16  404.35    1.92
   6  22  18  553.28    2.24
   6  22  20   40.37    0.49
   6  22  22  352.14    1.73
   6  24   6    8.00    0.44
   6  24   8  156.24    0.77
   6  24  10    2.62    0.30
   6  24  12   59.00    0.52
   6  24  14    1.89    0.33
   6  24  16  178.65    0.91
   6  24  18   61.28    0.67
   6  24  20    0.27    0.36
   6  24  22   34.81    0.43
   6  24  24   57.34    0.93
   6  26   6   65.36    0.96
   6  26   8   48.76    0.66
   6  26  10   22.22    0.49
   6  26  12    0.93    0.32
   6  26  14   55.00    0.47
   6  26  16  315.03    1.29
   6  26  18  117.73    0.65
   6  26  20   87.07    0.91
   6  26  22  430.08    2.14
   6  26  24   20.06    0.58
   6  26  26    4.06    0.88
   6  28   6  443.36    2.69
   6  28   8   34.36    0.45
   6  28  10   57.26    0.65
   6  28  12    1.85    0.34
   6  28  14    3.90    0.36
   6  28  16   34.63    0.48
   6  28  18  261.33    1.28
   6  28  20  240.12    1.20
   6  28  22  182.73    1.19
   6  28  24  171.76    1.31
   6  28  26   61.30    0.80
   6  28  28    1.06    0.81
   6  30   6   91.60    0.98
   6  30   8  198.40    1.12
   6  30  10   19.58    0.50
   6  30  12  199.51    1.27
   6  30  14  474.78    2.39
   6  30  16   10.70    0.49
   6  30  18   31.08    0.57
   6  30  20   39.43    0.58
   6  30  22   17.81    0.52
   6  30  24    4.98    0.55
   6  30  26   23.68    0.67
   6  30  28   10.60    0.65
   6  30  30  163.00    2.13
   6  32   6   50.01    0.67
   6  32   8   84.83    0.69
   6  32  10   51.65    0.56
   6  32  12   17.10    0.46
   6  32  14  107.55    0.84
   6  32  16   19.52    0.49
   6  32  18   43.50    0.63
   6  32  20   64.78    0.72
   6  32  22  110.54    1.22
   6  32  24   56.21    0.79
   6  32  26   37.17    0.73
   6  32  28    3.09    0.68
   6  32  30   11.77    0.76
   6  32  32    2.27    1.12
   6  34   6  240.32    2.04
   6  34   8    7.17    0.47
   6  34  10  176.16    1.19
   6  34  12   14.71    0.56
   6  34  14   18.99    0.54
   6  34  16  154.79    1.08
   6  34  18   46.72    0.91
   6  34  20   73.56    1.01
   6  34  22  190.58    1.57
   6  34  24   10.49    0.73
   6  34  26    1.02    0.67
   6  34  28   71.18    1.07
   6  34  30   24.01    0.91
   6  34  32   10.14    0.77
   6  34  34   60.92    1.67
   6  36   6  113.29    1.82
   6  36   8   95.94    0.99
   6  36  10    0.54    0.52
   6  36  12  189.75    1.29
   6  36  14    0.10    0.54
   6  36  16   56.20    0.86
   6  36  18  145.86    1.32
   6  36  20    1.41    0.62
   6  36  22   46.65    0.86
   6  36  24    1.35    0.65
   6  36  26   50.80    1.00
   6  36  28    7.37    0.76
   6  36  30   18.18    0.84
   6  36  32   18.64    0.81
   6  36  34   18.98    0.88
   6  36  36   39.16    1.45
   6  38   6  376.83    3.62
   6  38   8  157.20    1.38
   6  38  10  231.72    1.66
   6  38  12   15.19    0.66
   6  38  14   59.17    0.89
   6  38  16    0.02    0.61
   6  38  18   95.22    1.19
   6  38  20    0.03    0.60
   6  38  22   36.78    0.87
   6  38  24    2.15    0.67
   6  38  26   18.00    0.85
   6  38  28    4.88    0.73
   6  38  30    1.88    0.79
   6  38  32   20.23    0.85
   6  38  34   39.67    1.03
   6  38  36    4.40    0.84
   6  38  38  114.65    2.30
   6  40   6  130.44    1.83
   6  40   8   74.70    1.05
   6  40  10   35.91    0.81
   6  40  12   44.86    0.84
   6  40  14   10.90    0.70
   6  40  16    0.20    0.65
   6  40  18   39.46    0.85
   6  40  20   54.39    0.98
   6  40  22   16.05    0.80
   6  40  24   11.28    0.75
   6  40  26    1.48    0.71
   6  40  28    3.85    0.76
   6  40  30    0.83    0.77
   6  40  32    9.23    0.82
   6  40  34   20.32    0.91
   6  40  36   45.72    1.36
   6  40  38    0.05    0.86
   6  42   6    0.80    0.94
   6  42   8   52.18    1.02
   6  42  10    4.41    0.71
   6  42  12    0.58    0.73
   6  42  14   37.26    0.85
   6  42  16   69.31    1.03
   6  42  18   78.68    1.09
   6  42  20   34.17    0.91
   6  42  22   31.91    0.89
   6  42  24   17.44    0.85
   6  42  26   52.66    0.97
   6  42  28   16.74    0.86
   6  42  30   58.10    1.13
   6  42  32    2.04    0.84
   6  42  34    0.37    0.88
   6  42  36   27.19    0.98
   6  44   6  154.67    1.92
   6  44   8   37.82    0.84
   6  44  10   59.68    0.98
   6  44  12    0.03    0.74
   6  44  14   17.87    0.77
   6  44  16    2.73    0.72
   6  44  18   64.27    1.02
   6  44  20   27.77    0.85
   6  44  22  147.00    1.58
   6  44  24   11.55    0.84
   6  44  26   33.96    0.93
   6  44  28    0.00    0.80
   6  44  30   23.29    0.97
   6  44  32    0.94    0.85
   6  44  34   23.12    0.99
   6  46   6    1.19    1.00
   6  46   8   17.63    0.81
   6  46  10    5.23    0.78
   6  46  12   11.18    0.80
   6  46  14  129.99    1.48
   6  46  16   24.70    0.90
   6  46  18    0.18    0.77
   6  46  20   22.62    0.95
   6  46  22    0.18    0.98
   6  46  24   40.90    1.08
   6  46  26    2.29    0.88
   6  46  28    6.62    0.88
   6  46  30   67.48    1.32
   6  46  32   14.01    0.96
   6  48   6   24.22    1.30
   6  48   8    6.23    0.82
   6  48  10    9.87    0.85
   6  48  12    2.15    0.76
   6  48  14    8.62    0.84
   6  48  16    5.23    0.84
   6  48  18    0.06    0.82
   6  48  20    4.95    0.89
   6  48  22   21.49    1.01
   6  48  24   13.69    0.94
   6  48  26    7.88    0.92
   6  48  28   19.19    1.00
   6  50   6  105.94    2.11
   6  50   8   47.28    1.08
   6  50  10   30.44    0.98
   6  50  12    0.26    0.77
   6  50  14    0.02    0.76
   6  50  16   18.11    0.93
   6  50  18    5.14    0.87
   6  50  20   21.81    1.02
   6  50  22  116.90    1.67
   6  50  24    9.56    0.94
   6  50  26    4.03    1.12
   6  52   6    0.13    1.15
   6  52   8   30.19    1.12
   6  52  10    1.75    0.80
   6  52  12    3.95    0.82
   6  52  14   62.41    1.21
   6  52  16   13.90    0.98
   6  52  18    6.71    0.94
   6  52  20   30.28    1.10
   6  52  22    2.35    1.39
   6  54   6   51.14    1.60
   6  54   8   54.17    1.14
   6  54  10   26.37    0.97
   6  54  12    4.19    0.87
   6  54  14    8.81    0.92
   6  54  16    1.73    1.14
   6  56   6  158.05    2.66
   7  11   9    2.34    0.24
   7  13   9   17.73    0.27
   7  13  11   67.51    0.47
   7  15   9    0.14    0.21
   7  15  11    0.47    0.24
   7  15  13    0.61    0.23
   7  17   9   83.12    0.62
   7  17  11   88.27    0.54
   7  17  13  141.85    0.74
   7  17  15    2.74    0.27
   7  19   9   18.99    0.33
   7  19  11    7.36    0.31
   7  19  13   71.60    0.56
   7  19  15    2.10    0.28
   7  19  17   14.53    0.36
   7  21   9    1.20    0.28
   7  21  11    2.61    0.30
   7  21  13    4.94    0.29
   7  21  15    0.59    0.29
   7  21  17   11.99    0.32
   7  21  19   16.74    0.41
   7  23   9    0.74    0.30
   7  23  11   18.79    0.35
   7  23  13    9.81    0.36
   7  23  15    2.53    0.31
   7  23  17   41.66    0.48
   7  23  19   43.10    0.52
   7  23  21   29.15    0.50
   7  25   9   10.78    0.36
   7  25  11    3.20    0.32
   7  25  13    9.35    0.35
   7  25  15    6.17    0.34
   7  25  17   47.37    0.53
   7  25  19   82.31    0.69
   7  25  21   70.22    0.72
   7  25  23    7.11    0.40
   7  27   9   21.59    0.42
   7  27  11    0.04    0.34
   7  27  13    4.91    0.35
   7  27  15    1.74    0.36
   7  27  17    6.38    0.38
   7  27  19    7.49    0.41
   7  27  21   19.47    0.50
   7  27  23    0.01    0.43
   7  27  25   10.72    0.54
   7  29   9    6.94    0.39
   7  29  11    8.11    0.39
   7  29  13   55.62    0.63
   7  29  15    2.77    0.38
   7  29  17    5.71    0.43
   7  29  19   19.64    0.51
   7  29  21   17.60    0.52
   7  29  23    5.63    0.52
   7  29  25    2.82    0.56
   7  29  27    2.55    0.58
   7  31   9   25.13    0.48
   7  31  11    0.42    0.42
   7  31  13    2.85    0.41
   7  31  15    6.48    0.45
   7  31  17    3.07    0.44
   7  31  19    2.19    0.51
   7  31  21    6.46    0.51
   7  31  23   17.53    0.61
   7  31  25    2.30    0.59
   7  31  27    4.36    0.62
   7  31  29    0.03    0.66
   7  33   9  142.86    0.97
   7  33  11   46.66    0.61
   7  33  13    9.77    0.48
   7  33  15    9.36    0.55
   7  33  17   15.84    0.56
   7  33  19    6.09    0.52
   7  33  21   25.72    0.65
   7  33  23   45.34    0.85
   7  33  25   63.13    0.94
   7  33  27   19.20    0.78
   7  33  29    1.86    0.71
   7  33  31    2.58    0.74
   7  35   9  101.66    0.98
   7  35  11   59.14    0.82
   7  35  13    4.21    0.52
   7  35  15    1.37    0.52
   7  35  17   42.47    0.69
   7  35  19   15.42    0.66
   7  35  21   14.34    0.65
   7  35  23    7.25    0.67
   7  35  25   43.63    0.86
   7  35  27    7.29    0.70
   7  35  29    0.41    0.71
   7  35  31    7.91    0.77
   7  35  33    1.51    0.73
   7  37   9   17.18    0.61
   7  37  11   56.77    0.79
   7  37  13    1.91    0.56
   7  37  15    2.08    0.56
   7  37  17   60.79    0.91
   7  37  19   20.55    0.71
   7  37  21    0.59    0.66
   7  37  23    0.01    0.67
   7  37  25   10.79    0.75
   7  37  27    1.38    0.72
   7  37  29    0.19    0.74
   7  37  31    0.66    0.78
   7  37  33   24.17    0.90
   7  37  35   10.27    0.85
   7  39   9   21.22    0.70
   7  39  11   16.11    0.68
   7  39  13    0.38    0.63
   7  39  15    6.15    0.66
   7  39  17   27.12    0.78
   7  39  19   19.15    0.74
   7  39  21   18.82    0.76
   7  39  23   15.92    0.77
   7  39  25    2.57    0.71
   7  39  27    1.71    0.72
   7  39  29    0.03    0.75
   7  39  31    1.05    0.78
   7  39  33    9.86    0.86
   7  39  35    1.31    0.81
   7  39  37   23.33    0.98
   7  41   9   17.71    0.74
   7  41  11   19.55    0.76
   7  41  13   12.27    0.71
   7  41  15    1.38    0.70
   7  41  17   16.79    0.81
   7  41  19   24.28    0.81
   7  41  21   20.51    0.84
   7  41  23    1.32    0.75
   7  41  25    2.35    0.74
   7  41  27    0.23    0.78
   7  41  29    0.63    0.80
   7  41  31   38.12    0.99
   7  41  33   53.99    1.13
   7  41  35    1.07    0.85
   7  41  37    2.63    0.91
   7  43   9    3.44    0.71
   7  43  11    1.94    0.68
   7  43  13    3.90    0.73
   7  43  15    0.96    0.70
   7  43  17    0.97    0.73
   7  43  19    2.61    0.72
   7  43  21    8.57    0.82
   7  43  23   11.02    0.82
   7  43  25    4.36    0.81
   7  43  27    2.46    0.82
   7  43  29    0.22    0.82
   7  43  31   11.02    0.92
   7  43  33   26.18    0.99
   7  43  35    6.05    0.93
   7  45   9    6.94    0.73
   7  45  11    7.78    0.74
   7  45  13   21.40    0.86
   7  45  15    1.08    0.74
   7  45  17    3.68    0.79
   7  45  19   21.86    0.92
   7  45  21   11.82    0.86
   7  45  23   22.82    0.90
   7  45  25   24.80    0.95
   7  45  27   22.21    1.00
   7  45  29    0.55    0.89
   7  45  31    2.00    0.90
   7  45  33    4.32    0.91
   7  47   9    9.02    0.81
   7  47  11    0.90    0.78
   7  47  13   14.15    0.85
   7  47  15    0.50    0.76
   7  47  17    0.36    0.78
   7  47  19   11.43    0.86
   7  47  21    6.90    0.87
   7  47  23   11.36    0.92
   7  47  25   14.96    0.92
   7  47  27   34.45    1.04
   7  47  29    1.41    0.92
   7  47  31    2.23    1.06
   7  49   9   14.96    0.85
   7  49  11   13.86    0.84
   7  49  13   32.04    0.97
   7  49  15    0.01    0.76
   7  49  17    4.35    0.86
   7  49  19    7.05    0.92
   7  49  21    0.63    0.87
   7  49  23   10.23    0.95
   7  49  25   10.94    0.93
   7  49  27   31.43    1.07
   7  51   9    3.49    0.84
   7  51  11   14.61    0.85
   7  51  13   22.38    0.90
   7  51  15    0.16    0.84
   7  51  17    8.25    0.91
   7  51  19    5.57    0.91
   7  51  21    1.11    0.91
   7  51  23    1.56    0.91
   7  53   9    0.65    0.82
   7  53  11    3.90    0.84
   7  53  13    0.73    0.86
   7  53  15    0.33    0.86
   7  53  17    9.85    0.96
   7  53  19    2.58    1.23
   7  55   9    0.08    0.84
   7  55  11    0.42    0.88
   8   8   8 8955.41  101.88
   8  10   8  383.63    1.01
   8  10  10 1265.90    4.24
   8  12   8   14.78    0.36
   8  12  10  255.36    0.93
   8  12  12  182.59    1.02
   8  14   8 1299.33    6.52
   8  14  10 1288.58    4.96
   8  14  12  312.85    1.45
   8  14  14  348.15    2.83
   8  16   8  148.50    0.83
   8  16  10  257.66    1.01
   8  16  12   43.07    0.54
   8  16  14  476.24    2.13
   8  16  16 1497.19    8.37
   8  18   8    0.71    0.42
   8  18  10    5.79    0.29
   8  18  12   30.02    0.46
   8  18  14   60.33    0.59
   8  18  16   36.71    0.54
   8  18  18  126.35    1.45
   8  20   8 1241.54    6.47
   8  20  10  122.75    0.73
   8  20  12  113.07    0.68
   8  20  14  207.98    1.08
   8  20  16   33.60    0.37
   8  20  18   56.19    0.66
   8  20  20  612.58    3.39
   8  22   8   21.82    0.49
   8  22  10   22.48    0.35
   8  22  12  188.39    1.01
   8  22  14   41.72    0.44
   8  22  16  313.49    1.46
   8  22  18  182.64    0.97
   8  22  20   74.82    0.69
   8  22  22    5.42    0.52
   8  24   8  185.40    1.08
   8  24  10    0.57    0.35
   8  24  12    4.36    0.32
   8  24  14  233.62    1.32
   8  24  16   24.48    0.39
   8  24  18    1.80    0.39
   8  24  20  251.71    1.13
   8  24  22   87.75    0.69
   8  24  24  173.54    1.47
   8  26   8   32.47    0.87
   8  26  10    4.21    0.42
   8  26  12    0.21    0.35
   8  26  14   25.62    0.59
   8  26  16   31.43    0.64
   8  26  18   11.27    0.58
   8  26  20   16.91    0.55
   8  26  22   95.99    0.88
   8  26  24   12.30    0.52
   8  26  26  154.56    1.96
   8  28   8   10.21    0.57
   8  28  10    5.53    0.36
   8  28  12    9.14    0.39
   8  28  14   37.06    0.47
   8  28  16  619.41    2.50
   8  28  18   19.86    0.51
   8  28  20   47.58    0.58
   8  28  22   93.60    0.86
   8  28  24   56.62    0.76
   8  28  26   31.74    0.78
   8  28  28   87.38    1.65
   8  30   8  277.71    2.01
   8  30  10   32.68    0.45
   8  30  12   32.08    0.45
   8  30  14   49.12    0.67
   8  30  16  204.14    1.08
   8  30  18   91.54    0.83
   8  30  20  263.90    1.50
   8  30  22  213.08    1.29
   8  30  24  112.94    1.07
   8  30  26   37.74    0.79
   8  30  28   16.21    0.66
   8  30  30   23.26    1.07
   8  32   8  167.26    1.25
   8  32  10   18.69    0.41
   8  32  12  205.73    1.32
   8  32  14  120.44    0.99
   8  32  16  109.61    0.96
   8  32  18    0.00    0.48
   8  32  20   32.95    0.58
   8  32  22   39.85    0.68
   8  32  24    8.68    0.61
   8  32  26    0.20    0.65
   8  32  28   47.88    0.96
   8  32  30   46.77    0.95
   8  32  32   19.02    1.23
   8  34   8   54.19    0.75
   8  34  10  136.94    1.04
   8  34  12  273.14    1.86
   8  34  14  227.60    1.63
   8  34  16   68.47    0.77
   8  34  18    1.84    0.53
   8  34  20    9.52    0.56
   8  34  22   29.40    0.76
   8  34  24    0.23    0.64
   8  34  26    0.09    0.67
   8  34  28    3.34    0.72
   8  34  30   39.08    0.95
   8  34  32    7.52    0.78
   8  34  34    4.77    1.12
   8  36   8  650.77    4.55
   8  36  10   20.00    0.62
   8  36  12   98.30    0.97
   8  36  14   92.54    0.97
   8  36  16  136.76    1.19
   8  36  18    0.05    0.56
   8  36  20  208.63    1.59
   8  36  22   20.14    0.75
   8  36  24   58.48    0.99
   8  36  26    0.80    0.68
   8  36  28   18.67    0.83
   8  36  30   84.79    1.21
   8  36  32    4.41    0.77
   8  36  34    3.91    0.85
   8  36  36  127.71    2.22
   8  38   8   22.41    0.94
   8  38  10  110.41    1.09
   8  38  12  130.35    1.21
   8  38  14   13.17    0.68
   8  38  16   17.58    0.71
   8  38  18   69.98    1.13
   8  38  20    6.31    0.68
   8  38  22    5.43    0.72
   8  38  24    5.98    0.71
   8  38  26    1.26    0.70
   8  38  28   14.76    0.83
   8  38  30    1.01    0.75
   8  38  32    4.83    0.79
   8  38  34   52.65    1.15
   8  38  36    8.70    0.87
   8  38  38   36.29    1.50
   8  40   8  126.38    1.87
   8  40  10   38.32    0.82
   8  40  12   99.41    1.21
   8  40  14   17.52    0.77
   8  40  16   55.40    0.92
   8  40  18    9.82    0.71
   8  40  20   30.59    0.87
   8  40  22   31.71    0.94
   8  40  24    4.79    0.73
   8  40  26   11.30    0.81
   8  40  28   55.28    1.06
   8  40  30   10.00    0.83
   8  40  32    1.98    0.83
   8  40  34    0.83    0.85
   8  40  36  109.68    1.53
   8  40  38   11.64    0.92
   8  42   8  113.05    1.83
   8  42  10   43.46    0.91
   8  42  12   22.26    0.81
   8  42  14    1.35    0.71
   8  42  16   34.52    0.91
   8  42  18   10.80    0.78
   8  42  20   92.33    1.24
   8  42  22   52.45    1.02
   8  42  24   46.10    1.07
   8  42  26    0.35    0.78
   8  42  28   27.22    0.90
   8  42  30    2.51    0.81
   8  42  32    8.46    0.92
   8  42  34    9.24    0.91
   8  42  36   19.08    0.96
   8  44   8    5.05    1.04
   8  44  10   12.75    0.76
   8  44  12   56.94    1.13
   8  44  14   26.63    0.91
   8  44  16  109.34    1.40
   8  44  18    1.02    0.77
   8  44  20    0.00    0.78
   8  44  22   49.88    1.07
   8  44  24    1.75    0.80
   8  44  26    1.04    0.84
   8  44  28   59.19    1.19
   8  44  30   28.08    1.02
   8  44  32   26.97    1.07
   8  44  34    7.17    0.91
   8  46   8   74.85    1.68
   8  46  10   26.39    0.87
   8  46  12  109.34    1.38
   8  46  14    1.45    0.80
   8  46  16    9.90    0.85
   8  46  18    7.43    0.85
   8  46  20   49.20    1.15
   8  46  22   23.71    0.93
   8  46  24   56.55    1.17
   8  46  26    9.33    0.91
   8  46  28    1.15    0.88
   8  46  30    1.49    0.90
   8  46  32    9.45    1.05
   8  48   8    7.66    1.13
   8  48  10    4.13    0.81
   8  48  12   28.08    0.89
   8  48  14   13.51    0.82
   8  48  16    2.44    0.84
   8  48  18    1.41    0.81
   8  48  20   16.88    1.02
   8  48  22   30.06    1.08
   8  48  24   25.19    1.02
   8  48  26    1.04    0.92
   8  48  28    1.46    0.95
   8  50   8    2.50    1.11
   8  50  10    0.01    0.78
   8  50  12    0.98    0.82
   8  50  14    0.66    0.78
   8  50  16   11.02    0.88
   8  50  18    0.01    0.89
   8  50  20    0.08    0.88
   8  50  22   37.77    1.14
   8  50  24    0.14    0.91
   8  52   8  144.30    2.25
   8  52  10   11.37    0.86
   8  52  12   13.07    0.87
   8  52  14   23.08    1.05
   8  52  16    0.00    0.83
   8  52  18    3.96    0.92
   8  52  20  104.22    1.54
   8  54   8   32.55    1.41
   8  54  10    6.36    0.90
   8  54  12   51.95    1.16
   8  54  14   24.92    1.03
   9  13  11   13.99    0.26
   9  15  11  207.20    1.09
   9  15  13   45.50    0.43
   9  17  11  101.69    0.63
   9  17  13    4.28    0.25
   9  17  15  128.29    0.78
   9  19  11   68.88    0.55
   9  19  13    1.70    0.25
   9  19  15  133.14    0.78
   9  19  17   46.57    0.49
   9  21  11    2.22    0.28
   9  21  13   14.22    0.34
   9  21  15   79.30    0.59
   9  21  17    2.58    0.30
   9  21  19   21.75    0.37
   9  23  11   11.10    0.37
   9  23  13    0.26    0.31
   9  23  15    3.68    0.34
   9  23  17   91.66    0.72
   9  23  19   21.35    0.41
   9  23  21    6.14    0.37
   9  25  11    0.17    0.33
   9  25  13   14.13    0.38
   9  25  15    0.15    0.34
   9  25  17   19.74    0.40
   9  25  19   16.96    0.41
   9  25  21    8.42    0.42
   9  25  23   28.06    0.52
   9  27  11    0.88    0.35
   9  27  13    0.07    0.36
   9  27  15    0.75    0.36
   9  27  17   35.20    0.49
   9  27  19   90.81    0.76
   9  27  21   93.47    0.81
   9  27  23    0.04    0.43
   9  27  25   11.37    0.56
   9  29  11   15.33    0.42
   9  29  13   24.45    0.45
   9  29  15    1.79    0.37
   9  29  17    0.64    0.40
   9  29  19    9.01    0.43
   9  29  21    0.58    0.48
   9  29  23   33.19    0.63
   9  29  25    5.29    0.61
   9  29  27   17.06    0.65
   9  31  11  113.57    0.82
   9  31  13    1.75    0.40
   9  31  15    4.87    0.42
   9  31  17   74.89    0.76
   9  31  19   10.24    0.51
   9  31  21   28.44    0.61
   9  31  23    8.99    0.58
   9  31  25    0.37    0.59
   9  31  27    9.05    0.67
   9  31  29    1.23    0.65
   9  33  11   96.97    0.85
   9  33  13    1.88    0.45
   9  33  15    9.50    0.51
   9  33  17   27.93    0.61
   9  33  19   30.29    0.63
   9  33  21    3.48    0.53
   9  33  23   79.77    1.01
   9  33  25   15.52    0.70
   9  33  27   42.17    0.89
   9  33  29   13.70    0.77
   9  33  31   40.43    0.91
   9  35  11   95.80    0.99
   9  35  13    0.35    0.50
   9  35  15    4.37    0.52
   9  35  17   90.66    0.98
   9  35  19    0.06    0.56
   9  35  21    4.01    0.64
   9  35  23   51.69    0.95
   9  35  25    2.97    0.71
   9  35  27   10.41    0.74
   9  35  29    0.06    0.69
   9  35  31    0.09    0.75
   9  35  33   27.72    0.91
   9  37  11   99.24    1.01
   9  37  13   27.33    0.65
   9  37  15    4.11    0.60
   9  37  17    6.67    0.63
   9  37  19    1.14    0.63
   9  37  21   31.34    0.79
   9  37  23    3.00    0.70
   9  37  25    0.97    0.68
   9  37  27    3.47    0.74
   9  37  29    2.94    0.75
   9  37  31    2.14    0.80
   9  37  33    1.08    0.77
   9  37  35   40.96    1.05
   9  39  11   38.10    0.79
   9  39  13    0.49    0.60
   9  39  15    6.23    0.66
   9  39  17   64.38    1.01
   9  39  19   63.23    1.05
   9  39  21   38.27    0.91
   9  39  23    9.23    0.76
   9  39  25    0.74    0.72
   9  39  27    0.85    0.74
   9  39  29   12.46    0.85
   9  39  31   46.99    1.06
   9  39  33  129.17    1.57
   9  39  35   33.93    1.01
   9  39  37   25.53    1.02
   9  41  11   19.19    0.76
   9  41  13    0.05    0.69
   9  41  15   19.99    0.78
   9  41  17    5.22    0.74
   9  41  19    7.42    0.74
   9  41  21    5.30    0.77
   9  41  23    7.53    0.82
   9  41  25    0.77    0.78
   9  41  27    1.75    0.77
   9  41  29    6.69    0.84
   9  41  31    0.16    0.83
   9  41  33   14.33    1.09
   9  41  35    0.13    0.83
   9  41  37    0.09    0.86
   9  43  11   23.18    0.82
   9  43  13    0.24    0.73
   9  43  15   22.05    0.81
   9  43  17   57.09    1.13
   9  43  19   51.02    0.98
   9  43  21   29.17    0.94
   9  43  23    0.80    0.80
   9  43  25   10.84    0.86
   9  43  27   29.44    0.97
   9  43  29   13.52    0.94
   9  43  31    5.64    0.97
   9  43  33   91.53    1.37
   9  43  35   25.60    1.02
   9  45  11   12.77    0.81
   9  45  13    4.92    0.74
   9  45  15   23.92    0.87
   9  45  17   23.69    0.88
   9  45  19    3.50    0.80
   9  45  21    0.35    0.83
   9  45  23    9.45    0.86
   9  45  25   18.28    0.92
   9  45  27   87.69    1.38
   9  45  29    0.46    0.89
   9  45  31   13.64    0.95
   9  45  33   19.09    1.08
   9  47  11   28.51    0.93
   9  47  13    0.30    0.76
   9  47  15   10.74    0.84
   9  47  17   68.60    1.21
   9  47  19    0.50    0.85
   9  47  21    6.55    0.87
   9  47  23    0.10    0.84
   9  47  25    0.18    0.86
   9  47  27   21.13    0.98
   9  47  29    8.97    0.99
   9  49  11   19.11    0.90
   9  49  13    3.45    0.80
   9  49  15   23.96    0.92
   9  49  17   11.59    0.90
   9  49  19    1.52    0.84
   9  49  21    1.01    0.88
   9  49  23   27.35    1.04
   9  49  25    6.18    0.95
   9  49  27   52.54    1.43
   9  51  11   10.34    0.87
   9  51  13    0.38    0.82
   9  51  15    5.05    0.89
   9  51  17    6.19    0.89
   9  51  19    2.46    0.94
   9  51  21   23.80    1.00
   9  51  23    8.09    1.15
   9  53  11    5.00    0.86
   9  53  13    0.14    0.81
   9  53  15    0.03    0.85
   9  53  17    0.56    0.88
   9  55  11    8.36    1.70
  10  10  10  250.17    0.97
  10  12  10  734.54    3.94
  10  12  12 1880.70   11.27
  10  14  10    7.10    0.32
  10  14  12   45.81    0.55
  10  14  14 1743.87    8.60
  10  16  10  753.52    4.76
  10  16  12   37.61    0.49
  10  16  14 1208.83    4.57
  10  16  16    5.57    0.38
  10  18  10   75.53    0.73
  10  18  12   39.54    0.40
  10  18  14  685.40    2.54
  10  18  16  224.41    0.98
  10  18  18   97.94    0.82
  10  20  10  178.28    1.55
  10  20  12   39.38    0.34
  10  20  14  185.88    0.87
  10  20  16    0.68    0.28
  10  20  18   19.63    0.39
  10  20  20   76.69    0.88
  10  22  10  150.49    0.92
  10  22  12  122.11    0.91
  10  22  14   57.46    0.48
  10  22  16   86.19    0.74
  10  22  18  189.28    1.04
  10  22  20   89.76    0.66
  10  22  22  554.78    2.86
  10  24  10  150.61    1.22
  10  24  12   15.79    0.42
  10  24  14  236.09    1.17
  10  24  16    4.79    0.35
  10  24  18    0.93    0.36
  10  24  20   53.02    0.56
  10  24  22    2.23    0.39
  10  24  24    6.56    0.58
  10  26  10   21.73    0.54
  10  26  12   51.32    0.46
  10  26  14  163.08    0.83
  10  26  16   30.16    0.41
  10  26  18    2.61    0.37
  10  26  20   16.38    0.56
  10  26  22   14.17    0.48
  10  26  24    1.26    0.44
  10  26  26   12.76    0.73
  10  28  10   74.08    0.99
  10  28  12    1.56    0.40
  10  28  14  330.76    1.63
  10  28  16    0.75    0.37
  10  28  18   35.30    0.50
  10  28  20    8.73    0.45
  10  28  22   63.93    0.85
  10  28  24   38.27    0.70
  10  28  26   20.65    0.64
  10  28  28    0.27    0.84
  10  30  10    7.85    0.62
  10  30  12   18.12    0.44
  10  30  14  673.02    3.13
  10  30  16  141.22    1.09
  10  30  18  213.50    1.31
  10  30  20   17.32    0.53
  10  30  22   10.90    0.54
  10  30  24    6.89    0.57
  10  30  26   50.87    0.83
  10  30  28   62.90    0.96
  10  30  30  266.05    2.91
  10  32  10  325.29    2.03
  10  32  12   36.32    0.54
  10  32  14   84.41    0.77
  10  32  16    0.69    0.49
  10  32  18   28.76    0.57
  10  32  20   10.71    0.53
  10  32  22   58.17    0.96
  10  32  24    4.82    0.60
  10  32  26    8.91    0.68
  10  32  28    8.78    0.69
  10  32  30    0.09    0.68
  10  32  32    9.59    1.05
  10  34  10    2.29    0.71
  10  34  12   57.26    0.67
  10  34  14    1.86    0.55
  10  34  16   73.74    0.84
  10  34  18    3.78    0.57
  10  34  20   22.85    0.67
  10  34  22   45.99    0.85
  10  34  24   21.29    0.75
  10  34  26    0.94    0.69
  10  34  28    5.83    0.75
  10  34  30    3.92    0.73
  10  34  32   90.64    1.23
  10  34  34   23.55    1.33
  10  36  10   40.19    0.90
  10  36  12    4.68    0.55
  10  36  14  256.70    1.61
  10  36  16   11.16    0.63
  10  36  18   39.96    0.74
  10  36  20    5.41    0.65
  10  36  22    6.79    0.67
  10  36  24    0.90    0.69
  10  36  26    5.95    0.74
  10  36  28    7.46    0.79
  10  36  30   65.29    1.01
  10  36  32    5.36    0.82
  10  36  34    7.99    0.81
  10  36  36   12.51    1.33
  10  38  10  251.15    2.25
  10  38  12   25.04    0.71
  10  38  14    2.98    0.60
  10  38  16  151.81    1.60
  10  38  18   21.98    0.73
  10  38  20   50.08    0.95
  10  38  22  120.25    1.35
  10  38  24   33.83    0.86
  10  38  26    0.52    0.72
  10  38  28   78.73    1.27
  10  38  30   51.08    1.12
  10  38  32   28.17    0.96
  10  38  34   57.23    1.10
  10  38  36   10.23    0.89
  10  38  38   89.69    1.99
  10  40  10    5.79    0.93
  10  40  12    0.62    0.65
  10  40  14    0.13    0.65
  10  40  16    0.95    0.67
  10  40  18    2.02    0.73
  10  40  20   11.91    0.81
  10  40  22   34.32    0.94
  10  40  24    3.01    0.76
  10  40  26    0.46    0.73
  10  40  28    2.16    0.76
  10  40  30   13.73    0.93
  10  40  32    5.92    0.82
  10  40  34   14.02    0.93
  10  40  36    7.57    0.94
  10  40  38    1.57    0.90
  10  42  10    0.31    0.99
  10  42  12    0.67    0.68
  10  42  14  166.75    1.56
  10  42  16   23.99    0.85
  10  42  18   55.96    1.00
  10  42  20    4.41    0.76
  10  42  22    0.06    0.78
  10  42  24    3.78    0.78
  10  42  26   35.51    0.95
  10  42  28    7.66    0.85
  10  42  30  137.07    1.68
  10  42  32    6.50    0.85
  10  42  34    0.88    0.87
  10  42  36   23.75    1.03
  10  44  10  182.67    2.31
  10  44  12   11.65    0.78
  10  44  14   66.35    1.04
  10  44  16    9.27    0.78
  10  44  18   36.73    0.90
  10  44  20    3.54    0.81
  10  44  22   53.52    1.11
  10  44  24    6.26    0.82
  10  44  26   33.39    0.96
  10  44  28    7.18    0.88
  10  44  30    0.02    0.87
  10  44  32    3.67    0.95
  10  44  34   51.63    1.19
  10  46  10   29.46    1.32
  10  46  12    0.35    0.76
  10  46  14  100.53    1.38
  10  46  16   28.73    0.96
  10  46  18   57.53    1.12
  10  46  20    5.41    0.86
  10  46  22    6.08    0.86
  10  46  24   12.83    0.92
  10  46  26   21.35    0.95
  10  46  28   36.36    1.10
  10  46  30   30.75    1.06
  10  48  10   40.67    1.49
  10  48  12    0.17    0.79
  10  48  14    0.22    0.81
  10  48  16    6.05    0.81
  10  48  18    0.01    0.83
  10  48  20    1.10    0.88
  10  48  22   11.14    0.93
  10  48  24    6.40    0.90
  10  48  26    0.02    0.88
  10  48  28    0.50    0.94
  10  50  10    2.66    1.23
  10  50  12    5.15    0.83
  10  50  14    5.44    0.84
  10  50  16    6.67    0.86
  10  50  18   17.93    0.98
  10  50  20   12.37    0.98
  10  50  22   37.02    1.13
  10  50  24    0.09    0.92
  10  52  10   93.05    2.70
  10  52  12   49.98    1.16
  10  52  14   57.48    1.21
  10  52  16    0.45    0.87
  10  52  18    0.32    0.89
  10  52  20   19.29    1.11
  10  54  10    4.13    1.22
  10  54  12   17.14    1.03
  10  54  14    8.31    1.03
  11  15  13   70.66    0.55
  11  17  13  283.26    1.20
  11  17  15    4.92    0.27
  11  19  13  305.01    1.25
  11  19  15    0.45    0.28
  11  19  17  157.91    0.89
  11  21  13   29.64    0.43
  11  21  15   18.50    0.34
  11  21  17    0.61    0.30
  11  21  19   90.14    0.66
  11  23  13    0.57    0.31
  11  23  15    2.24    0.33
  11  23  17   24.42    0.44
  11  23  19    2.14    0.37
  11  23  21    1.08    0.36
  11  25  13   33.10    0.48
  11  25  15   18.66    0.46
  11  25  17   41.78    0.51
  11  25  19   47.23    0.59
  11  25  21    0.14    0.39
  11  25  23   56.46    0.73
  11  27  13    1.55    0.38
  11  27  15    9.34    0.40
  11  27  17   16.28    0.44
  11  27  19    1.58    0.41
  11  27  21   68.30    0.68
  11  27  23    1.22    0.46
  11  27  25  124.08    1.07
  11  29  13   55.94    0.63
  11  29  15    5.95    0.42
  11  29  17   55.65    0.66
  11  29  19  185.13    1.17
  11  29  21    5.30    0.50
  11  29  23   23.91    0.62
  11  29  25   27.89    0.68
  11  29  27   15.00    0.61
  11  31  13   57.86    0.70
  11  31  15   20.72    0.52
  11  31  17    5.98    0.50
  11  31  19   21.00    0.56
  11  31  21   62.22    0.90
  11  31  23    8.33    0.58
  11  31  25   89.12    1.29
  11  31  27    4.66    0.65
  11  31  29   67.88    0.98
  11  33  13  103.18    0.99
  11  33  15   40.42    0.68
  11  33  17    5.70    0.52
  11  33  19  136.02    1.07
  11  33  21    1.11    0.58
  11  33  23    2.03    0.61
  11  33  25   28.97    0.78
  11  33  27    1.04    0.68
  11  33  29   38.30    0.93
  11  33  31   36.06    0.91
  11  35  13  161.38    1.17
  11  35  15    0.31    0.51
  11  35  17  105.66    1.00
  11  35  19   24.88    0.70
  11  35  21   11.60    0.66
  11  35  23    0.90    0.65
  11  35  25   19.22    0.79
  11  35  27    8.66    0.78
  11  35  29   66.84    1.12
  11  35  31    1.16    0.75
  11  35  33   42.69    1.02
  11  37  13   36.00    0.71
  11  37  15   46.52    0.79
  11  37  17   19.94    0.69
  11  37  19  146.68    1.36
  11  37  21    0.04    0.67
  11  37  23    0.50    0.69
  11  37  25   19.34    0.81
  11  37  27    0.03    0.72
  11  37  29    3.22    0.74
  11  37  31   42.62    1.02
  11  37  33   26.43    0.95
  11  37  35  133.45    1.61
  11  39  13   54.48    0.98
  11  39  15    0.62    0.63
  11  39  17    0.01    0.68
  11  39  19   26.42    0.79
  11  39  21    1.68    0.75
  11  39  23    0.97    0.75
  11  39  25   17.16    0.85
  11  39  27    0.08    0.72
  11  39  29    5.10    0.79
  11  39  31    9.20    0.87
  11  39  33    4.79    0.85
  11  39  35    6.07    0.93
  11  39  37   40.88    1.08
  11  41  13   40.18    0.90
  11  41  15   43.70    0.93
  11  41  17   54.96    0.98
  11  41  19  127.79    1.42
  11  41  21    9.82    0.77
  11  41  23    9.86    0.78
  11  41  25   30.10    0.96
  11  41  27    3.69    0.81
  11  41  29    1.55    0.80
  11  41  31  101.56    1.46
  11  41  33   72.55    1.26
  11  41  35  174.32    1.90
  11  41  37   13.12    0.97
  11  43  13   50.83    0.98
  11  43  15   12.76    0.79
  11  43  17    1.15    0.77
  11  43  19    7.07    0.79
  11  43  21   17.58    0.87
  11  43  23    0.08    0.79
  11  43  25   35.76    0.99
  11  43  27    3.84    0.85
  11  43  29   41.14    1.09
  11  43  31    3.75    0.93
  11  43  33    7.64    0.92
  11  43  35    6.56    0.97
  11  45  13   44.84    0.99
  11  45  15   23.73    0.83
  11  45  17    1.56    0.76
  11  45  19  107.89    1.42
  11  45  21    0.53    0.81
  11  45  23    4.26    0.84
  11  45  25   19.25    0.96
  11  45  27    8.01    0.91
  11  45  29   19.18    1.06
  11  45  31   47.69    1.17
  11  47  13   19.65    0.88
  11  47  15    2.07    0.81
  11  47  17   36.04    0.99
  11  47  19   21.58    0.99
  11  47  21   17.60    0.96
  11  47  23    2.71    0.86
  11  47  25   71.56    1.29
  11  47  27    0.26    0.86
  11  47  29  111.81    1.71
  11  49  13    4.31    0.85
  11  49  15    8.20    0.86
  11  49  17   10.20    0.90
  11  49  19   33.67    1.06
  11  49  21    1.95    0.92
  11  49  23   22.08    1.01
  11  49  25    7.90    0.95
  11  51  13    6.56    0.89
  11  51  15    0.39    0.84
  11  51  17   17.84    1.03
  11  51  19    0.22    0.89
  11  51  21   44.38    1.18
  11  53  13    3.24    0.89
  11  53  15   13.50    0.96
  11  53  17   15.50    1.28
  12  12  12  265.81    1.66
  12  14  12 2648.32   14.96
  12  14  14   86.43    0.85
  12  16  12 2208.85   10.66
  12  16  14  133.50    0.77
  12  16  16 2638.00   13.85
  12  18  12  218.99    1.35
  12  18  14  246.75    1.13
  12  18  16  131.21    0.76
  12  18  18   30.69    0.48
  12  20  12    1.99    0.47
  12  20  14  124.50    0.71
  12  20  16  157.88    0.90
  12  20  18    0.98    0.31
  12  20  20  178.00    1.51
  12  22  12 1210.94    7.43
  12  22  14   86.49    0.77
  12  22  16  223.41    1.26
  12  22  18   23.49    0.49
  12  22  20   27.69    0.51
  12  22  22    1.99    0.51
  12  24  12    3.27    0.46
  12  24  14  163.81    0.92
  12  24  16   12.14    0.39
  12  24  18    6.47    0.38
  12  24  20   34.27    0.51
  12  24  22   17.65    0.49
  12  24  24  116.69    1.17
  12  26  12    1.93    0.54
  12  26  14   31.66    0.43
  12  26  16   12.06    0.44
  12  26  18    1.30    0.44
  12  26  20   38.12    0.67
  12  26  22   30.59    0.53
  12  26  24   24.85    0.61
  12  26  26   53.55    0.87
  12  28  12  656.95    3.53
  12  28  14   26.99    0.46
  12  28  16  330.42    1.47
  12  28  18   10.61    0.46
  12  28  20  107.50    0.86
  12  28  22    7.04    0.53
  12  28  24  116.20    1.04
  12  28  26   10.30    0.63
  12  28  28  276.82    2.65
  12  30  12 1169.49    6.22
  12  30  14    6.20    0.41
  12  30  16   68.85    0.61
  12  30  18  173.73    1.24
  12  30  20   21.22    0.59
  12  30  22   15.40    0.67
  12  30  24   39.97    0.72
  12  30  26   25.58    0.70
  12  30  28   17.68    0.67
  12  30  30   39.90    1.31
  12  32  12  122.66    1.37
  12  32  14   83.06    0.95
  12  32  16  713.23    3.50
  12  32  18   53.96    0.86
  12  32  20   48.96    0.82
  12  32  22   57.67    0.88
  12  32  24   10.46    0.68
  12  32  26    0.68    0.69
  12  32  28  123.91    1.32
  12  32  30   60.04    1.01
  12  32  32  142.45    2.25
  12  34  12  430.58    3.06
  12  34  14  133.72    1.05
  12  34  16    0.69    0.50
  12  34  18    3.49    0.57
  12  34  20    5.59    0.60
  12  34  22   23.25    0.73
  12  34  24    2.16    0.66
  12  34  26   13.10    0.76
  12  34  28   23.24    0.85
  12  34  30    3.48    0.77
  12  34  32    2.67    0.75
  12  34  34    1.69    1.26
  12  36  12    3.49    0.78
  12  36  14  310.20    1.77
  12  36  16   57.61    0.81
  12  36  18   16.89    0.67
  12  36  20   62.85    1.01
  12  36  22  104.24    1.32
  12  36  24   31.55    0.85
  12  36  26    5.12    0.74
  12  36  28   13.78    0.80
  12  36  30  125.74    1.41
  12  36  32   21.64    0.91
  12  36  34    6.39    0.87
  12  36  36   17.97    1.48
  12  38  12   82.12    1.54
  12  38  14   46.27    0.85
  12  38  16  187.36    1.54
  12  38  18   23.96    0.76
  12  38  20    0.03    0.70
  12  38  22    0.39    0.72
  12  38  24    0.07    0.72
  12  38  26    1.02    0.74
  12  38  28    4.88    0.81
  12  38  30   13.69    0.89
  12  38  32   35.20    0.99
  12  38  34   14.71    0.90
  12  38  36   20.84    1.00
  12  38  38    0.01    1.25
  12  40  12  202.52    2.37
  12  40  14  103.16    1.25
  12  40  16  134.98    1.40
  12  40  18    6.88    0.75
  12  40  20    0.74    0.75
  12  40  22   44.57    1.00
  12  40  24    0.52    0.74
  12  40  26    3.11    0.84
  12  40  28  133.73    1.55
  12  40  30   39.62    1.03
  12  40  32   86.97    1.38
  12  40  34    0.30    0.86
  12  40  36    6.98    0.97
  12  40  38   10.37    0.96
  12  42  12   63.44    1.54
  12  42  14   41.48    0.88
  12  42  16   15.38    0.81
  12  42  18   20.39    0.81
  12  42  20   18.37    0.82
  12  42  22    1.33    0.77
  12  42  24   26.93    0.94
  12  42  26    4.48    0.79
  12  42  28   16.30    0.95
  12  42  30   45.72    1.13
  12  42  32    2.27    0.92
  12  42  34   17.03    0.94
  12  42  36   22.75    1.12
  12  44  12  131.76    2.09
  12  44  14   30.55    0.92
  12  44  16  343.46    2.68
  12  44  18   11.52    0.87
  12  44  20   50.09    1.10
  12  44  22    1.65    0.80
  12  44  24   35.04    1.06
  12  44  26    4.09    0.85
  12  44  28  134.39    1.66
  12  44  30   31.88    1.05
  12  44  32   79.33    1.44
  12  46  12   44.66    1.41
  12  46  14    6.45    0.83
  12  46  16    4.87    0.78
  12  46  18   53.57    1.09
  12  46  20    7.85    0.86
  12  46  22    0.36    0.84
  12  46  24   17.76    0.95
  12  46  26   10.14    0.92
  12  46  28    1.87    0.90
  12  46  30   15.49    1.06
  12  48  12   23.77    1.22
  12  48  14   32.03    0.95
  12  48  16  106.37    1.39
  12  48  18    6.83    0.88
  12  48  20    0.70    0.87
  12  48  22   12.82    0.97
  12  48  24    2.67    0.88
  12  48  26   31.52    1.10
  12  50  12   79.51    1.97
  12  50  14   67.33    1.27
  12  50  16   20.25    0.97
  12  50  18    2.83    0.91
  12  50  20    0.18    0.92
  12  50  22    5.93    0.95
  12  50  24   27.13    1.37
  12  52  12   18.08    1.43
  12  52  14    6.52    0.92
  12  52  16   21.14    1.00
  12  52  18    0.43    0.98
  12  54  12    1.90    1.36
  13  17  15  117.72    0.70
  13  19  15  112.12    0.70
  13  19  17   74.55    0.58
  13  21  15   74.57    0.68
  13  21  17    1.55    0.34
  13  21  19   65.32    0.62
  13  23  15    8.06    0.35
  13  23  17   50.31    0.56
  13  23  19   13.74    0.41
  13  23  21   20.94    0.46
  13  25  15   20.77    0.44
  13  25  17    0.04    0.36
  13  25  19    9.06    0.41
  13  25  21    0.14    0.40
  13  25  23   75.07    0.73
  13  27  15   60.36    0.62
  13  27  17   56.97    0.59
  13  27  19   18.91    0.48
  13  27  21   17.17    0.50
  13  27  23   55.64    0.71
  13  27  25   22.95    0.64
  13  29  15   17.15    0.48
  13  29  17   58.57    0.65
  13  29  19    0.70    0.47
  13  29  21    0.13    0.49
  13  29  23   95.03    1.00
  13  29  25    0.46    0.59
  13  29  27   55.93    0.89
  13  31  15   26.83    0.60
  13  31  17  106.38    0.98
  13  31  19   36.10    0.63
  13  31  21   65.86    0.87
  13  31  23   13.55    0.65
  13  31  25    1.30    0.63
  13  31  27   68.65    1.01
  13  31  29    7.44    0.71
  13  33  15  241.23    1.48
  13  33  17   10.94    0.54
  13  33  19   11.66    0.60
  13  33  21    9.65    0.60
  13  33  23    9.03    0.67
  13  33  25   11.05    0.68
  13  33  27   88.75    1.19
  13  33  29    0.08    0.72
  13  33  31  108.89    1.32
  13  35  15  116.45    1.10
  13  35  17  133.44    1.14
  13  35  19   21.39    0.68
  13  35  21   36.84    0.81
  13  35  23    1.52    0.67
  13  35  25   24.63    0.81
  13  35  27   39.54    0.92
  13  35  29   15.53    0.79
  13  35  31    1.94    0.78
  13  35  33   60.73    1.15
  13  37  15   84.48    1.04
  13  37  17    3.86    0.63
  13  37  19    6.30    0.68
  13  37  21    0.16    0.70
  13  37  23    0.60    0.74
  13  37  25   11.48    0.78
  13  37  27   12.81    0.83
  13  37  29    1.86    0.76
  13  37  31    0.89    0.77
  13  37  33   25.84    0.94
  13  37  35    2.26    0.88
  13  39  15    5.38    0.69
  13  39  17  123.42    1.38
  13  39  19   62.23    1.02
  13  39  21   24.87    0.86
  13  39  23    0.19    0.74
  13  39  25    1.80    0.78
  13  39  27    9.06    0.81
  13  39  29    0.05    0.82
  13  39  31   30.22    0.99
  13  39  33  125.05    1.58
  13  39  35   57.95    1.20
  13  39  37   96.68    1.50
  13  41  15    0.73    0.70
  13  41  17   21.05    0.80
  13  41  19    2.03    0.72
  13  41  21    1.05    0.76
  13  41  23   20.01    0.88
  13  41  25    0.06    0.76
  13  41  27    2.46    0.87
  13  41  29    0.03    0.82
  13  41  31    2.84    0.88
  13  41  33   13.47    0.96
  13  41  35    0.09    0.89
  13  41  37    9.96    1.06
  13  43  15    4.87    0.75
  13  43  17   70.25    1.21
  13  43  19   39.58    0.98
  13  43  21   38.27    1.01
  13  43  23   21.64    0.93
  13  43  25    0.84    0.82
  13  43  27   13.29    0.95
  13  43  29    1.93    0.88
  13  43  31    4.83    0.91
  13  43  33   56.10    1.26
  13  45  15    6.17    0.77
  13  45  17    3.42    0.80
  13  45  19    4.21    0.84
  13  45  21    9.65    0.89
  13  45  23   32.24    1.02
  13  45  25    0.07    0.83
  13  45  27   32.77    1.05
  13  45  29    0.74    0.92
  13  45  31   44.38    1.16
  13  47  15    2.45    0.85
  13  47  17   21.29    0.93
  13  47  19    0.75    0.84
  13  47  21   27.46    1.01
  13  47  23   11.19    0.99
  13  47  25    6.94    0.94
  13  47  27   16.05    1.00
  13  47  29   14.86    1.16
  13  49  15    8.87    0.88
  13  49  17    0.45    0.83
  13  49  19   40.78    1.15
  13  49  21    0.01    0.90
  13  49  23   34.86    1.12
  13  49  25    3.69    1.11
  13  51  15    0.06    0.87
  13  51  17   28.12    1.08
  13  51  19    2.22    0.94
  13  51  21    4.21    1.17
  13  53  15    0.38    1.04
  14  14  14 4902.41   43.91
  14  16  14 1472.21    6.83
  14  16  16  493.83    3.28
  14  18  14 2491.22   12.13
  14  18  16   97.69    0.60
  14  18  18  442.53    2.32
  14  20  14  198.60    1.44
  14  20  16  338.72    1.39
  14  20  18   54.16    0.55
  14  20  20  188.45    1.39
  14  22  14    1.84    0.45
  14  22  16   55.12    0.67
  14  22  18    0.63    0.35
  14  22  20   65.79    0.63
  14  22  22   11.73    0.94
  14  24  14  244.33    1.74
  14  24  16   80.39    0.67
  14  24  18   13.27    0.43
  14  24  20   71.77    0.68
  14  24  22   37.49    0.64
  14  24  24  189.10    1.68
  14  26  14  427.01    2.37
  14  26  16   70.68    0.64
  14  26  18   98.93    0.64
  14  26  20   17.34    0.48
  14  26  22  304.52    1.58
  14  26  24    0.14    0.47
  14  26  26  511.67    4.17
  14  28  14  212.03    1.81
  14  28  16   53.05    0.53
  14  28  18   19.13    0.53
  14  28  20  201.26    1.24
  14  28  22   27.28    0.62
  14  28  24  148.09    1.12
  14  28  26   35.35    0.74
  14  28  28  159.97    2.05
  14  30  14  796.05    5.38
  14  30  16  132.62    1.10
  14  30  18  846.41    3.88
  14  30  20    2.09    0.48
  14  30  22  107.68    1.16
  14  30  24    6.39    0.60
  14  30  26  241.24    1.75
  14  30  28    6.02    0.73
  14  30  30  316.88    3.66
  14  32  14   38.12    0.88
  14  32  16  145.86    1.30
  14  32  18   41.77    0.66
  14  32  20   92.54    1.08
  14  32  22    4.85    0.62
  14  32  24   87.69    1.18
  14  32  26    0.72    0.66
  14  32  28   38.24    0.92
  14  32  30   16.18    0.81
  14  32  32   70.12    1.69
  14  34  14  501.50    3.71
  14  34  16  179.98    1.44
  14  34  18  142.49    1.13
  14  34  20   17.10    0.69
  14  34  22    5.90    0.66
  14  34  24   33.87    0.85
  14  34  26   15.55    0.76
  14  34  28  145.65    1.56
  14  34  30  310.49    2.39
  14  34  32   21.80    0.86
  14  34  34    0.05    1.09
  14  36  14  415.29    3.30
  14  36  16  144.65    1.22
  14  36  18   21.51    0.71
  14  36  20    2.58    0.64
  14  36  22    1.82    0.69
  14  36  24   17.47    0.79
  14  36  26   41.20    0.98
  14  36  28   20.51    0.80
  14  36  30   18.40    0.86
  14  36  32   24.74    0.93
  14  36  34   35.69    1.01
  14  36  36   29.44    1.42
  14  38  14  156.55    2.08
  14  38  16  183.78    1.53
  14  38  18   44.58    0.88
  14  38  20   18.25    0.80
  14  38  22   27.19    0.84
  14  38  24    4.88    0.79
  14  38  26   19.48    0.86
  14  38  28   17.77    0.88
  14  38  30   53.38    1.15
  14  38  32   54.32    1.09
  14  38  34   27.39    1.00
  14  38  36    5.55    0.89
  14  38  38   23.01    1.43
  14  40  14    5.99    1.00
  14  40  16  105.28    1.29
  14  40  18   12.95    0.78
  14  40  20   50.26    0.96
  14  40  22    2.32    0.76
  14  40  24    3.02    0.80
  14  40  26   19.81    0.84
  14  40  28   31.40    1.00
  14  40  30    7.29    0.89
  14  40  32   63.82    1.28
  14  40  34    0.76    0.85
  14  40  36   11.60    0.94
  14  42  14  568.46    4.93
  14  42  16   85.79    1.20
  14  42  18  182.96    1.66
  14  42  20    0.87    0.78
  14  42  22   21.75    0.98
  14  42  24    8.10    0.86
  14  42  26  110.75    1.41
  14  42  28   38.19    1.08
  14  42  30  231.66    2.29
  14  42  32    6.88    0.94
  14  42  34   57.44    1.53
  14  44  14   23.59    1.14
  14  44  16   84.51    1.30
  14  44  18    5.59    0.81
  14  44  20   29.20    0.99
  14  44  22   28.06    1.03
  14  44  24    8.59    0.90
  14  44  26   12.19    0.91
  14  44  28   29.30    1.00
  14  44  30    0.74    0.88
  14  44  32   59.74    1.24
  14  46  14  199.06    3.08
  14  46  16   65.60    1.17
  14  46  18  200.77    1.91
  14  46  20    0.92    0.89
  14  46  22   15.44    0.96
  14  46  24    2.05    0.87
  14  46  26  118.20    1.59
  14  46  28   53.74    1.27
  14  46  30  133.21    2.00
  14  48  14   18.51    1.24
  14  48  16   50.19    1.13
  14  48  18    2.15    0.87
  14  48  20    2.67    0.88
  14  48  22    1.86    0.90
  14  48  24   22.14    1.02
  14  48  26   27.32    1.10
  14  50  14   23.27    1.41
  14  50  16    0.53    0.87
  14  50  18    2.77    0.95
  14  50  20    1.13    0.90
  14  50  22   11.56    1.03
  14  52  14   23.09    1.52
  14  52  16   10.14    1.01
  14  52  18   50.23    2.45
  15  19  17   69.19    0.55
  15  21  17    1.76    0.34
  15  21  19   12.84    0.43
  15  23  17    5.44    0.39
  15  23  19    4.44    0.39
  15  23  21    0.41    0.40
  15  25  17  112.51    0.79
  15  25  19   17.86    0.44
  15  25  21   10.55    0.44
  15  25  23   37.17    0.61
  15  27  17   51.08    0.60
  15  27  19    6.71    0.41
  15  27  21    0.42    0.47
  15  27  23    2.82    0.51
  15  27  25    5.22    0.56
  15  29  17   35.99    0.60
  15  29  19   17.09    0.56
  15  29  21    0.59    0.49
  15  29  23    6.75    0.56
  15  29  25   44.68    0.89
  15  29  27    8.70    0.70
  15  31  17    5.85    0.56
  15  31  19   23.76    0.60
  15  31  21    7.21    0.58
  15  31  23    0.98    0.59
  15  31  25   14.88    0.71
  15  31  27    1.28    0.67
  15  31  29   10.86    0.76
  15  33  17    4.69    0.56
  15  33  19   77.48    0.92
  15  33  21   10.69    0.67
  15  33  23   16.45    0.71
  15  33  25   74.74    1.11
  15  33  27   32.89    0.87
  15  33  29   42.70    0.97
  15  33  31   23.02    0.86
  15  35  17   18.65    0.68
  15  35  19    0.14    0.60
  15  35  21    0.93    0.65
  15  35  23   11.90    0.74
  15  35  25    4.16    0.74
  15  35  27    6.43    0.73
  15  35  29   11.24    0.83
  15  35  31   24.16    0.88
  15  35  33    1.99    0.83
  15  37  17   22.14    0.75
  15  37  19   49.31    0.90
  15  37  21   49.05    0.93
  15  37  23   10.45    0.79
  15  37  25    3.16    0.78
  15  37  27   40.19    0.95
  15  37  29    6.66    0.83
  15  37  31    8.26    0.83
  15  37  33   41.51    1.03
  15  37  35   11.78    0.93
  15  39  17   10.44    0.74
  15  39  19    1.28    0.69
  15  39  21   11.43    0.80
  15  39  23    8.98    0.81
  15  39  25    0.01    0.78
  15  39  27    5.99    0.85
  15  39  29   10.32    0.87
  15  39  31   10.65    0.88
  15  39  33   95.40    1.47
  15  39  35   45.45    1.14
  15  39  37   19.00    0.99
  15  41  17   64.92    1.05
  15  41  19   35.42    0.95
  15  41  21   16.03    0.88
  15  41  23    4.52    0.81
  15  41  25    5.37    0.82
  15  41  27   15.89    0.92
  15  41  29    0.95    0.83
  15  41  31    2.41    0.90
  15  41  33   44.81    1.12
  15  41  35   36.57    1.12
  15  43  17   29.32    0.93
  15  43  19    7.69    0.84
  15  43  21    1.53    0.82
  15  43  23    1.17    0.82
  15  43  25    0.21    0.81
  15  43  27    0.18    0.84
  15  43  29    5.34    0.86
  15  43  31    3.98    0.92
  15  43  33    0.77    0.90
  15  45  17   23.82    0.95
  15  45  19    4.19    0.83
  15  45  21    3.36    0.85
  15  45  23    0.01    0.92
  15  45  25   25.59    0.98
  15  45  27   17.67    0.95
  15  45  29    2.63    0.90
  15  45  31    0.56    1.00
  15  47  17    1.30    0.84
  15  47  19    2.67    0.91
  15  47  21   17.44    1.02
  15  47  23    5.40    0.93
  15  47  25    0.32    0.88
  15  47  27    2.77    0.92
  15  49  17    8.73    0.94
  15  49  19    2.73    0.91
  15  49  21   16.23    1.00
  15  49  23    8.73    0.96
  15  51  17    2.03    0.95
  15  51  19    7.40    1.01
  16  16  16 4875.28   40.34
  16  18  16   59.90    0.87
  16  18  18  425.91    2.06
  16  20  16   88.15    0.96
  16  20  18   16.08    0.40
  16  20  20    0.09    0.53
  16  22  16  409.51    2.61
  16  22  18  163.89    1.09
  16  22  20   21.02    0.50
  16  22  22  144.55    1.59
  16  24  16   41.14    0.68
  16  24  18    7.68    0.41
  16  24  20   56.19    0.66
  16  24  22   11.17    0.51
  16  24  24  422.68    2.98
  16  26  16    0.39    0.56
  16  26  18   95.72    0.67
  16  26  20    0.93    0.44
  16  26  22  169.47    1.20
  16  26  24   73.25    0.85
  16  26  26  154.23    1.53
  16  28  16  895.96    5.46
  16  28  18   42.35    0.64
  16  28  20  175.34    1.26
  16  28  22   25.49    0.71
  16  28  24  211.41    1.44
  16  28  26    0.46    0.62
  16  28  28  352.30    3.47
  16  30  16  206.58    1.56
  16  30  18   52.00    0.81
  16  30  20   79.51    0.85
  16  30  22   83.94    1.12
  16  30  24    2.22    0.60
  16  30  26  132.02    1.35
  16  30  28   47.01    0.90
  16  30  30   26.96    1.26
  16  32  16  776.06    5.22
  16  32  18    9.08    0.58
  16  32  20   78.92    1.05
  16  32  22   37.24    0.81
  16  32  24   13.53    0.71
  16  32  26    4.90    0.74
  16  32  28  302.41    2.33
  16  32  30   61.97    1.08
  16  32  32  274.33    3.30
  16  34  16   43.53    0.98
  16  34  18  106.72    1.03
  16  34  20    0.75    0.62
  16  34  22   12.25    0.70
  16  34  24    5.55    0.73
  16  34  26    6.75    0.74
  16  34  28    3.19    0.77
  16  34  30   75.56    1.21
  16  34  32    1.61    0.76
  16  34  34    8.88    1.14
  16  36  16  155.58    1.86
  16  36  18   22.09    0.74
  16  36  20   10.27    0.71
  16  36  22   16.64    0.82
  16  36  24   15.04    0.79
  16  36  26   20.77    0.88
  16  36  28   74.43    1.19
  16  36  30   56.64    1.03
  16  36  32   15.05    0.90
  16  36  34    0.04    0.81
  16  36  36   14.36    1.47
  16  38  16   60.63    1.45
  16  38  18   44.57    0.91
  16  38  20   17.50    0.82
  16  38  22    5.60    0.79
  16  38  24   11.25    0.79
  16  38  26   35.08    0.92
  16  38  28    7.87    0.82
  16  38  30   12.82    0.90
  16  38  32   32.21    0.99
  16  38  34   36.66    1.05
  16  38  36    6.91    0.94
  16  38  38    0.04    1.25
  16  40  16  343.65    3.49
  16  40  18   32.21    0.91
  16  40  20    6.15    0.76
  16  40  22   16.61    0.88
  16  40  24   15.48    0.89
  16  40  26    0.12    0.81
  16  40  28   80.60    1.30
  16  40  30   56.99    1.14
  16  40  32  100.36    1.49
  16  40  34    0.30    0.93
  16  40  36    5.37    1.14
  16  42  16    1.11    1.06
  16  42  18   61.49    1.08
  16  42  20    2.45    0.81
  16  42  22   13.73    0.90
  16  42  24   82.42    1.37
  16  42  26    2.40    0.84
  16  42  28    1.49    0.86
  16  42  30   69.41    1.32
  16  42  32    1.29    0.89
  16  42  34   16.37    1.01
  16  44  16  340.87    3.97
  16  44  18   26.55    1.02
  16  44  20   53.24    1.16
  16  44  22   38.49    1.09
  16  44  24   38.86    1.11
  16  44  26   23.42    1.02
  16  44  28  195.20    2.02
  16  44  30   26.22    1.04
  16  44  32  123.17    1.84
  16  46  16    3.77    1.22
  16  46  18   17.13    0.95
  16  46  20   69.12    1.35
  16  46  22    1.14    0.88
  16  46  24    0.26    0.88
  16  46  26   44.04    1.13
  16  46  28    0.24    0.87
  16  48  16   30.37    1.46
  16  48  18    0.61    0.90
  16  48  20   27.64    1.04
  16  48  22   11.57    0.99
  16  48  24   39.04    1.14
  16  50  16   13.52    1.42
  16  50  18   26.78    1.06
  16  50  20   39.71    1.17
  16  52  16   13.11    2.46
  17  21  19   31.92    0.50
  17  23  19   73.92    0.71
  17  23  21   53.19    0.65
  17  25  19   55.67    0.62
  17  25  21    2.57    0.48
  17  25  23  121.41    1.09
  17  27  19   46.40    0.64
  17  27  21   50.00    0.72
  17  27  23    6.17    0.52
  17  27  25  112.47    1.13
  17  29  19  109.06    1.07
  17  29  21    5.78    0.58
  17  29  23   26.63    0.70
  17  29  25    0.03    0.61
  17  29  27   25.07    0.81
  17  31  19   41.64    0.71
  17  31  21    5.15    0.63
  17  31  23   39.95    0.81
  17  31  25   80.00    1.13
  17  31  27   44.24    0.89
  17  31  29   43.13    0.96
  17  33  19   12.88    0.63
  17  33  21    0.36    0.61
  17  33  23    0.50    0.64
  17  33  25    0.27    0.73
  17  33  27    0.31    0.71
  17  33  29    0.65    0.75
  17  33  31    8.74    0.79
  17  35  19   54.64    0.94
  17  35  21    2.00    0.70
  17  35  23    9.76    0.75
  17  35  25   81.58    1.27
  17  35  27   59.15    1.05
  17  35  29   43.59    1.00
  17  35  31    0.04    0.84
  17  35  33    0.36    0.78
  17  37  19   60.86    1.06
  17  37  21    3.59    0.71
  17  37  23   10.27    0.77
  17  37  25   20.54    0.86
  17  37  27    9.34    0.81
  17  37  29    0.03    0.79
  17  37  31   51.29    1.07
  17  37  33   21.59    0.94
  17  37  35  103.73    1.49
  17  39  19  110.37    1.36
  17  39  21    0.82    0.75
  17  39  23    8.04    0.81
  17  39  25   81.13    1.31
  17  39  27    0.20    0.79
  17  39  29   19.14    0.95
  17  39  31   24.77    0.96
  17  39  33    0.23    0.87
  17  39  35   55.25    1.21
  17  39  37   11.63    1.10
  17  41  19   53.09    1.02
  17  41  21    0.27    0.79
  17  41  23   54.61    1.16
  17  41  25   10.67    0.89
  17  41  27   11.03    0.88
  17  41  29    1.45    0.87
  17  41  31   83.43    1.30
  17  41  33    8.24    0.95
  17  41  35  122.74    1.83
  17  43  19   19.79    0.86
  17  43  21    8.12    0.88
  17  43  23    4.35    0.85
  17  43  25   27.50    1.03
  17  43  27    2.91    0.87
  17  43  29   60.03    1.24
  17  43  31    0.57    0.88
  17  43  33    6.58    1.83
  17  45  19   12.20    0.93
  17  45  21    8.18    0.96
  17  45  23    2.38    0.89
  17  45  25    1.80    0.88
  17  45  27   38.90    1.11
  17  45  29    0.14    0.90
  17  47  19   20.42    0.96
  17  47  21   16.41    1.00
  17  47  23   39.23    1.16
  17  47  25   68.86    1.32
  17  47  27    3.83    2.45
  17  49  19   19.61    1.01
  17  49  21    0.32    0.91
  17  49  23    0.02    1.28
  18  18  18  144.55    2.19
  18  20  18  132.40    1.40
  18  20  20  105.91    1.51
  18  22  18   78.03    1.20
  18  22  20   40.46    0.55
  18  22  22    3.52    0.60
  18  24  18   80.32    1.29
  18  24  20   52.10    0.69
  18  24  22    1.72    0.49
  18  24  24    5.81    0.76
  18  26  18  198.21    1.44
  18  26  20    0.02    0.48
  18  26  22    5.20    0.52
  18  26  24   15.51    0.64
  18  26  26   57.53    1.10
  18  28  18  129.76    1.38
  18  28  20    2.92    0.50
  18  28  22   47.07    0.77
  18  28  24   31.67    0.74
  18  28  26   22.68    0.73
  18  28  28    4.40    1.00
  18  30  18  175.23    1.67
  18  30  20   36.52    0.72
  18  30  22    2.32    0.62
  18  30  24   17.51    0.73
  18  30  26  117.71    1.28
  18  30  28   49.69    1.00
  18  30  30  328.40    3.48
  18  32  18   54.76    1.03
  18  32  20    0.77    0.68
  18  32  22   23.82    0.75
  18  32  24    0.17    0.69
  18  32  26   12.60    0.73
  18  32  28   10.03    0.80
  18  32  30   20.05    0.81
  18  32  32    5.26    1.13
  18  34  18   13.09    0.93
  18  34  20   20.60    0.76
  18  34  22   38.79    0.89
  18  34  24    0.20    0.71
  18  34  26    6.02    0.79
  18  34  28   16.52    0.87
  18  34  30   61.34    1.14
  18  34  32   18.77    0.84
  18  34  34    0.89    1.21
  18  36  18   85.41    1.96
  18  36  20    8.18    0.74
  18  36  22   37.20    0.89
  18  36  24    3.59    0.72
  18  36  26   13.25    0.82
  18  36  28    9.65    0.82
  18  36  30   31.50    0.94
  18  36  32    6.78    0.84
  18  36  34   14.15    0.90
  18  36  36    1.73    1.27
  18  38  18    0.89    0.98
  18  38  20    0.73    0.69
  18  38  22   54.66    1.00
  18  38  24    4.39    0.80
  18  38  26    2.89    0.79
  18  38  28   36.58    1.01
  18  38  30   15.31    0.90
  18  38  32    8.42    0.88
  18  38  34   11.76    0.94
  18  38  36    5.69    0.93
  18  38  38   15.04    1.49
  18  40  18    0.74    1.03
  18  40  20    0.33    0.76
  18  40  22    4.81    0.80
  18  40  24    3.91    0.85
  18  40  26    4.67    0.84
  18  40  28    1.67    0.83
  18  40  30    1.30    0.87
  18  40  32    6.34    0.92
  18  40  34    1.09    0.92
  18  40  36    0.55    0.96
  18  42  18  110.71    2.24
  18  42  20    3.46    0.80
  18  42  22    2.95    0.84
  18  42  24   20.95    1.00
  18  42  26   41.20    1.05
  18  42  28   27.25    1.01
  18  42  30  128.88    1.72
  18  42  32   14.28    0.97
  18  44  18   13.54    1.18
  18  44  20    3.20    0.85
  18  44  22  141.34    1.66
  18  44  24    0.50    0.88
  18  44  26    1.30    0.90
  18  44  28   33.13    1.07
  18  44  30    7.47    0.95
  18  46  18    6.07    1.33
  18  46  20   18.79    1.02
  18  46  22   20.03    1.00
  18  46  24    3.03    0.92
  18  46  26   41.09    1.10
  18  46  28    4.73    1.26
  18  48  18    2.54    1.22
  18  48  20    8.72    0.95
  18  48  22    3.63    0.93
  18  48  24    6.78    1.08
  18  50  18   14.80    1.42
  18  50  20    0.63    1.30
  19  23  21  209.19    1.23
  19  25  21   80.68    1.03
  19  25  23  191.88    1.30
  19  27  21  167.18    1.28
  19  27  23    0.24    0.54
  19  27  25  191.09    1.44
  19  29  21    1.92    0.58
  19  29  23   88.33    1.12
  19  29  25    2.88    0.66
  19  29  27   81.54    1.16
  19  31  21    0.24    0.62
  19  31  23    0.08    0.67
  19  31  25    2.16    0.68
  19  31  27    0.28    0.72
  19  31  29   20.04    0.82
  19  33  21   11.65    0.73
  19  33  23   26.90    0.82
  19  33  25   93.92    1.26
  19  33  27   54.48    1.08
  19  33  29   22.26    0.90
  19  33  31   51.71    1.03
  19  35  21    1.19    0.70
  19  35  23    2.09    0.73
  19  35  25    7.67    0.76
  19  35  27    0.09    0.74
  19  35  29   19.39    0.91
  19  35  31    1.93    0.80
  19  35  33    4.68    0.83
  19  37  21   18.41    0.83
  19  37  23   33.58    0.87
  19  37  25   19.20    0.84
  19  37  27   70.20    1.18
  19  37  29    3.14    0.81
  19  37  31    1.60    0.81
  19  37  33   22.55    0.96
  19  37  35   16.91    0.95
  19  39  21   68.24    1.14
  19  39  23    0.31    0.76
  19  39  25   39.03    1.01
  19  39  27    9.37    0.87
  19  39  29   26.21    1.04
  19  39  31    2.93    0.85
  19  39  33  126.34    1.67
  19  39  35    2.84    0.90
  19  41  21   31.28    0.91
  19  41  23   33.74    0.98
  19  41  25    9.61    0.86
  19  41  27   30.19    1.00
  19  41  29    1.09    0.90
  19  41  31    9.26    0.95
  19  41  33   42.25    1.12
  19  43  21   33.49    1.02
  19  43  23   15.13    0.95
  19  43  25   25.27    0.99
  19  43  27    0.02    0.88
  19  43  29   24.54    1.03
  19  43  31    0.68    0.91
  19  45  21   11.20    0.89
  19  45  23   62.21    1.24
  19  45  25   13.62    0.95
  19  45  27   49.91    1.18
  19  45  29    7.42    1.87
  19  47  21   16.57    1.03
  19  47  23   14.52    0.98
  19  47  25    0.32    0.94
  19  49  21    1.43    1.06
  20  20  20  381.15    4.03
  20  22  20  248.96    2.00
  20  22  22    2.18    0.68
  20  24  20   93.75    1.13
  20  24  22   46.72    0.75
  20  24  24  413.25    3.39
  20  26  20   41.01    1.39
  20  26  22  109.46    1.05
  20  26  24    1.60    0.54
  20  26  26    5.62    0.93
  20  28  20    6.86    0.85
  20  28  22   36.02    0.77
  20  28  24    1.64    0.60
  20  28  26   11.03    0.72
  20  28  28   84.64    1.65
  20  30  20  135.24    1.74
  20  30  22   25.13    0.75
  20  30  24  115.05    1.28
  20  30  26   25.92    0.87
  20  30  28   36.83    0.89
  20  30  30    0.21    1.06
  20  32  20   16.79    0.98
  20  32  22   43.35    0.89
  20  32  24    4.29    0.70
  20  32  26    8.35    0.80
  20  32  28   57.32    1.04
  20  32  30   37.71    0.93
  20  32  32   24.88    1.30
  20  34  20    2.20    1.00
  20  34  22    6.83    0.71
  20  34  24    0.72    0.71
  20  34  26    1.24    0.70
  20  34  28    0.18    0.77
  20  34  30    5.84    0.81
  20  34  32    2.21    0.79
  20  34  34    0.00    1.13
  20  36  20  127.23    2.13
  20  36  22   19.12    0.85
  20  36  24   81.42    1.25
  20  36  26    1.85    0.79
  20  36  28    4.32    0.84
  20  36  30   23.45    0.88
  20  36  32    2.90    0.86
  20  36  34    0.00    0.83
  20  36  36   77.82    2.01
  20  38  20   21.06    1.14
  20  38  22    7.68    0.75
  20  38  24    0.17    0.74
  20  38  26   13.79    0.89
  20  38  28   27.90    1.04
  20  38  30    3.18    0.84
  20  38  32   11.49    0.91
  20  38  34   27.25    1.01
  20  38  36    0.36    0.91
  20  40  20    6.51    1.13
  20  40  22   23.64    0.90
  20  40  24    7.50    0.86
  20  40  26    4.34    0.85
  20  40  28   26.06    0.97
  20  40  30   36.86    1.02
  20  40  32    1.69    0.87
  20  40  34    3.34    0.94
  20  42  20  179.77    2.54
  20  42  22   60.52    1.13
  20  42  24   21.45    0.99
  20  42  26   14.32    0.97
  20  42  28    1.55    0.86
  20  42  30    3.94    0.93
  20  42  32   24.93    1.05
  20  44  20    0.62    1.16
  20  44  22   10.43    0.96
  20  44  24   10.80    0.94
  20  44  26    0.02    0.88
  20  44  28   38.69    1.13
  20  46  20    6.43    1.36
  20  46  22    1.93    0.92
  20  46  24   27.95    1.13
  20  46  26   12.43    1.03
  20  48  20   10.89    1.48
  20  48  22   31.32    1.17
  21  25  23  174.77    1.37
  21  27  23   24.36    0.68
  21  27  25   81.40    1.09
  21  29  23   29.10    0.80
  21  29  25    0.10    0.64
  21  29  27   19.13    0.80
  21  31  23   37.18    0.85
  21  31  25   19.77    0.81
  21  31  27   11.49    0.81
  21  31  29    9.77    0.82
  21  33  23   69.47    1.10
  21  33  25    1.22    0.69
  21  33  27   18.38    0.86
  21  33  29    1.07    0.81
  21  33  31    0.02    0.78
  21  35  23   55.79    0.99
  21  35  25    8.64    0.76
  21  35  27   36.51    0.96
  21  35  29   17.34    0.89
  21  35  31    0.24    0.81
  21  35  33    0.55    0.81
  21  37  23    0.52    0.75
  21  37  25    1.38    0.77
  21  37  27    5.38    0.82
  21  37  29    3.17    0.83
  21  37  31    0.26    0.81
  21  37  33    2.40    0.88
  21  37  35    4.26    0.91
  21  39  23    0.22    0.76
  21  39  25   13.48    0.87
  21  39  27    8.06    0.86
  21  39  29    0.14    0.87
  21  39  31   22.88    1.05
  21  39  33    0.68    0.88
  21  39  35   16.16    1.04
  21  41  23   12.60    0.87
  21  41  25    0.86    0.83
  21  41  27   31.10    1.01
  21  41  29    2.42    0.89
  21  41  31   25.49    1.03
  21  41  33    0.48    0.99
  21  43  23    0.14    0.86
  21  43  25   38.49    1.10
  21  43  27    2.78    0.91
  21  43  29    0.05    0.90
  21  45  23    0.00    0.92
  21  45  25   33.55    1.14
  21  45  27   19.85    1.05
  21  47  23    1.38    0.94
  22  22  22 1283.99   12.77
  22  24  22  215.28    1.79
  22  24  24  131.06    1.83
  22  26  22  504.44    3.94
  22  26  24    4.61    0.62
  22  26  26   10.42    1.02
  22  28  22  108.46    1.82
  22  28  24  118.10    1.29
  22  28  26   42.35    0.90
  22  28  28   16.36    1.17
  22  30  22    9.71    1.11
  22  30  24    0.32    0.66
  22  30  26   44.03    0.93
  22  30  28   32.83    0.95
  22  30  30   60.34    1.70
  22  32  22   67.69    1.65
  22  32  24    4.67    0.75
  22  32  26   56.02    0.97
  22  32  28   17.33    0.84
  22  32  30    4.53    0.81
  22  32  32    6.80    1.15
  22  34  22   77.35    1.51
  22  34  24   12.16    0.79
  22  34  26    0.75    0.76
  22  34  28   17.56    0.88
  22  34  30    1.08    0.80
  22  34  32    6.38    0.86
  22  34  34    6.40    1.25
  22  36  22   17.69    1.12
  22  36  24    5.31    0.77
  22  36  26   18.86    0.86
  22  36  28    5.46    0.85
  22  36  30   24.33    0.89
  22  36  32    3.40    0.85
  22  36  34    6.56    0.88
  22  36  36   32.57    1.62
  22  38  22   73.15    1.51
  22  38  24   10.91    0.83
  22  38  26   66.26    1.21
  22  38  28   25.86    0.98
  22  38  30    6.19    0.89
  22  38  32   15.30    0.98
  22  38  34   67.24    1.24
  22  38  36    9.32    1.08
  22  40  22   67.12    1.80
  22  40  24   32.93    1.00
  22  40  26   14.43    0.91
  22  40  28    9.27    0.88
  22  40  30    0.92    0.90
  22  40  32   27.05    1.03
  22  42  22    3.44    1.17
  22  42  24    8.66    1.06
  22  42  26   62.47    1.22
  22  42  28   11.16    0.97
  22  42  30    5.27    0.96
  22  44  22    0.93    1.28
  22  44  24    1.06    0.88
  22  44  26   57.35    1.22
  22  44  28   20.23    1.19
  22  46  22    1.97    1.29
  22  46  24   30.39    1.13
  23  27  25   14.52    0.70
  23  29  25    3.36    0.67
  23  29  27    1.40    0.72
  23  31  25   32.42    0.86
  23  31  27    1.20    0.69
  23  31  29   17.53    0.90
  23  33  25   74.26    1.13
  23  33  27    0.03    0.75
  23  33  29   26.08    0.93
  23  33  31   14.22    0.85
  23  35  25   37.15    0.95
  23  35  27    0.09    0.78
  23  35  29   56.73    1.16
  23  35  31    4.65    0.84
  23  35  33   22.33    0.95
  23  37  25    1.33    0.78
  23  37  27    4.55    0.83
  23  37  29    0.42    0.90
  23  37  31    2.33    0.88
  23  37  33    2.28    0.87
  23  37  35   13.10    0.94
  23  39  25    5.37    0.81
  23  39  27   10.85    0.94
  23  39  29    9.85    0.91
  23  39  31    2.76    0.94
  23  39  33    6.99    0.94
  23  41  25    4.29    0.87
  23  41  27    0.12    0.89
  23  41  29   47.67    1.17
  23  41  31   51.91    1.22
  23  43  25   30.18    1.08
  23  43  27   14.54    0.99
  23  43  29    0.84    1.18
  23  45  25   39.68    1.23
  24  24  24  629.32    9.19
  24  26  24    0.12    0.90
  24  26  26   82.71    1.71
  24  28  24    0.96    0.92
  24  28  26   27.73    0.87
  24  28  28  123.12    2.02
  24  30  24  142.09    1.96
  24  30  26   12.64    0.77
  24  30  28   56.89    0.98
  24  30  30    2.90    1.16
  24  32  24   55.74    1.43
  24  32  26    1.07    0.78
  24  32  28   44.15    1.00
  24  32  30   14.37    0.86
  24  32  32    4.56    1.20
  24  34  24    4.30    1.03
  24  34  26    1.39    0.75
  24  34  28    0.18    0.79
  24  34  30    1.74    0.85
  24  34  32    2.29    0.83
  24  34  34    0.19    1.17
  24  36  24   59.16    1.67
  24  36  26    0.22    0.78
  24  36  28    0.81    0.83
  24  36  30   37.37    1.00
  24  36  32    1.22    0.84
  24  36  34    0.93    0.82
  24  36  36   87.86    1.98
  24  38  24   13.82    1.12
  24  38  26    0.66    0.78
  24  38  28   69.75    1.27
  24  38  30    1.64    0.86
  24  38  32    0.82    0.86
  24  38  34   39.95    1.11
  24  40  24    0.79    1.18
  24  40  26   40.64    1.13
  24  40  28   18.56    0.99
  24  40  30    6.75    0.92
  24  40  32    0.37    0.92
  24  42  24    0.74    1.23
  24  42  26    1.78    1.02
  24  42  28   28.28    1.07
  24  44  24   22.82    1.53
  24  44  26    0.08    0.95
  25  29  27   14.42    0.78
  25  31  27   37.26    0.94
  25  31  29    7.72    0.79
  25  33  27   89.00    1.29
  25  33  29    0.59    0.77
  25  33  31  137.93    1.55
  25  35  27   24.84    0.95
  25  35  29   28.74    0.96
  25  35  31   18.86    0.95
  25  35  33   13.97    0.92
  25  37  27    9.18    0.88
  25  37  29    5.46    0.91
  25  37  31   24.39    1.01
  25  37  33    4.18    0.89
  25  37  35   28.54    1.15
  25  39  27    0.06    0.85
  25  39  29   15.80    0.97
  25  39  31   47.80    1.16
  25  41  27    0.32    0.89
  25  41  29    0.12    0.95
  25  43  27    0.07    0.98
  26  26  26    7.98    1.63
  26  28  26   97.81    1.70
  26  28  28   10.12    1.04
  26  30  26  196.54    2.31
  26  30  28   35.16    0.89
  26  30  30  175.52    2.36
  26  32  26   43.16    1.28
  26  32  28    8.33    0.82
  26  32  30   15.37    0.87
  26  32  32    8.53    1.25
  26  34  26   13.44    1.23
  26  34  28    3.40    0.80
  26  34  30   48.75    1.09
  26  34  32    3.32    0.83
  26  34  34    1.98    1.30
  26  36  26   30.01    1.43
  26  36  28   44.01    1.08
  26  36  30   37.33    1.07
  26  36  32    0.19    0.91
  26  36  34    0.32    0.90
  26  38  26   11.96    1.23
  26  38  28   42.16    1.09
  26  38  30    0.04    0.86
  26  38  32    0.21    0.90
  26  40  26    2.58    1.27
  26  40  28    3.89    0.92
  26  40  30    4.32    0.90
  26  42  26    6.04    1.41
  26  42  28    4.83    1.07
  27  31  29   40.24    0.97
  27  33  29   37.91    0.99
  27  33  31   45.59    1.10
  27  35  29   73.34    1.27
  27  35  31    0.08    0.89
  27  35  33   41.99    1.08
  27  37  29    1.56    0.89
  27  37  31   61.92    1.21
  27  37  33   14.19    0.99
  27  39  29    1.12    0.88
  27  39  31    5.98    1.05
  28  28  28  261.33    5.29
  28  30  28  104.11    1.80
  28  30  30    7.44    1.25
  28  32  28  245.46    2.81
  28  32  30   17.38    0.93
  28  32  32  177.45    2.72
  28  34  28    1.22    1.14
  28  34  30  103.71    1.56
  28  34  32    0.35    0.86
  28  34  34    3.86    1.25
  28  36  28   58.10    1.57
  28  36  30    3.48    0.86
  28  36  32    8.08    0.93
  28  38  28    5.83    1.26
  28  38  30    0.47    0.90
  28  40  28    5.19    1.28
  29  33  31   10.64    0.96
  29  35  31    9.76    0.96
  29  35  33   69.39    1.45
  29  37  31    0.50    0.92
  30  30  30  314.57    6.69
  30  32  30   28.90    1.52
  30  32  32   51.34    1.61
  30  34  30  175.67    2.86
  30  34  32    0.62    0.88
  30  34  34   46.49    1.88
  30  36  30    3.38    1.25
  30  36  32   10.68    1.18
  32  32  32   43.16    3.02
  32  34  32   13.76    1.48
   0   0   0    0.00    0.00
;
_shelx_hkl_checksum              49456
_shelx_shelxl_version_number     2014/7
_olex2_submission_special_instructions 'No special instructions were received'
loop_
_space_group_symop_operation_xyz
'x, y, z'
'-x, -y, z'
'-x, y, -z'
'x, -y, -z'
'z, x, y'
'z, -x, -y'
'-z, -x, y'
'-z, x, -y'
'y, z, x'
'-y, z, -x'
'y, -z, -x'
'-y, -z, x'
'y+1/2, x+1/2, -z+1/2'
'-y+1/2, -x+1/2, -z+1/2'
'y+1/2, -x+1/2, z+1/2'
'-y+1/2, x+1/2, z+1/2'
'x+1/2, z+1/2, -y+1/2'
'-x+1/2, z+1/2, y+1/2'
'-x+1/2, -z+1/2, -y+1/2'
'x+1/2, -z+1/2, y+1/2'
'z+1/2, y+1/2, -x+1/2'
'z+1/2, -y+1/2, x+1/2'
'-z+1/2, y+1/2, x+1/2'
'-z+1/2, -y+1/2, -x+1/2'
'x, y+1/2, z+1/2'
'-x, -y+1/2, z+1/2'
'-x, y+1/2, -z+1/2'
'x, -y+1/2, -z+1/2'
'z, x+1/2, y+1/2'
'z, -x+1/2, -y+1/2'
'-z, -x+1/2, y+1/2'
'-z, x+1/2, -y+1/2'
'y, z+1/2, x+1/2'
'-y, z+1/2, -x+1/2'
'y, -z+1/2, -x+1/2'
'-y, -z+1/2, x+1/2'
'y+1/2, x+1, -z+1'
'-y+1/2, -x+1, -z+1'
'y+1/2, -x+1, z+1'
'-y+1/2, x+1, z+1'
'x+1/2, z+1, -y+1'
'-x+1/2, z+1, y+1'
'-x+1/2, -z+1, -y+1'
'x+1/2, -z+1, y+1'
'z+1/2, y+1, -x+1'
'z+1/2, -y+1, x+1'
'-z+1/2, y+1, x+1'
'-z+1/2, -y+1, -x+1'
'x+1/2, y, z+1/2'
'-x+1/2, -y, z+1/2'
'-x+1/2, y, -z+1/2'
'x+1/2, -y, -z+1/2'
'z+1/2, x, y+1/2'
'z+1/2, -x, -y+1/2'
'-z+1/2, -x, y+1/2'
'-z+1/2, x, -y+1/2'
'y+1/2, z, x+1/2'
'-y+1/2, z, -x+1/2'
'y+1/2, -z, -x+1/2'
'-y+1/2, -z, x+1/2'
'y+1, x+1/2, -z+1'
'-y+1, -x+1/2, -z+1'
'y+1, -x+1/2, z+1'
'-y+1, x+1/2, z+1'
'x+1, z+1/2, -y+1'
'-x+1, z+1/2, y+1'
'-x+1, -z+1/2, -y+1'
'x+1, -z+1/2, y+1'
'z+1, y+1/2, -x+1'
'z+1, -y+1/2, x+1'
'-z+1, y+1/2, x+1'
'-z+1, -y+1/2, -x+1'
'x+1/2, y+1/2, z'
'-x+1/2, -y+1/2, z'
'-x+1/2, y+1/2, -z'
'x+1/2, -y+1/2, -z'
'z+1/2, x+1/2, y'
'z+1/2, -x+1/2, -y'
'-z+1/2, -x+1/2, y'
'-z+1/2, x+1/2, -y'
'y+1/2, z+1/2, x'
'-y+1/2, z+1/2, -x'
'y+1/2, -z+1/2, -x'
'-y+1/2, -z+1/2, x'
'y+1, x+1, -z+1/2'
'-y+1, -x+1, -z+1/2'
'y+1, -x+1, z+1/2'
'-y+1, x+1, z+1/2'
'x+1, z+1, -y+1/2'
'-x+1, z+1, y+1/2'
'-x+1, -z+1, -y+1/2'
'x+1, -z+1, y+1/2'
'z+1, y+1, -x+1/2'
'z+1, -y+1, x+1/2'
'-z+1, y+1, x+1/2'
'-z+1, -y+1, -x+1/2'
'-x, -y, -z'
'x, y, -z'
'x, -y, z'
'-x, y, z'
'-z, -x, -y'
'-z, x, y'
'z, x, -y'
'z, -x, y'
'-y, -z, -x'
'y, -z, x'
'-y, z, x'
'y, z, -x'
'-y-1/2, -x-1/2, z-1/2'
'y-1/2, x-1/2, z-1/2'
'-y-1/2, x-1/2, -z-1/2'
'y-1/2, -x-1/2, -z-1/2'
'-x-1/2, -z-1/2, y-1/2'
'x-1/2, -z-1/2, -y-1/2'
'x-1/2, z-1/2, y-1/2'
'-x-1/2, z-1/2, -y-1/2'
'-z-1/2, -y-1/2, x-1/2'
'-z-1/2, y-1/2, -x-1/2'
'z-1/2, -y-1/2, -x-1/2'
'z-1/2, y-1/2, x-1/2'
'-x, -y+1/2, -z+1/2'
'x, y+1/2, -z+1/2'
'x, -y+1/2, z+1/2'
'-x, y+1/2, z+1/2'
'-z, -x+1/2, -y+1/2'
'-z, x+1/2, y+1/2'
'z, x+1/2, -y+1/2'
'z, -x+1/2, y+1/2'
'-y, -z+1/2, -x+1/2'
'y, -z+1/2, x+1/2'
'-y, z+1/2, x+1/2'
'y, z+1/2, -x+1/2'
'-y-1/2, -x, z'
'y-1/2, x, z'
'-y-1/2, x, -z'
'y-1/2, -x, -z'
'-x-1/2, -z, y'
'x-1/2, -z, -y'
'x-1/2, z, y'
'-x-1/2, z, -y'
'-z-1/2, -y, x'
'-z-1/2, y, -x'
'z-1/2, -y, -x'
'z-1/2, y, x'
'-x+1/2, -y, -z+1/2'
'x+1/2, y, -z+1/2'
'x+1/2, -y, z+1/2'
'-x+1/2, y, z+1/2'
'-z+1/2, -x, -y+1/2'
'-z+1/2, x, y+1/2'
'z+1/2, x, -y+1/2'
'z+1/2, -x, y+1/2'
'-y+1/2, -z, -x+1/2'
'y+1/2, -z, x+1/2'
'-y+1/2, z, x+1/2'
'y+1/2, z, -x+1/2'
'-y, -x-1/2, z'
'y, x-1/2, z'
'-y, x-1/2, -z'
'y, -x-1/2, -z'
'-x, -z-1/2, y'
'x, -z-1/2, -y'
'x, z-1/2, y'
'-x, z-1/2, -y'
'-z, -y-1/2, x'
'-z, y-1/2, -x'
'z, -y-1/2, -x'
'z, y-1/2, x'
'-x+1/2, -y+1/2, -z'
'x+1/2, y+1/2, -z'
'x+1/2, -y+1/2, z'
'-x+1/2, y+1/2, z'
'-z+1/2, -x+1/2, -y'
'-z+1/2, x+1/2, y'
'z+1/2, x+1/2, -y'
'z+1/2, -x+1/2, y'
'-y+1/2, -z+1/2, -x'
'y+1/2, -z+1/2, x'
'-y+1/2, z+1/2, x'
'y+1/2, z+1/2, -x'
'-y, -x, z-1/2'
'y, x, z-1/2'
'-y, x, -z-1/2'
'y, -x, -z-1/2'
'-x, -z, y-1/2'
'x, -z, -y-1/2'
'x, z, y-1/2'
'-x, z, -y-1/2'
'-z, -y, x-1/2'
'-z, y, -x-1/2'
'z, -y, -x-1/2'
'z, y, x-1/2'
loop_
_atom_site_label
_atom_site_type_symbol
_atom_site_fract_x
_atom_site_fract_y
_atom_site_fract_z
_atom_site_U_iso_or_equiv
_atom_site_adp_type
_atom_site_occupancy
_atom_site_site_symmetry_order
_atom_site_calc_flag
_atom_site_refinement_flags_posn
_atom_site_refinement_flags_adp
_atom_site_refinement_flags_occupancy
_atom_site_disorder_assembly
_atom_site_disorder_group
Fe1 Fe 0.68180(2) 0.5000 0.25406(2) 0.01225(12) Uani 1 2 d S T P . .
Cl02 Cl 0.7500 0.5000 0.2500 0.0136(2) Uani 1 8 d S T P . .
O003 O 0.62622(6) 0.5000 0.25523(6) 0.0320(5) Uani 1 2 d DS TU P . .
N2 N 0.68749(4) 0.53921(3) 0.29407(4) 0.0151(3) Uani 1 1 d . . . . .
N1 N 0.71409(4) 0.53955(4) 0.31716(4) 0.0150(3) Uani 1 1 d . . . . .
N3 N 0.66644(4) 0.56652(4) 0.29908(4) 0.0176(3) Uani 1 1 d . . . . .
C1AA C 0.67982(4) 0.58513(5) 0.32625(4) 0.0173(3) Uani 1 1 d . . . . .
C0AA C 0.70990(4) 0.56781(4) 0.33752(5) 0.0189(3) Uani 1 1 d . . . . .
H0AA H 0.7248 0.5748 0.3563 0.023 Uiso 1 1 calc R . . . .
C4 C 0.67670(5) 0.63350(5) 0.36940(5) 0.0186(3) Uani 1 1 d . . . . .
H4 H 0.6972 0.6245 0.3804 0.022 Uiso 1 1 calc R . . . .
C3 C 0.66322(4) 0.61688(5) 0.33974(4) 0.0174(3) Uani 1 1 d . . . . .
C6 C 0.6041(3) 0.5179(3) 0.2682(4) 0.089(3) Uani 0.4 1 d D U . A -1
H6 H 0.6139 0.5364 0.2818 0.107 Uiso 0.4 1 calc R . . A -1
N4 N 0.5754(7) 0.5000 0.2827(11) 0.093(8) Uani 0.2 2 d DS TU P A 2
C11 C 0.6092(7) 0.5000 0.2822(7) 0.074(6) Uani 0.2 2 d DS TU P A 2
H11 H 0.6214 0.5000 0.3039 0.089 Uiso 0.2 2 calc RS T P A 2
N14 N 0.5702(4) 0.5188(6) 0.2684(7) 0.195(8) Uani 0.4 1 d D U . A -1
loop_
_atom_site_aniso_label
_atom_site_aniso_U_11
_atom_site_aniso_U_22
_atom_site_aniso_U_33
_atom_site_aniso_U_23
_atom_site_aniso_U_13
_atom_site_aniso_U_12
Fe1 0.01812(18) 0.00719(15) 0.01143(16) 0.000 -0.00006(10) 0.000
Cl02 0.0148(3) 0.0113(4) 0.0148(3) 0.000 0.000 0.000
O003 0.0224(10) 0.0421(12) 0.0316(11) 0.000 0.0017(8) 0.000
N2 0.0197(6) 0.0102(5) 0.0153(6) -0.0020(4) -0.0019(5) 0.0034(5)
N1 0.0163(6) 0.0106(5) 0.0182(6) -0.0036(4) -0.0010(5) 0.0028(4)
N3 0.0217(6) 0.0148(6) 0.0164(6) -0.0061(5) -0.0051(5) 0.0069(5)
C1AA 0.0179(7) 0.0168(7) 0.0172(7) -0.0069(5) -0.0055(5) 0.0069(5)
C0AA 0.0182(7) 0.0159(7) 0.0225(7) -0.0076(6) -0.0066(6) 0.0073(5)
C4 0.0187(7) 0.0186(7) 0.0185(7) -0.0077(6) -0.0091(6) 0.0091(6)
C3 0.0185(7) 0.0163(7) 0.0173(7) -0.0074(5) -0.0063(5) 0.0079(5)
C6 0.060(5) 0.088(7) 0.120(8) -0.036(6) 0.001(6) -0.004(5)
N4 0.051(10) 0.098(18) 0.129(18) 0.000 0.059(11) 0.000
C11 0.052(9) 0.089(13) 0.081(11) 0.000 0.024(9) 0.000
N14 0.073(6) 0.24(2) 0.275(18) -0.056(15) 0.056(11) 0.001(9)
loop_
_atom_type_symbol
_atom_type_description
_atom_type_scat_dispersion_real
_atom_type_scat_dispersion_imag
_atom_type_scat_source
C C 0.0040 0.0020 'International Tables Vol C Tables 4.2.6.8 and 6.1.1.4'
H H 0.0000 0.0000 'International Tables Vol C Tables 4.2.6.8 and 6.1.1.4'
Cl Cl 0.1690 0.1900 'International Tables Vol C Tables 4.2.6.8 and 6.1.1.4'
Fe Fe 0.3680 0.9950 'International Tables Vol C Tables 4.2.6.8 and 6.1.1.4'
N N 0.0080 0.0040 'International Tables Vol C Tables 4.2.6.8 and 6.1.1.4'
O O 0.0140 0.0070 'International Tables Vol C Tables 4.2.6.8 and 6.1.1.4'
loop_
_geom_angle_atom_site_label_1
_geom_angle_atom_site_label_2
_geom_angle_atom_site_label_3
_geom_angle
_geom_angle_site_symmetry_1
_geom_angle_site_symmetry_3
O003 Fe1 Cl02 177.81(6) . .
O003 Fe1 N2 94.94(6) . 99_565
O003 Fe1 N2 94.94(6) . .
O003 Fe1 N1 91.92(6) . 95_544
O003 Fe1 N1 91.92(6) . 189_665
N2 Fe1 Cl02 86.63(4) 99_565 .
N2 Fe1 Cl02 86.64(4) . .
N2 Fe1 N2 88.27(7) 99_565 .
N1 Fe1 Cl02 86.52(4) 189_665 .
N1 Fe1 Cl02 86.52(4) 95_544 .
N1 Fe1 N2 173.13(6) 95_544 99_565
N1 Fe1 N2 90.77(5) 189_665 99_565
N1 Fe1 N2 173.13(6) 189_665 .
N1 Fe1 N2 90.77(5) 95_544 .
N1 Fe1 N1 89.38(7) 189_665 95_544
Fe1 Cl02 Fe1 180.0 189_665 45_545
Fe1 Cl02 Fe1 90.0 189_665 145_665
Fe1 Cl02 Fe1 180.0 145_665 .
Fe1 Cl02 Fe1 90.0 45_545 145_665
Fe1 Cl02 Fe1 90.001(1) 189_665 .
Fe1 Cl02 Fe1 89.999(1) 45_545 .
C6 O003 Fe1 135.8(6) . .
C11 O003 Fe1 123.5(16) . .
N1 N2 Fe1 123.28(10) . .
N3 N2 Fe1 125.92(11) . .
N3 N2 N1 110.78(13) . .
N2 N1 Fe1 122.83(10) . 45_545
C0AA N1 Fe1 129.85(11) . 45_545
C0AA N1 N2 107.32(13) . .
N2 N3 C1AA 107.00(13) . .
N3 C1AA C0AA 107.35(14) . .
N3 C1AA C3 122.69(14) . .
C0AA C1AA C3 129.95(15) . .
N1 C0AA C1AA 107.55(14) . .
N1 C0AA H0AA 126.2 . .
C1AA C0AA H0AA 126.2 . .
C3 C4 H4 119.8 8_656 .
C3 C4 H4 119.8 . .
C3 C4 C3 120.45(16) . 8_656
C4 C3 C1AA 120.27(14) 11_566 .
C4 C3 C1AA 120.18(14) . .
C4 C3 C4 119.54(16) . 11_566
O003 C6 H6 111.7 . .
O003 C6 N14 136.6(15) . .
N14 C6 H6 111.7 . .
O003 C11 N4 123(3) . .
O003 C11 H11 118.4 . .
N4 C11 H11 118.4 . .
loop_
_geom_bond_atom_site_label_1
_geom_bond_atom_site_label_2
_geom_bond_distance
_geom_bond_site_symmetry_2
Fe1 Cl02 2.6008(3) .
Fe1 O003 2.116(2) .
Fe1 N2 2.1438(14) .
Fe1 N2 2.1436(14) 99_565
Fe1 N1 2.1410(14) 189_665
Fe1 N1 2.1410(14) 95_544
Cl02 Fe1 2.6008(3) 145_665
Cl02 Fe1 2.6008(3) 189_665
Cl02 Fe1 2.6008(3) 45_545
O003 C6 1.191(10) .
O003 C11 1.212(18) .
N2 N1 1.341(2) .
N2 N3 1.3263(18) .
N1 Fe1 2.1409(14) 45_545
N1 C0AA 1.336(2) .
N3 C1AA 1.353(2) .
C1AA C0AA 1.389(2) .
C1AA C3 1.458(2) .
C0AA H0AA 0.9500 .
C4 H4 0.9500 .
C4 C3 1.395(2) 8_656
C4 C3 1.392(2) .
C3 C4 1.395(2) 11_566
C6 H6 0.9500 .
C6 N14 1.291(14) .
N4 C11 1.29(2) .
C11 H11 0.9500 .
loop_
_geom_torsion_atom_site_label_1
_geom_torsion_atom_site_label_2
_geom_torsion_atom_site_label_3
_geom_torsion_atom_site_label_4
_geom_torsion
_geom_torsion_site_symmetry_1
_geom_torsion_site_symmetry_4
Fe1 O003 C6 N14 177.9(19) . .
Fe1 O003 C11 N4 180.000(3) . .
Fe1 N2 N1 Fe1 -1.72(18) . 45_545
Fe1 N2 N1 C0AA 178.53(12) . .
Fe1 N2 N3 C1AA -178.36(12) . .
Fe1 N1 C0AA C1AA -179.91(12) 45_545 .
N2 N1 C0AA C1AA -0.2(2) . .
N2 N3 C1AA C0AA -0.1(2) . .
N2 N3 C1AA C3 -178.96(17) . .
N1 N2 N3 C1AA 0.0(2) . .
N3 N2 N1 Fe1 179.86(11) . 45_545
N3 N2 N1 C0AA 0.10(19) . .
N3 C1AA C0AA N1 0.2(2) . .
N3 C1AA C3 C4 175.21(19) . .
N3 C1AA C3 C4 -4.0(3) . 11_566
C0AA C1AA C3 C4 177.4(2) . 11_566
C0AA C1AA C3 C4 -3.4(3) . .
C3 C1AA C0AA N1 178.91(19) . .
C3 C4 C3 C1AA -177.89(13) 8_656 .
C3 C4 C3 C4 1.4(4) 8_656 11_566
loop_
_smtbx_masks_void_nr
_smtbx_masks_void_average_x
_smtbx_masks_void_average_y
_smtbx_masks_void_average_z
_smtbx_masks_void_volume
_smtbx_masks_void_count_electrons
1 0.000 0.000 0.000 2849.3 305.4
2 0.000 0.000 0.500 2849.3 305.4
3 0.000 0.500 0.000 2849.3 305.4
4 0.000 0.500 0.500 2849.3 305.4
5 0.250 0.250 0.250 1049.6 194.6
6 0.250 0.250 0.750 1049.6 190.2
7 0.250 0.750 0.250 1049.6 190.2
8 0.250 0.750 0.750 1049.6 194.6
9 0.500 0.000 0.000 2849.3 305.4
10 0.500 0.000 0.500 2849.3 305.4
11 0.500 0.500 0.000 2849.3 305.4
12 0.500 0.500 0.500 2849.3 305.4
13 0.750 0.250 0.250 1049.6 190.2
14 0.750 0.250 0.750 1049.6 194.6
15 0.750 0.750 0.250 1049.6 194.6
16 0.750 0.750 0.750 1049.6 190.2
