#------------------------------------------------------------------------------
#$Date: 2019-11-25 16:13:29 +0200 (Mon, 25 Nov 2019) $
#$Revision: 241291 $
#$URL: file:///home/coder/svn-repositories/cod/cif/4/13/09/4130966.cif $
#------------------------------------------------------------------------------
#
# This file is available in the Crystallography Open Database (COD),
# http://www.crystallography.net/
#
# All data on this site have been placed in the public domain by the
# contributors.
#
data_4130966
loop_
_publ_author_name
'Alezi, Dalal'
'Spanopoulos, Ioannis'
'Tsangarakis, Constantinos'
'Shkurenko, Aleksander'
'Adil, Karim'
'Belmabkhout, Youssef'
'O Keeffe, Michael'
'Eddaoudi, Mohamed'
'Trikalitis, Pantelis N.'
_publ_section_title
;
 Reticular Chemistry at Its Best: Directed Assembly of Hexagonal Building
 Units into the Awaited Metal-Organic Framework with the Intricate
 Polybenzene Topology, pbz-MOF.
;
_journal_issue                   39
_journal_name_full               'Journal of the American Chemical Society'
_journal_page_first              12767
_journal_page_last               12770
_journal_paper_doi               10.1021/jacs.6b08176
_journal_volume                  138
_journal_year                    2016
_chemical_formula_moiety         'C94 H68 O32 Zr6'
_chemical_formula_sum            'C94 H68 O32 Zr6'
_chemical_formula_weight         2256.80
_space_group_crystal_system      cubic
_space_group_IT_number           227
_space_group_name_Hall           '-F 4vw 2vw 3'
_space_group_name_H-M_alt        'F d -3 m :2'
_atom_sites_solution_hydrogens   geom
_atom_sites_solution_primary     direct
_atom_sites_solution_secondary   difmap
_audit_creation_date             2016-05-26
_audit_creation_method
;
Olex2 1.2
(compiled 2016.02.19 svn.r3266 for OlexSys, GUI svn.r5155)
;
_cell_angle_alpha                90
_cell_angle_beta                 90
_cell_angle_gamma                90
_cell_formula_units_Z            16
_cell_length_a                   44.856(2)
_cell_length_b                   44.856(2)
_cell_length_c                   44.856(2)
_cell_measurement_reflns_used    1882
_cell_measurement_temperature    100.0(1)
_cell_measurement_theta_max      61.73
_cell_measurement_theta_min      4.29
_cell_volume                     90253(7)
_computing_cell_refinement       'SAINT v8.34A (Bruker, 2013)'
_computing_data_collection
'Bruker APEX2 v2009.3-0 (Bruker AXS Inc., 2009)'
_computing_data_reduction        'SAINT v8.34A (Bruker, 2013)'
_computing_molecular_graphics    'DIAMOND (Crystal Impact GbR, 2009'
_computing_publication_material  'Olex2 (Dolomanov et al., 2009)'
_computing_structure_refinement  'SHELXL-2014/7 (Sheldrick, 2014)'
_computing_structure_solution    'ShelXS (Sheldrick, 2008)'
_diffrn_ambient_temperature      100.15
_diffrn_detector_area_resol_mean 8.3
_diffrn_measured_fraction_theta_full 0.991
_diffrn_measured_fraction_theta_max 0.991
_diffrn_measurement_device_type  'Bruker X8 PROSPECTOR APEX2 CCD'
_diffrn_measurement_method       '\f and \w scans'
_diffrn_radiation_monochromator  mirrors
_diffrn_radiation_type           CuK\a
_diffrn_radiation_wavelength     1.54178
_diffrn_reflns_av_unetI/netI     0.0461
_diffrn_reflns_Laue_measured_fraction_full 0.991
_diffrn_reflns_Laue_measured_fraction_max 0.991
_diffrn_reflns_limit_h_max       47
_diffrn_reflns_limit_h_min       -33
_diffrn_reflns_limit_k_max       48
_diffrn_reflns_limit_k_min       -36
_diffrn_reflns_limit_l_max       48
_diffrn_reflns_limit_l_min       -48
_diffrn_reflns_number            30106
_diffrn_reflns_point_group_measured_fraction_full 0.991
_diffrn_reflns_point_group_measured_fraction_max 0.991
_diffrn_reflns_theta_full        55.945
_diffrn_reflns_theta_max         55.945
_diffrn_reflns_theta_min         4.296
_diffrn_source                   'Incoatec I\ms'
_exptl_absorpt_coefficient_mu    2.482
_exptl_absorpt_correction_T_max  0.2652
_exptl_absorpt_correction_T_min  0.1713
_exptl_absorpt_correction_type   multi-scan
_exptl_absorpt_process_details
;
SADABS-2014/5 (Bruker,2014/5) was used for absorption correction.
wR2(int) was 0.0730 before and 0.0663 after correction.
The Ratio of minimum to maximum transmission is 0.6459.
The \l/2 correction factor is 0.00150.
;
_exptl_crystal_colour            colorless
_exptl_crystal_density_diffrn    0.664
_exptl_crystal_description       octahedron
_exptl_crystal_F_000             18048
_exptl_crystal_size_max          0.08
_exptl_crystal_size_mid          0.06
_exptl_crystal_size_min          0.06
_refine_diff_density_max         1.204
_refine_diff_density_min         -0.535
_refine_diff_density_rms         0.087
_refine_ls_extinction_method     none
_refine_ls_goodness_of_fit_ref   1.003
_refine_ls_hydrogen_treatment    constr
_refine_ls_matrix_type           full
_refine_ls_number_parameters     112
_refine_ls_number_reflns         2761
_refine_ls_number_restraints     47
_refine_ls_restrained_S_all      1.084
_refine_ls_R_factor_all          0.1006
_refine_ls_R_factor_gt           0.0800
_refine_ls_shift/su_max          0.000
_refine_ls_shift/su_mean         0.000
_refine_ls_structure_factor_coef Fsqd
_refine_ls_weighting_details
'w=1/[\s^2^(Fo^2^)+(0.2000P)^2^] where P=(Fo^2^+2Fc^2^)/3'
_refine_ls_weighting_scheme      calc
_refine_ls_wR_factor_gt          0.2482
_refine_ls_wR_factor_ref         0.2703
_reflns_Friedel_coverage         0.000
_reflns_number_gt                1755
_reflns_number_total             2761
_reflns_threshold_expression     'I > 2\s(I)'
_cod_data_source_file            ja6b08176_si_002.cif
_cod_data_source_block           pbz-MOF-1
_cod_original_cell_volume        90252(9)
_cod_original_sg_symbol_H-M      'F d -3 m'
_cod_database_code               4130966
_shelx_space_group_comment
;
The symmetry employed for this shelxl refinement is uniquely defined
by the following loop, which should always be used as a source of
symmetry information in preference to the above space-group names.
They are only intended as comments.
;
_shelx_estimated_absorpt_t_max   0.865
_shelx_estimated_absorpt_t_min   0.826
_olex2_refinement_description
;
1. Fixed Uiso
 At 1.2 times of:
  All C(H) groups
 At 1.5 times of:
  All C(H,H,H) groups
2. Restrained distances
 C3-C2 = C4-C3 = C5-C4 = C7-C6 = C8-C7 = C9-C8
 1.39 with sigma of 0.001
 C11-C12
 1.5 with sigma of 0.01
 Zr1-O3 \\sim Zr1_$2-O3 \\sim Zr1_$1-O3
 with sigma of 0.001
3. Restrained planarity
 C2, C3, C4, C5, C3_$2, C4_$2
 with sigma of 0.001
 C6, C7, C8, C9, C7_$2, C8_$2
 with sigma of 0.001
4. Rigid bond restraints
 O1, C1
 with sigma for 1-2 distances of 0.01 and sigma for 1-3 distances of 0.01
5. Uiso/Uaniso restraints and constraints
O4 \\sim C11 \\sim C12: within 2A with sigma of 0.01 and sigma for terminal
atoms of 0.02
C3 \\sim C4: within 2A with sigma of 0.01 and sigma for terminal atoms of 0.02
Uanis(O3) \\sim Ueq: with sigma of 0.004 and sigma for terminal atoms of 0.002
Uanis(C10) \\sim Ueq: with sigma of 0.02 and sigma for terminal atoms of 0.04
6. Others
 Fixed Sof: C11(0.41667) C12(0.41667) H12A(0.41667) H12B(0.41667) H12C(0.41667)
7.a Aromatic/amide H refined with riding coordinates:
 C3(H3), C4(H4), C7(H7), C8(H8)
7.b Idealised Me refined with riding coordinates:
 C12(H12A,H12B,H12C)
;
_shelx_res_file
;
    kme_1085p.res created by SHELXL-2014/7

TITL KME_1085P in Fd-3m
CELL 1.54178 44.8559 44.8559 44.8559 90 90 90
ZERR 16 0.0015 0.0015 0.0015 0 0 0
LATT 4
SYMM 0.75-X,0.25-Y,0.5+Z
SYMM 0.25-X,0.5+Y,0.75-Z
SYMM 0.5+X,0.75-Y,0.25-Z
SYMM +Z,+X,+Y
SYMM 0.5+Z,0.75-X,0.25-Y
SYMM 0.75-Z,0.25-X,0.5+Y
SYMM 0.25-Z,0.5+X,0.75-Y
SYMM +Y,+Z,+X
SYMM 0.25-Y,0.5+Z,0.75-X
SYMM 0.5+Y,0.75-Z,0.25-X
SYMM 0.75-Y,0.25-Z,0.5+X
SYMM 0.75+Y,0.25+X,0.5-Z
SYMM -Y,-X,-Z
SYMM 0.25+Y,0.5-X,0.75+Z
SYMM 0.5-Y,0.75+X,0.25+Z
SYMM 0.75+X,0.25+Z,0.5-Y
SYMM 0.5-X,0.75+Z,0.25+Y
SYMM -X,-Z,-Y
SYMM 0.25+X,0.5-Z,0.75+Y
SYMM 0.75+Z,0.25+Y,0.5-X
SYMM 0.25+Z,0.5-Y,0.75+X
SYMM 0.5-Z,0.75+Y,0.25+X
SYMM -Z,-Y,-X
SFAC C H O Zr
UNIT 1504 1088 512 96
EQIV $1 +Z,+X,+Y
EQIV $2 1-X,1-Z,1-Y
DFIX 1.39 0.001 C3 C2 C4 C3 C5 C4 C7 C6 C8 C7 C9 C8
DFIX 1.5 0.01 C11 C12
SADI 0.001 Zr1 O3 Zr1_$2 O3 Zr1_$1 O3
FLAT 0.001 C2 C3 C4 C5 C3_$2 C4_$2
FLAT 0.001 C6 C7 C8 C9 C7_$2 C8_$2
DELU O1 C1
SIMU 0.01 0.02 2 O4 C11 C12
SIMU 0.01 0.02 2 C3 C4
ISOR 0.004 0.002 O3
ISOR 0.02 0.04 C10

L.S. 11
PLAN  10
SIZE 0.06 0.06 0.08
TEMP -173
MORE -1
BOND $H
CONF
LIST 4
fmap 2
acta
MERG 2
SHEL 12 0.93
OMIT 0 180
OMIT 5 5 5
OMIT 1 5 5
OMIT 8 12 26
OMIT 2 12 14
OMIT 0 4 12
OMIT 6 12 14
OMIT 3 3 7
OMIT 6 10 28
OMIT 2 4 10
OMIT 0 2 10
OMIT 1 3 7
OMIT 1 1 3
REM <olex2.extras>
REM <HklSrc "%.\\kme_1085p-mask.hkl">
REM </olex2.extras>

WGHT    0.200000
FVAR       0.00687
ZR1   4    0.500020    0.500020    0.444814    10.50000    0.09514    0.09514 =
         0.08043    0.04561    0.04561    0.04281
O1    3    0.500965    0.543491    0.421193    11.00000    0.12525    0.12116 =
         0.10096    0.07029    0.04286    0.03024
O2    3    0.470842    0.470842    0.470842    10.16667    0.09379    0.09379 =
         0.09379    0.05268    0.05268    0.05268
O3    3    0.472816    0.527151    0.472816    10.50000    0.09914    0.09725 =
         0.09914    0.02232    0.07047    0.02232
O4    3    0.459331    0.500408    0.416893    11.00000    0.15659    0.16961 =
         0.14968    0.07701   -0.00869    0.04465
C1    1    0.500000    0.570079    0.429921    10.50000    0.11148    0.09990 =
         0.09990    0.05911    0.02538    0.02538
C2    1    0.500000    0.593096    0.406904    10.50000    0.11965    0.12301 =
         0.12301    0.06952    0.00660    0.00660
C3    1    0.502470    0.585486    0.376976    11.00000    0.28929    0.14978 =
         0.12637    0.08895   -0.01672   -0.04192
AFIX  43
H3    2    0.504176    0.565122    0.371413    11.00000   -1.20000
AFIX   0
C4    1    0.502463    0.607449    0.355120    11.00000    0.29902    0.16391 =
         0.12907    0.09083   -0.02374   -0.04942
AFIX  43
H4    2    0.504169    0.601883    0.334756    11.00000   -1.20000
AFIX   0
C5    1    0.500000    0.637426    0.362574    10.50000    0.20615    0.12415 =
         0.12415    0.06465   -0.02949   -0.02949
C6    1    0.500000    0.660231    0.339769    10.50000    0.22954    0.14147 =
         0.14147    0.10269   -0.08070   -0.08070
C7    1    0.516239    0.656681    0.313613    11.00000    0.25524    0.17300 =
         0.17634    0.12883   -0.07584   -0.07266
AFIX  43
H7    2    0.527494    0.638972    0.310735    11.00000   -1.20000
AFIX   0
C8    1    0.516374    0.678468    0.291579    11.00000    0.22954    0.22782 =
         0.14361    0.13439   -0.08057   -0.11165
AFIX  43
H8    2    0.527627    0.675593    0.273869    11.00000   -1.20000
AFIX   0
C9    1    0.500000    0.704467    0.295533    10.50000    0.17701    0.17856 =
         0.17856    0.13300   -0.11857   -0.11857
C10   1    0.500000    0.728158    0.271842    10.50000    0.15158    0.15142 =
         0.15142    0.11384   -0.10065   -0.10065
C11   1    0.428762    0.501686    0.428762    10.41667    0.16894    0.20706 =
         0.16894    0.06495   -0.02353    0.06495
C12   1    0.405201    0.498344    0.405201    10.41667    0.20536    0.29951 =
         0.20536    0.07824   -0.02631    0.07824
PART -1
AFIX 133
H12A  2    0.389044    0.512553    0.408992    10.41667   -1.50000
H12B  2    0.397264    0.477994    0.405675    10.41667   -1.50000
H12C  2    0.413924    0.502303    0.385566    10.41667   -1.50000
AFIX   0
HKLF 4

REM  KME_1085P in Fd-3m
REM R1 =  0.0800 for    1755 Fo > 4sig(Fo)  and  0.1006 for all    2761 data
REM    112 parameters refined using     47 restraints

END

WGHT      0.2000      0.0000

REM Highest difference peak  1.204,  deepest hole -0.535,  1-sigma level  0.087
Q1    1   0.4609  0.5175  0.4609  10.50000  0.05    1.20
Q2    1   0.5108  0.5108  0.4596  10.50000  0.05    0.77
Q3    1   0.4917  0.4917  0.4282  10.50000  0.05    0.61
Q4    1   0.5108  0.4982  0.4315  11.00000  0.05    0.43
Q5    1   0.5000  0.6931  0.3069  10.50000  0.05    0.39
Q6    1   0.4985  0.6892  0.2999  11.00000  0.05    0.36
Q7    1   0.5143  0.7171  0.2584  11.00000  0.05    0.33
Q8    1   0.4807  0.7309  0.2693  10.50000  0.05    0.28
Q9    1   0.3750  0.4843  0.3750  10.25000  0.05    0.27
Q10   1   0.5044  0.5909  0.3263  11.00000  0.05    0.26
;
_shelx_res_checksum              72310
_shelx_hkl_file
;
   0   2   2  113.57    0.04
   0   4   4   38.79   10.99
   0   6   2    0.53    0.31
   0   6   6   83.64    1.03
   0   8   4   78.07    1.26
   0   8   8   96.19    1.56
   0  10   2    3.80    0.28
   0  10   6    9.45    0.25
   0  10  10   13.67    0.18
   0  12   0  710.26   54.29
   0  12   4    5.05    0.41
   0  12   8   25.70    0.53
   0  12  12    1.65    0.21
   0  14   2    0.77    0.19
   0  14   6    0.01    0.44
   0  14  10    0.06    0.23
   0  14  14    3.99    0.50
   0  16   0  282.47   11.92
   0  16   4   20.88    0.49
   0  16   8    0.18    0.60
   0  16  12   26.63    1.54
   0  16  16  137.51    9.34
   0  18   2    0.29    0.05
   0  18   6    1.79    0.24
   0  18  10    1.55    0.36
   0  18  14    7.30    0.79
   0  18  18   16.75    1.34
   0  20   0  231.33   11.54
   0  20   4   14.42    0.51
   0  20   8    1.57    0.22
   0  20  12   49.62    2.00
   0  20  16   94.52    2.78
   0  20  20   81.99    2.57
   0  22   2    0.01    0.07
   0  22   6    0.05    0.07
   0  22  10    0.00    0.09
   0  22  14    4.12    0.16
   0  22  18    9.99    0.29
   0  22  22    4.13    0.30
   0  24   0  138.40    7.28
   0  24   4    8.26    0.30
   0  24   8    4.85    0.19
   0  24  12    4.00    0.13
   0  24  16   18.50    0.42
   0  24  20   16.58    0.43
   0  24  24    7.59    0.37
   0  26   2    0.01    0.31
   0  26   6    0.30    0.09
   0  26  10    0.11    0.05
   0  26  14    0.00    0.05
   0  26  18    0.42    0.06
   0  26  22    1.34    0.12
   0  26  26    0.36    0.12
   0  28   0   27.68    1.28
   0  28   4    0.00    0.09
   0  28   8   10.37    0.35
   0  28  12    1.90    0.13
   0  28  16    1.65    0.07
   0  28  20    2.52    0.08
   0  28  24    0.14    0.05
   0  28  28    1.99    0.11
   0  30   2    0.00    0.05
   0  30   6    0.24    0.13
   0  30  10    0.64    0.08
   0  30  14    0.16    0.09
   0  30  18    0.10    0.06
   0  30  22    0.01    0.07
   0  30  26    0.33    0.08
   0  30  30    0.98    0.12
   0  32   0   27.43    1.08
   0  32   4    4.71    0.19
   0  32   8    0.10    0.09
   0  32  12    1.95    0.11
   0  32  16    2.26    0.13
   0  32  20    4.09    0.14
   0  32  24    0.16    0.07
   0  32  28    0.62    0.06
   0  32  32    1.91    0.13
   0  34   2    0.10    0.07
   0  34   6    0.07    0.08
   0  34  10    1.34    0.11
   0  34  14    0.28    0.08
   0  34  18    1.94    0.11
   0  34  22    1.20    0.09
   0  34  26    0.00    0.05
   0  34  30    1.06    0.06
   0  34  34    3.74    0.33
   0  36   0   28.69    1.65
   0  36   4   13.02    0.49
   0  36   8    4.96    0.19
   0  36  12    1.57    0.10
   0  36  16    9.60    0.26
   0  36  20   10.28    0.29
   0  36  24    2.12    0.10
   0  36  28    1.37    0.10
   0  36  32    4.81    0.15
   0  38   2    0.12    0.15
   0  38   6    0.72    0.10
   0  38  10    0.01    0.05
   0  38  14    0.90    0.08
   0  38  18    2.10    0.12
   0  38  22    1.31    0.08
   0  38  26    0.36    0.06
   0  40   4    4.04    0.26
   0  40   8    0.00    0.10
   0  40  12    0.53    0.08
   0  40  16    3.52    0.19
   0  40  20    2.79    0.12
   0  40  24    0.32    0.05
   0  42   2    0.12    0.16
   0  42   6    0.00    0.09
   0  42  10    0.00    0.09
   0  42  14    0.26    0.09
   0  42  18    0.64    0.07
   0  42  22    0.03    0.06
   0  44   4    0.00    0.10
   0  44   8    0.89    0.11
   0  44  12    0.05    0.09
   0  44  16    0.33    0.08
   0  46   2    0.00    0.12
   0  46   6    0.04    0.08
   0  46  10    0.01    0.09
   0  46  14    0.03    0.07
   0  48   0    0.33    0.17
   0  48   4    0.00    0.08
   1   1   1  134.55    0.01
   1   3   1   16.49    0.03
   1   3   3   56.06    4.82
   1   5   1   86.69    3.87
   1   5   3    0.07    0.52
   1   5   5   33.52    0.27
   1   7   1   23.74    0.19
   1   7   3    4.06    0.07
   1   7   5    5.41    0.08
   1   7   7    8.52    0.43
   1   9   1   25.58    0.96
   1   9   3    0.01    0.09
   1   9   5    1.42    0.07
   1   9   7   31.67    0.82
   1   9   9    4.99    0.25
   1  11   1   39.11    2.33
   1  11   3    5.08    0.21
   1  11   5    1.59    0.11
   1  11   7    8.09    0.28
   1  11   9   13.76    0.38
   1  11  11    8.46    0.59
   1  13   1   57.36    1.41
   1  13   3   13.02    0.36
   1  13   5    3.41    0.18
   1  13   7    2.75    0.22
   1  13   9    0.87    0.14
   1  13  11    0.03    0.08
   1  13  13    3.81    0.29
   1  15   1   80.21    2.68
   1  15   3   31.39    0.74
   1  15   5    2.38    0.10
   1  15   7    0.03    0.14
   1  15   9    0.26    0.18
   1  15  11    2.11    0.21
   1  15  13   14.52    0.52
   1  15  15   96.98    3.02
   1  17   1   27.02    0.55
   1  17   3   27.99    0.52
   1  17   5    0.75    0.14
   1  17   7    0.19    0.12
   1  17   9    0.76    0.17
   1  17  11    6.03    0.19
   1  17  13   71.19    1.84
   1  17  15   21.43    0.75
   1  17  17   48.68    2.33
   1  19   1   30.12    0.59
   1  19   3   12.83    0.19
   1  19   5    3.51    0.19
   1  19   7    0.13    0.08
   1  19   9    0.37    0.16
   1  19  11   26.51    1.02
   1  19  13   12.52    0.39
   1  19  15   34.96    0.84
   1  19  17   10.09    0.24
   1  19  19   34.35    0.78
   1  21   1   32.15    0.78
   1  21   3   11.58    0.21
   1  21   5    0.69    0.06
   1  21   7    0.35    0.07
   1  21   9    5.02    0.19
   1  21  11    2.26    0.27
   1  21  13   17.46    0.42
   1  21  15    8.10    0.21
   1  21  17   27.99    0.42
   1  21  19    6.38    0.14
   1  21  21   22.08    0.47
   1  23   1   29.99    0.90
   1  23   3   12.31    0.24
   1  23   5    0.02    0.05
   1  23   7    0.18    0.04
   1  23   9    0.02    0.05
   1  23  11    1.22    0.07
   1  23  13    1.99    0.11
   1  23  15   10.02    0.18
   1  23  17    2.11    0.09
   1  23  19   12.53    0.23
   1  23  21    2.35    0.08
   1  23  23    8.74    0.27
   1  25   1   16.66    0.53
   1  25   3    5.53    0.14
   1  25   5    0.03    0.05
   1  25   7    2.18    0.09
   1  25   9    1.77    0.08
   1  25  11    0.04    0.07
   1  25  13    0.83    0.05
   1  25  15    0.99    0.06
   1  25  17    4.47    0.11
   1  25  19    0.73    0.07
   1  25  21    5.88    0.14
   1  25  23    0.24    0.05
   1  25  25    0.05    0.07
   1  27   3    1.72    0.11
   1  27   5    0.59    0.07
   1  27   7    3.69    0.20
   1  27   9    2.10    0.07
   1  27  11    1.71    0.07
   1  27  13    0.04    0.04
   1  27  15    0.83    0.05
   1  27  17    0.16    0.04
   1  27  19    2.25    0.08
   1  27  21    0.05    0.04
   1  27  23    0.09    0.04
   1  27  25    0.00    0.04
   1  27  27    1.31    0.07
   1  29   1    3.20    0.12
   1  29   3    0.87    0.06
   1  29   5    0.48    0.06
   1  29   7    1.34    0.07
   1  29   9    3.30    0.10
   1  29  11    0.51    0.06
   1  29  13    0.01    0.03
   1  29  15    0.20    0.04
   1  29  17    1.04    0.06
   1  29  19    0.15    0.04
   1  29  21    0.42    0.04
   1  29  23    0.00    0.04
   1  29  25    0.69    0.05
   1  29  27    0.02    0.03
   1  29  29    0.21    0.05
   1  31   1    3.55    0.14
   1  31   3    1.92    0.08
   1  31   5    0.01    0.05
   1  31   7    0.38    0.07
   1  31   9    0.13    0.05
   1  31  11    0.01    0.04
   1  31  13    0.08    0.05
   1  31  15    0.85    0.07
   1  31  17    0.30    0.05
   1  31  19    1.65    0.08
   1  31  21    0.15    0.05
   1  31  23    0.06    0.04
   1  31  25    0.00    0.04
   1  31  27    0.01    0.03
   1  31  29    0.02    0.03
   1  31  31    0.31    0.09
   1  33   1    7.59    0.22
   1  33   3    3.13    0.12
   1  33   5    1.86    0.08
   1  33   7    0.17    0.05
   1  33   9    0.29    0.08
   1  33  11    0.05    0.05
   1  33  13    0.96    0.08
   1  33  15    0.42    0.05
   1  33  17    3.92    0.10
   1  33  19    0.43    0.06
   1  33  21    2.45    0.08
   1  33  23    0.05    0.04
   1  33  25    0.54    0.05
   1  33  27    0.00    0.03
   1  33  29    0.44    0.05
   1  33  31    0.11    0.03
   1  33  33    3.78    0.13
   1  35   1    5.91    0.29
   1  35   3    6.26    0.19
   1  35   5    1.22    0.07
   1  35   7    1.88    0.08
   1  35   9    0.21    0.05
   1  35  11    0.50    0.06
   1  35  13    0.26    0.06
   1  35  15    3.98    0.13
   1  35  17    1.01    0.06
   1  35  19    5.69    0.12
   1  35  21    0.38    0.05
   1  35  23    2.61    0.08
   1  35  25    0.05    0.04
   1  35  27    0.57    0.04
   1  35  29    0.01    0.04
   1  35  31    2.55    0.08
   1  35  33    0.22    0.03
   1  37   1    7.05    0.33
   1  37   3    3.43    0.15
   1  37   5    4.11    0.14
   1  37   7    0.52    0.06
   1  37   9    0.33    0.05
   1  37  11    0.03    0.04
   1  37  13    2.16    0.08
   1  37  15    0.53    0.05
   1  37  17    6.09    0.15
   1  37  19    0.89    0.06
   1  37  21    4.56    0.14
   1  37  23    0.19    0.04
   1  37  25    1.10    0.06
   1  37  27    0.01    0.04
   1  37  29    1.08    0.04
   1  39   1    2.80    0.36
   1  39   3    2.95    0.18
   1  39   5    0.53    0.11
   1  39   7    0.17    0.07
   1  39   9    0.04    0.05
   1  39  11    0.36    0.05
   1  39  13    0.06    0.05
   1  39  15    2.55    0.08
   1  39  17    0.29    0.05
   1  39  19    3.12    0.07
   1  39  21    0.16    0.04
   1  39  23    1.12    0.04
   1  39  25    0.00    0.04
   1  39  27    0.12    0.04
   1  41   1    1.91    0.28
   1  41   3    0.71    0.14
   1  41   5    0.18    0.08
   1  41   7    0.00    0.07
   1  41   9    0.01    0.08
   1  41  11    0.00    0.06
   1  41  13    0.35    0.05
   1  41  15    0.10    0.05
   1  41  17    1.14    0.06
   1  41  19    0.07    0.04
   1  41  21    0.54    0.05
   1  41  23    0.01    0.04
   1  41  25    0.01    0.04
   1  43   3    0.13    0.08
   1  43   5    0.00    0.07
   1  43   7    0.13    0.07
   1  43   9    0.03    0.06
   1  43  11    0.06    0.07
   1  43  13    0.00    0.05
   1  43  15    0.08    0.05
   1  43  17    0.01    0.04
   1  43  19    0.17    0.05
   1  43  21    0.00    0.04
   1  45   1    0.08    0.12
   1  45   3    0.01    0.08
   1  45   5    0.02    0.07
   1  45   7    0.05    0.08
   1  45   9    0.43    0.07
   1  45  11    0.04    0.06
   1  45  13    0.03    0.06
   1  45  15    0.01    0.05
   1  45  17    0.03    0.05
   1  47   1    0.06    0.07
   1  47   3    0.04    0.07
   1  47   5    0.01    0.07
   1  47   7    0.09    0.06
   1  47   9    0.01    0.06
   2   2   2 2547.72    0.05
   2   4   2   93.86    0.53
   2   4   4   35.22    0.25
   2   6   2   44.42    2.43
   2   6   4    4.50    0.07
   2   6   6   28.91    0.12
   2   8   2   72.73    0.76
   2   8   4    1.63    0.06
   2   8   6    0.60    0.08
   2   8   8   24.62    0.94
   2  10   2   55.24    0.98
   2  10   4    3.73    0.11
   2  10   6   56.35    2.19
   2  10   8    0.22    0.08
   2  10  10  101.80    3.27
   2  12   2   39.85    3.21
   2  12   4    5.46    0.13
   2  12   6    0.00    0.12
   2  12   8    7.39    0.32
   2  12  10    0.46    0.09
   2  12  12    0.01    0.12
   2  14   2  187.23    5.43
   2  14   4    0.04    0.10
   2  14   6    0.10    0.09
   2  14   8    0.45    0.13
   2  14  10    2.58    0.16
   2  14  12    1.44    0.08
   2  14  14   32.60    0.95
   2  16   2    9.17    0.26
   2  16   4    0.03    0.06
   2  16   6    1.52    0.10
   2  16   8    0.56    0.12
   2  16  10    0.48    0.14
   2  16  12    0.02    0.06
   2  16  14    0.11    0.09
   2  16  16   12.46    0.40
   2  18   2   73.89    1.77
   2  18   4    0.57    0.05
   2  18   6    2.37    0.10
   2  18   8    0.27    0.09
   2  18  10    5.68    0.28
   2  18  12    0.01    0.11
   2  18  14  102.86    2.44
   2  18  16    0.64    0.08
   2  18  18  112.59    3.36
   2  20   2    3.60    0.08
   2  20   4    0.08    0.06
   2  20   6    0.52    0.05
   2  20   8    0.98    0.10
   2  20  10    0.17    0.07
   2  20  12    0.68    0.13
   2  20  14    0.00    0.07
   2  20  16    9.75    0.24
   2  20  18    0.13    0.06
   2  20  20   12.59    0.31
   2  22   2   70.32    1.90
   2  22   4    0.01    0.06
   2  22   6    0.77    0.07
   2  22   8    0.02    0.05
   2  22  10    0.80    0.08
   2  22  12    0.01    0.09
   2  22  14   27.50    0.54
   2  22  16    0.17    0.05
   2  22  18   42.26    0.66
   2  22  20    0.05    0.06
   2  22  22   17.58    0.46
   2  24   2    1.33    0.10
   2  24   4    0.01    0.06
   2  24   6    0.08    0.06
   2  24   8    0.06    0.07
   2  24  10    0.00    0.04
   2  24  12    0.00    0.05
   2  24  14    0.01    0.05
   2  24  16    1.64    0.07
   2  24  18    0.08    0.05
   2  24  20    1.86    0.07
   2  24  22    0.03    0.05
   2  24  24    0.88    0.08
   2  26   2   16.98    1.01
   2  26   4    0.00    0.08
   2  26   6    8.24    0.22
   2  26   8    0.02    0.06
   2  26  10   10.77    0.30
   2  26  12    0.01    0.05
   2  26  14    0.23    0.03
   2  26  16    0.01    0.04
   2  26  18    3.61    0.11
   2  26  20    0.01    0.04
   2  26  22    1.54    0.06
   2  26  24    0.02    0.04
   2  26  26    0.92    0.09
   2  28   2    0.22    0.07
   2  28   4    0.08    0.07
   2  28   6    0.02    0.06
   2  28   8    0.79    0.04
   2  28  10    0.00    0.04
   2  28  12    0.71    0.05
   2  28  14    0.00    0.04
   2  28  16    0.02    0.04
   2  28  18    0.04    0.04
   2  28  20    0.04    0.05
   2  28  22    0.00    0.03
   2  28  24    0.30    0.05
   2  28  26    0.02    0.05
   2  28  28    1.91    0.11
   2  30   2    5.08    0.19
   2  30   4    0.00    0.05
   2  30   6    2.73    0.10
   2  30   8    0.03    0.05
   2  30  10    4.74    0.11
   2  30  12    0.00    0.05
   2  30  14    0.43    0.05
   2  30  16    0.01    0.04
   2  30  18    1.01    0.05
   2  30  20    0.00    0.04
   2  30  22    0.07    0.04
   2  30  24    0.01    0.04
   2  30  26    1.96    0.06
   2  30  28    0.00    0.03
   2  30  30    1.72    0.08
   2  32   2    0.06    0.05
   2  32   4    0.01    0.05
   2  32   6    0.00    0.05
   2  32   8    0.13    0.05
   2  32  10    0.00    0.06
   2  32  12    0.72    0.05
   2  32  14    0.01    0.05
   2  32  16    0.09    0.05
   2  32  18    0.00    0.05
   2  32  20    0.67    0.06
   2  32  22    0.00    0.05
   2  32  24    0.01    0.04
   2  32  26    0.00    0.04
   2  32  28    0.66    0.05
   2  32  30    0.01    0.03
   2  32  32    0.94    0.07
   2  34   2   20.04    0.60
   2  34   4    0.05    0.06
   2  34   6    3.28    0.10
   2  34   8    0.00    0.05
   2  34  10    2.68    0.12
   2  34  12    0.02    0.05
   2  34  14    2.18    0.08
   2  34  16    0.02    0.04
   2  34  18    8.85    0.17
   2  34  20    0.07    0.05
   2  34  22    3.70    0.11
   2  34  24    0.01    0.04
   2  34  26    0.00    0.04
   2  34  28    0.01    0.03
   2  34  30    1.33    0.05
   2  34  32    0.04    0.04
   2  34  34    5.36    0.19
   2  36   2    0.05    0.15
   2  36   4    0.25    0.09
   2  36   6    0.00    0.05
   2  36   8    1.20    0.07
   2  36  10    0.00    0.04
   2  36  12    0.08    0.05
   2  36  14    0.04    0.05
   2  36  16    1.71    0.08
   2  36  18    0.02    0.05
   2  36  20    2.34    0.10
   2  36  22    0.02    0.04
   2  36  24    0.36    0.04
   2  36  26    0.01    0.04
   2  36  28    0.56    0.05
   2  36  30    0.00    0.04
   2  36  32    2.29    0.06
   2  38   2   12.82    0.73
   2  38   4    0.09    0.07
   2  38   6    4.61    0.14
   2  38   8    0.01    0.05
   2  38  10    0.10    0.05
   2  38  12    0.01    0.05
   2  38  14    3.88    0.09
   2  38  16    0.06    0.03
   2  38  18    7.57    0.15
   2  38  20    0.05    0.04
   2  38  22    3.05    0.08
   2  38  24    0.01    0.03
   2  38  26    0.53    0.03
   2  38  28    0.00    0.04
   2  40   2    0.12    0.16
   2  40   4    0.36    0.17
   2  40   6    0.02    0.08
   2  40   8    0.01    0.06
   2  40  10    0.00    0.06
   2  40  12    0.14    0.04
   2  40  14    0.04    0.04
   2  40  16    0.71    0.06
   2  40  18    0.01    0.04
   2  40  20    0.87    0.05
   2  40  22    0.01    0.03
   2  40  24    0.05    0.03
   2  40  26    0.00    0.05
   2  42   2    2.54    0.28
   2  42   4    0.05    0.08
   2  42   6    0.12    0.12
   2  42   8    0.00    0.11
   2  42  10    0.30    0.07
   2  42  12    0.00    0.05
   2  42  14    0.27    0.05
   2  42  16    0.02    0.04
   2  42  18    0.92    0.08
   2  42  20    0.01    0.04
   2  42  22    0.00    0.04
   2  44   2    0.08    0.20
   2  44   4    0.00    0.06
   2  44   6    0.01    0.06
   2  44   8    0.11    0.07
   2  44  10    0.01    0.07
   2  44  12    0.00    0.06
   2  44  14    0.01    0.05
   2  44  16    0.10    0.04
   2  44  18    0.00    0.05
   2  46   2    0.01    0.10
   2  46   4    0.01    0.07
   2  46   6    0.51    0.09
   2  46   8    0.03    0.06
   2  46  10    0.70    0.09
   2  46  12    0.01    0.06
   2  46  14    0.00    0.05
   2  48   2    0.02    0.08
   2  48   4    0.00    0.06
   3   3   3  202.08    6.23
   3   5   3    2.55    0.33
   3   5   5    0.02    0.34
   3   7   3    8.03    0.18
   3   7   5   20.76    0.27
   3   7   7   15.08    0.27
   3   9   3   12.02    0.20
   3   9   5   23.35    0.55
   3   9   7   16.04    0.30
   3   9   9   23.09    0.59
   3  11   3    0.58    0.16
   3  11   5   16.40    0.32
   3  11   7    2.31    0.07
   3  11   9   18.17    0.40
   3  11  11    2.60    0.15
   3  13   3    9.85    0.42
   3  13   5    0.42    0.10
   3  13   7    2.79    0.17
   3  13   9   12.14    0.28
   3  13  11    2.00    0.09
   3  13  13    0.08    0.06
   3  15   3    2.45    0.16
   3  15   5    0.50    0.10
   3  15   7    0.25    0.06
   3  15   9    0.10    0.06
   3  15  11    1.44    0.10
   3  15  13    6.64    0.17
   3  15  15   79.46    2.04
   3  17   3   32.47    0.97
   3  17   5    5.58    0.13
   3  17   7    1.56    0.10
   3  17   9    0.93    0.05
   3  17  11    7.70    0.26
   3  17  13   58.39    1.33
   3  17  15   17.38    0.49
   3  17  17   43.39    1.46
   3  19   3    0.73    0.11
   3  19   5    3.34    0.08
   3  19   7    0.17    0.08
   3  19   9    0.20    0.08
   3  19  11   26.04    0.87
   3  19  13    9.48    0.29
   3  19  15   31.18    0.68
   3  19  17   10.69    0.23
   3  19  19   33.92    0.77
   3  21   3    2.02    0.14
   3  21   5    0.03    0.07
   3  21   7    0.01    0.09
   3  21   9    0.27    0.07
   3  21  11    0.65    0.08
   3  21  13    5.01    0.21
   3  21  15    3.05    0.12
   3  21  17   15.75    0.26
   3  21  19    3.17    0.13
   3  21  21    9.32    0.27
   3  23   3    0.66    0.10
   3  23   5    0.15    0.06
   3  23   7    0.84    0.09
   3  23   9    0.31    0.14
   3  23  11    0.04    0.09
   3  23  13    0.32    0.06
   3  23  15    4.71    0.12
   3  23  17    1.91    0.08
   3  23  19    7.89    0.17
   3  23  21    0.94    0.07
   3  23  23    3.55    0.13
   3  25   3    0.20    0.10
   3  25   5    0.46    0.06
   3  25   7    5.23    0.18
   3  25   9    4.76    0.18
   3  25  11    0.40    0.13
   3  25  13    0.09    0.05
   3  25  15    0.02    0.04
   3  25  17    1.62    0.06
   3  25  19    0.00    0.04
   3  25  21    1.73    0.07
   3  25  23    0.00    0.04
   3  25  25    0.39    0.07
   3  27   3    0.12    0.19
   3  27   5    0.70    0.05
   3  27   7    6.70    0.19
   3  27   9    4.47    0.21
   3  27  11    3.99    0.11
   3  27  13    0.16    0.05
   3  27  15    0.01    0.04
   3  27  17    0.41    0.05
   3  27  19    0.59    0.06
   3  27  21    0.00    0.03
   3  27  23    0.35    0.04
   3  27  25    0.18    0.03
   3  27  27    4.14    0.12
   3  29   3    0.00    0.07
   3  29   5    0.58    0.08
   3  29   7    1.71    0.08
   3  29   9    4.08    0.10
   3  29  11    0.49    0.06
   3  29  13    0.38    0.04
   3  29  15    0.01    0.04
   3  29  17    0.26    0.04
   3  29  19    0.03    0.04
   3  29  21    0.00    0.04
   3  29  23    0.00    0.04
   3  29  25    2.08    0.07
   3  29  27    0.06    0.04
   3  29  29    0.91    0.06
   3  31   3    0.40    0.06
   3  31   5    0.00    0.05
   3  31   7    0.97    0.07
   3  31   9    0.60    0.05
   3  31  11    0.17    0.06
   3  31  13    0.00    0.04
   3  31  15    0.19    0.04
   3  31  17    0.13    0.05
   3  31  19    0.84    0.06
   3  31  21    0.00    0.04
   3  31  23    0.10    0.04
   3  31  25    0.14    0.04
   3  31  27    0.52    0.05
   3  31  29    0.02    0.03
   3  31  31    0.02    0.05
   3  33   3    1.04    0.11
   3  33   5    0.74    0.07
   3  33   7    0.03    0.05
   3  33   9    0.02    0.05
   3  33  11    0.10    0.04
   3  33  13    0.14    0.05
   3  33  15    0.49    0.05
   3  33  17    2.35    0.08
   3  33  19    0.55    0.06
   3  33  21    1.28    0.07
   3  33  23    0.11    0.05
   3  33  25    0.06    0.04
   3  33  27    0.00    0.05
   3  33  29    0.03    0.03
   3  33  31    0.07    0.04
   3  33  33    2.35    0.13
   3  35   3    5.73    0.27
   3  35   5    1.61    0.09
   3  35   7    1.83    0.09
   3  35   9    0.07    0.04
   3  35  11    0.31    0.05
   3  35  13    0.13    0.05
   3  35  15    3.14    0.09
   3  35  17    0.69    0.05
   3  35  19    5.32    0.12
   3  35  21    0.26    0.05
   3  35  23    1.80    0.07
   3  35  25    0.00    0.04
   3  35  27    0.25    0.04
   3  35  29    0.00    0.03
   3  35  31    2.12    0.07
   3  35  33    0.16    0.03
   3  37   3    1.45    0.13
   3  37   5    2.22    0.12
   3  37   7    0.24    0.06
   3  37   9    0.10    0.06
   3  37  11    0.05    0.05
   3  37  13    1.08    0.07
   3  37  15    0.32    0.04
   3  37  17    4.44    0.11
   3  37  19    0.39    0.05
   3  37  21    3.21    0.08
   3  37  23    0.05    0.04
   3  37  25    0.51    0.04
   3  37  27    0.00    0.03
   3  37  29    0.45    0.04
   3  39   3    2.85    0.25
   3  39   5    0.46    0.07
   3  39   7    0.11    0.06
   3  39   9    0.00    0.05
   3  39  11    0.17    0.05
   3  39  13    0.11    0.05
   3  39  15    2.09    0.08
   3  39  17    0.46    0.05
   3  39  19    2.61    0.09
   3  39  21    0.25    0.05
   3  39  23    0.59    0.05
   3  39  25    0.02    0.04
   3  39  27    0.00    0.04
   3  41   3    0.20    0.20
   3  41   5    0.00    0.07
   3  41   7    0.01    0.08
   3  41   9    0.12    0.06
   3  41  11    0.01    0.06
   3  41  13    0.02    0.04
   3  41  15    0.04    0.04
   3  41  17    0.58    0.04
   3  41  19    0.02    0.03
   3  41  21    0.15    0.03
   3  41  23    0.00    0.03
   3  41  25    0.20    0.04
   3  43   3    0.01    0.10
   3  43   5    0.04    0.07
   3  43   7    0.49    0.08
   3  43   9    0.33    0.08
   3  43  11    0.45    0.08
   3  43  13    0.01    0.05
   3  43  15    0.00    0.04
   3  43  17    0.00    0.05
   3  43  19    0.01    0.04
   3  43  21    0.00    0.04
   3  45   3    0.02    0.09
   3  45   5    0.06    0.07
   3  45   7    0.13    0.06
   3  45   9    0.48    0.08
   3  45  11    0.03    0.08
   3  45  13    0.06    0.06
   3  45  15    0.00    0.06
   3  45  17    0.01    0.05
   3  47   3    0.00    0.11
   3  47   5    0.01    0.07
   3  47   7    0.27    0.06
   3  47   9    0.12    0.05
   4   4   4  554.61   14.05
   4   6   4   13.89    0.78
   4   6   6    8.31    1.41
   4   8   4    2.46    1.13
   4   8   6    2.34    0.17
   4   8   8   97.33    3.50
   4  10   4   28.05    1.97
   4  10   6    0.24    0.09
   4  10   8    1.79    0.08
   4  10  10    7.91    0.34
   4  12   4    9.31    1.14
   4  12   6    3.64    0.21
   4  12   8   68.53    1.43
   4  12  10    0.05    0.06
   4  12  12   34.68    0.90
   4  14   4    6.20    0.36
   4  14   6    0.34    0.08
   4  14   8    0.69    0.07
   4  14  10    2.45    0.10
   4  14  12    0.08    0.05
   4  14  14    0.58    0.10
   4  16   4   55.39    1.19
   4  16   6    0.04    0.06
   4  16   8    0.16    0.07
   4  16  10    0.38    0.06
   4  16  12   10.11    0.22
   4  16  14    0.01    0.07
   4  16  16  112.83    3.31
   4  18   4    0.67    0.09
   4  18   6    0.02    0.10
   4  18   8    0.00    0.07
   4  18  10    0.66    0.18
   4  18  12    0.94    0.08
   4  18  14    2.76    0.10
   4  18  16    0.39    0.07
   4  18  18   10.93    0.45
   4  20   4    3.48    0.23
   4  20   6    0.26    0.06
   4  20   8    2.54    0.16
   4  20  10    0.00    0.06
   4  20  12   10.06    0.26
   4  20  14    0.10    0.08
   4  20  16   49.87    0.88
   4  20  18    0.42    0.06
   4  20  20   33.13    0.74
   4  22   4    0.46    0.09
   4  22   6    0.00    0.07
   4  22   8    0.01    0.11
   4  22  10    0.60    0.18
   4  22  12    0.00    0.05
   4  22  14    0.47    0.06
   4  22  16    0.02    0.05
   4  22  18    3.96    0.12
   4  22  20    0.11    0.05
   4  22  22    0.63    0.07
   4  24   4    0.18    0.13
   4  24   6    0.14    0.08
   4  24   8   31.04    1.57
   4  24  10    0.15    0.11
   4  24  12    3.97    0.18
   4  24  14    0.00    0.03
   4  24  16    2.23    0.08
   4  24  18    0.01    0.04
   4  24  20    1.11    0.07
   4  24  22    0.00    0.05
   4  24  24    0.03    0.07
   4  26   4    0.15    0.10
   4  26   6    0.69    0.06
   4  26   8    0.04    0.07
   4  26  10    0.89    0.09
   4  26  12    0.09    0.05
   4  26  14    0.61    0.05
   4  26  16    0.07    0.05
   4  26  18    0.01    0.04
   4  26  20    0.07    0.04
   4  26  22    0.01    0.03
   4  26  24    0.00    0.04
   4  26  26    3.03    0.15
   4  28   4    4.35    0.15
   4  28   6    0.20    0.07
   4  28   8   25.53    0.46
   4  28  10    0.16    0.05
   4  28  12   12.39    0.22
   4  28  14    0.15    0.05
   4  28  16    0.00    0.04
   4  28  18    0.08    0.04
   4  28  20    0.04    0.05
   4  28  22    0.08    0.04
   4  28  24    5.09    0.12
   4  28  26    0.10    0.04
   4  28  28    7.37    0.22
   4  30   4    0.02    0.07
   4  30   6    0.24    0.04
   4  30   8    0.03    0.04
   4  30  10    1.02    0.05
   4  30  12    0.00    0.04
   4  30  14    0.02    0.04
   4  30  16    0.01    0.04
   4  30  18    0.01    0.04
   4  30  20    0.00    0.04
   4  30  22    0.21    0.05
   4  30  24    0.03    0.04
   4  30  26    1.72    0.06
   4  30  28    0.03    0.04
   4  30  30    2.39    0.08
   4  32   4    0.77    0.10
   4  32   6    0.00    0.04
   4  32   8    1.69    0.08
   4  32  10    0.00    0.04
   4  32  12    0.08    0.04
   4  32  14    0.00    0.05
   4  32  16    1.01    0.04
   4  32  18    0.02    0.03
   4  32  20    1.35    0.07
   4  32  22    0.02    0.03
   4  32  24    0.43    0.04
   4  32  26    0.01    0.05
   4  32  28    2.47    0.08
   4  32  30    0.00    0.03
   4  32  32    0.56    0.06
   4  34   4    0.03    0.08
   4  34   6    0.04    0.06
   4  34   8    0.01    0.05
   4  34  10    0.84    0.05
   4  34  12    0.00    0.04
   4  34  14    0.08    0.04
   4  34  16    0.02    0.04
   4  34  18    1.46    0.07
   4  34  20    0.03    0.04
   4  34  22    0.67    0.05
   4  34  24    0.00    0.04
   4  34  26    0.12    0.05
   4  34  28    0.01    0.04
   4  34  30    0.34    0.03
   4  34  32    0.01    0.03
   4  36   4    7.98    0.46
   4  36   6    0.11    0.10
   4  36   8    2.50    0.09
   4  36  10    0.01    0.05
   4  36  12    0.28    0.05
   4  36  14    0.07    0.05
   4  36  16    6.76    0.13
   4  36  18    0.13    0.04
   4  36  20    6.28    0.13
   4  36  22    0.03    0.04
   4  36  24    0.31    0.04
   4  36  26    0.02    0.04
   4  36  28    0.13    0.03
   4  36  30    0.01    0.03
   4  38   4    0.09    0.09
   4  38   6    0.69    0.07
   4  38   8    0.01    0.05
   4  38  10    0.00    0.05
   4  38  12    0.01    0.05
   4  38  14    0.46    0.06
   4  38  16    0.08    0.05
   4  38  18    1.13    0.07
   4  38  20    0.04    0.05
   4  38  22    0.46    0.05
   4  38  24    0.00    0.05
   4  38  26    0.00    0.04
   4  38  28    0.01    0.04
   4  40   4    1.90    0.16
   4  40   6    0.08    0.05
   4  40   8    0.25    0.06
   4  40  10    0.00    0.06
   4  40  12    0.02    0.05
   4  40  14    0.08    0.05
   4  40  16    1.62    0.07
   4  40  18    0.07    0.04
   4  40  20    1.11    0.05
   4  40  22    0.02    0.04
   4  40  24    0.01    0.04
   4  40  26    0.00    0.04
   4  42   4    0.12    0.08
   4  42   6    0.08    0.08
   4  42   8    0.00    0.10
   4  42  10    0.13    0.07
   4  42  12    0.00    0.05
   4  42  14    0.00    0.06
   4  42  16    0.01    0.04
   4  42  18    0.11    0.04
   4  42  20    0.00    0.03
   4  42  22    0.07    0.04
   4  44   4    0.37    0.12
   4  44   6    0.10    0.07
   4  44   8    2.19    0.12
   4  44  10    0.12    0.07
   4  44  12    0.68    0.08
   4  44  14    0.01    0.05
   4  44  16    0.00    0.04
   4  44  18    0.00    0.04
   4  46   4    0.03    0.09
   4  46   6    0.18    0.07
   4  46   8    0.01    0.06
   4  46  10    0.21    0.06
   4  46  12    0.00    0.05
   5   5   5    1.75    0.25
   5   7   5    1.14    0.49
   5   7   7   26.32    1.57
   5   9   5   39.70    0.39
   5   9   7   47.24    1.69
   5   9   9   46.47    1.35
   5  11   5    0.34    0.40
   5  11   7   29.66    0.69
   5  11   9   19.99    0.42
   5  11  11   30.17    0.59
   5  13   5    0.37    0.11
   5  13   7   11.44    0.22
   5  13   9    6.38    0.21
   5  13  11    5.78    0.10
   5  13  13    0.10    0.10
   5  15   5    1.81    0.14
   5  15   7    3.40    0.07
   5  15   9    1.02    0.09
   5  15  11    1.68    0.07
   5  15  13    0.21    0.06
   5  15  15   37.53    0.99
   5  17   5    0.16    0.18
   5  17   7    0.56    0.11
   5  17   9    0.02    0.10
   5  17  11    2.81    0.07
   5  17  13   35.48    0.86
   5  17  15    7.73    0.21
   5  17  17   31.22    1.03
   5  19   5   12.60    0.40
   5  19   7    0.00    0.08
   5  19   9    1.03    0.07
   5  19  11   11.11    0.27
   5  19  13    5.82    0.21
   5  19  15   14.28    0.35
   5  19  17    7.01    0.23
   5  19  19   17.12    0.39
   5  21   5    2.17    0.18
   5  21   7    0.35    0.10
   5  21   9    0.07    0.17
   5  21  11    0.02    0.12
   5  21  13    1.60    0.14
   5  21  15    0.95    0.07
   5  21  17   10.45    0.17
   5  21  19    2.12    0.08
   5  21  21    4.24    0.18
   5  23   5    3.85    0.24
   5  23   7    5.76    0.21
   5  23   9    3.55    0.26
   5  23  11    3.55    0.17
   5  23  13    0.77    0.07
   5  23  15    0.03    0.04
   5  23  17    0.02    0.04
   5  23  19    1.09    0.08
   5  23  21    0.00    0.05
   5  23  23    0.04    0.07
   5  25   5    8.03    0.42
   5  25   7    7.04    0.33
   5  25   9   13.14    0.50
   5  25  11    2.94    0.14
   5  25  13    3.62    0.10
   5  25  15    0.01    0.04
   5  25  17    0.01    0.05
   5  25  19    0.10    0.06
   5  25  21    0.00    0.05
   5  25  23    0.26    0.05
   5  25  25    3.85    0.13
   5  27   5    3.79    0.28
   5  27   7    7.44    0.21
   5  27   9    5.53    0.14
   5  27  11    8.30    0.16
   5  27  13    1.01    0.07
   5  27  15    0.94    0.06
   5  27  17    0.26    0.05
   5  27  19    0.08    0.05
   5  27  21    0.25    0.05
   5  27  23    2.92    0.09
   5  27  25    0.45    0.04
   5  27  27    8.05    0.24
   5  29   5    5.67    0.16
   5  29   7    4.20    0.10
   5  29   9   10.88    0.21
   5  29  11    3.00    0.09
   5  29  13    3.20    0.09
   5  29  15    0.01    0.05
   5  29  17    0.23    0.05
   5  29  19    0.05    0.05
   5  29  21    1.11    0.05
   5  29  23    0.73    0.05
   5  29  25    6.97    0.13
   5  29  27    0.65    0.05
   5  29  29    4.56    0.12
   5  31   5    0.04    0.08
   5  31   7    1.66    0.07
   5  31   9    0.23    0.03
   5  31  11    1.37    0.06
   5  31  13    0.00    0.04
   5  31  15    0.12    0.04
   5  31  17    0.20    0.04
   5  31  19    0.05    0.04
   5  31  21    0.13    0.04
   5  31  23    0.99    0.05
   5  31  25    0.04    0.04
   5  31  27    1.84    0.06
   5  31  29    0.04    0.03
   5  31  31    0.21    0.04
   5  33   5    0.14    0.07
   5  33   7    0.03    0.05
   5  33   9    0.03    0.05
   5  33  11    0.11    0.04
   5  33  13    0.01    0.04
   5  33  15    0.03    0.04
   5  33  17    1.33    0.06
   5  33  19    0.03    0.05
   5  33  21    0.49    0.06
   5  33  23    0.05    0.05
   5  33  25    0.24    0.06
   5  33  27    0.12    0.05
   5  33  29    0.14    0.04
   5  33  31    0.00    0.04
   5  33  33    1.34    0.08
   5  35   5    0.28    0.11
   5  35   7    0.42    0.07
   5  35   9    0.03    0.05
   5  35  11    0.01    0.07
   5  35  13    0.10    0.04
   5  35  15    1.37    0.05
   5  35  17    0.55    0.04
   5  35  19    3.23    0.09
   5  35  21    0.12    0.04
   5  35  23    0.68    0.05
   5  35  25    0.00    0.04
   5  35  27    0.00    0.03
   5  35  29    0.00    0.03
   5  35  31    0.64    0.04
   5  37   5    2.36    0.16
   5  37   7    0.18    0.06
   5  37   9    0.08    0.08
   5  37  11    0.01    0.05
   5  37  13    0.76    0.06
   5  37  15    0.34    0.05
   5  37  17    3.88    0.12
   5  37  19    0.73    0.05
   5  37  21    2.63    0.08
   5  37  23    0.05    0.06
   5  37  25    0.01    0.05
   5  37  27    0.00    0.05
   5  37  29    0.07    0.04
   5  39   5    0.06    0.08
   5  39   7    0.12    0.06
   5  39   9    0.00    0.05
   5  39  11    0.13    0.05
   5  39  13    0.07    0.06
   5  39  15    0.49    0.05
   5  39  17    0.16    0.05
   5  39  19    1.18    0.06
   5  39  21    0.05    0.05
   5  39  23    0.04    0.04
   5  39  25    0.00    0.04
   5  39  27    0.10    0.04
   5  41   5    0.39    0.14
   5  41   7    0.54    0.07
   5  41   9    0.99    0.08
   5  41  11    0.30    0.06
   5  41  13    0.11    0.05
   5  41  15    0.01    0.05
   5  41  17    0.04    0.04
   5  41  19    0.01    0.04
   5  41  21    0.00    0.04
   5  41  23    0.02    0.04
   5  43   5    0.18    0.10
   5  43   7    0.60    0.09
   5  43   9    0.20    0.08
   5  43  11    0.76    0.08
   5  43  13    0.01    0.05
   5  43  15    0.05    0.05
   5  43  17    0.01    0.04
   5  43  19    0.00    0.05
   5  43  21    0.02    0.05
   5  45   5    0.53    0.13
   5  45   7    0.37    0.07
   5  45   9    1.27    0.09
   5  45  11    0.31    0.07
   5  45  13    0.59    0.08
   5  45  15    0.02    0.05
   5  47   5    0.12    0.09
   5  47   7    0.34    0.07
   5  47   9    0.13    0.07
   6   6   6    4.29    4.78
   6   8   6    7.89    0.87
   6   8   8    0.68    0.09
   6  10   6   37.87    0.67
   6  10   8    1.23    0.16
   6  10  10  132.86    6.11
   6  12   6   16.22    0.68
   6  12   8    1.04    0.11
   6  12  10    0.24    0.06
   6  12  12    5.76    0.20
   6  14   6    5.57    0.22
   6  14   8    0.83    0.06
   6  14  10   40.12    0.58
   6  14  12    0.38    0.06
   6  14  14    1.39    0.12
   6  16   6    7.84    0.43
   6  16   8    0.11    0.08
   6  16  10    0.39    0.07
   6  16  12    2.30    0.09
   6  16  14    0.79    0.09
   6  16  16    2.62    0.15
   6  18   6    1.51    0.30
   6  18   8    0.00    0.08
   6  18  10    0.08    0.11
   6  18  12    0.31    0.07
   6  18  14   26.99    0.60
   6  18  16    0.02    0.06
   6  18  18   46.22    1.28
   6  20   6    1.82    0.14
   6  20   8    0.69    0.12
   6  20  10    0.00    0.09
   6  20  12    0.16    0.04
   6  20  14    0.32    0.06
   6  20  16    1.61    0.10
   6  20  18    0.04    0.05
   6  20  20    2.88    0.14
   6  22   6   25.89    1.13
   6  22   8    0.15    0.14
   6  22  10   20.47    0.79
   6  22  12    0.01    0.10
   6  22  14    0.40    0.07
   6  22  16    0.05    0.04
   6  22  18    4.08    0.14
   6  22  20    0.03    0.06
   6  22  22    0.04    0.06
   6  24   6    0.49    0.20
   6  24   8    0.99    0.14
   6  24  10    0.48    0.17
   6  24  12    2.14    0.10
   6  24  14    0.01    0.05
   6  24  16    0.20    0.05
   6  24  18    0.04    0.05
   6  24  20    0.11    0.06
   6  24  22    0.01    0.04
   6  24  24    1.34    0.07
   6  26   6   42.04    1.42
   6  26   8    0.80    0.16
   6  26  10   55.45    1.01
   6  26  12    0.43    0.06
   6  26  14   12.02    0.24
   6  26  16    0.14    0.06
   6  26  18    1.36    0.07
   6  26  20    0.07    0.05
   6  26  22    5.18    0.16
   6  26  24    0.12    0.05
   6  26  26   16.81    0.42
   6  28   6    0.30    0.07
   6  28   8    1.28    0.07
   6  28  10    0.60    0.06
   6  28  12    2.13    0.08
   6  28  14    0.00    0.05
   6  28  16    0.10    0.06
   6  28  18    0.00    0.05
   6  28  20    0.30    0.06
   6  28  22    0.02    0.04
   6  28  24    3.25    0.09
   6  28  26    0.17    0.05
   6  28  28    4.84    0.14
   6  30   6   12.48    0.30
   6  30   8    0.24    0.04
   6  30  10   17.91    0.29
   6  30  12    0.22    0.05
   6  30  14    1.17    0.06
   6  30  16    0.08    0.05
   6  30  18    0.12    0.05
   6  30  20    0.03    0.05
   6  30  22    2.46    0.08
   6  30  24    0.17    0.05
   6  30  26   10.41    0.18
   6  30  28    0.15    0.04
   6  30  30    6.39    0.19
   6  32   6    0.09    0.08
   6  32   8    0.26    0.05
   6  32  10    0.04    0.03
   6  32  12    0.16    0.05
   6  32  14    0.00    0.04
   6  32  16    0.01    0.04
   6  32  18    0.01    0.04
   6  32  20    0.17    0.05
   6  32  22    0.01    0.04
   6  32  24    0.51    0.05
   6  32  26    0.06    0.04
   6  32  28    2.07    0.07
   6  32  30    0.01    0.04
   6  32  32    0.04    0.05
   6  34   6    0.08    0.11
   6  34   8    0.00    0.05
   6  34  10    0.01    0.05
   6  34  12    0.00    0.04
   6  34  14    0.05    0.03
   6  34  16    0.05    0.04
   6  34  18    4.15    0.12
   6  34  20    0.07    0.05
   6  34  22    0.46    0.05
   6  34  24    0.00    0.05
   6  34  26    1.77    0.06
   6  34  28    0.00    0.03
   6  34  30    0.01    0.04
   6  34  32    0.01    0.03
   6  36   6    0.04    0.07
   6  36   8    0.75    0.07
   6  36  10    0.00    0.05
   6  36  12    0.00    0.05
   6  36  14    0.00    0.05
   6  36  16    1.02    0.06
   6  36  18    0.09    0.05
   6  36  20    1.11    0.07
   6  36  22    0.00    0.04
   6  36  24    0.03    0.06
   6  36  26    0.01    0.05
   6  36  28    0.00    0.03
   6  36  30    0.02    0.04
   6  38   6    1.68    0.13
   6  38   8    0.11    0.07
   6  38  10    0.17    0.06
   6  38  12    0.09    0.05
   6  38  14    1.01    0.07
   6  38  16    0.21    0.05
   6  38  18    3.56    0.10
   6  38  20    0.04    0.05
   6  38  22    0.46    0.06
   6  38  24    0.01    0.03
   6  38  26    0.18    0.04
   6  38  28    0.00    0.03
   6  40   6    0.02    0.08
   6  40   8    0.21    0.06
   6  40  10    0.02    0.05
   6  40  12    0.04    0.05
   6  40  14    0.00    0.05
   6  40  16    0.03    0.05
   6  40  18    0.01    0.04
   6  40  20    0.05    0.04
   6  40  22    0.00    0.04
   6  40  24    0.41    0.05
   6  40  26    0.01    0.04
   6  42   6    2.67    0.19
   6  42   8    0.31    0.06
   6  42  10    2.75    0.11
   6  42  12    0.13    0.04
   6  42  14    0.53    0.06
   6  42  16    0.01    0.04
   6  42  18    0.01    0.04
   6  42  20    0.00    0.04
   6  42  22    0.96    0.05
   6  44   6    0.01    0.09
   6  44   8    0.54    0.08
   6  44  10    0.11    0.07
   6  44  12    0.42    0.08
   6  44  14    0.00    0.05
   6  44  16    0.05    0.05
   6  44  18    0.00    0.05
   6  46   6    1.81    0.21
   6  46   8    0.32    0.08
   6  46  10    2.34    0.13
   6  46  12    0.06    0.08
   7   7   7  168.12   12.75
   7   9   7   20.50    0.56
   7   9   9   42.01    2.50
   7  11   7   56.59    2.09
   7  11   9   43.54    1.26
   7  11  11   60.12    2.03
   7  13   7    2.08    0.12
   7  13   9   33.07    0.61
   7  13  11   17.20    0.37
   7  13  13   14.55    0.56
   7  15   7    7.07    0.39
   7  15   9   10.22    0.20
   7  15  11   11.06    0.32
   7  15  13    0.58    0.09
   7  15  15   19.13    0.66
   7  17   7    0.28    0.24
   7  17   9    4.56    0.15
   7  17  11    0.08    0.05
   7  17  13    8.87    0.21
   7  17  15    1.70    0.10
   7  17  17    7.83    0.29
   7  19   7    3.12    0.26
   7  19   9    0.66    0.09
   7  19  11    0.95    0.10
   7  19  13    1.09    0.08
   7  19  15    5.40    0.17
   7  19  17    1.99    0.09
   7  19  19   11.32    0.25
   7  21   7    0.06    0.17
   7  21   9    0.29    0.12
   7  21  11    0.56    0.13
   7  21  13    0.00    0.08
   7  21  15    0.19    0.08
   7  21  17    2.82    0.09
   7  21  19    0.56    0.05
   7  21  21    1.09    0.09
   7  23   7   10.82    0.53
   7  23   9    4.57    0.34
   7  23  11   10.57    0.32
   7  23  13    1.48    0.07
   7  23  15    0.58    0.05
   7  23  17    0.00    0.05
   7  23  19    0.14    0.05
   7  23  21    0.01    0.04
   7  23  23    0.74    0.07
   7  25   7   11.91    0.79
   7  25   9   17.58    0.51
   7  25  11    5.97    0.14
   7  25  13    8.87    0.16
   7  25  15    1.76    0.06
   7  25  17    1.57    0.06
   7  25  19    0.99    0.06
   7  25  21    1.14    0.07
   7  25  23    0.56    0.05
   7  25  25    8.58    0.29
   7  27   7   26.57    0.82
   7  27   9   13.66    0.27
   7  27  11   26.45    0.42
   7  27  13    3.38    0.12
   7  27  15    6.02    0.14
   7  27  17    0.09    0.05
   7  27  19    1.95    0.07
   7  27  21    0.93    0.06
   7  27  23    7.90    0.15
   7  27  25    1.81    0.07
   7  27  27   17.39    0.37
   7  29   7    1.74    0.11
   7  29   9   10.64    0.20
   7  29  11    1.56    0.07
   7  29  13    5.09    0.12
   7  29  15    0.25    0.05
   7  29  17    1.00    0.06
   7  29  19    0.00    0.05
   7  29  21    1.91    0.07
   7  29  23    0.14    0.04
   7  29  25    8.67    0.17
   7  29  27    0.83    0.05
   7  29  29    4.70    0.18
   7  31   7    6.43    0.18
   7  31   9    3.27    0.11
   7  31  11    5.12    0.11
   7  31  13    0.83    0.05
   7  31  15    1.13    0.06
   7  31  17    0.09    0.04
   7  31  19    0.11    0.05
   7  31  21    0.48    0.05
   7  31  23    3.23    0.08
   7  31  25    0.84    0.07
   7  31  27    5.56    0.13
   7  31  29    0.30    0.04
   7  31  31    1.29    0.06
   7  33   7    0.00    0.07
   7  33   9    0.45    0.05
   7  33  11    0.05    0.03
   7  33  13    0.37    0.04
   7  33  15    0.04    0.03
   7  33  17    0.55    0.06
   7  33  19    0.22    0.04
   7  33  21    0.11    0.04
   7  33  23    0.00    0.04
   7  33  25    0.66    0.04
   7  33  27    0.10    0.03
   7  33  29    0.63    0.04
   7  33  31    0.00    0.03
   7  33  33    0.32    0.05
   7  35   7    0.44    0.09
   7  35   9    0.03    0.05
   7  35  11    0.09    0.05
   7  35  13    0.00    0.05
   7  35  15    1.12    0.06
   7  35  17    0.43    0.06
   7  35  19    2.94    0.10
   7  35  21    0.14    0.06
   7  35  23    0.16    0.07
   7  35  25    0.01    0.06
   7  35  27    0.42    0.05
   7  35  29    0.02    0.04
   7  35  31    0.18    0.04
   7  37   7    0.08    0.10
   7  37   9    0.40    0.07
   7  37  11    0.00    0.05
   7  37  13    0.01    0.06
   7  37  15    0.22    0.05
   7  37  17    1.40    0.06
   7  37  19    0.17    0.04
   7  37  21    0.86    0.06
   7  37  23    0.00    0.05
   7  37  25    0.04    0.05
   7  37  27    0.00    0.04
   7  37  29    0.02    0.04
   7  39   7    0.87    0.14
   7  39   9    0.59    0.07
   7  39  11    0.79    0.06
   7  39  13    0.30    0.05
   7  39  15    0.06    0.05
   7  39  17    0.03    0.05
   7  39  19    0.41    0.05
   7  39  21    0.00    0.04
   7  39  23    0.05    0.05
   7  39  25    0.06    0.04
   7  39  27    1.17    0.05
   7  41   7    0.21    0.08
   7  41   9    1.01    0.07
   7  41  11    0.05    0.05
   7  41  13    0.43    0.07
   7  41  15    0.00    0.05
   7  41  17    0.04    0.05
   7  41  19    0.00    0.05
   7  41  21    0.01    0.04
   7  41  23    0.00    0.04
   7  43   7    2.17    0.15
   7  43   9    0.99    0.09
   7  43  11    1.79    0.09
   7  43  13    0.52    0.05
   7  43  15    0.56    0.05
   7  43  17    0.06    0.04
   7  43  19    0.24    0.04
   7  45   7    0.39    0.16
   7  45   9    1.26    0.10
   7  45  11    0.21    0.08
   7  45  13    0.76    0.09
   7  45  15    0.04    0.06
   7  47   7    1.05    0.13
   8   8   8   47.58    4.40
   8  10   8    0.90    0.09
   8  10  10    1.08    0.08
   8  12   8  109.99    3.71
   8  12  10    0.03    0.06
   8  12  12  152.11    4.49
   8  14   8    5.70    0.23
   8  14  10    1.24    0.06
   8  14  12    0.37    0.07
   8  14  14    3.99    0.19
   8  16   8   12.17    0.45
   8  16  10    0.07    0.08
   8  16  12   15.45    0.40
   8  16  14    0.04    0.06
   8  16  16    7.92    0.24
   8  18   8    3.41    0.22
   8  18  10    0.49    0.08
   8  18  12    0.05    0.07
   8  18  14    0.02    0.07
   8  18  16    0.26    0.08
   8  18  18    2.93    0.14
   8  20   8    7.89    0.38
   8  20  10    0.72    0.11
   8  20  12    1.68    0.13
   8  20  14    0.28    0.08
   8  20  16    4.71    0.12
   8  20  18    0.01    0.04
   8  20  20    7.85    0.26
   8  22   8    0.69    0.13
   8  22  10    2.31    0.16
   8  22  12    0.03    0.08
   8  22  14    1.49    0.07
   8  22  16    0.01    0.05
   8  22  18    0.04    0.05
   8  22  20    0.01    0.05
   8  22  22    1.12    0.07
   8  24   8   78.66    4.42
   8  24  10    0.64    0.05
   8  24  12   41.52    0.63
   8  24  14    0.05    0.04
   8  24  16    7.15    0.13
   8  24  18    0.00    0.04
   8  24  20    2.52    0.09
   8  24  22    0.03    0.04
   8  24  24   10.13    0.28
   8  26   8    1.88    0.11
   8  26  10    1.83    0.07
   8  26  12    1.16    0.06
   8  26  14    2.71    0.08
   8  26  16    0.04    0.05
   8  26  18    0.56    0.05
   8  26  20    0.03    0.04
   8  26  22    1.49    0.06
   8  26  24    0.28    0.06
   8  26  26    7.41    0.23
   8  28   8   49.57    1.24
   8  28  10    0.77    0.05
   8  28  12   33.33    0.52
   8  28  14    0.60    0.05
   8  28  16    4.29    0.13
   8  28  18    0.09    0.05
   8  28  20    3.23    0.10
   8  28  22    0.14    0.04
   8  28  24   18.05    0.28
   8  28  26    0.61    0.05
   8  28  28   18.78    0.37
   8  30   8    0.58    0.11
   8  30  10    1.30    0.08
   8  30  12    0.10    0.04
   8  30  14    0.00    0.05
   8  30  16    0.00    0.04
   8  30  18    0.00    0.05
   8  30  20    0.00    0.05
   8  30  22    0.92    0.05
   8  30  24    0.18    0.05
   8  30  26    3.42    0.10
   8  30  28    0.13    0.04
   8  30  30    3.43    0.13
   8  32   8    8.05    0.20
   8  32  10    0.40    0.05
   8  32  12    1.91    0.07
   8  32  14    0.20    0.05
   8  32  16    0.03    0.04
   8  32  18    0.00    0.04
   8  32  20    0.06    0.04
   8  32  22    0.00    0.05
   8  32  24    3.08    0.09
   8  32  26    0.36    0.05
   8  32  28    6.31    0.12
   8  32  30    0.01    0.03
   8  32  32    0.00    0.03
   8  34   8    0.05    0.08
   8  34  10    0.16    0.05
   8  34  12    0.00    0.04
   8  34  14    0.00    0.04
   8  34  16    0.00    0.04
   8  34  18    0.79    0.06
   8  34  20    0.00    0.04
   8  34  22    0.05    0.04
   8  34  24    0.00    0.03
   8  34  26    1.12    0.06
   8  34  28    0.05    0.04
   8  34  30    0.01    0.04
   8  34  32    0.00    0.03
   8  36   8    0.43    0.09
   8  36  10    0.07    0.06
   8  36  12    0.25    0.05
   8  36  14    0.16    0.05
   8  36  16    2.98    0.09
   8  36  18    0.35    0.05
   8  36  20    2.82    0.09
   8  36  22    0.04    0.05
   8  36  24    0.20    0.06
   8  36  26    0.00    0.05
   8  36  28    0.42    0.05
   8  36  30    0.00    0.04
   8  38   8    0.00    0.07
   8  38  10    0.33    0.06
   8  38  12    0.01    0.05
   8  38  14    0.04    0.05
   8  38  16    0.02    0.05
   8  38  18    0.26    0.05
   8  38  20    0.00    0.05
   8  38  22    0.00    0.05
   8  38  24    0.00    0.05
   8  38  26    0.49    0.05
   8  38  28    0.02    0.04
   8  40   8    3.27    0.18
   8  40  10    0.47    0.05
   8  40  12    1.74    0.07
   8  40  14    0.09    0.05
   8  40  16    0.00    0.05
   8  40  18    0.03    0.05
   8  40  20    0.00    0.05
   8  40  22    0.02    0.05
   8  40  24    1.20    0.06
   8  42   8    0.05    0.08
   8  42  10    0.64    0.06
   8  42  12    0.11    0.05
   8  42  14    0.23    0.05
   8  42  16    0.00    0.04
   8  42  18    0.01    0.05
   8  42  20    0.01    0.04
   8  42  22    0.51    0.05
   8  44   8    4.67    0.29
   8  44  10    0.49    0.08
   8  44  12    3.19    0.25
   8  44  14    0.20    0.05
   8  44  16    0.77    0.07
   8  44  18    0.03    0.05
   8  46   8    0.09    0.11
   8  46  10    0.57    0.08
   8  46  12    0.08    0.08
   9   9   9  154.74    8.31
   9  11   9   45.42    1.55
   9  11  11   74.07    3.06
   9  13   9   85.19    2.55
   9  13  11   49.05    1.32
   9  13  13   58.46    2.48
   9  15   9    3.45    0.30
   9  15  11   23.83    0.81
   9  15  13    4.24    0.19
   9  15  15    1.98    0.22
   9  17   9   15.81    0.65
   9  17  11    3.70    0.26
   9  17  13    0.12    0.08
   9  17  15    0.33    0.05
   9  17  17    6.12    0.28
   9  19   9    1.24    0.21
   9  19  11    0.03    0.07
   9  19  13    0.02    0.07
   9  19  15    1.10    0.09
   9  19  17    0.46    0.05
   9  19  19    5.32    0.17
   9  21   9    3.43    0.30
   9  21  11    1.18    0.14
   9  21  13    2.11    0.10
   9  21  15    0.09    0.05
   9  21  17    2.65    0.09
   9  21  19    0.66    0.06
   9  21  21    1.13    0.10
   9  23   9    3.44    0.21
   9  23  11    9.87    0.23
   9  23  13    1.23    0.06
   9  23  15    1.68    0.05
   9  23  17    0.19    0.05
   9  23  19    0.06    0.05
   9  23  21    0.00    0.04
   9  23  23    1.58    0.11
   9  25   9   41.07    0.91
   9  25  11   14.95    0.26
   9  25  13   22.65    0.34
   9  25  15    2.54    0.08
   9  25  17    3.34    0.10
   9  25  19    0.36    0.05
   9  25  21    2.29    0.08
   9  25  23    0.99    0.06
   9  25  25   12.79    0.34
   9  27   9    5.31    0.15
   9  27  11   20.64    0.32
   9  27  13    1.59    0.06
   9  27  15    5.78    0.13
   9  27  17    0.73    0.07
   9  27  19    1.77    0.07
   9  27  21    0.23    0.04
   9  27  23    6.78    0.14
   9  27  25    1.33    0.06
   9  27  27   12.03    0.28
   9  29   9   27.13    0.68
   9  29  11    8.86    0.17
   9  29  13   11.46    0.21
   9  29  15    0.84    0.06
   9  29  17    2.38    0.08
   9  29  19    0.61    0.05
   9  29  21    3.22    0.12
   9  29  23    1.61    0.08
   9  29  25   13.70    0.24
   9  29  27    1.66    0.06
   9  29  29    9.49    0.24
   9  31   9    0.48    0.09
   9  31  11    3.23    0.10
   9  31  13    0.37    0.05
   9  31  15    0.62    0.06
   9  31  17    0.01    0.04
   9  31  19    0.00    0.05
   9  31  21    0.05    0.04
   9  31  23    1.70    0.06
   9  31  25    0.31    0.05
   9  31  27    3.46    0.09
   9  31  29    0.24    0.04
   9  31  31    0.96    0.07
   9  33   9    1.25    0.08
   9  33  11    0.57    0.05
   9  33  13    0.62    0.06
   9  33  15    0.00    0.04
   9  33  17    0.70    0.06
   9  33  19    0.05    0.05
   9  33  21    0.20    0.06
   9  33  23    0.01    0.03
   9  33  25    1.38    0.05
   9  33  27    0.16    0.03
   9  33  29    1.22    0.05
   9  33  31    0.00    0.04
   9  33  33    0.07    0.08
   9  35   9    0.01    0.08
   9  35  11    0.87    0.04
   9  35  13    0.00    0.05
   9  35  15    0.09    0.05
   9  35  17    0.17    0.06
   9  35  19    1.07    0.08
   9  35  21    0.01    0.06
   9  35  23    0.00    0.07
   9  35  25    0.01    0.05
   9  35  27    0.64    0.05
   9  35  29    0.01    0.04
   9  35  31    0.00    0.03
   9  37   9    1.56    0.12
   9  37  11    0.75    0.07
   9  37  13    0.35    0.06
   9  37  15    0.02    0.05
   9  37  17    0.91    0.07
   9  37  19    0.15    0.05
   9  37  21    0.58    0.05
   9  37  23    0.00    0.05
   9  37  25    0.56    0.06
   9  37  27    0.08    0.04
   9  37  29    0.36    0.04
   9  39   9    0.06    0.07
   9  39  11    0.69    0.06
   9  39  13    0.00    0.05
   9  39  15    0.02    0.05
   9  39  17    0.00    0.05
   9  39  19    0.40    0.06
   9  39  21    0.00    0.05
   9  39  23    0.03    0.05
   9  39  25    0.01    0.04
   9  41   9    2.69    0.14
   9  41  11    0.96    0.08
   9  41  13    0.96    0.06
   9  41  15    0.21    0.05
   9  41  17    0.02    0.05
   9  41  19    0.03    0.05
   9  41  21    0.14    0.06
   9  41  23    0.16    0.04
   9  43   9    0.27    0.07
   9  43  11    1.38    0.07
   9  43  13    0.01    0.07
   9  43  15    0.44    0.06
   9  43  17    0.00    0.06
   9  43  19    0.10    0.05
   9  45   9    2.44    0.21
   9  45  11    1.18    0.14
   9  45  13    1.57    0.11
  10  10  10  244.69   16.71
  10  12  10    2.74    0.16
  10  12  12    2.36    0.25
  10  14  10  123.55    5.38
  10  14  12    0.51    0.09
  10  14  14   46.59    2.28
  10  16  10    2.42    0.18
  10  16  12    1.86    0.12
  10  16  14    0.01    0.05
  10  16  16    0.20    0.08
  10  18  10   12.11    0.58
  10  18  12    0.47    0.08
  10  18  14    0.20    0.07
  10  18  16    0.03    0.06
  10  18  18   10.44    0.25
  10  20  10    0.00    0.11
  10  20  12    0.45    0.07
  10  20  14    0.03    0.06
  10  20  16    0.03    0.05
  10  20  18    0.24    0.05
  10  20  20    0.58    0.16
  10  22  10   25.00    0.55
  10  22  12    0.28    0.05
  10  22  14    6.00    0.12
  10  22  16    0.02    0.04
  10  22  18    0.67    0.05
  10  22  20    0.01    0.05
  10  22  22    0.08    0.08
  10  24  10    1.81    0.09
  10  24  12    2.22    0.07
  10  24  14    0.75    0.05
  10  24  16    1.02    0.05
  10  24  18    0.01    0.04
  10  24  20    0.43    0.05
  10  24  22    0.13    0.05
  10  24  24    2.46    0.13
  10  26  10   70.05    1.27
  10  26  12    0.51    0.05
  10  26  14   24.20    0.36
  10  26  16    0.17    0.04
  10  26  18    3.66    0.10
  10  26  20    0.01    0.04
  10  26  22    7.80    0.15
  10  26  24    0.38    0.05
  10  26  26   21.64    0.43
  10  28  10    1.45    0.10
  10  28  12    1.50    0.06
  10  28  14    0.31    0.04
  10  28  16    0.07    0.04
  10  28  18    0.01    0.04
  10  28  20    0.33    0.05
  10  28  22    0.22    0.05
  10  28  24    3.50    0.11
  10  28  26    0.53    0.05
  10  28  28    5.18    0.27
  10  30  10   22.76    0.59
  10  30  12    0.84    0.06
  10  30  14    3.21    0.11
  10  30  16    0.28    0.04
  10  30  18    0.37    0.04
  10  30  20    0.01    0.04
  10  30  22    3.00    0.08
  10  30  24    0.43    0.05
  10  30  26   11.08    0.20
  10  30  28    0.39    0.05
  10  30  30    6.28    0.18
  10  32  10    0.02    0.07
  10  32  12    0.04    0.05
  10  32  14    0.00    0.05
  10  32  16    0.01    0.05
  10  32  18    0.02    0.06
  10  32  20    0.16    0.07
  10  32  22    0.00    0.03
  10  32  24    0.45    0.04
  10  32  26    0.06    0.04
  10  32  28    2.27    0.07
  10  32  30    0.01    0.04
  10  32  32    0.01    0.05
  10  34  10    0.09    0.06
  10  34  12    0.01    0.04
  10  34  14    0.00    0.04
  10  34  16    0.28    0.05
  10  34  18    3.78    0.10
  10  34  20    0.43    0.06
  10  34  22    0.22    0.05
  10  34  24    0.00    0.04
  10  34  26    2.27    0.07
  10  34  28    0.01    0.03
  10  34  30    0.08    0.04
  10  34  32    0.00    0.05
  10  36  10    0.00    0.07
  10  36  12    0.28    0.06
  10  36  14    0.00    0.04
  10  36  16    0.46    0.05
  10  36  18    0.01    0.05
  10  36  20    0.43    0.07
  10  36  22    0.01    0.06
  10  36  24    0.26    0.06
  10  36  26    0.01    0.05
  10  36  28    0.23    0.05
  10  36  30    0.01    0.03
  10  38  10    3.59    0.16
  10  38  12    0.33    0.05
  10  38  14    0.03    0.05
  10  38  16    0.00    0.05
  10  38  18    1.24    0.08
  10  38  20    0.00    0.05
  10  38  22    0.00    0.05
  10  38  24    0.03    0.04
  10  38  26    1.03    0.05
  10  40  10    0.00    0.07
  10  40  12    0.25    0.05
  10  40  14    0.00    0.05
  10  40  16    0.01    0.05
  10  40  18    0.00    0.09
  10  40  20    0.01    0.05
  10  40  22    0.00    0.04
  10  40  24    0.47    0.04
  10  42  10    3.76    0.23
  10  42  12    0.54    0.05
  10  42  14    1.07    0.07
  10  42  16    0.05    0.06
  10  42  18    0.05    0.05
  10  42  20    0.02    0.04
  10  44  10    0.24    0.13
  10  44  12    0.68    0.05
  10  44  14    0.04    0.04
  10  44  16    0.10    0.04
  10  46  10    3.24    0.20
  11  13  11   45.06    2.62
  11  13  13   45.56    2.56
  11  15  11   59.48    2.46
  11  15  13   11.87    0.31
  11  15  15    0.12    0.08
  11  17  11    0.85    0.18
  11  17  13    0.27    0.06
  11  17  15    0.17    0.07
  11  17  17    4.47    0.30
  11  19  11    0.09    0.11
  11  19  13    0.22    0.06
  11  19  15    2.02    0.10
  11  19  17    2.44    0.09
  11  19  19   14.33    0.45
  11  21  11    0.94    0.10
  11  21  13    2.06    0.10
  11  21  15    0.02    0.04
  11  21  17    1.30    0.07
  11  21  19    0.86    0.07
  11  21  21    0.21    0.08
  11  23  11   24.37    0.49
  11  23  13    6.05    0.13
  11  23  15    3.85    0.10
  11  23  17    0.15    0.05
  11  23  19    0.05    0.06
  11  23  21    0.01    0.05
  11  23  23    1.68    0.10
  11  25  11    1.22    0.07
  11  25  13   11.73    0.19
  11  25  15    0.11    0.05
  11  25  17    1.33    0.07
  11  25  19    0.05    0.03
  11  25  21    1.34    0.07
  11  25  23    0.28    0.05
  11  25  25    5.98    0.19
  11  27  11   32.82    0.76
  11  27  13    8.13    0.15
  11  27  15    7.29    0.14
  11  27  17    0.52    0.05
  11  27  19    1.18    0.06
  11  27  21    0.95    0.06
  11  27  23    6.78    0.15
  11  27  25    1.79    0.06
  11  27  27   14.47    0.33
  11  29  11    1.15    0.10
  11  29  13    4.62    0.11
  11  29  15    0.26    0.05
  11  29  17    0.25    0.05
  11  29  19    0.02    0.04
  11  29  21    0.63    0.05
  11  29  23    0.16    0.05
  11  29  25    5.03    0.12
  11  29  27    0.86    0.05
  11  29  29    3.56    0.12
  11  31  11    4.04    0.16
  11  31  13    0.69    0.06
  11  31  15    0.37    0.07
  11  31  17    0.00    0.06
  11  31  19    0.41    0.08
  11  31  21    0.01    0.07
  11  31  23    1.51    0.05
  11  31  25    0.41    0.04
  11  31  27    4.00    0.11
  11  31  29    0.21    0.03
  11  31  31    1.17    0.11
  11  33  11    0.12    0.07
  11  33  13    0.48    0.06
  11  33  15    0.00    0.05
  11  33  17    0.58    0.07
  11  33  19    0.22    0.06
  11  33  21    0.15    0.06
  11  33  23    0.00    0.05
  11  33  25    0.52    0.05
  11  33  27    0.07    0.05
  11  33  29    0.81    0.05
  11  33  31    0.00    0.05
  11  33  33    0.06    0.08
  11  35  11    1.94    0.09
  11  35  13    0.26    0.04
  11  35  15    0.03    0.04
  11  35  17    0.07    0.04
  11  35  19    2.40    0.08
  11  35  21    0.17    0.07
  11  35  23    0.01    0.04
  11  35  25    0.01    0.04
  11  35  27    0.69    0.07
  11  35  29    0.01    0.04
  11  35  31    0.00    0.05
  11  37  11    0.05    0.07
  11  37  13    0.05    0.06
  11  37  15    0.02    0.05
  11  37  17    0.85    0.06
  11  37  19    0.03    0.06
  11  37  21    0.51    0.07
  11  37  23    0.01    0.06
  11  37  25    0.09    0.04
  11  37  27    0.00    0.04
  11  39  11    1.61    0.09
  11  39  13    0.22    0.06
  11  39  15    0.00    0.05
  11  39  17    0.03    0.07
  11  39  19    0.83    0.07
  11  39  21    0.03    0.05
  11  39  23    0.02    0.04
  11  39  25    0.08    0.04
  11  41  11    0.01    0.06
  11  41  13    0.35    0.05
  11  41  15    0.00    0.05
  11  41  17    0.02    0.06
  11  41  19    0.00    0.05
  11  41  21    0.01    0.04
  11  43  11    2.25    0.13
  11  43  13    0.57    0.06
  11  43  15    0.37    0.05
  11  43  17    0.11    0.05
  11  45  11    0.07    0.27
  11  45  13    0.58    0.09
  12  14  12    1.50    0.15
  12  14  14    0.69    0.14
  12  16  12   18.58    0.55
  12  16  14    0.03    0.07
  12  16  16    7.96    0.52
  12  18  12    0.00    0.14
  12  18  14    0.06    0.06
  12  18  16    0.17    0.06
  12  18  18    0.65    0.11
  12  20  12    0.96    0.10
  12  20  14    0.13    0.04
  12  20  16    6.92    0.13
  12  20  18    0.38    0.07
  12  20  20    9.84    0.28
  12  22  12    0.36    0.09
  12  22  14    0.01    0.04
  12  22  16    0.05    0.04
  12  22  18    0.17    0.05
  12  22  20    0.09    0.05
  12  22  22    0.01    0.07
  12  24  12   23.97    0.46
  12  24  14    0.01    0.04
  12  24  16    1.19    0.06
  12  24  18    0.02    0.04
  12  24  20    0.07    0.05
  12  24  22    0.05    0.05
  12  24  24    4.06    0.14
  12  26  12    1.64    0.12
  12  26  14    0.64    0.04
  12  26  16    0.12    0.05
  12  26  18    0.05    0.04
  12  26  20    0.01    0.05
  12  26  22    0.37    0.06
  12  26  24    0.29    0.04
  12  26  26    4.14    0.18
  12  28  12   21.90    0.52
  12  28  14    0.46    0.06
  12  28  16    0.66    0.06
  12  28  18    0.07    0.03
  12  28  20    0.57    0.05
  12  28  22    0.10    0.05
  12  28  24    9.17    0.16
  12  28  26    0.46    0.04
  12  28  28    9.31    0.27
  12  30  12    0.07    0.07
  12  30  14    0.03    0.06
  12  30  16    0.00    0.07
  12  30  18    0.07    0.06
  12  30  20    0.00    0.06
  12  30  22    0.18    0.06
  12  30  24    0.23    0.05
  12  30  26    1.55    0.06
  12  30  28    0.13    0.04
  12  30  30    1.63    0.06
  12  32  12    0.06    0.07
  12  32  14    0.15    0.05
  12  32  16    1.25    0.10
  12  32  18    0.54    0.08
  12  32  20    1.58    0.11
  12  32  22    0.12    0.07
  12  32  24    0.79    0.06
  12  32  26    0.12    0.04
  12  32  28    2.47    0.11
  12  32  30    0.02    0.05
  12  32  32    0.03    0.06
  12  34  12    0.00    0.06
  12  34  14    0.00    0.05
  12  34  16    0.00    0.05
  12  34  18    1.08    0.08
  12  34  20    0.00    0.06
  12  34  22    0.16    0.06
  12  34  24    0.00    0.04
  12  34  26    0.55    0.05
  12  34  28    0.01    0.03
  12  34  30    0.01    0.05
  12  34  32    0.00    0.07
  12  36  12    1.02    0.11
  12  36  14    0.00    0.04
  12  36  16    2.35    0.08
  12  36  18    0.37    0.07
  12  36  20    3.10    0.09
  12  36  22    0.00    0.06
  12  36  24    0.12    0.05
  12  36  26    0.00    0.04
  12  36  28    0.23    0.04
  12  38  12    0.06    0.07
  12  38  14    0.12    0.07
  12  38  16    0.07    0.08
  12  38  18    0.70    0.08
  12  38  20    0.00    0.04
  12  38  22    0.04    0.04
  12  38  24    0.01    0.04
  12  38  26    0.13    0.04
  12  40  12    0.44    0.08
  12  40  14    0.00    0.06
  12  40  16    0.50    0.07
  12  40  18    0.06    0.06
  12  40  20    0.56    0.06
  12  40  22    0.00    0.04
  12  40  24    0.31    0.04
  12  42  12    0.00    0.09
  12  42  14    0.11    0.05
  12  42  16    0.00    0.05
  12  42  18    0.06    0.05
  12  42  20    0.00    0.04
  12  44  12    1.92    0.11
  12  44  14    0.26    0.05
  13  15  13    4.83    0.30
  13  15  15    1.09    0.29
  13  17  13    2.86    0.27
  13  17  15    3.69    0.14
  13  17  17   21.60    0.52
  13  19  13    0.70    0.09
  13  19  15    1.89    0.07
  13  19  17    5.10    0.14
  13  19  19    7.29    0.26
  13  21  13    1.81    0.11
  13  21  15    0.01    0.04
  13  21  17    5.17    0.13
  13  21  19    0.90    0.06
  13  21  21    1.45    0.11
  13  23  13    0.00    0.05
  13  23  15    0.92    0.05
  13  23  17    0.78    0.06
  13  23  19    0.03    0.04
  13  23  21    0.04    0.04
  13  23  23    0.65    0.06
  13  25  13   11.84    0.34
  13  25  15    1.77    0.08
  13  25  17    0.17    0.05
  13  25  19    0.00    0.04
  13  25  21    0.44    0.05
  13  25  23    0.33    0.04
  13  25  25    5.02    0.15
  13  27  13    0.01    0.07
  13  27  15    1.14    0.07
  13  27  17    0.13    0.04
  13  27  19    0.01    0.04
  13  27  21    0.00    0.04
  13  27  23    1.40    0.06
  13  27  25    0.32    0.05
  13  27  27    4.04    0.15
  13  29  13    2.49    0.11
  13  29  15    0.06    0.04
  13  29  17    0.18    0.07
  13  29  19    0.01    0.06
  13  29  21    0.02    0.06
  13  29  23    0.47    0.04
  13  29  25    4.37    0.12
  13  29  27    0.52    0.04
  13  29  29    2.99    0.11
  13  31  13    0.30    0.06
  13  31  15    0.00    0.05
  13  31  17    0.17    0.07
  13  31  19    0.64    0.08
  13  31  21    0.04    0.09
  13  31  23    0.12    0.06
  13  31  25    0.13    0.05
  13  31  27    1.25    0.06
  13  31  29    0.07    0.04
  13  31  31    0.32    0.07
  13  33  13    0.30    0.09
  13  33  15    0.00    0.08
  13  33  17    2.39    0.12
  13  33  19    0.29    0.09
  13  33  21    1.16    0.09
  13  33  23    0.00    0.05
  13  33  25    0.33    0.05
  13  33  27    0.03    0.04
  13  33  29    0.32    0.05
  13  33  31    0.00    0.05
  13  35  13    0.00    0.06
  13  35  15    0.40    0.06
  13  35  17    0.41    0.06
  13  35  19    2.12    0.12
  13  35  21    0.03    0.05
  13  35  23    0.27    0.04
  13  35  25    0.01    0.04
  13  35  27    0.17    0.03
  13  35  29    0.00    0.06
  13  37  13    0.05    0.07
  13  37  15    0.22    0.04
  13  37  17    3.39    0.12
  13  37  19    0.88    0.07
  13  37  21    2.22    0.09
  13  37  23    0.09    0.04
  13  37  25    0.00    0.04
  13  37  27    0.01    0.03
  13  39  13    0.01    0.08
  13  39  15    0.29    0.08
  13  39  17    0.15    0.07
  13  39  19    0.94    0.08
  13  39  21    0.01    0.05
  13  39  23    0.09    0.05
  13  39  25    0.01    0.03
  13  41  13    0.16    0.09
  13  41  15    0.00    0.06
  13  41  17    0.73    0.07
  13  41  19    0.10    0.05
  13  41  21    0.15    0.04
  13  43  13    0.00    0.07
  13  43  15    0.03    0.05
  13  43  17    0.00    0.04
  14  14  14    2.36    0.36
  14  16  14    0.34    0.13
  14  16  16    2.21    0.26
  14  18  14   20.53    0.51
  14  18  16    1.80    0.07
  14  18  18   40.37    0.94
  14  20  14    0.02    0.05
  14  20  16    0.88    0.05
  14  20  18    0.25    0.06
  14  20  20    1.01    0.12
  14  22  14    0.09    0.06
  14  22  16    0.41    0.05
  14  22  18    7.00    0.17
  14  22  20    0.02    0.05
  14  22  22    0.71    0.07
  14  24  14    0.25    0.07
  14  24  16    0.11    0.04
  14  24  18    0.04    0.05
  14  24  20    0.16    0.05
  14  24  22    0.00    0.04
  14  24  24    0.31    0.07
  14  26  14    1.96    0.13
  14  26  16    0.00    0.09
  14  26  18    0.97    0.05
  14  26  20    0.05    0.04
  14  26  22    0.90    0.05
  14  26  24    0.11    0.04
  14  26  26    6.43    0.19
  14  28  14    0.03    0.06
  14  28  16    0.24    0.07
  14  28  18    0.01    0.06
  14  28  20    0.01    0.06
  14  28  22    0.06    0.06
  14  28  24    0.77    0.04
  14  28  26    0.20    0.04
  14  28  28    0.92    0.07
  14  30  14    1.14    0.18
  14  30  16    0.49    0.08
  14  30  18    3.30    0.15
  14  30  20    0.35    0.07
  14  30  22    0.00    0.06
  14  30  24    0.01    0.05
  14  30  26    2.29    0.09
  14  30  28    0.06    0.04
  14  30  30    1.09    0.13
  14  32  14    0.00    0.06
  14  32  16    0.43    0.14
  14  32  18    0.01    0.07
  14  32  20    0.78    0.08
  14  32  22    0.02    0.06
  14  32  24    0.01    0.05
  14  32  26    0.01    0.04
  14  32  28    0.43    0.06
  14  32  30    0.00    0.05
  14  32  32    0.03    0.10
  14  34  14    0.73    0.12
  14  34  16    0.65    0.08
  14  34  18    8.24    0.24
  14  34  20    0.56    0.08
  14  34  22    1.56    0.07
  14  34  24    0.00    0.04
  14  34  26    0.29    0.04
  14  34  28    0.00    0.04
  14  34  30    0.09    0.05
  14  36  14    0.10    0.06
  14  36  16    1.79    0.07
  14  36  18    0.08    0.05
  14  36  20    1.67    0.07
  14  36  22    0.00    0.04
  14  36  24    0.03    0.03
  14  36  26    0.00    0.04
  14  36  28    0.01    0.05
  14  38  14    2.40    0.19
  14  38  16    1.28    0.10
  14  38  18    7.47    0.21
  14  38  20    0.48    0.05
  14  38  22    1.70    0.07
  14  38  24    0.05    0.04
  14  38  26    0.01    0.05
  14  40  14    0.09    0.09
  14  40  16    0.64    0.07
  14  40  18    0.04    0.06
  14  40  20    0.54    0.06
  14  40  22    0.05    0.03
  14  42  14    0.00    0.07
  14  42  16    0.03    0.05
  14  42  18    0.62    0.05
  15  15  15   29.58    1.49
  15  17  15    8.50    0.24
  15  17  17    8.38    0.27
  15  19  15   13.47    0.30
  15  19  17    4.43    0.09
  15  19  19   15.07    0.43
  15  21  15    3.71    0.16
  15  21  17    2.50    0.08
  15  21  19    2.02    0.09
  15  21  21    0.70    0.07
  15  23  15    0.46    0.06
  15  23  17    0.15    0.05
  15  23  19    1.44    0.08
  15  23  21    0.20    0.04
  15  23  23    0.02    0.06
  15  25  15    1.19    0.12
  15  25  17    0.00    0.09
  15  25  19    0.28    0.06
  15  25  21    0.03    0.05
  15  25  23    0.00    0.04
  15  25  25    1.13    0.08
  15  27  15    0.02    0.11
  15  27  17    0.16    0.08
  15  27  19    0.26    0.07
  15  27  21    0.05    0.06
  15  27  23    0.66    0.07
  15  27  25    0.34    0.05
  15  27  27    4.11    0.14
  15  29  15    0.14    0.11
  15  29  17    0.49    0.09
  15  29  19    0.25    0.09
  15  29  21    0.26    0.06
  15  29  23    0.00    0.05
  15  29  25    0.91    0.07
  15  29  27    0.19    0.05
  15  29  29    0.88    0.10
  15  31  15    1.16    0.14
  15  31  17    0.41    0.09
  15  31  19    2.72    0.14
  15  31  21    0.03    0.06
  15  31  23    0.00    0.05
  15  31  25    0.08    0.05
  15  31  27    0.81    0.05
  15  31  29    0.01    0.05
  15  31  31    0.04    0.06
  15  33  15    0.27    0.15
  15  33  17    1.64    0.10
  15  33  19    0.46    0.08
  15  33  21    1.33    0.07
  15  33  23    0.01    0.05
  15  33  25    0.00    0.04
  15  33  27    0.03    0.06
  15  33  29    0.04    0.05
  15  33  31    0.02    0.05
  15  35  15    3.79    0.30
  15  35  17    1.55    0.10
  15  35  19    7.45    0.21
  15  35  21    0.81    0.06
  15  35  23    1.64    0.06
  15  35  25    0.02    0.04
  15  35  27    0.02    0.05
  15  35  29    0.01    0.05
  15  37  15    0.49    0.06
  15  37  17    2.66    0.08
  15  37  19    0.33    0.05
  15  37  21    2.30    0.08
  15  37  23    0.01    0.03
  15  37  25    0.18    0.04
  15  37  27    0.00    0.05
  15  39  15    2.75    0.23
  15  39  17    1.49    0.14
  15  39  19    4.27    0.14
  15  39  21    0.83    0.05
  15  39  23    1.13    0.05
  15  41  15    0.05    0.08
  15  41  17    0.68    0.06
  15  41  19    0.00    0.04
  15  43  15    0.23    0.06
  16  16  16   66.29    2.66
  16  18  16    1.88    0.10
  16  18  18    2.80    0.11
  16  20  16   28.11    0.50
  16  20  18    1.13    0.06
  16  20  20   15.88    0.37
  16  22  16    0.04    0.06
  16  22  18    1.06    0.09
  16  22  20    0.12    0.04
  16  22  22    0.20    0.05
  16  24  16    3.94    0.18
  16  24  18    0.13    0.08
  16  24  20    2.16    0.08
  16  24  22    0.00    0.04
  16  24  24    0.08    0.05
  16  26  16    0.07    0.13
  16  26  18    0.44    0.09
  16  26  20    0.02    0.07
  16  26  22    0.00    0.05
  16  26  24    0.02    0.05
  16  26  26    0.66    0.06
  16  28  16    5.74    0.32
  16  28  18    0.58    0.09
  16  28  20    1.62    0.10
  16  28  22    0.03    0.05
  16  28  24    1.08    0.05
  16  28  26    0.04    0.04
  16  28  28    1.90    0.12
  16  30  16    0.01    0.10
  16  30  18    0.77    0.09
  16  30  20    0.02    0.06
  16  30  22    0.01    0.06
  16  30  24    0.05    0.03
  16  30  26    0.13    0.04
  16  30  28    0.01    0.06
  16  30  30    0.31    0.08
  16  32  16    6.97    0.31
  16  32  18    1.17    0.09
  16  32  20    5.02    0.15
  16  32  22    0.19    0.05
  16  32  24    0.08    0.05
  16  32  26    0.02    0.05
  16  32  28    0.21    0.05
  16  32  30    0.00    0.05
  16  32  32    0.45    0.09
  16  34  16    0.05    0.10
  16  34  18    3.17    0.15
  16  34  20    0.10    0.07
  16  34  22    1.19    0.06
  16  34  24    0.04    0.04
  16  34  26    0.01    0.05
  16  34  28    0.01    0.05
  16  34  30    0.17    0.05
  16  36  16   14.22    0.48
  16  36  18    3.13    0.11
  16  36  20   11.59    0.24
  16  36  22    0.48    0.04
  16  36  24    1.57    0.07
  16  36  26    0.03    0.06
  16  38  16    0.24    0.11
  16  38  18    2.49    0.12
  16  38  20    0.11    0.04
  16  38  22    1.09    0.04
  16  38  24    0.02    0.06
  16  40  16    4.06    0.28
  16  40  18    0.67    0.07
  16  40  20    3.03    0.13
  16  42  16    0.01    0.06
  17  17  17   25.77    0.92
  17  19  17    5.79    0.15
  17  19  19    5.13    0.15
  17  21  17   10.96    0.29
  17  21  19    1.93    0.07
  17  21  21    4.31    0.14
  17  23  17    2.01    0.15
  17  23  19    0.27    0.07
  17  23  21    0.67    0.07
  17  23  23    0.01    0.05
  17  25  17    0.85    0.13
  17  25  19    0.13    0.06
  17  25  21    0.09    0.05
  17  25  23    0.01    0.03
  17  25  25    0.91    0.12
  17  27  17    0.30    0.13
  17  27  19    0.23    0.07
  17  27  21    0.12    0.05
  17  27  23    0.04    0.04
  17  27  25    0.09    0.03
  17  27  27    1.11    0.11
  17  29  17    1.71    0.15
  17  29  19    0.09    0.07
  17  29  21    0.33    0.06
  17  29  23    0.12    0.04
  17  29  25    1.32    0.07
  17  29  27    0.12    0.06
  17  29  29    1.25    0.11
  17  31  17    0.68    0.12
  17  31  19    1.12    0.08
  17  31  21    0.33    0.06
  17  31  23    0.06    0.04
  17  31  25    0.03    0.06
  17  31  27    0.21    0.06
  17  31  29    0.00    0.05
  17  31  31    0.01    0.06
  17  33  17    7.54    0.30
  17  33  19    1.55    0.08
  17  33  21    4.51    0.12
  17  33  23    0.18    0.03
  17  33  25    0.17    0.05
  17  33  27    0.01    0.05
  17  33  29    0.04    0.05
  17  35  17    0.81    0.12
  17  35  19    3.96    0.12
  17  35  21    0.34    0.04
  17  35  23    1.20    0.06
  17  35  25    0.00    0.05
  17  35  27    0.17    0.05
  17  37  17   10.05    0.28
  17  37  19    3.08    0.09
  17  37  21    7.36    0.14
  17  37  23    0.75    0.05
  17  37  25    1.24    0.09
  17  39  17    0.16    0.09
  17  39  19    2.45    0.10
  17  39  21    0.04    0.04
  17  41  17    2.44    0.12
  18  18  18   37.71    1.09
  18  20  18    0.84    0.04
  18  20  20    1.35    0.10
  18  22  18   11.22    0.36
  18  22  20    0.52    0.05
  18  22  22    4.43    0.15
  18  24  18    0.07    0.09
  18  24  20    0.58    0.05
  18  24  22    0.06    0.04
  18  24  24    0.02    0.08
  18  26  18    5.61    0.30
  18  26  20    0.20    0.05
  18  26  22    0.26    0.04
  18  26  24    0.00    0.06
  18  26  26    1.09    0.14
  18  28  18    0.00    0.09
  18  28  20    0.16    0.05
  18  28  22    0.00    0.04
  18  28  24    0.17    0.05
  18  28  26    0.02    0.07
  18  28  28    0.31    0.09
  18  30  18    4.42    0.30
  18  30  20    0.47    0.06
  18  30  22    0.32    0.04
  18  30  24    0.02    0.06
  18  30  26    0.57    0.07
  18  30  28    0.03    0.07
  18  30  30    0.43    0.08
  18  32  18    0.14    0.09
  18  32  20    1.41    0.07
  18  32  22    0.00    0.04
  18  32  24    0.12    0.06
  18  32  26    0.00    0.05
  18  32  28    0.06    0.05
  18  32  30    0.01    0.04
  18  34  18   16.18    0.47
  18  34  20    2.27    0.07
  18  34  22    6.08    0.12
  18  34  24    0.14    0.05
  18  34  26    0.47    0.05
  18  34  28    0.04    0.05
  18  36  18    0.24    0.11
  18  36  20    3.43    0.09
  18  36  22    0.01    0.04
  18  36  24    0.78    0.06
  18  36  26    0.00    0.05
  18  38  18   10.70    0.39
  18  38  20    1.36    0.05
  18  38  22    4.61    0.14
  18  40  18    0.07    0.06
  18  40  20    0.83    0.04
  19  19  19   16.76    0.52
  19  21  19    2.53    0.15
  19  21  21    0.48    0.06
  19  23  19    2.06    0.11
  19  23  21    0.17    0.04
  19  23  23    0.00    0.08
  19  25  19    0.39    0.08
  19  25  21    0.00    0.03
  19  25  23    0.00    0.06
  19  25  25    0.15    0.10
  19  27  19    0.21    0.08
  19  27  21    0.04    0.04
  19  27  23    0.43    0.07
  19  27  25    0.19    0.07
  19  27  27    3.22    0.25
  19  29  19    0.51    0.08
  19  29  21    0.03    0.04
  19  29  23    0.00    0.06
  19  29  25    0.43    0.07
  19  29  27    0.11    0.06
  19  29  29    0.52    0.08
  19  31  19    3.33    0.17
  19  31  21    0.11    0.04
  19  31  23    0.09    0.06
  19  31  25    0.02    0.05
  19  31  27    0.47    0.06
  19  31  29    0.00    0.04
  19  31  31    0.00    0.06
  19  33  19    0.77    0.07
  19  33  21    1.16    0.05
  19  33  23    0.07    0.06
  19  33  25    0.08    0.06
  19  33  27    0.00    0.05
  19  33  29    0.03    0.04
  19  35  19   11.02    0.29
  19  35  21    1.88    0.08
  19  35  23    3.52    0.11
  19  35  25    0.31    0.05
  19  35  27    0.58    0.06
  19  37  19    0.40    0.05
  19  37  21    2.38    0.10
  19  37  23    0.04    0.05
  19  39  19    5.87    0.20
  19  39  21    1.17    0.10
  20  20  20   15.35    1.03
  20  22  20    0.34    0.05
  20  22  22    0.45    0.13
  20  24  20    4.02    0.14
  20  24  22    0.25    0.06
  20  24  24    0.15    0.08
  20  26  20    0.00    0.09
  20  26  22    0.00    0.06
  20  26  24    0.00    0.06
  20  26  26    0.88    0.11
  20  28  20    0.91    0.06
  20  28  22    0.00    0.06
  20  28  24    0.85    0.08
  20  28  26    0.18    0.06
  20  28  28    2.53    0.16
  20  30  20    0.00    0.08
  20  30  22    0.04    0.06
  20  30  24    0.00    0.06
  20  30  26    0.22    0.06
  20  30  28    0.01    0.04
  20  30  30    0.23    0.07
  20  32  20    4.70    0.16
  20  32  22    0.35    0.06
  20  32  24    0.22    0.06
  20  32  26    0.01    0.06
  20  32  28    0.13    0.05
  20  32  30    0.01    0.04
  20  34  20    0.02    0.05
  20  34  22    1.13    0.08
  20  34  24    0.02    0.06
  20  34  26    0.04    0.05
  20  36  20   10.51    0.26
  20  36  22    0.86    0.06
  20  36  24    2.19    0.08
  20  38  20    0.06    0.13
  21  21  21    1.24    0.27
  21  23  21    0.10    0.09
  21  23  23    0.01    0.09
  21  25  21    0.16    0.10
  21  25  23    0.10    0.06
  21  25  25    1.92    0.12
  21  27  21    0.01    0.08
  21  27  23    0.18    0.06
  21  27  25    0.18    0.06
  21  27  27    1.33    0.10
  21  29  21    0.01    0.09
  21  29  23    0.11    0.06
  21  29  25    2.04    0.08
  21  29  27    0.24    0.05
  21  29  29    1.84    0.10
  21  31  21    0.12    0.09
  21  31  23    0.00    0.08
  21  31  25    0.02    0.05
  21  31  27    0.32    0.05
  21  31  29    0.02    0.05
  21  33  21    2.50    0.15
  21  33  23    0.17    0.06
  21  33  25    0.03    0.05
  21  33  27    0.00    0.05
  21  35  21    0.18    0.09
  21  35  23    0.61    0.06
  21  35  25    0.01    0.04
  21  37  21    4.89    0.21
  22  22  22    4.74    0.39
  22  24  22    0.04    0.10
  22  24  24    0.08    0.08
  22  26  22    0.06    0.08
  22  26  24    0.08    0.05
  22  26  26    4.21    0.18
  22  28  22    0.02    0.09
  22  28  24    0.50    0.06
  22  28  26    0.13    0.05
  22  28  28    0.96    0.09
  22  30  22    0.04    0.13
  22  30  24    0.12    0.06
  22  30  26    2.32    0.08
  22  30  28    0.12    0.05
  22  30  30    1.33    0.09
  22  32  22    0.00    0.14
  22  32  24    0.00    0.05
  22  32  26    0.00    0.05
  22  32  28    0.22    0.05
  22  34  22    2.31    0.14
  22  34  24    0.05    0.05
  22  34  26    0.00    0.04
  22  36  22    0.05    0.07
  23  23  23    1.13    0.18
  23  25  23    0.15    0.07
  23  25  25    0.52    0.08
  23  27  23    2.09    0.12
  23  27  25    0.47    0.06
  23  27  27    4.81    0.18
  23  29  23    0.11    0.08
  23  29  25    0.94    0.08
  23  29  27    0.33    0.05
  23  29  29    1.08    0.09
  23  31  23    0.53    0.12
  23  31  25    0.24    0.05
  23  31  27    1.82    0.08
  23  33  23    0.00    0.13
  23  33  25    0.04    0.04
  23  35  23    0.66    0.09
  24  24  24    1.31    0.18
  24  26  24    0.22    0.07
  24  26  26    1.00    0.09
  24  28  24    5.00    0.20
  24  28  26    0.59    0.07
  24  28  28    6.96    0.23
  24  30  24    0.12    0.07
  24  30  26    0.63    0.08
  24  30  28    0.21    0.05
  24  32  24    0.62    0.08
  24  32  26    0.11    0.06
  24  34  24    0.00    0.06
  25  25  25    3.92    0.27
  25  27  25    0.64    0.07
  25  27  27    1.66    0.10
  25  29  25    5.05    0.19
  25  29  27    0.92    0.06
  25  29  29    4.77    0.20
  25  31  25    0.18    0.10
  25  31  27    0.77    0.06
  26  26  26   10.26    0.58
  26  28  26    0.70    0.12
  26  28  28    1.09    0.10
  26  30  26    5.54    0.22
  27  27  27    8.17    0.39
  27  29  27    0.83    0.08
   0   0   0    0.00    0.00
;
_shelx_hkl_checksum              47192
_shelx_shelxl_version_number     2014/7
_olex2_submission_special_instructions 'No special instructions were received'
loop_
_space_group_symop_operation_xyz
'x, y, z'
'-x+3/4, -y+1/4, z+1/2'
'-x+1/4, y+1/2, -z+3/4'
'x+1/2, -y+3/4, -z+1/4'
'z, x, y'
'z+1/2, -x+3/4, -y+1/4'
'-z+3/4, -x+1/4, y+1/2'
'-z+1/4, x+1/2, -y+3/4'
'y, z, x'
'-y+1/4, z+1/2, -x+3/4'
'y+1/2, -z+3/4, -x+1/4'
'-y+3/4, -z+1/4, x+1/2'
'y+3/4, x+1/4, -z+1/2'
'-y, -x, -z'
'y+1/4, -x+1/2, z+3/4'
'-y+1/2, x+3/4, z+1/4'
'x+3/4, z+1/4, -y+1/2'
'-x+1/2, z+3/4, y+1/4'
'-x, -z, -y'
'x+1/4, -z+1/2, y+3/4'
'z+3/4, y+1/4, -x+1/2'
'z+1/4, -y+1/2, x+3/4'
'-z+1/2, y+3/4, x+1/4'
'-z, -y, -x'
'x, y+1/2, z+1/2'
'-x+3/4, -y+3/4, z+1'
'-x+1/4, y+1, -z+5/4'
'x+1/2, -y+5/4, -z+3/4'
'z, x+1/2, y+1/2'
'z+1/2, -x+5/4, -y+3/4'
'-z+3/4, -x+3/4, y+1'
'-z+1/4, x+1, -y+5/4'
'y, z+1/2, x+1/2'
'-y+1/4, z+1, -x+5/4'
'y+1/2, -z+5/4, -x+3/4'
'-y+3/4, -z+3/4, x+1'
'y+3/4, x+3/4, -z+1'
'-y, -x+1/2, -z+1/2'
'y+1/4, -x+1, z+5/4'
'-y+1/2, x+5/4, z+3/4'
'x+3/4, z+3/4, -y+1'
'-x+1/2, z+5/4, y+3/4'
'-x, -z+1/2, -y+1/2'
'x+1/4, -z+1, y+5/4'
'z+3/4, y+3/4, -x+1'
'z+1/4, -y+1, x+5/4'
'-z+1/2, y+5/4, x+3/4'
'-z, -y+1/2, -x+1/2'
'x+1/2, y, z+1/2'
'-x+5/4, -y+1/4, z+1'
'-x+3/4, y+1/2, -z+5/4'
'x+1, -y+3/4, -z+3/4'
'z+1/2, x, y+1/2'
'z+1, -x+3/4, -y+3/4'
'-z+5/4, -x+1/4, y+1'
'-z+3/4, x+1/2, -y+5/4'
'y+1/2, z, x+1/2'
'-y+3/4, z+1/2, -x+5/4'
'y+1, -z+3/4, -x+3/4'
'-y+5/4, -z+1/4, x+1'
'y+5/4, x+1/4, -z+1'
'-y+1/2, -x, -z+1/2'
'y+3/4, -x+1/2, z+5/4'
'-y+1, x+3/4, z+3/4'
'x+5/4, z+1/4, -y+1'
'-x+1, z+3/4, y+3/4'
'-x+1/2, -z, -y+1/2'
'x+3/4, -z+1/2, y+5/4'
'z+5/4, y+1/4, -x+1'
'z+3/4, -y+1/2, x+5/4'
'-z+1, y+3/4, x+3/4'
'-z+1/2, -y, -x+1/2'
'x+1/2, y+1/2, z'
'-x+5/4, -y+3/4, z+1/2'
'-x+3/4, y+1, -z+3/4'
'x+1, -y+5/4, -z+1/4'
'z+1/2, x+1/2, y'
'z+1, -x+5/4, -y+1/4'
'-z+5/4, -x+3/4, y+1/2'
'-z+3/4, x+1, -y+3/4'
'y+1/2, z+1/2, x'
'-y+3/4, z+1, -x+3/4'
'y+1, -z+5/4, -x+1/4'
'-y+5/4, -z+3/4, x+1/2'
'y+5/4, x+3/4, -z+1/2'
'-y+1/2, -x+1/2, -z'
'y+3/4, -x+1, z+3/4'
'-y+1, x+5/4, z+1/4'
'x+5/4, z+3/4, -y+1/2'
'-x+1, z+5/4, y+1/4'
'-x+1/2, -z+1/2, -y'
'x+3/4, -z+1, y+3/4'
'z+5/4, y+3/4, -x+1/2'
'z+3/4, -y+1, x+3/4'
'-z+1, y+5/4, x+1/4'
'-z+1/2, -y+1/2, -x'
'-x, -y, -z'
'x-3/4, y-1/4, -z-1/2'
'x-1/4, -y-1/2, z-3/4'
'-x-1/2, y-3/4, z-1/4'
'-z, -x, -y'
'-z-1/2, x-3/4, y-1/4'
'z-3/4, x-1/4, -y-1/2'
'z-1/4, -x-1/2, y-3/4'
'-y, -z, -x'
'y-1/4, -z-1/2, x-3/4'
'-y-1/2, z-3/4, x-1/4'
'y-3/4, z-1/4, -x-1/2'
'-y-3/4, -x-1/4, z-1/2'
'y, x, z'
'-y-1/4, x-1/2, -z-3/4'
'y-1/2, -x-3/4, -z-1/4'
'-x-3/4, -z-1/4, y-1/2'
'x-1/2, -z-3/4, -y-1/4'
'x, z, y'
'-x-1/4, z-1/2, -y-3/4'
'-z-3/4, -y-1/4, x-1/2'
'-z-1/4, y-1/2, -x-3/4'
'z-1/2, -y-3/4, -x-1/4'
'z, y, x'
'-x, -y+1/2, -z+1/2'
'x-3/4, y+1/4, -z'
'x-1/4, -y, z-1/4'
'-x-1/2, y-1/4, z+1/4'
'-z, -x+1/2, -y+1/2'
'-z-1/2, x-1/4, y+1/4'
'z-3/4, x+1/4, -y'
'z-1/4, -x, y-1/4'
'-y, -z+1/2, -x+1/2'
'y-1/4, -z, x-1/4'
'-y-1/2, z-1/4, x+1/4'
'y-3/4, z+1/4, -x'
'-y-3/4, -x+1/4, z'
'y, x+1/2, z+1/2'
'-y-1/4, x, -z-1/4'
'y-1/2, -x-1/4, -z+1/4'
'-x-3/4, -z+1/4, y'
'x-1/2, -z-1/4, -y+1/4'
'x, z+1/2, y+1/2'
'-x-1/4, z, -y-1/4'
'-z-3/4, -y+1/4, x'
'-z-1/4, y, -x-1/4'
'z-1/2, -y-1/4, -x+1/4'
'z, y+1/2, x+1/2'
'-x+1/2, -y, -z+1/2'
'x-1/4, y-1/4, -z'
'x+1/4, -y-1/2, z-1/4'
'-x, y-3/4, z+1/4'
'-z+1/2, -x, -y+1/2'
'-z, x-3/4, y+1/4'
'z-1/4, x-1/4, -y'
'z+1/4, -x-1/2, y-1/4'
'-y+1/2, -z, -x+1/2'
'y+1/4, -z-1/2, x-1/4'
'-y, z-3/4, x+1/4'
'y-1/4, z-1/4, -x'
'-y-1/4, -x-1/4, z'
'y+1/2, x, z+1/2'
'-y+1/4, x-1/2, -z-1/4'
'y, -x-3/4, -z+1/4'
'-x-1/4, -z-1/4, y'
'x, -z-3/4, -y+1/4'
'x+1/2, z, y+1/2'
'-x+1/4, z-1/2, -y-1/4'
'-z-1/4, -y-1/4, x'
'-z+1/4, y-1/2, -x-1/4'
'z, -y-3/4, -x+1/4'
'z+1/2, y, x+1/2'
'-x+1/2, -y+1/2, -z'
'x-1/4, y+1/4, -z-1/2'
'x+1/4, -y, z-3/4'
'-x, y-1/4, z-1/4'
'-z+1/2, -x+1/2, -y'
'-z, x-1/4, y-1/4'
'z-1/4, x+1/4, -y-1/2'
'z+1/4, -x, y-3/4'
'-y+1/2, -z+1/2, -x'
'y+1/4, -z, x-3/4'
'-y, z-1/4, x-1/4'
'y-1/4, z+1/4, -x-1/2'
'-y-1/4, -x+1/4, z-1/2'
'y+1/2, x+1/2, z'
'-y+1/4, x, -z-3/4'
'y, -x-1/4, -z-1/4'
'-x-1/4, -z+1/4, y-1/2'
'x, -z-1/4, -y-1/4'
'x+1/2, z+1/2, y'
'-x+1/4, z, -y-3/4'
'-z-1/4, -y+1/4, x-1/2'
'-z+1/4, y, -x-3/4'
'z, -y-1/4, -x-1/4'
'z+1/2, y+1/2, x'
loop_
_atom_site_label
_atom_site_type_symbol
_atom_site_fract_x
_atom_site_fract_y
_atom_site_fract_z
_atom_site_U_iso_or_equiv
_atom_site_adp_type
_atom_site_occupancy
_atom_site_site_symmetry_order
_atom_site_calc_flag
_atom_site_refinement_flags_posn
_atom_site_refinement_flags_adp
_atom_site_refinement_flags_occupancy
_atom_site_disorder_assembly
_atom_site_disorder_group
Zr1 Zr 0.50002(2) 0.50002(2) 0.44481(2) 0.0902(5) Uani 1 2 d DS T P . .
O1 O 0.50096(11) 0.54349(13) 0.42119(11) 0.1158(18) Uani 1 1 d . U . . .
O2 O 0.47084(16) 0.47084(16) 0.47084(16) 0.094(3) Uani 1 6 d S T P . .
O3 O 0.47282(8) 0.52715(8) 0.47282(8) 0.0985(19) Uani 1 2 d DS TU P . .
O4 O 0.45933(17) 0.50041(15) 0.41689(15) 0.159(3) Uani 1 1 d . U . . .
C1 C 0.5000 0.57008(14) 0.42992(14) 0.104(3) Uani 1 2 d S TU P . .
C2 C 0.5000 0.59310(14) 0.40690(14) 0.122(4) Uani 1 2 d DS T P . .
C3 C 0.50247(9) 0.58549(15) 0.37698(10) 0.188(4) Uani 1 1 d D U . . .
H3 H 0.5042 0.5651 0.3714 0.226 Uiso 1 1 calc R . . . .
C4 C 0.50246(9) 0.60745(11) 0.35512(16) 0.197(4) Uani 1 1 d D U . . .
H4 H 0.5042 0.6019 0.3348 0.237 Uiso 1 1 calc R . . . .
C5 C 0.5000 0.63743(17) 0.36257(17) 0.151(5) Uani 1 2 d DS T P . .
C6 C 0.5000 0.66023(15) 0.33977(15) 0.171(8) Uani 1 2 d DS T P . .
C7 C 0.51624(11) 0.65668(12) 0.31361(11) 0.202(6) Uani 1 1 d D . . . .
H7 H 0.5275 0.6390 0.3107 0.242 Uiso 1 1 calc R . . . .
C8 C 0.51637(11) 0.67847(11) 0.29158(12) 0.200(7) Uani 1 1 d D . . . .
H8 H 0.5276 0.6756 0.2739 0.240 Uiso 1 1 calc R . . . .
C9 C 0.5000 0.70447(16) 0.29553(16) 0.178(9) Uani 1 2 d DS T P . .
C10 C 0.5000 0.72816(13) 0.27184(13) 0.151(5) Uani 1 2 d S TU P . .
C11 C 0.4288(3) 0.5017(5) 0.4288(3) 0.182(5) Uani 0.8333 2 d DS TU P . .
C12 C 0.4052(3) 0.4983(5) 0.4052(3) 0.237(9) Uani 0.8333 2 d DS TU P . .
H12A H 0.3890 0.5126 0.4090 0.355 Uiso 0.4167 1 calc R . . A -1
H12B H 0.3973 0.4780 0.4057 0.355 Uiso 0.4167 1 calc R . . A -1
H12C H 0.4139 0.5023 0.3856 0.355 Uiso 0.4167 1 calc R . . A -1
loop_
_atom_site_aniso_label
_atom_site_aniso_U_11
_atom_site_aniso_U_22
_atom_site_aniso_U_33
_atom_site_aniso_U_23
_atom_site_aniso_U_13
_atom_site_aniso_U_12
Zr1 0.0951(6) 0.0951(6) 0.0804(6) 0.0456(3) 0.0456(3) 0.0428(4)
O1 0.125(4) 0.121(4) 0.101(3) 0.070(3) 0.043(3) 0.030(3)
O2 0.094(3) 0.094(3) 0.094(3) 0.053(4) 0.053(4) 0.053(4)
O3 0.099(2) 0.097(3) 0.099(2) 0.022(2) 0.070(2) 0.022(2)
O4 0.157(5) 0.170(5) 0.150(5) 0.077(4) -0.009(4) 0.045(4)
C1 0.111(8) 0.100(4) 0.100(4) 0.059(6) 0.025(5) 0.025(5)
C2 0.120(8) 0.123(6) 0.123(6) 0.070(7) 0.007(5) 0.007(5)
C3 0.289(12) 0.150(7) 0.126(6) 0.089(6) -0.017(7) -0.042(7)
C4 0.299(12) 0.164(8) 0.129(6) 0.091(6) -0.024(7) -0.049(8)
C5 0.206(15) 0.124(6) 0.124(6) 0.065(8) -0.029(7) -0.029(7)
C6 0.230(16) 0.141(8) 0.141(8) 0.103(10) -0.081(10) -0.081(10)
C7 0.255(15) 0.173(10) 0.176(10) 0.129(10) -0.076(10) -0.073(9)
C8 0.230(13) 0.228(13) 0.144(8) 0.134(10) -0.081(8) -0.112(11)
C9 0.177(14) 0.179(10) 0.179(10) 0.133(13) -0.119(11) -0.119(11)
C10 0.152(9) 0.151(7) 0.151(7) 0.114(8) -0.101(6) -0.101(6)
C11 0.169(6) 0.207(9) 0.169(6) 0.065(6) -0.024(8) 0.065(6)
C12 0.205(10) 0.300(18) 0.205(10) 0.078(10) -0.026(14) 0.078(10)
loop_
_atom_type_symbol
_atom_type_description
_atom_type_scat_dispersion_real
_atom_type_scat_dispersion_imag
_atom_type_scat_source
C C 0.0181 0.0091 'International Tables Vol C Tables 4.2.6.8 and 6.1.1.4'
H H 0.0000 0.0000 'International Tables Vol C Tables 4.2.6.8 and 6.1.1.4'
O O 0.0492 0.0322 'International Tables Vol C Tables 4.2.6.8 and 6.1.1.4'
Zr Zr -0.1862 2.2449 'International Tables Vol C Tables 4.2.6.8 and 6.1.1.4'
loop_
_geom_angle_atom_site_label_1
_geom_angle_atom_site_label_2
_geom_angle_atom_site_label_3
_geom_angle
_geom_angle_site_symmetry_1
_geom_angle_site_symmetry_3
Zr1 Zr1 Zr1 60.0 5 9
Zr1 Zr1 Zr1 59.976(16) 19_666 5
Zr1 Zr1 Zr1 59.973(16) 101_666 9
Zr1 Zr1 Zr1 60.05(3) 101_666 19_666
Zr1 Zr1 Zr1 90.0 19_666 9
Zr1 Zr1 Zr1 90.0 101_666 5
O1 Zr1 Zr1 108.94(16) 110 19_666
O1 Zr1 Zr1 163.48(16) . 9
O1 Zr1 Zr1 110.55(12) 110 9
O1 Zr1 Zr1 73.52(16) 110 101_666
O1 Zr1 Zr1 163.49(16) 110 5
O1 Zr1 Zr1 108.94(16) . 101_666
O1 Zr1 Zr1 110.55(12) . 5
O1 Zr1 Zr1 73.52(16) . 19_666
O1 Zr1 O1 74.8(2) 110 .
O2 Zr1 Zr1 92.6(3) . 19_666
O2 Zr1 Zr1 36.86(17) . 5
O2 Zr1 Zr1 36.86(17) . 9
O2 Zr1 Zr1 92.6(3) . 101_666
O2 Zr1 O1 142.33(12) . 110
O2 Zr1 O1 142.33(12) . .
O2 Zr1 O4 79.2(3) . .
O2 Zr1 O4 79.2(3) . 110
O3 Zr1 Zr1 89.33(14) 9 19_666
O3 Zr1 Zr1 89.26(14) . 9
O3 Zr1 Zr1 89.26(14) 9 5
O3 Zr1 Zr1 89.25(14) 101_666 9
O3 Zr1 Zr1 89.26(14) 101_666 5
O3 Zr1 Zr1 34.87(8) 101_666 101_666
O3 Zr1 Zr1 34.81(8) . 5
O3 Zr1 Zr1 34.88(8) . 19_666
O3 Zr1 Zr1 89.34(14) . 101_666
O3 Zr1 Zr1 34.87(8) 101_666 19_666
O3 Zr1 Zr1 34.88(8) 9 101_666
O3 Zr1 Zr1 34.81(8) 9 9
O3 Zr1 O1 140.62(15) . 110
O3 Zr1 O1 76.6(2) 101_666 .
O3 Zr1 O1 140.61(16) 9 .
O3 Zr1 O1 77.92(18) 9 110
O3 Zr1 O1 76.6(2) 101_666 110
O3 Zr1 O1 77.92(18) . .
O3 Zr1 O2 71.63(18) 9 .
O3 Zr1 O2 111.6(4) 101_666 .
O3 Zr1 O2 71.63(18) . .
O3 Zr1 O3 69.73(16) 9 101_666
O3 Zr1 O3 69.74(16) . 101_666
O3 Zr1 O3 107.8(3) . 9
O3 Zr1 O4 81.8(2) . .
O3 Zr1 O4 143.93(18) . 110
O3 Zr1 O4 143.13(19) 101_666 110
O3 Zr1 O4 81.8(2) 9 110
O3 Zr1 O4 143.93(18) 9 .
O3 Zr1 O4 143.13(19) 101_666 .
O4 Zr1 Zr1 113.93(16) 110 5
O4 Zr1 Zr1 169.5(2) . 101_666
O4 Zr1 Zr1 113.2(2) . 19_666
O4 Zr1 Zr1 79.45(19) 110 9
O4 Zr1 Zr1 79.46(19) . 5
O4 Zr1 Zr1 113.2(2) 110 101_666
O4 Zr1 Zr1 169.4(2) 110 19_666
O4 Zr1 Zr1 113.93(16) . 9
O4 Zr1 O1 74.9(2) 110 110
O4 Zr1 O1 117.0(3) 110 .
O4 Zr1 O1 117.0(3) . 110
O4 Zr1 O1 74.9(2) . .
O4 Zr1 O4 72.1(4) . 110
C1 O1 Zr1 133.2(5) . .
Zr1 O2 Zr1 106.3(3) . 9
Zr1 O2 Zr1 106.3(3) 5 9
Zr1 O2 Zr1 106.3(3) 5 .
Zr1 O3 Zr1 110.24(16) 5 19_666
Zr1 O3 Zr1 110.39(16) 5 .
Zr1 O3 Zr1 110.24(16) . 19_666
C11 O4 Zr1 124.3(8) . .
O1 C1 O1 126.4(8) . 19_666
O1 C1 C2 116.8(4) 19_666 .
O1 C1 C2 116.8(4) . .
C3 C2 C1 120.6(5) . .
C3 C2 C1 120.6(5) 19_666 .
C3 C2 C3 118.7(10) 19_666 .
C2 C3 H3 119.8 . .
C2 C3 C4 120.5(8) . .
C4 C3 H3 119.8 . .
C3 C4 H4 119.5 . .
C3 C4 C5 121.1(9) . .
C5 C4 H4 119.5 . .
C4 C5 C4 118.1(11) . 19_666
C4 C5 C6 120.9(5) 19_666 .
C4 C5 C6 120.9(5) . .
C7 C6 C5 121.0(4) 19_666 .
C7 C6 C5 121.0(4) . .
C7 C6 C7 117.9(9) 19_666 .
C6 C7 H7 119.3 . .
C8 C7 C6 121.5(7) . .
C8 C7 H7 119.3 . .
C7 C8 H8 120.1 . .
C9 C8 C7 119.8(8) . .
C9 C8 H8 120.1 . .
C8 C9 C8 119.6(10) 19_666 .
C8 C9 C10 120.2(5) 19_666 .
C8 C9 C10 120.2(5) . .
C10 C10 C9 119.994(3) 130_565 .
C10 C10 C9 119.994(3) 127_656 .
C10 C10 C10 120.013(3) 130_565 127_656
O4 C11 O4 132.2(13) 120 .
O4 C11 C12 113.4(7) . .
O4 C11 C12 113.4(7) 120 .
C11 C12 H12A 109.5 . .
C11 C12 H12B 109.5 . .
C11 C12 H12C 109.5 . .
H12A C12 H12B 109.5 . .
H12A C12 H12C 109.5 . .
H12B C12 H12C 109.5 . .
loop_
_geom_bond_atom_site_label_1
_geom_bond_atom_site_label_2
_geom_bond_distance
_geom_bond_site_symmetry_2
Zr1 Zr1 3.4994(16) 101_666
Zr1 Zr1 3.5022(10) 9
Zr1 Zr1 3.4995(16) 19_666
Zr1 Zr1 3.5021(10) 5
Zr1 O1 2.220(4) 110
Zr1 O1 2.220(4) .
Zr1 O2 2.188(5) .
Zr1 O3 2.133(2) 101_666
Zr1 O3 2.133(2) 9
Zr1 O3 2.133(2) .
Zr1 O4 2.214(7) 110
Zr1 O4 2.214(7) .
O1 C1 1.256(6) .
O2 Zr1 2.188(5) 5
O2 Zr1 2.189(5) 9
O3 Zr1 2.133(2) 5
O3 Zr1 2.133(2) 19_666
O4 C11 1.472(10) .
C1 O1 1.256(6) 19_666
C1 C2 1.460(13) .
C2 C3 1.3896(10) 19_666
C2 C3 1.3896(10) .
C3 H3 0.9500 .
C3 C4 1.3898(10) .
C4 H4 0.9500 .
C4 C5 1.3900(10) .
C5 C4 1.3900(10) 19_666
C5 C6 1.447(14) .
C6 C7 1.3901(10) 19_666
C6 C7 1.3901(10) .
C7 H7 0.9500 .
C7 C8 1.3900(10) .
C8 H8 0.9500 .
C8 C9 1.3896(10) .
C9 C8 1.3896(10) 19_666
C9 C10 1.503(13) .
C10 C10 1.386(8) 130_565
C10 C10 1.386(8) 127_656
C11 O4 1.472(10) 120
C11 C12 1.502(10) .
C12 H12A 0.9800 .
C12 H12B 0.9800 .
C12 H12C 0.9800 .
loop_
_geom_torsion_atom_site_label_1
_geom_torsion_atom_site_label_2
_geom_torsion_atom_site_label_3
_geom_torsion_atom_site_label_4
_geom_torsion
_geom_torsion_site_symmetry_1
_geom_torsion_site_symmetry_4
Zr1 O1 C1 O1 2.4(3) . 19_666
Zr1 O1 C1 C2 -177.6(3) . .
Zr1 O4 C11 O4 -6(3) . 120
Zr1 O4 C11 C12 -173.8(12) . .
O1 C1 C2 C3 176.9(3) 19_666 .
O1 C1 C2 C3 -3.1(3) . .
O1 C1 C2 C3 176.9(3) . 19_666
O1 C1 C2 C3 -3.1(3) 19_666 19_666
C1 C2 C3 C4 180.000(8) . .
C2 C3 C4 C5 0.000(16) . .
C3 C2 C3 C4 0.000(9) 19_666 .
C3 C4 C5 C4 0.000(8) . 19_666
C3 C4 C5 C6 180.000(8) . .
C4 C5 C6 C7 147.6(3) . 19_666
C4 C5 C6 C7 147.6(3) 19_666 .
C4 C5 C6 C7 -32.4(3) . .
C4 C5 C6 C7 -32.4(3) 19_666 19_666
C5 C6 C7 C8 180.000(8) . .
C6 C7 C8 C9 0.000(16) . .
C7 C6 C7 C8 0.000(9) 19_666 .
C7 C8 C9 C8 0.000(8) . 19_666
C7 C8 C9 C10 180.000(8) . .
C8 C9 C10 C10 92.4(2) 19_666 127_656
C8 C9 C10 C10 -87.6(2) . 127_656
C8 C9 C10 C10 -87.6(2) 19_666 130_565
C8 C9 C10 C10 92.4(2) . 130_565
