#------------------------------------------------------------------------------
#$Date: 2019-11-25 13:49:23 +0200 (Mon, 25 Nov 2019) $
#$Revision: 241015 $
#$URL: file:///home/coder/svn-repositories/cod/cif/4/13/06/4130622.cif $
#------------------------------------------------------------------------------
#
# This file is available in the Crystallography Open Database (COD),
# http://www.crystallography.net/
#
# All data on this site have been placed in the public domain by the
# contributors.
#
data_4130622
loop_
_publ_author_name
'Jiang, Juncong'
'Furukawa, Hiroyasu'
'Zhang, Yue-Biao'
'Yaghi, Omar M.'
_publ_section_title
;
 High Methane Storage Working Capacity in Metal-Organic Frameworks with
 Acrylate Links.
;
_journal_issue                   32
_journal_name_full               'Journal of the American Chemical Society'
_journal_page_first              10244
_journal_page_last               10251
_journal_paper_doi               10.1021/jacs.6b05261
_journal_volume                  138
_journal_year                    2016
_chemical_formula_sum            'C30 H18 N0 O13 Zn4'
_chemical_formula_weight         847.92
_chemical_name_common            &#x00A1;&#x00AE;MOF-950&#x00A1;&#x00AF;
_chemical_name_systematic        &#x00A1;&#x00AE;MOF-950&#x00A1;&#x00AF;
_space_group_crystal_system      cubic
_space_group_IT_number           205
_space_group_name_Hall           '-P 2ac 2ab 3'
_space_group_name_H-M_alt        'P a -3'
_atom_sites_solution_hydrogens   geom
_audit_creation_method           SHELXL-2014/7
_cell_angle_alpha                90
_cell_angle_beta                 90
_cell_angle_gamma                90
_cell_formula_units_Z            4
_cell_length_a                   21.2832(4)
_cell_length_b                   21.2832(4)
_cell_length_c                   21.2832(4)
_cell_measurement_reflns_used    9951
_cell_measurement_temperature    150(2)
_cell_measurement_theta_max      49.67
_cell_measurement_theta_min      2.94
_cell_volume                     9640.7(3)
_computing_cell_refinement       'Bruker SAINT'
_computing_data_collection       'Bruker APEX2'
_computing_data_reduction        'Bruker SAINT'
_computing_molecular_graphics    'Bruker SHELXTL'
_computing_publication_material  'Bruker SHELXTL'
_computing_structure_refinement  'SHELXL-2014 (Sheldrick 2014)'
_computing_structure_solution    'SHELXS-97 (Sheldrick 2008)'
_diffrn_ambient_temperature      150(2)
_diffrn_measured_fraction_theta_full 0.997
_diffrn_measured_fraction_theta_max 0.997
_diffrn_measurement_device_type  'Bruker APEX-II CCD'
_diffrn_measurement_method       '\f and \w scans'
_diffrn_radiation_type           CuK\a
_diffrn_radiation_wavelength     1.54178
_diffrn_reflns_av_R_equivalents  0.0446
_diffrn_reflns_av_unetI/netI     0.0320
_diffrn_reflns_Laue_measured_fraction_full 0.997
_diffrn_reflns_Laue_measured_fraction_max 0.997
_diffrn_reflns_limit_h_max       16
_diffrn_reflns_limit_h_min       -18
_diffrn_reflns_limit_k_max       21
_diffrn_reflns_limit_k_min       -13
_diffrn_reflns_limit_l_max       21
_diffrn_reflns_limit_l_min       -20
_diffrn_reflns_number            15494
_diffrn_reflns_point_group_measured_fraction_full 0.997
_diffrn_reflns_point_group_measured_fraction_max 0.997
_diffrn_reflns_theta_full        49.672
_diffrn_reflns_theta_max         49.672
_diffrn_reflns_theta_min         3.597
_diffrn_source                   'Microfocus Sealed tube'
_exptl_absorpt_coefficient_mu    1.320
_exptl_absorpt_correction_T_max  0.913
_exptl_absorpt_correction_T_min  0.879
_exptl_absorpt_correction_type   multi-scan
_exptl_absorpt_process_details   SADABS
_exptl_crystal_colour            &#x00A1;&#x00AE;colorless&#x00A1;&#x00AF;
_exptl_crystal_density_diffrn    0.584
_exptl_crystal_description       &#x00A1;&#x00AE;block&#x00A1;&#x00AF;
_exptl_crystal_F_000             1688
_exptl_crystal_size_max          0.100
_exptl_crystal_size_mid          0.090
_exptl_crystal_size_min          0.070
_exptl_transmission_factor_max   0.913
_exptl_transmission_factor_min   0.879
_refine_diff_density_max         0.357
_refine_diff_density_min         -0.442
_refine_diff_density_rms         0.058
_refine_ls_extinction_method     none
_refine_ls_goodness_of_fit_ref   1.005
_refine_ls_hydrogen_treatment    constr
_refine_ls_matrix_type           full
_refine_ls_number_parameters     96
_refine_ls_number_reflns         1633
_refine_ls_number_restraints     27
_refine_ls_restrained_S_all      1.017
_refine_ls_R_factor_all          0.0999
_refine_ls_R_factor_gt           0.0824
_refine_ls_shift/su_max          0.000
_refine_ls_shift/su_mean         0.000
_refine_ls_structure_factor_coef Fsqd
_refine_ls_weighting_details
'w=1/[\s^2^(Fo^2^)+(0.1400P)^2^+10.0000P] where P=(Fo^2^+2Fc^2^)/3'
_refine_ls_weighting_scheme      calc
_refine_ls_wR_factor_gt          0.2271
_refine_ls_wR_factor_ref         0.2495
_reflns_Friedel_coverage         0.000
_reflns_number_gt                1241
_reflns_number_total             1633
_reflns_threshold_expression     'I > 2\s(I)'
_cod_data_source_file            ja6b05261_si_001.cif
_cod_data_source_block           MOF-950
_cod_original_cell_volume        9640.8(5)
_cod_database_code               4130622
_shelx_shelxl_version_number     2014/7
_shelx_space_group_comment
;
The symmetry employed for this shelxl refinement is uniquely defined
by the following loop, which should always be used as a source of
symmetry information in preference to the above space-group names.
They are only intended as comments.
;
_shelx_estimated_absorpt_t_min   0.879
_shelx_estimated_absorpt_t_max   0.913
_shelx_hkl_file
;
   1   1   0  -10.40    0.10
  -1  -1   1 8930.51  353.46
   1  -1   1 6645.84  353.16
   0   0   2 7802.82  403.46
   0   2   0 9999.00  390.56
   0   2   1  522.85   24.10
   0   2  -1  513.25   25.30
   2   1   0  512.15   24.10
   2   1   0  602.54   25.40
   0  -2   1  558.94   24.90
  -1   0   2  525.55   24.90
   1   0   2  612.64   24.90
   1   0  -2  525.35   25.40
  -1  -2   1   81.99    4.00
   2   1   1   81.29    3.80
  -2  -1   1   91.89    4.00
  -1  -1   2   86.99    4.00
   1   2   1   79.29    3.80
   1  -1  -2   81.79    4.00
   2  -1  -1   94.49    4.00
   1   1   2   87.39    3.80
  -1   2  -1   84.89    4.00
   1  -1   2   86.39    4.00
   2   1  -1   83.69    3.80
   2   1  -1   90.49    4.10
  -1   2   1   82.49    3.80
   1  -2   1   88.49    4.00
   1   1  -2   81.29    4.00
   1   2  -1   78.69    3.80
   1   2  -1   87.19    4.00
  -2  -2   0 6253.37  321.47
   0  -2   2 6524.55  321.77
  -2   0   2 7136.09  321.77
   2   0   2 7276.47  311.57
   0   2   2 7373.16  311.27
   2   2   0 7985.10  311.67
  -2  -2   1  109.79    5.20
  -1  -2   2  111.99    5.30
   2   2   1  104.79    5.10
   1  -2  -2  124.39    5.20
  -2  -1   2  114.89    5.30
  -1   2  -2  119.79    5.30
   2  -1  -2  120.29    5.30
   2   1   2  113.99    5.10
   1   2   2  101.69    5.10
   2   1  -2  108.59    5.40
  -2   2   1  109.29    5.00
  -2   2   1  118.89    5.20
  -1   2   2  103.19    5.00
   2  -1   2  112.89    5.20
   2   1  -2  101.29    5.00
   1   2  -2  102.09    5.30
   1  -2   2  113.09    5.30
   2   2  -1  103.59    5.10
   2   2  -1  125.69    5.40
  -2  -2   2 4001.10  176.08
   2   2   2 3682.03  170.38
   2  -2  -2 4243.98  178.68
  -2   2   2 3766.32  169.98
  -2   2   2 4137.49  178.68
   2  -2   2 3516.35  175.78
   2   2  -2 3671.53  170.08
   2   2  -2 3923.81  179.38
   0   0   3   -4.50    0.20
   0   0  -3   -4.50    0.20
   3   0   0   -4.30    0.10
   0   3   0   -4.20    0.20
   0   3   0   -4.40    0.10
   0   2  -3    4.40    0.60
  -3   0   2    4.00    0.60
   3   0  -2    4.60    0.60
   0   2   3    4.30    0.50
  -2  -3   0    5.30    0.50
  -2   3   0    5.30    0.40
   2   3   0    4.60    0.60
   2   3   0    4.90    0.60
   1   0   3    0.40    0.30
  -1   1  -3 5160.68  212.38
  -3  -1   1 4414.46  208.18
  -1  -3   1 4241.38  208.28
   1   1   3 3964.90  208.18
   1  -3  -1 5193.98  211.88
  -1  -1   3 4401.96  208.48
  -1   3  -1 4852.71  212.08
   3   1   1 4801.32  201.78
   1  -1  -3 4691.83  211.98
   1   1   3 4572.74  201.68
   1   1  -3 4444.96  212.18
   1  -3   1 4194.18  208.38
   3   1  -1 4639.54  201.48
   1  -1   3 4533.75  208.58
   3   1  -1 5125.29  212.48
  -1   3   1 4979.10  211.68
  -1   1   3 4109.79  208.28
  -1   1   3 4543.05  201.38
   1   3  -1 4450.45  201.58
  -1   3   1 4315.57  201.48
   1   3  -1 4668.23  212.18
  -3  -1   2  907.01   39.80
   2   3   1  846.12   38.60
   2   3   1  934.11   40.80
  -1  -2   3  930.31   39.90
  -2   3  -1  860.81   40.50
   1  -2  -3  891.11   40.70
   3   1   2  935.81   38.60
   3  -1  -2  879.81   40.60
  -2  -3   1  890.21   39.80
   1   2   3  849.91   38.60
  -1   2  -3  889.71   40.70
   2   3  -1  810.92   38.60
   1   2  -3  776.22   40.60
  -2   3   1  824.02   38.50
  -1   2   3  856.11   38.50
   2   3  -1  871.01   40.70
  -2   3   1  851.81   40.50
   3  -1   2 1016.30   39.80
   3   1  -2  861.91   38.50
   3   1  -2  869.51   40.60
   1  -2   3  861.81   39.90
  -2   0   3    0.10    0.30
   2   0  -3    0.00    0.20
   0   3   2   -0.20    0.20
   0   3  -2   -0.10    0.20
   3   2   0   -0.20    0.20
  -3  -2   0   -0.20    0.20
   2   0   3   -0.20    0.30
   0  -3   2    0.10    0.30
   2   1   3  150.28    6.30
   1   3   2  134.89    6.30
  -2  -1   3  141.29    6.50
  -1   3  -2  144.39    6.60
  -1  -3   2  133.19    6.50
   3   2   1  127.79    6.30
   1  -3  -2  151.78    6.50
  -3  -2   1  143.79    6.50
   2  -1  -3  134.59    6.60
   2   1   3  144.89    6.50
  -2   1   3  135.69    6.50
   1   3  -2  133.79    6.60
   2   1  -3  129.39    6.60
   1  -3   2  139.19    6.50
   3   2  -1  135.69    6.30
   3   2  -1  149.69    6.70
  -1   3   2  139.89    6.30
   2  -1   3  146.49    6.50
  -2  -3   2  842.62   37.50
   3   2   2  787.72   36.30
  -3  -2   2  861.51   37.50
  -2  -2   3  884.01   37.60
   2   2   3  838.92   36.30
   2  -2  -3  858.61   38.20
   2   3   2  805.82   36.30
  -2   3  -2  882.41   38.40
   2   2  -3  738.33   38.20
   2  -2   3  852.71   37.50
   3   2  -2  809.82   36.30
   3   2  -2  824.02   38.30
  -2   3   2  803.32   36.30
   2  -3   2  887.61   37.60
  -2   2   3  798.02   36.20
   2   3  -2  781.92   36.30
   2   3  -2  772.12   38.20
   0  -3   3    0.00    0.40
  -3   0   3    0.00    0.40
   3   0  -3   -0.30    0.30
   0   3   3    0.00    0.30
   0   3  -3    0.10    0.30
   3   3   0   -0.30    0.30
   3   3   0   -0.10    0.30
  -3  -3   1   81.09    3.90
  -1  -3   3   82.29    4.00
   3   1   3   87.89    3.90
  -3  -1   3   90.39    4.00
   1   3   3   79.79    3.80
   3   3   1   74.09    3.90
   3   1   3   93.69    4.00
  -1   3  -3   75.59    4.00
   3   1  -3   88.99    3.70
  -1   3   3   79.39    3.80
   1  -3   3   78.69    4.00
   3  -1   3   84.99    3.90
   1   3  -3   76.19    4.00
  -3   1   3   81.59    4.00
   3   3  -1   79.39    3.90
   3   3  -1   83.89    4.10
  -3  -3   2 1617.44   73.19
  -2  -3   3 1585.84   72.79
   3   2   3 1612.14   70.79
   2  -3  -3 1811.72   74.19
  -3  -2   3 1655.73   73.19
   2   3   3 1502.35   70.59
   3  -2  -3 1776.92   74.39
   3   2   3 1526.85   72.89
  -2   3  -3 1803.02   74.89
   3   3   2 1505.05   70.49
   3  -2   3 1691.23   72.99
  -3   3   2 1582.54   70.59
  -3   3   2 1751.72   74.09
  -2   3   3 1533.55   70.59
   2  -3   3 1641.84   72.79
   3   2  -3 1477.45   70.49
   2   3  -3 1444.06   70.69
   2   3  -3 1512.75   74.59
   3   2  -3 1548.55   74.59
   3   3  -2 1547.65   70.59
   3   3  -2 1567.64   74.49
  -3  -3   3  795.32   34.20
   3   3   3  716.53   33.10
  -3   3   3  743.23   32.90
   3  -3   3  802.02   34.20
   3   3  -3  708.63   33.00
   3   3  -3  723.43   34.80
  -4   0   0    3.60    0.40
   0   0   4    4.70    0.80
   0   0  -4    2.90    0.70
   0   4   0    4.10    0.70
   0   4   0    2.80    0.60
   0   1   4    3.20    0.60
   4   0  -1    2.40    0.50
   2   4   0 3724.23  170.58
   0   2   4 3910.51  170.38
   0   2  -4 4023.10  179.48
  -2   4   0 3836.72  178.88
   0   2   4 3634.54  176.08
  -2  -4   0 3927.71  175.98
   0  -2   4 3756.32  175.98
  -4   0   2 3705.13  175.98
   4   0   2 3953.40  170.68
   4   0  -2 4221.48  179.58
   3   4   0   -0.50    0.50
  -3  -4   0   -0.40    0.50
   3   4   0    0.00    0.40
   4   0   3    0.00    0.30
   0   3   4   -0.10    0.40
   0   3  -4   -0.60    0.40
   0  -4   1   49.90    2.40
  -4  -1   0   45.40    2.20
   1   0   4   49.00    2.40
   0   4  -1   41.90    2.20
   4   1   0   43.60    2.20
   0   4   1   49.30    2.20
  -1   0   4   42.40    2.40
   0   4   1   46.50    2.30
   0   4  -1   42.20    2.30
   4   1   1    3.90    0.80
   1   1   4    4.90    0.80
   1   4   1    4.00    0.90
  -1  -1   4    6.20    1.10
  -1   4  -1    4.60    0.70
  -4  -1   1    5.90    0.70
  -1  -4   1    6.00    0.90
   1   1   4    5.10    0.80
   1   4   1    4.30    0.70
   1  -1   4    3.70    0.60
  -1   4   1    4.60    0.50
   1   4  -1    5.10    0.80
   1   4  -1    5.60    0.80
  -1   1   4    5.60    0.80
  -2  -4   1  755.72   32.50
   2   4   1  687.23   31.50
  -4  -1   2  715.63   32.50
   1  -2  -4  739.63   33.10
  -1   2  -4  766.22   33.10
   1   2   4  678.93   32.50
   1   2   4  747.13   31.50
  -1  -2   4  714.33   32.60
  -2   4  -1  714.93   33.10
   4   1   2  747.53   31.50
   4  -1  -2  787.22   33.10
   1  -2   4  755.12   32.60
   4   1  -2  680.03   31.40
   2   4  -1  670.53   31.50
  -1   2   4  720.63   31.40
   4   1  -2  732.53   33.20
  -2   4   1  702.73   33.00
  -2   4   1  661.33   31.40
   2   4  -1  681.83   33.10
   1   2  -4  630.84   33.10
  -1   3  -4  161.58    7.40
   1   3   4  154.58    7.00
   1  -3  -4  161.48    7.30
   4  -1  -3  160.28    7.40
  -3   4  -1  154.78    7.30
   3   4   1  142.79    7.10
  -1  -3   4  153.08    7.40
   4   1   3  163.28    7.10
   3   4   1  174.38    7.40
  -4  -1   3  152.08    7.30
  -3  -4   1  165.18    7.20
   4   1  -3  154.88    7.50
   3   4  -1  145.79    7.10
  -3   4   1  153.18    7.00
   4   1  -3  145.49    7.00
  -1   3   4  149.99    6.90
  -4   1   3  147.19    7.20
   1  -3   4  155.58    7.40
   1   3  -4  135.39    7.40
  -3   4   1  165.68    7.20
   3   4  -1  150.08    7.40
  -2   0   4  416.36   19.00
   0  -4   2  393.96   19.00
   2   0   4  467.95   19.00
   2   0  -4  396.16   19.30
   4   2   0  386.36   18.30
  -4  -2   0  397.56   18.80
   4   2   0  451.55   19.30
   0   4   2  403.56   18.30
  -2  -1   4  872.51   39.30
   4   2   1  865.01   38.00
   2   1   4  878.31   39.30
   2   1   4  922.11   38.00
   1   4   2  876.91   38.00
  -1  -4   2  830.12   39.30
   2  -1  -4  871.91   40.00
  -4  -2   1  875.31   39.20
   2   1  -4  786.92   40.00
   2  -1   4  923.71   39.30
  -1   4   2  840.32   38.00
   1   4  -2  812.92   38.00
  -2   1   4  859.71   39.30
   4   2  -1  853.11   38.00
   4   2  -1  928.51   40.00
   1   4  -2  819.72   40.00
   1  -4   2  856.21   39.30
  -2  -4   2    4.60    1.10
   2  -2  -4    5.20    0.80
   2   2   4    5.20    0.90
  -4  -2   2    3.20    0.60
  -2   4   2    3.40    0.80
  -2   2   4    4.10    0.60
   2   4  -2    4.10    1.10
  -2  -3   4 1645.74   72.49
  -3  -4   2 1547.25   72.69
   4   2   3 1648.64   70.19
   2  -3  -4 1474.15   73.79
  -3   4  -2 1422.76   73.79
  -4  -2   3 1624.64   72.69
   2   3   4 1652.83   70.39
   4  -2  -3 1767.12   74.09
   3   4   2 1540.85   70.19
  -2   3  -4 1534.25   74.29
  -2   3   4 1583.24   70.09
   4   2  -3 1621.34   74.09
   3   4  -2 1575.64   70.19
   3   4  -2 1644.54   74.29
   4  -2   3 1683.63   72.39
   4   2  -3 1651.73   70.09
   2  -3   4 1574.34   72.49
   2   3  -4 1510.05   74.19
  -3   4   2 1608.14   70.09
  -3   0   4 1581.54   72.99
   3   0   4 1765.72   72.69
   0  -4   3 1532.45   72.69
  -4  -3   0 1576.64   72.79
   0   4   3 1498.65   70.29
   0   4  -3 1499.95   74.39
   4   3   0 1758.52   74.69
   4   3   0 1591.34   70.39
  -3  -1   4 1015.40   45.80
   1   4   3  970.20   44.30
   3   1   4 1062.29   44.40
  -1  -4   3  955.50   45.80
   4   3   1  975.80   44.40
  -4  -3   1  976.40   45.70
  -1   4  -3  979.50   46.70
   3   1   4 1108.09   45.90
   3  -1  -4 1015.10   46.70
   3   1  -4 1001.30   46.70
   1  -4   3 1005.40   45.80
   4   3  -1 1022.10   44.40
   4   3  -1 1044.60   46.70
  -1   4   3 1015.80   44.30
  -3   1   4 1000.60   45.80
   3  -1   4 1028.80   45.80
   1   4  -3  936.71   46.60
  -2   4  -3  184.08    9.30
   2   4   3  193.88    8.90
   4   3   2  181.08    8.90
   3  -2  -4  202.18    9.30
  -2  -4   3  201.48    9.20
  -4  -3   2  210.38    9.10
   3   2   4  196.18    9.10
   3   2   4  199.58    8.90
  -3  -2   4  206.78    9.20
   2   4  -3  191.38    8.80
  -2   4   3  194.88    8.70
   2  -4   3  213.08    9.20
   3  -2   4  202.88    9.20
   2   4  -3  184.48    9.30
   4   3  -2  190.88    9.40
   4   3  -2  205.38    8.90
   3   2  -4  180.38    8.70
   3   2  -4  183.88    9.30
  -4   3   2  194.08    8.70
  -3  -4   3  987.10   45.70
   4   3   3 1007.10   44.30
  -4  -3   3 1074.09   45.70
  -3  -3   4 1066.59   45.80
  -3   3  -4  900.71   46.50
   3   4   3 1018.70   44.30
  -3   4  -3  916.61   46.50
   3   3   4 1015.40   44.30
   3  -3   4 1028.20   45.80
  -3   3   4 1003.50   44.10
   3   3  -4  997.40   46.60
   3  -4   3 1025.80   45.80
   4   3  -3 1043.20   44.30
   4   3  -3 1035.70   46.60
  -3   4   3 1023.60   44.20
   3   3  -4  923.81   44.20
  -4   3   3 1017.60   44.10
   3   4  -3  983.60   44.20
   3   4  -3 1026.00   46.60
  -4  -4   0  295.17   14.20
   0  -4   4  298.37   14.40
  -4   0   4  304.97   14.30
   4   0   4  313.67   14.20
   0   4   4  311.27   13.80
   0   4  -4  307.17   14.60
   4   4   0  308.17   13.90
   4   4   0  343.27   14.60
  -4  -4   1   31.80    1.70
  -1  -4   4   25.40    2.00
   1   4   4   30.50    1.80
  -4  -1   4   25.30    2.00
   4   4   1   26.30    2.00
   4  -1  -4   25.40    2.00
   4   1   4   28.90    1.80
   4   1   4   24.50    2.00
   4   1  -4   23.40    1.60
   4   1  -4   30.70    2.10
  -1   4   4   31.00    1.60
  -4   1   4   26.60    1.80
   1  -4   4   24.20    2.10
   1   4  -4   25.80    2.00
   4  -1   4   28.60    1.70
   4   4  -1   31.00    2.00
   4   4  -1   30.10    2.20
  -4  -4   2  901.41   42.80
  -2  -4   4  964.40   42.90
   4   2   4  938.11   42.90
   2  -4  -4  839.62   43.50
  -4  -2   4  958.70   42.90
   4   2   4  949.51   41.60
   2   4   4  965.80   41.50
  -2   4  -4  927.11   43.60
   4   4   2  934.41   41.50
   4   2  -4  945.11   41.40
   4  -2   4  942.11   42.80
  -4   4   2  973.90   41.40
  -2   4   4  958.70   41.40
   2  -4   4  966.90   42.90
  -4   2   4  920.41   42.80
   2   4  -4  934.21   43.70
   4   2  -4  935.91   43.70
   4   4  -2  931.11   41.50
   4   4  -2 1001.90   43.70
  -4  -4   3  130.69    5.80
  -3   4  -4  113.09    5.90
  -4  -3   4  132.19    5.90
   3   4   4  123.29    5.80
   4  -3  -4  131.39    5.70
   4   3   4  120.49    5.70
   4   3   4  122.39    5.80
  -4   4  -3  108.49    5.90
   4   4   3  118.69    5.80
  -4   4   3  116.69    5.40
  -3   4   4  120.39    5.50
   3  -4   4  136.59    5.90
   4   3  -4  118.49    5.60
   3   4  -4  114.89    5.60
   3   4  -4  116.09    6.00
   4   3  -4  114.99    6.00
   4   4  -3  121.49    5.70
   4   4  -3  118.09    6.10
  -4  -4   4 1140.69   49.40
   4   4   4 1097.39   47.90
  -4   4  -4  967.50   50.29
  -4   4   4 1093.99   47.70
   4  -4   4 1200.48   49.50
   4   4  -4 1066.99   47.80
   4   4  -4 1034.20   50.39
   5   0   0    4.10    1.00
  -1   5   0    1.20    0.50
  -1   5   0    0.80    0.30
   5   0   1    1.40    0.50
   5   0  -1    1.60    0.40
   0   1   5    1.20    0.60
   0  -1   5    1.00    0.70
   0  -1  -5    0.80    0.40
   2   5   0   48.10    2.90
   2   5   0   55.09    2.90
   0  -2   5   47.10    3.10
  -5   0   2   49.60    2.80
   5   0  -2   59.99    2.60
   5   0  -2   60.19    3.00
   0   2   5   52.79    2.90
   0   2   5   54.89    2.70
  -2   5   0   58.09    2.80
  -2   5   0   58.49    2.70
   5   0  -3   -1.20    0.40
   3   5   0   -0.90    0.60
  -5   0   4    0.60    0.60
   0   4  -5    0.10    0.50
   4   5   0    0.60    0.50
   0   4   5    0.50    0.40
  -4   5   0    0.30    0.20
   5   0   4   -0.10    0.40
  -5  -1   0    5.60    0.70
  -5  -1   1 1066.79   47.50
  -1  -5   1 1104.99   47.60
  -1   1  -5 1067.39   48.40
   1   1   5  960.10   47.60
  -1  -1   5 1045.80   47.60
   5   1   1 1096.09   46.10
   1   5   1 1008.80   46.00
   1   5   1 1101.99   48.60
  -1   5  -1  996.60   48.40
  -1   5  -1  980.60   46.00
  -1   5   1 1136.19   48.60
  -1   5   1 1026.80   46.00
   1   5  -1 1009.70   48.50
   1   5  -1  981.00   46.00
   5   1  -1 1098.69   46.00
   5   1  -1 1102.29   48.50
  -1   1   5  985.40   47.60
   1  -1   5 1136.59   47.70
   1   1  -5  964.20   48.40
  -1  -2   5  651.83   28.60
  -2  -5   1  620.84   28.50
  -2   5  -1  601.84   28.90
   1   2   5  616.74   27.60
   5   1   2  676.03   27.70
   1   2   5  581.74   28.50
   2   5   1  659.53   29.00
  -5  -1   2  624.74   28.40
   2   5   1  580.44   27.60
  -1   2  -5  593.44   29.00
   1  -2  -5  599.74   28.90
   5   1  -2  669.73   27.50
   5   1  -2  648.04   29.10
  -1   2   5  609.74   28.50
  -1   2   5  627.54   27.50
   1  -2   5  644.24   28.60
  -5   1   2  611.84   28.40
  -2   5   1  664.43   28.90
   1   2  -5  565.94   29.00
   2   5  -1  639.74   29.00
  -2   5   1  623.14   27.50
   2   5  -1  619.44   27.60
  -5  -1   3  277.57   12.50
   3   5   1  305.07   12.80
  -3  -5   1  271.57   12.50
  -1  -3   5  276.37   12.60
   5   1   3  292.37   12.20
  -3   5  -1  248.08   12.70
   3   5   1  249.28   12.20
   1  -3  -5  247.18   12.60
   1   3   5  285.67   12.20
  -1   3  -5  244.78   12.80
   1   3   5  258.07   12.50
   5   1  -3  283.07   12.10
   1   3  -5  251.67   12.80
  -3   5   1  275.07   12.10
   1  -3   5  269.37   12.70
   3   5  -1  259.87   12.20
   5   1  -3  280.47   12.90
  -5   1   3  272.47   12.50
  -3   5   1  283.47   12.60
  -1   3   5  271.57   12.10
   3   5  -1  271.27   12.80
   5   1   4  500.75   21.50
  -1   4  -5  476.25   22.50
   1  -4  -5  454.15   22.40
  -1  -4   5  498.95   22.20
   1   4   5  496.15   21.40
  -4  -5   1  492.95   22.10
  -5  -1   4  482.55   22.10
   4   5   1  464.85   21.50
   5  -1  -4  548.35   22.60
  -1   4   5  480.85   21.30
   5   1  -4  497.45   22.70
   1  -4   5  433.36   22.20
   5   1  -4  430.16   21.40
   5  -1   4  541.75   22.00
   4   5  -1  481.85   22.60
  -4   5   1  481.95   22.30
   4   5  -1  482.35   21.50
  -4   5   1  488.05   21.30
   1   4  -5  449.86   22.50
  -5   1   4  453.75   22.10
   0   5  -2    4.90    1.20
   2  -1  -5 1529.55   76.69
  -5  -2   1 1669.43   75.19
   5   2   1 1637.04   72.69
   2   1   5 1733.43   72.99
  -2  -1   5 1645.24   75.09
   1   5   2 1645.64   72.89
  -1  -5   2 1599.24   74.99
  -1   5  -2 1630.34   76.79
   2   1   5 1648.73   75.09
   5   2  -1 1694.23   72.59
   1   5  -2 1574.24   76.69
   2  -1   5 1867.61   75.19
   1   5  -2 1577.64   72.89
   1  -5   2 1663.73   75.39
  -2   1   5 1648.14   75.39
  -1   5   2 1617.34   72.89
   5   2  -1 1811.92   77.19
   2   1  -5 1553.64   76.79
   2   2   5   72.49    3.60
  -2  -5   2   82.59    3.70
  -5  -2   2   79.19    3.60
   2   5   2   68.09    3.60
  -2   5  -2   67.99    3.60
   2   2   5   73.89    3.60
   5   2   2   77.99    3.70
   2  -2  -5   68.59    3.60
  -2  -2   5   76.89    3.80
  -2   2  -5   63.89    3.70
   5   2  -2   63.19    3.60
  -2   5   2   73.69    3.50
   2  -2   5   73.29    3.90
   2   2  -5   63.19    3.70
   2   5  -2   72.89    3.50
   2   5  -2   73.89    3.70
   5   2  -2   70.09    3.90
  -2   2   5   74.39    3.70
   2  -3  -5   10.90    1.00
   5   2   3   10.20    1.50
   2   3   5    9.40    1.40
  -5  -2   3    8.30    1.30
   3   5  -2   10.70    1.50
  -2   3   5    9.30    0.90
   5   2  -3    6.50    1.70
   2   3  -5    7.30    1.30
  -3   5   2    9.60    1.10
   2  -3   5    8.20    1.00
  -2   4  -5  168.08    7.70
   5  -2  -4  182.98    7.60
   5   2   4  162.98    7.40
  -5  -2   4  166.98    7.50
   2   4   5  156.88    7.30
  -4   5  -2  153.98    7.50
   4   5   2  156.08    7.40
   2  -4  -5  133.19    7.40
  -2  -4   5  156.68    7.60
  -4  -5   2  154.18    7.40
   4   5  -2  156.68    7.30
   5   2  -4  132.29    7.30
   4   5  -2  155.08    7.70
  -2   4   5  162.98    7.10
  -5   2   4  149.59    7.40
   5   2  -4  169.18    7.80
   2   4  -5  148.69    7.60
  -4   5   2  166.78    7.10
  -5  -3   0    0.20    0.40
   0  -5   3    0.70    0.80
  -3   0   5    0.90    0.80
  -5  -3   1   16.80    1.30
   5   3   1   17.00    1.70
  -3  -1   5   17.10    1.90
   1   5   3   18.70    1.60
   3   1   5   20.10    1.70
  -1   5   3   22.70    1.40
   5   3  -1   19.30    2.00
  -3   1   5   18.80    1.60
   3   1  -5   23.00    1.70
   3  -2  -5  404.26   20.70
  -5  -3   2  443.16   20.20
  -2  -5   3  444.26   20.30
   5   3   2  453.35   19.80
  -2   5  -3  426.26   20.60
   3   2   5  460.85   20.30
  -2   5   3  459.85   19.60
   2   5  -3  436.96   19.60
   3  -2   5  442.86   20.40
   5   3  -2  465.35   20.80
   2  -5   3  439.96   20.40
   5   3  -2  449.56   19.80
   3   2  -5  418.56   20.70
  -5   3   2  461.85   19.50
   2   5  -3  432.86   20.70
  -3  -3   5   98.19    4.80
   3   3   5   95.09    4.60
  -3   3  -5   88.89    4.80
   3   3   5   93.29    4.60
   5   3   3   93.99    4.70
   3   5   3   89.59    4.60
  -5  -3   3   98.59    4.60
  -3   5  -3   88.99    4.70
   5   3  -3   99.59    5.00
   3   5  -3   95.69    4.50
   5   3  -3   90.19    4.60
  -3   3   5   92.99    4.30
   3   3  -5   90.69    4.80
   3  -3   5   97.09    4.80
   3   5  -3   93.29    4.80
  -3   5   3   93.39    4.30
  -3  -4   5 1500.55   67.19
   4   5   3 1476.15   65.09
  -3   4  -5 1407.46   68.39
   5   3   4 1557.94   65.09
  -4   5  -3 1380.06   68.39
   3   4   5 1492.35   64.99
   3   4  -5 1435.56   64.89
   4   5  -3 1431.46   64.99
  -4   5   3 1524.15   64.89
   5   3  -4 1501.35   64.99
   3   4  -5 1450.95   68.59
   4   5  -3 1492.95   68.39
  -3   4   5 1507.85   64.89
   5   3  -4 1520.75   68.49
   5   4   0   -0.70    0.50
   0   5  -4   -0.40    0.40
   4   0  -5   -0.10    0.40
  -5  -4   1   25.80    1.70
  -4  -1   5   31.30    2.30
  -1  -5   4   22.90    2.10
  -1   5  -4   32.30    2.00
   1   5   4   30.90    1.90
  -4   1   5   30.10    2.00
   4   1  -5   25.40    1.50
   1  -5   4   23.90    2.10
   5   4  -1   29.00    2.20
  -1   5   4   31.90    1.70
   5   4  -1   24.70    2.10
   4   1  -5   29.90    2.10
   5   4   2  111.09    5.50
  -4  -2   5  121.29    5.60
  -2   5  -4  105.19    5.50
   2   5   4  113.39    5.40
  -2  -5   4  111.39    5.60
  -5  -4   2  120.49    5.40
   4   2   5  112.59    5.40
  -5   4   2  114.09    5.10
   2  -5   4  117.39    5.60
  -2   5   4  116.39    5.20
   4   2  -5  110.39    5.70
   4  -2   5  115.29    5.50
   2   5  -4  110.29    5.60
  -4   2   5  111.99    5.50
   5   4  -2  108.99    5.70
   5   4  -2  106.19    5.40
   4   2  -5  106.59    5.10
  -3  -5   4   41.00    2.50
   4  -3  -5   37.70    2.40
   4   3   5   38.40    2.40
   4   3   5   39.40    2.50
  -5  -4   3   46.30    2.30
  -4  -3   5   41.10    2.60
   3   5   4   38.80    2.50
   5   4   3   37.30    2.60
   5   4  -3   39.30    2.70
  -3   5   4   40.60    2.00
   5   4  -3   42.60    2.50
  -5   4   3   36.10    1.90
   3   5  -4   39.40    2.60
   4   3  -5   42.30    2.20
   4   3  -5   37.60    2.50
   4  -3   5   41.70    2.50
  -4  -5   4    2.50    0.70
  -5  -4   4    3.00    0.70
  -4  -4   5    2.30    0.80
   5   4   4    1.40    0.80
  -4   5  -4    2.10    0.50
  -4   4  -5    1.20    0.50
   4   4   5    1.60    0.80
   4   5   4    0.90    0.70
   4   4  -5    1.10    0.50
  -5   4   4    2.90    0.50
   5   4  -4    1.50    0.60
  -4   5   4    2.10    0.40
  -4   4   5    1.80    0.30
   4   5  -4    2.90    0.60
  -5   0   5   -0.90    0.80
   5   0   5   -0.10    0.50
   5   0  -5   -0.40    0.50
   0   5  -5   -0.50    0.50
   5   5   0   -1.40    0.70
   5   5   0    0.70    0.60
  -5  -5   1  353.86   16.10
  -1  -5   5  346.37   16.30
   5   5   1  338.47   15.80
  -5  -1   5  353.16   16.20
   5   1   5  374.26   16.10
   5  -1  -5  368.66   16.70
   1   5   5  358.06   15.70
  -1   5  -5  340.97   16.50
  -5   5  -1  338.07   16.40
   5  -1   5  363.16   16.10
  -5   5   1  330.47   16.30
  -1   5   5  362.46   15.60
   5   1  -5  362.16   16.70
  -5   1   5  336.67   16.20
   1   5  -5  331.77   16.50
   1  -5   5  352.26   16.30
   5   5  -1  352.76   15.80
   5   5  -1  361.06   16.60
  -5  -5   2   67.89    3.20
  -2  -5   5   58.99    3.40
   2   5   5   60.39    3.30
  -5  -2   5   63.49    3.40
  -5   5  -2   50.89    3.20
   5   5   2   61.49    3.40
   5   2   5   68.59    3.40
  -2   5  -5   61.49    3.40
  -5   2   5   59.79    3.30
  -5   5   2   62.19    3.00
  -5   5   2   55.79    2.90
   5  -2   5   65.69    3.30
  -2   5   5   62.39    3.00
   2  -5   5   63.79    3.50
   2   5  -5   63.39    3.40
   5   2  -5   61.39    3.60
   5   5  -2   61.19    3.40
   5   5  -2   63.39    3.60
  -5  -5   3  137.99    6.60
  -3  -5   5  138.09    6.70
   5   3   5  138.39    6.50
  -5  -3   5  139.19    6.60
   5   5   3  134.29    6.60
   5  -3  -5  157.98    6.60
  -3   5  -5  139.99    6.80
  -5   5  -3  127.89    6.70
   3   5   5  136.39    6.50
   5   3  -5  137.89    6.90
  -5   5   3  140.49    6.20
   3  -5   5  140.99    6.80
  -3   5   5  137.29    6.20
  -5   3   5  133.29    6.60
   5   3  -5  130.29    6.40
   3   5  -5  137.29    6.30
   3   5  -5  129.49    6.70
   5  -3   5  142.39    6.60
   5   5  -3  131.39    6.50
   5   5  -3  139.59    6.90
  -5  -5   4   63.69    3.30
  -4  -5   5   61.09    3.30
   5   5   4   62.59    3.40
  -5  -4   5   66.39    3.40
  -5   4  -5   59.59    3.50
   5   4   5   59.99    3.40
   5   4   5   62.69    3.50
   4   5   5   59.79    3.40
  -4   5  -5   59.89    3.40
  -5   5  -4   55.39    3.40
  -5   5   4   62.19    2.90
  -4   5   5   61.69    2.90
   5   4  -5   58.79    3.50
   5   4  -5   60.99    3.20
   4   5  -5   65.69    3.20
   4   5  -5   63.29    3.50
   4  -5   5   67.79    3.40
   5   5  -4   68.19    3.30
   5   5  -4   61.19    3.60
  -5  -5   5  141.79    6.60
   5   5   5  140.19    6.70
  -5   5  -5  125.19    6.80
   5   5   5  144.69    6.60
  -5   5   5  132.89    6.10
   5   5  -5  141.49    6.40
   5   5  -5  131.79    6.90
  -6   0   0 3195.68  148.29
   0   0   6 3170.18  148.99
   0   0  -6 3341.67  151.78
   0   6   0 3356.46  144.29
  -6   0   1   -0.80    0.40
   0   1   6   -0.30    0.70
   0   1  -6   -0.30    0.50
   0  -1   6   -0.90    0.80
   0  -1  -6   -0.70    0.40
   0   2  -6   85.79    4.40
  -2   6   0   79.29    4.00
   0   2   6   80.69    4.20
   0   2   6   87.69    4.00
   2   6   0   87.09    4.30
   2   6   0   82.79    4.20
   0  -2  -6   81.69    4.20
  -6   0   2   81.99    4.10
  -2   6   0   84.29    4.10
   6   0  -3   -1.00    0.40
  -3   6   0   -0.80    0.50
   0   3   6   -1.60    0.40
   4   6   0    1.80    0.50
   0   4   6    2.10    0.50
   6   0  -4    1.20    0.60
   0  -4   6    0.50    0.90
  -4   6   0    1.70    0.50
  -4   6   0    2.00    0.70
   4   6   0    1.80    0.70
   5   6   0   -0.70    0.50
  -5   6   0    0.40    0.20
   0   5   6    0.10    0.40
  -1   0   6  266.37   12.50
  -6  -1   0  272.67   12.30
   0   6   1  283.27   12.50
  -1   0  -6  261.17   12.70
   1   0   6  260.57   12.50
   1   0  -6  253.77   12.60
   6   1   0  290.07   12.10
   0   6   1  251.97   12.00
   0   6  -1  272.27   12.60
   6   1   1  461.05   19.10
  -1   1  -6  443.66   20.00
   1   6   1  443.66   20.00
  -6  -1   1  434.26   19.60
   1  -1  -6  429.16   20.00
   1   1   6  403.86   19.70
  -1   6  -1  414.36   19.90
  -1   6   1  407.66   19.00
   1  -1   6  414.76   19.80
   1   1  -6  406.86   20.00
  -1   1   6  414.96   19.70
   6   1  -1  470.05   19.10
  -1   6   1  441.56   19.90
   1   6  -1  411.96   20.00
   1   2   6  299.67   15.40
   2   6   1  342.47   15.70
  -2  -6   1  329.27   15.40
  -1  -2   6  317.27   15.50
   1  -2  -6  330.07   15.60
  -1   2  -6  346.17   15.70
  -2   6  -1  327.17   15.60
   1   2   6  338.67   14.90
   6   1   2  353.16   15.00
   2   6   1  322.57   15.00
  -6  -1   2  331.77   15.30
   2   6  -1  316.47   14.90
   6   1  -2  371.06   15.80
  -2   6   1  345.27   15.50
  -6   1   2  321.37   15.30
  -2   6   1  322.37   14.90
   2   6  -1  329.17   15.70
   6   1  -2  378.36   14.90
   1  -2   6  335.17   15.60
   1   2  -6  320.47   15.70
   1   3   6   53.19    2.80
   3   6   1   57.49    3.00
  -3   6  -1   50.39    2.80
  -1  -3   6   49.99    3.20
   6   1   3   55.89    3.00
  -6  -1   3   51.19    2.80
  -1   3  -6   53.19    3.00
   3   6   1   46.80    2.90
  -3  -6   1   57.69    2.90
   1   3   6   51.49    2.90
   1  -3   6   49.90    3.20
  -1   3   6   53.49    2.70
  -6   1   3   50.29    2.80
   6   1  -3   58.59    3.20
   1   3  -6   46.90    2.90
  -3   6   1   49.70    2.70
  -3   6   1   55.89    2.60
   3   6  -1   49.60    2.80
   3   6  -1   54.99    3.00
  -1   3   6   51.89    2.90
  -1   4  -6   48.80    3.00
   6   1   4   54.39    3.00
   4   6   1   55.69    3.00
  -4  -6   1   52.29    2.80
   1   4   6   52.89    2.80
  -1  -4   6   46.00    3.00
   1  -4  -6   52.69    2.70
   4   6   1   49.50    3.00
  -4   6  -1   48.40    2.70
  -4   6   1   58.89    2.60
   4   6  -1   55.99    3.10
   1   4  -6   47.50    3.00
   1  -4   6   45.70    3.20
   4   6  -1   53.19    2.90
   6   1  -4   51.99    3.20
  -1   4   6   51.89    2.60
  -4   6   1   51.59    2.70
  -6   1   4   52.09    2.80
  -1  -5   6   82.99    4.60
  -5  -6   1   88.89    4.40
   1  -5  -6   98.99    4.30
   1   5   6   87.09    4.30
  -6  -1   5   88.89    4.50
  -1   5  -6   88.89    4.60
   5   6   1   86.19    4.50
  -5   6  -1   93.49    4.40
   6  -1  -5   97.09    4.80
   1  -5   6   81.39    4.60
   6   1  -5   96.09    4.40
   5   6  -1   81.89    4.40
  -6   1   5   84.09    4.40
   5   6  -1   85.49    4.60
   1   5  -6   84.89    4.60
  -5   6   1   86.39    4.20
  -5   6   1   96.49    4.20
   6   1  -5   89.99    4.90
  -1   5   6   85.19    4.20
  -6  -2   0  598.54   26.80
   6   2   0  610.24   26.20
   0  -6   2  623.04   27.00
   0   6  -2  582.04   26.10
  -2   0   6  596.84   27.00
   2   0   6  588.24   27.10
   2   0  -6  564.84   27.40
   0   6  -2  578.14   27.40
   0   6   2  569.24   26.10
   2  -1  -6   32.40    1.90
  -1  -6   2   29.60    2.20
  -2   1  -6   32.00    2.20
  -1   6  -2   27.80    1.90
  -6  -2   1   30.00    1.70
   2   1   6   28.80    2.20
  -2  -1   6   33.80    2.30
  -1   6  -2   27.50    1.90
   6   2   1   27.20    2.10
  -2   1   6   27.50    2.00
  -1   6   2   30.00    1.90
   1   6  -2   32.10    2.00
   6   2  -1   33.00    2.30
   2   1  -6   29.70    2.00
   1   6  -2   31.60    2.00
  -6  -2   2   26.60    1.80
  -2  -2   6   29.40    2.10
   6   2   2   29.10    2.10
   2  -2  -6   33.20    1.90
   2   6   2   26.30    2.00
  -2   6  -2   30.00    1.90
   2   2   6   30.70    2.00
   6   2  -2   33.20    2.30
   2   2  -6   30.30    2.10
   2   6  -2   34.90    2.00
  -2   2   6   29.70    2.00
  -2   6   2   27.80    1.80
   2   3   6  918.71   39.60
  -2  -3   6  925.01   41.00
   2  -3  -6  837.92   41.50
  -6  -2   3  951.90   40.80
  -3   6  -2  888.81   41.50
   3   6   2  870.01   39.60
   2   3   6  878.61   40.90
  -2   3  -6  891.31   41.60
   6   2   3  940.51   39.70
   6   2  -3  874.51   39.60
   3   6  -2  855.71   39.60
  -2   3   6  872.31   40.90
   2   3  -6  835.32   41.60
  -3   6   2  910.21   39.50
  -2   3   6  900.51   39.40
   3   6  -2  893.61   41.60
   6   2  -3  984.60   41.80
   6  -2  -4    0.50    0.40
   6   2   4   -0.10    0.70
   2  -4  -6    0.10    0.30
  -6  -2   4   -1.00    0.60
   4   6   2   -0.20    0.70
   2   4   6   -1.00    0.60
  -4   6  -2    0.00    0.30
  -2   4  -6    0.00    0.50
  -4   6   2   -0.80    0.40
  -6   2   4   -0.20    0.60
   2   4  -6   -0.10    0.40
  -2   4   6   -0.40    0.30
   4   6  -2    1.00    0.60
   4   6  -2   -0.30    0.50
  -5   6  -2  724.13   35.20
  -2  -5   6  765.42   34.70
   6   2   5  770.72   33.60
  -2   5  -6  762.22   35.20
  -6  -2   5  780.32   34.60
  -5  -6   2  760.92   34.60
   6  -2  -5  845.82   35.30
   2   5   6  774.92   33.60
   5   6   2  709.83   33.60
  -6   2   5  723.13   34.60
   5   6  -2  735.83   35.30
   5   6  -2  741.33   33.60
   6   2  -5  763.82   35.40
   2   5  -6  720.53   35.20
  -2   5   6  750.22   33.40
   2  -5   6  785.12   34.80
  -5   6   2  762.42   33.40
   3   0  -6  221.18   11.10
   6   3   0  218.18   10.70
   0  -6   3  234.28   11.00
   3   0   6  236.98   11.20
   0   6  -3  237.58   10.60
   0   6  -3  237.98   11.10
  -6  -3   0  242.68   10.80
  -3   0   6  249.58   11.00
  -3  -1   6   18.20    1.80
   3  -1  -6   16.60    1.50
  -6  -3   1   13.10    1.20
   1   6   3   13.50    1.50
  -1   6  -3   15.00    1.50
   3   1  -6   17.00    1.60
   1  -6   3   13.70    1.60
  -3   1   6   16.40    1.70
  -1   6   3   16.50    1.40
   6   3  -1   13.80    2.00
   3  -1   6   12.40    1.40
   6   3   2   24.60    2.10
   2   6   3   25.30    2.00
   3   2   6   25.20    2.00
  -3   2  -6   25.40    2.10
  -2   6  -3   25.30    1.80
   3   2   6   27.60    2.00
  -2  -6   3   23.00    2.00
  -6  -3   2   25.70    1.70
  -3  -2   6   27.00    2.10
   3   2  -6   27.90    2.00
  -3   2   6   28.70    2.00
   2   6  -3   31.10    2.00
   6   3  -2   25.30    2.20
   2  -6   3   27.30    2.10
  -2   6   3   25.90    1.70
   6   3   3  179.98    8.40
  -6  -3   3  189.58    8.50
   3   6   3  180.88    8.40
  -3   3  -6  181.28    8.80
  -3  -3   6  191.78    8.70
  -3  -6   3  174.88    8.50
   3   3   6  178.78    8.50
   3   3   6  181.78    8.40
  -3   6  -3  170.98    8.60
  -3   6   3  186.88    8.20
   3   6  -3  179.88    8.70
  -3   3   6  183.78    8.60
   3   3  -6  169.28    8.70
   3   6  -3  180.38    8.30
   6   3  -3  182.08    8.90
   4   6   3   20.30    1.90
  -6  -3   4   22.50    1.60
  -3   4  -6   16.10    1.90
  -4  -6   3   17.90    1.60
   3   4   6   16.70    1.70
   3   4   6   21.50    1.60
   6   3   4   18.90    1.90
  -4   6   3   21.80    1.40
   4   6  -3   20.10    2.00
   3   4  -6   22.40    1.80
   4   6  -3   23.00    1.70
   6   3  -4   17.70    2.20
  -3   4   6   20.10    1.20
   3  -4   6   15.20    1.90
  -3  -5   6   85.99    4.60
  -3   5  -6   94.59    4.60
  -6  -3   5   89.69    4.50
  -5  -6   3   93.09    4.40
   3   5   6   84.59    4.50
  -5   6  -3   88.79    4.50
   5   6   3  100.69    4.60
   6   3   5   89.39    4.60
  -6   3   5   82.59    4.40
   6   3  -5   85.39    4.80
   5   6  -3   83.49    4.70
   3   5  -6   85.59    4.20
  -3   5   6   85.39    4.10
   3  -5   6   92.39    4.70
   5   6  -3   87.39    4.40
   3   5  -6   87.99    4.60
  -5   6   3   87.19    4.10
  -6  -4   0   53.89    3.20
   0  -6   4   58.39    3.60
   4   0  -6   67.69    3.60
  -4   0   6   68.99    3.60
   0   6  -4   73.39    3.50
   0   6   4   67.09    3.30
  -4  -1   6   11.70    1.60
  -1   6  -4   15.50    1.60
   1   6   4   15.60    1.50
  -1  -6   4   13.30    1.70
   6   4   1    8.80    1.80
  -6  -4   1   11.50    1.10
   6   4  -1   11.60    2.00
   1  -6   4   14.10    1.80
  -4   1   6   13.70    1.70
  -6  -4   2   89.59    4.50
  -2  -6   4   87.29    4.70
   4   2   6  103.39    4.70
   2   6   4   91.69    4.60
   6   4   2   89.49    4.70
  -2   6  -4  102.09    4.70
  -4  -2   6   97.99    4.80
   2   6  -4   97.29    4.50
   6   4  -2  103.89    5.00
  -2   6   4   96.29    4.40
   4   2  -6   93.89    4.80
   4  -2   6   79.99    4.80
   2   6  -4  101.99    4.80
  -4   2   6   94.99    4.70
   2  -6   4   86.29    4.70
   4   2  -6   86.39    4.30
   6   4  -2   80.49    4.70
  -6   4   2   93.59    4.30
  -3  -6   4  112.19    5.60
   6   4   3  113.29    5.60
   4   3   6  105.49    5.70
   4   3   6  115.09    5.50
   3   6   4  109.79    5.40
  -4  -3   6  113.89    5.60
  -3   6  -4  117.79    5.60
   3   6  -4  112.39    5.70
  -6   4   3  112.99    5.10
   4   3  -6  110.79    5.70
   3   6  -4  115.59    5.30
  -3   6   4  116.99    5.20
   3  -6   4  125.99    5.70
   4   3  -6  106.59    5.20
   6   4  -3  112.49    5.80
  -4   3   6  107.89    5.50
  -4  -6   4   47.90    2.70
   4  -4  -6   52.29    2.70
   6   4   4   42.30    2.80
  -4   4  -6   45.20    2.80
   4   4   6   43.70    2.70
   4   4   6   45.40    2.80
  -6  -4   4   48.40    2.60
  -4  -4   6   45.10    2.80
   4   6   4   45.50    2.80
  -4   6  -4   44.60    2.70
   4   4  -6   43.80    2.70
  -4   4   6   45.10    2.20
   6   4  -4   41.90    3.10
  -4   6   4   43.30    2.30
   4  -4   6   50.19    2.90
   4   6  -4   45.90    2.60
   4   6  -4   42.90    2.80
   4   4  -6   44.90    2.40
   4   5   6  665.53   29.20
  -6  -4   5  676.13   30.00
   5   6   4  660.33   29.20
  -5  -6   4  693.33   30.00
  -5   6  -4  643.44   30.60
  -4  -5   6  663.93   30.10
  -4   5  -6  652.93   30.60
   6   4   5  679.13   29.30
   4   5   6  649.34   30.00
   5   6  -4  646.74   29.10
   4   5  -6  613.64   29.00
   6   4  -5  582.54   29.20
   5   6  -4  657.53   30.70
   6   4  -5  664.23   30.70
  -4   5   6  663.13   28.90
   4  -5   6  685.03   30.20
  -5   6   4  670.43   28.90
   4   5  -6  638.94   30.60
   6   5   0  394.16   18.10
   0  -6   5  410.36   18.60
   0   6  -5  408.86   18.80
   5   0  -6  360.86   19.00
  -5   0   6  407.86   18.50
   5   0   6  392.96   18.50
  -6  -5   0  411.46   18.40
   0   6   5  421.06   17.90
   1   6   5  252.17   10.80
   5   1   6  216.38   11.30
   5  -1  -6  202.18   11.60
  -5  -1   6  251.97   11.20
   6   5   1  230.88   11.00
  -1  -6   5  241.18   11.20
  -1   6  -5  240.48   11.30
  -6  -5   1  246.68   11.00
   6   5  -1  241.18   11.00
   5  -1   6  235.88   11.10
   1  -6   5  242.78   11.30
  -5   1   6  242.78   11.20
   6   5  -1  255.27   11.50
   1   6  -5  235.38   11.30
   5   1  -6  235.58   11.50
   5   2   6  142.99    6.20
   6   5   2  122.09    6.20
  -2  -6   5  126.39    6.30
  -2   6  -5  131.49    6.30
  -5  -2   6  140.79    6.30
   5  -2  -6  114.79    6.60
   2   6   5  127.09    6.00
  -6  -5   2  120.69    6.00
   6   5  -2  137.89    6.50
   5   2  -6  123.79    6.40
   2   6  -5  130.79    6.30
  -6   5   2  131.49    5.80
   2   6  -5  126.39    5.90
   2  -6   5  123.49    6.30
  -2   6   5  130.09    5.80
   6   5  -2  125.49    6.20
   5  -2   6  117.49    6.20
   5   2  -6  114.09    5.90
  -5   2   6  124.49    6.20
   3   6   5  197.08    8.90
  -6  -5   3  191.58    9.00
   5   3   6  201.28    9.00
   6   5   3  188.18    9.00
  -3   6  -5  195.58    9.30
  -3  -6   5  192.38    9.20
   5  -3  -6  222.58    9.40
  -5  -3   6  196.68    9.20
   6   5  -3  182.78    9.00
   5  -3   6  191.78    9.10
   3  -6   5  189.08    9.20
  -5   3   6  186.18    9.10
   3   6  -5  191.48    8.80
   6   5  -3  194.28    9.40
   5   3  -6  178.98    8.70
   5   3  -6  178.88    9.30
  -6   5   3  194.48    8.60
  -3   6   5  193.78    8.70
   3   6  -5  191.18    9.30
  -4  -6   5    1.50    0.70
  -5   4  -6    2.40    0.60
   5   4   6    2.00    1.20
   5   4   6    3.10    0.90
  -4   6  -5    2.40    0.60
  -5  -4   6    2.20    0.80
   4   6   5    2.20    0.80
  -6   5  -4    2.40    0.50
   6   5   4    1.60    0.80
  -6   5   4    1.50    0.40
   6   5  -4    1.50    0.70
   5   4  -6    3.20    0.60
   6   5  -4    2.40    0.70
   4   6  -5    2.20    0.60
   5  -4   6    2.80    0.80
  -5   4   6    1.30    0.80
  -5  -6   5   48.90    2.80
  -6  -5   5   53.49    2.80
  -5  -5   6   47.00    2.90
   5   6   5   46.30    3.00
  -6   5  -5   46.60    3.00
  -5   6  -5   46.30    2.90
  -5   5  -6   49.30    3.10
   5   5   6   51.99    3.00
   5   5   6   45.40    3.00
   6   5   5   45.90    3.00
   6   5   5   41.90    3.50
   5   5  -6   40.50    3.00
   5   5  -6   49.70    2.60
   6   5  -5   53.39    2.90
   6   5  -5   40.60    3.20
  -5   6   5   48.50    2.40
  -5   5   6   53.79    2.40
   5   6  -5   52.09    2.70
   5   6  -5   43.90    3.00
   0  -6   6   16.20    2.10
  -6   0   6   20.50    1.90
   6   0   6   25.10    1.60
   6   0  -6   17.10    2.30
  -6   6   0   20.70    1.40
   0   6   6   24.40    1.60
   0   6  -6   20.00    1.80
   6   6   0   19.30    2.00
   6   6   0   23.00    2.20
  -6  -6   1   50.19    2.70
  -1  -6   6   47.60    3.20
   6   1   6   55.09    2.70
   1  -6  -6   55.89    2.70
  -6  -1   6   49.30    2.90
   6   6   1   49.70    3.20
   6  -1  -6   45.80    3.50
   1   6   6   52.99    2.80
  -1   6  -6   50.89    3.10
  -6   6  -1   52.09    2.70
  -6   6   1   54.39    2.70
  -6   6   1   55.39    2.60
   6  -1   6   52.79    2.80
  -1   6   6   53.89    2.70
   1  -6   6   49.70    3.20
  -6   1   6   49.70    3.00
   1   6  -6   53.29    3.00
   6   1  -6   46.40    3.40
   6   6  -1   47.00    3.10
   6   6  -1   57.79    3.30
  -6  -6   2    0.30    0.60
  -2   6  -6    0.30    0.50
   6  -2  -6    0.60    0.60
   2   6   6    0.50    0.60
   6   2   6    0.20    0.70
   6   2   6    2.20    0.70
  -6   6  -2    0.50    0.40
  -6   2   6    0.20    0.80
   6  -2   6    1.40    0.70
   6   2  -6    0.40    0.60
   2   6  -6    1.10    0.50
   2   6  -6    0.50    0.50
   2  -6   6   -0.40    0.90
   6   6  -2    0.10    0.70
  -6  -6   3  196.28    8.80
  -3  -6   6  180.68    8.90
   6   3   6  185.08    8.80
  -6  -3   6  190.48    8.90
   6   6   3  184.88    8.80
   6  -3  -6  211.48    9.10
  -3   6  -6  179.98    9.00
   6   3   6  189.08    9.00
  -6   6  -3  177.88    8.90
   3   6   6  184.38    8.70
   6   3  -6  175.58    9.20
  -6   6   3  187.08    8.40
   3  -6   6  191.68    9.10
  -3   6   6  188.08    8.40
  -6   3   6  179.48    8.80
   3   6  -6  184.48    8.50
   3   6  -6  184.28    9.00
   6  -3   6  186.28    8.80
   6   6  -3  183.88    8.70
   6   6  -3  181.68    9.10
  -6  -6   4   50.79    2.80
  -4  -6   6   47.60    3.10
  -4   6  -6   52.09    3.10
  -6  -4   6   55.29    3.00
   4   6   6   45.60    3.10
  -6   4  -6   54.39    3.30
   6   4   6   53.99    3.20
  -6   6  -4   50.09    3.00
   6   6   4   47.20    3.10
  -6   6   4   49.30    2.50
  -6   4   6   45.10    2.90
  -4   6   6   50.39    2.50
   6   4  -6   47.80    3.10
   4   6  -6   53.99    2.70
   4   6  -6   50.79    3.20
   6   4  -6   47.60    3.30
   6   6  -4   52.99    3.00
   6   6  -4   46.00    3.20
  -6  -6   5   33.30    2.30
  -6  -5   6   30.30    2.40
  -6   5  -6   27.90    2.70
   6   5   6   30.40    2.70
   6   6   5   31.50    2.70
   5   6   6   36.70    2.40
  -5   6  -6   27.80    2.50
  -5   6   6   34.30    1.90
   5   6  -6   31.90    2.60
  -6   6   5   33.10    1.80
   6   5  -6   32.40    2.50
   6   6  -5   35.90    2.40
   6   6  -5   26.20    2.70
  -6  -6   6  889.71   41.00
  -6   6  -6  993.30   41.80
   6   6   6  876.01   41.00
   6   6   6  881.61   39.90
   6   6  -6  854.51   39.70
   6   6  -6  879.51   41.80
  -7   0   0    0.60    0.40
   0   0   7    1.20    0.80
   0   0  -7    1.10    0.50
   0   7   0    0.60    0.60
   1   7   0    6.20    1.40
   1   7   0    4.20    1.10
  -7   0   2  182.18    8.50
   2   7   0  194.68    8.80
   0   2   7  169.48    8.70
   0   2  -7  185.98    8.80
  -2   7   0  180.68    8.40
  -2   7   0  187.78    8.60
   2   7   0  176.18    8.40
   0  -2   7  180.88    8.80
   0  -2  -7  185.08    8.80
   0   3   7   -0.30    0.70
   0   3  -7    0.30    0.50
   3   7   0   -0.10    0.40
  -3   7   0   -1.20    0.50
   0  -3  -7   -0.40    0.40
  -7   0   3   -0.70    0.50
   3   7   0    0.90    0.60
   7   0  -4    0.80    0.50
  -7   0   4    0.50    0.60
   4   7   0    0.50    0.70
   0   4   7    1.00    0.40
  -7   0   5   -0.90    0.60
   7   0  -5   -0.30    0.60
   0   5   7   -0.40    0.70
   5   7   0   -0.20    0.60
   5   7   0   -0.80    0.50
  -5   7   0   -0.30    0.30
   6   7   0  101.79    5.50
   6   7   0  115.69    5.80
  -7   0   6  109.89    5.50
   7   0  -6  107.49    6.20
   0   6  -7  110.29    5.70
  -6   7   0  120.59    5.40
   0   6   7  115.79    5.30
   0  -6   7  107.19    5.70
  -6   7   0  111.69    5.30
   0   7  -1    0.80    0.60
  -1   0   7    1.70    0.80
   7   1   0    0.60    0.60
   1   0  -7    1.10    0.40
  -7  -1   0    0.20    0.40
  -7  -1   1  158.38    7.20
   7   1   1  175.18    7.30
   1  -1  -7  146.39    7.40
  -1   1  -7  150.78    7.60
   1   7   1  151.18    7.20
   1   7   1  157.28    7.40
  -1  -1   7  156.78    7.50
  -1   7  -1  154.08    7.40
  -1   7  -1  153.28    7.20
  -1   7   1  164.38    7.30
   1   7  -1  157.58    7.20
   1   7  -1  162.28    7.50
  -1  -1  -7  135.79    7.50
  -7   1   1  151.78    7.20
   1   1  -7  146.69    7.50
   1  -1   7  151.18    7.60
  -1   7   1  151.78    7.10
  -1   1   7  156.68    7.50
  -2   7  -1  151.28    7.10
  -7  -1   2  150.48    7.20
  -1   2  -7  159.78    7.60
  -2   7  -1  150.68    7.30
   2   7   1  166.68    7.40
   7   1   2  160.48    7.20
   2   7   1  149.88    7.20
  -1  -2   7  143.29    7.40
   1  -2  -7  155.08    7.40
   1   2  -7  150.78    7.50
   2   7  -1  148.99    7.10
  -2   7   1  163.88    7.30
   2   7  -1  153.98    7.50
  -7   1   2  149.49    7.20
   1  -2   7  153.48    7.60
  -1   2   7  142.39    7.40
  -2   7   1  160.08    7.10
   3   7   1    0.60    0.60
   1   3   7    1.30    0.70
   1   3   7    0.90    0.50
  -1   3  -7    0.50    0.50
  -7  -1   3   -0.60    0.60
   7   1   3   -0.40    0.70
  -1  -3   7    0.00    0.90
   3   7  -1    0.90    0.60
  -1   3   7    0.80    0.40
  -3   7   1   -0.20    0.50
   1   3  -7    0.30    0.50
   7   1  -3    0.50    0.60
   7   1  -3    0.80    0.60
  -1   3   7    0.20    0.70
  -3   7   1    0.30    0.20
   3   7  -1    0.40    0.50
  -7  -1   4  138.99    6.80
   4   7   1  150.38    7.10
   1  -4  -7  139.39    6.80
   1   4   7  143.49    6.60
   7  -1  -4  160.18    7.10
  -1   4  -7  142.69    7.00
   4   7   1  131.19    6.70
  -4   7  -1  138.29    6.80
  -1  -4   7  135.59    7.00
   1   4   7  143.19    6.90
   4   7  -1  135.19    6.70
  -1   4   7  139.09    6.90
  -1   4   7  140.79    6.50
  -7   1   4  137.59    6.80
   7   1  -4  148.79    7.30
   1  -4   7  141.49    7.10
   4   7  -1  161.78    7.10
   1   4  -7  136.39    7.00
  -4   7   1  139.79    6.60
  -4   7   1  147.89    6.70
   5   7   1   51.59    3.10
   1   5   7   53.19    2.90
   1   5   7   54.29    3.00
   1  -5  -7   59.99    2.90
  -7  -1   5   53.79    3.00
  -5  -7   1   53.39    2.90
  -5   7  -1   59.29    2.80
  -1   5  -7   52.59    3.20
  -1  -5   7   48.90    3.20
  -7   1   5   53.19    2.90
  -5   7   1   56.29    2.60
   1   5  -7   51.89    3.10
  -5   7   1   53.19    2.80
   1  -5   7   48.60    3.40
  -1   5   7   55.49    2.80
   7   1  -5   55.99    3.50
   5   7  -1   50.89    3.00
   5   7  -1   57.39    3.20
   1  -6  -7  225.98   10.80
  -6  -7   1  225.48   10.70
   7  -1  -6  245.58   11.50
  -1   6  -7  225.28   11.00
   1   6   7  236.18   10.50
   6   7   1  227.58   10.70
  -6   7  -1  226.88   10.80
  -1  -6   7  227.38   11.00
  -7  -1   6  220.18   10.80
   1  -6   7  231.08   11.10
  -7   1   6  217.58   10.80
  -1   6   7  231.48   10.40
  -6   7   1  244.48   10.70
   1   6  -7  223.68   11.00
   6   7  -1  225.08   10.60
   6   7  -1  242.98   11.20
   7   1  -6  211.28   11.40
  -6   7   1  240.08   10.40
   0   7   2    0.60    0.60
   0   7  -2    1.00    0.60
   7   2   0   -0.10    0.70
  -7  -2   0    0.20    0.40
   0   7  -2    0.80    0.40
  -2   0  -7    0.20    0.50
  -1   7  -2   50.19    2.70
  -7  -2   1   48.30    2.50
  -1  -7   2   44.80    2.90
  -2   1  -7   55.19    3.00
   2   1   7   47.90    3.00
   2  -1  -7   52.19    2.80
   1   7   2   46.80    2.80
  -1   7  -2   47.80    2.70
  -2  -1   7   49.00    2.90
  -2   1   7   48.50    2.90
   1   7  -2   51.49    2.80
   7   2  -1   49.10    2.90
   2   1  -7   50.89    2.80
  -1   7   2   48.80    2.70
   1   7  -2   51.89    2.70
   2   7   2  353.06   16.70
   2   2   7  351.76   17.30
  -2  -7   2  357.36   17.20
  -7  -2   2  374.96   17.10
  -2   7  -2  367.86   17.40
   7   2   2  393.06   16.80
   2  -2  -7  357.36   17.40
  -2   7  -2  372.46   16.70
  -2   2  -7  373.76   17.60
  -2  -2   7  379.06   17.30
  -2   2   7  356.96   17.20
   2   7  -2  372.26   17.50
   2   7  -2  366.46   16.70
   2  -2   7  381.66   17.50
  -2   7   2  359.96   16.60
   7   2  -2  415.06   16.80
   2   2  -7  364.26   17.50
   7   2  -2  416.66   17.70
  -2  -3   7   17.20    1.80
  -3  -7   2   15.00    1.60
   7   2   3   18.40    1.80
   2  -3  -7   21.40    1.50
  -3   7  -2   17.60    1.40
   3   7   2   19.00    1.80
  -2   3  -7   22.30    1.80
   2   3   7   18.90    1.60
  -2   3   7   18.60    1.80
   7   2  -3   21.10    2.10
  -3   7   2   16.50    1.40
   7   2  -3   13.80    2.10
   2   3  -7   18.60    1.70
   2  -3   7   14.60    2.10
  -7   2   3   18.70    1.40
  -2   4  -7   26.80    2.20
   2   4   7   30.10    1.90
   2   4   7   27.60    1.90
   7   2   4   25.90    2.20
  -4  -7   2   30.00    1.90
   4   7   2   28.20    2.10
  -7  -2   4   27.60    1.90
  -4   7  -2   25.30    1.70
  -2  -4   7   22.50    2.20
   2   4  -7   30.10    2.10
  -2   4   7   28.70    1.60
   2  -4   7   21.70    2.30
   4   7  -2   30.20    2.00
   7   2  -4   27.40    2.50
  -2   4   7   25.50    2.00
   4   7  -2   30.20    2.00
  -7   2   4   29.00    1.80
   2   5   7    9.20    1.40
  -5   7  -2    7.50    1.10
   2  -5  -7    5.60    1.40
  -2   5  -7    8.00    1.70
   7   2   5    8.90    1.70
  -7  -2   5    6.90    1.30
   5   7   2    9.60    1.50
  -5  -7   2    9.10    1.20
  -7   2   5    9.60    1.40
   5   7  -2    9.60    1.70
   2   5  -7    9.60    1.60
  -7  -2   6   72.59    3.90
  -6   7  -2   84.99    3.80
  -2  -6   7   70.39    4.00
  -2   6  -7   74.19    4.00
  -6  -7   2   74.39    3.80
   6   7   2   72.09    4.10
   2   6   7   71.69    3.90
   6   7  -2   74.89    4.20
   7   2  -6   68.89    4.50
   6   7  -2   73.19    4.00
  -2   6   7   70.99    3.60
  -7   2   6   67.49    3.90
   2  -6   7   72.79    4.40
   2   6  -7   76.09    4.10
   0  -7   3   -0.10    0.80
   0   7   3    0.20    0.60
  -3   0   7    0.10    0.80
   0   7  -3    0.20    0.60
  -7  -3   1   34.60    2.00
  -3  -1   7   39.70    2.60
   1   7   3   34.40    2.30
  -1   7  -3   37.10    2.20
   3  -1  -7   40.80    2.30
  -1   7  -3   38.30    2.30
   3   1   7   30.00    2.70
  -1  -7   3   33.00    2.50
   7   3   1   31.60    2.50
  -3   1   7   35.70    2.40
   1  -7   3   40.50    2.50
   3   1  -7   38.40    2.40
   1   7  -3   40.20    2.30
  -1   7   3   38.80    2.20
   1   7  -3   39.00    2.20
  -7  -3   2  483.45   21.30
   3  -2  -7  419.86   21.80
  -2   7  -3  456.45   21.70
  -3   2  -7  465.85   21.80
  -2  -7   3  474.35   21.40
   2   7   3  476.25   20.80
  -3  -2   7  460.25   21.50
   3   2   7  435.76   21.50
   7   3   2  488.25   20.90
  -2   7   3  470.35   20.70
   7   3  -2  429.86   21.00
   2   7  -3  474.95   20.70
   7   3  -2  504.15   22.00
  -3   2   7  473.95   21.40
   3   2  -7  455.35   21.80
   2   7  -3  468.45   21.80
   3  -2   7  472.65   21.70
  -3   7  -3   10.90    1.40
   3   7   3   14.90    1.70
   7   3   3   13.30    1.90
   3   3   7   13.60    1.60
  -7  -3   3   11.40    1.30
  -3  -3   7   15.20    1.90
  -3  -7   3   14.50    1.60
   3   3   7   14.10    1.50
   7   3  -3   13.40    2.10
  -3   3   7   13.90    1.70
  -3   4  -7  820.22   37.70
   4   7   3  796.22   35.90
  -3  -4   7  812.32   37.00
  -4  -7   3  814.72   37.00
  -4   7  -3  795.42   37.60
   3   4   7  797.22   37.00
   7   3   4  807.42   36.00
  -7  -3   4  845.92   36.90
   3   4   7  852.41   35.90
  -3   4   7  794.32   37.00
   4   7  -3  793.52   37.70
  -7   3   4  767.42   36.90
   3  -4   7  829.22   37.20
  -4   7   3  804.12   35.70
   4   7  -3  792.02   35.80
  -3   4   7  812.72   35.60
   7   3  -4  820.32   37.80
   3   4  -7  802.02   37.60
   7   3   5    2.70    0.80
  -5   7  -3    2.90    0.50
  -5  -7   3    4.30    0.80
   3   5   7    2.00    0.80
  -7  -3   5    3.80    0.70
   5   7   3    3.40    0.80
  -3   5  -7    3.80    0.60
   3   5   7    4.10    0.80
  -3  -5   7    3.10    0.90
   7   3  -5    1.80    0.70
  -3   5   7    2.20    0.80
  -5   7   3    2.40    0.50
   5   7  -3    2.50    0.60
   3  -5   7    3.20    1.10
  -6  -7   3 1728.83   76.79
   3   6   7 1674.93   76.79
  -7  -3   6 1674.53   76.79
  -3  -6   7 1689.93   76.89
   7   3   6 1723.73   74.59
  -3   6  -7 1772.62   78.29
  -6   7  -3 1738.93   78.19
   6   7   3 1653.93   74.59
   3   6   7 1668.83   74.49
   3  -6   7 1774.82   77.09
   3   6  -7 1609.44   78.29
   3   6  -7 1614.74   74.29
   7   3  -6 1737.53   78.49
  -3   6   7 1653.33   74.29
   6   7  -3 1673.93   78.39
   6   7  -3 1674.73   74.49
  -6   7   3 1724.83   74.29
  -7   3   6 1616.94   76.79
   0   7  -4   -0.20    0.60
   0   7  -4    1.20    0.50
   0   7   4    0.20    0.50
   4   0  -7    0.40    0.50
  -4   0   7   -0.50    0.90
  -1   7  -4  112.49    5.40
  -7  -4   1  102.69    5.10
  -1  -7   4  122.19    5.50
  -4  -1   7  114.39    5.50
   4  -1  -7   92.59    5.50
   1   7   4  113.29    5.20
   7   4   1   99.59    5.50
   7   4  -1   89.59    5.50
  -4   1   7  110.29    5.40
   7   4  -1  120.19    5.80
  -1   7   4  104.39    5.10
   1  -7   4  104.79    5.50
   1   7  -4  108.59    5.20
   4   1  -7  108.09    5.50
   1   7  -4  116.89    5.40
  -7  -4   2  188.38    9.00
   7   4   2  175.98    9.00
   2   7   4  192.08    8.90
  -2  -7   4  194.28    9.20
  -4   2  -7  201.38    9.40
  -4  -2   7  186.18    9.20
  -2   7  -4  194.88    9.20
   2   7  -4  189.58    8.80
   4   2  -7  191.38    9.30
  -4   2   7  192.38    9.20
   2  -7   4  199.18    9.20
   2   7  -4  193.58    9.30
  -2   7   4  192.18    8.70
   7   4  -2  205.48    9.50
   3   7   4   88.79    4.40
   7   4   3   81.19    4.60
   4   3   7   93.29    4.40
  -4   3  -7   97.79    4.70
  -7  -4   3   84.59    4.30
  -3   7  -4   86.39    4.40
  -4  -3   7   85.59    4.50
   4   3   7   76.49    4.70
  -3  -7   4   83.69    4.50
   7   4  -3   94.09    4.90
   4  -3   7   72.39    4.70
  -4   3   7   83.69    4.50
   3   7  -4   90.39    4.30
   3   7  -4   91.59    4.60
   4   3  -7   90.29    4.60
   4   3  -7   84.09    4.10
  -7   4   3   82.79    3.90
  -4   4  -7  253.57   12.10
   4   7   4  253.97   11.50
   4   4   7  266.77   11.60
  -4  -4   7  252.27   11.90
  -4   7  -4  245.38   11.90
  -4  -7   4  246.18   11.80
  -7  -4   4  261.27   11.70
   7   4   4  255.37   11.70
   4   4   7  246.98   11.90
  -4   7   4  259.07   11.30
  -4   4   7  238.68   11.80
   4   4  -7  243.18   12.00
   7   4  -4  256.47   12.20
   4  -4   7  249.97   12.10
   4   7  -4  254.77   11.40
   4   4  -7  237.28   11.30
   4   7  -4  254.37   12.10
  -4   5  -7  485.45   21.70
  -7  -4   5  460.85   21.20
  -5  -7   4  451.75   21.30
  -4  -5   7  470.35   21.40
  -5   7  -4  463.25   21.60
   4   5   7  456.85   21.30
   5   7   4  453.65   20.70
   4   5   7  482.95   20.80
   7   4   5  458.95   20.80
  -7   4   5  463.15   21.30
   4   5  -7  459.95   21.70
   4   5  -7  442.56   20.50
   4  -5   7  438.56   21.50
  -4   5   7  443.76   21.30
   5   7  -4  449.66   20.60
  -5   7   4  479.25   20.50
   5   7  -4  453.35   21.70
   7   4  -5  473.05   21.90
  -4   5   7  480.85   20.40
   6   7   4   68.19    4.10
  -6  -7   4   74.39    3.70
  -4  -6   7   62.09    3.90
   4   6   7   60.99    3.90
   4   6   7   71.39    3.80
  -6   7  -4   65.59    3.70
   7   4   6   66.89    3.90
  -4   6  -7   69.99    4.00
  -7  -4   6   68.69    3.70
  -4   6   7   67.49    3.40
   4   6  -7   67.39    4.00
   6   7  -4   72.79    3.80
   4   6  -7   71.49    3.50
  -7   4   6   63.19    3.70
   4  -6   7   75.59    4.20
   7   4  -6   58.09    4.20
  -6   7   4   68.69    3.30
   6   7  -4   64.69    4.00
   0  -7   5    0.70    0.90
   5   0  -7    0.40    0.60
  -5   0   7    1.40    0.90
   1   7   5   27.70    1.90
  -5  -1   7   25.90    2.20
  -7  -5   1   21.30    1.60
  -1  -7   5   21.20    2.10
  -1   7  -5   26.50    2.00
   1  -7   5   21.80    2.30
   1   7  -5   27.50    1.90
   5   1  -7   27.70    2.20
  -5   1   7   22.50    2.00
   7   5  -1   24.10    2.40
  -1   7   5   26.80    1.70
   1   7  -5   27.60    2.10
   7   5   2  220.38   10.40
  -7  -5   2  224.78   10.30
  -2   7  -5  229.28   10.60
  -2  -7   5  222.78   10.60
   2   7   5  217.78   10.20
  -5  -2   7  234.88   10.60
   2   7  -5  219.18   10.10
   2   7  -5  228.28   10.70
   5   2  -7  219.28   10.80
   5  -2   7  197.68   10.60
   7   5  -2  235.68   10.90
  -2   7   5  228.58   10.00
  -7   5   2  230.88    9.90
   5   2  -7  203.18   10.00
  -5   2   7  217.18   10.50
   2  -7   5  223.28   10.60
  -5  -3   7   22.00    2.10
  -7  -5   3   19.00    1.60
   3   7   5   21.50    2.00
  -3  -7   5   18.30    2.00
  -3   7  -5   23.50    1.90
   5   3   7   24.60    2.00
   7   5   3   18.30    2.30
  -5   3   7   23.10    2.00
   5  -3   7   16.30    2.20
   5   3  -7   19.50    1.60
  -7   5   3   17.60    1.30
   7   5  -3   21.30    2.30
  -4   7  -5  988.00   46.10
   5   4   7  994.30   44.00
  -5   4  -7 1081.89   46.20
  -7  -5   4 1029.50   45.20
   4   7   5 1002.10   44.00
  -5  -4   7 1029.10   45.30
   7   5   4  963.80   44.10
  -4  -7   5 1014.20   45.30
   7   5  -4  992.50   46.30
   5   4  -7  979.00   46.20
   4   7  -5  943.91   43.80
  -4   7   5 1000.20   43.70
  -5   4   7  937.21   45.30
   5  -4   7  919.11   45.40
   4   7  -5 1005.30   46.20
  -5  -5   7  369.16   17.20
  -5   7  -5  392.36   17.50
  -5  -7   5  390.16   17.20
   7   5   5  357.86   16.90
   5   5   7  365.06   16.80
   5   5   7  357.96   17.30
   5   7   5  355.06   16.80
  -7  -5   5  392.36   17.10
  -5   5  -7  422.26   17.60
  -5   5   7  343.57   17.10
   5   7  -5  364.36   17.60
   5   5  -7  352.86   16.50
  -5   7   5  357.56   16.40
   5   5  -7  356.56   17.50
   7   5  -5  359.86   17.70
   5   7  -5  371.16   16.60
   5  -5   7  370.16   17.40
   6   7   5 1324.47   58.89
   5   6   7 1364.36   60.69
  -6   7  -5 1333.17   61.79
  -7  -5   6 1348.67   60.59
  -5   6  -7 1355.96   61.79
  -7   5  -6 1386.26   61.89
   7   5   6 1319.97   58.99
  -5  -6   7 1348.86   60.69
   5   6   7 1386.36   58.89
  -6  -7   5 1309.67   60.59
   5   6  -7 1270.47   61.79
   7   5  -6 1365.66   61.99
   6   7  -5 1345.57   58.79
   6   7  -5 1337.87   61.89
  -6   7   5 1370.56   58.49
  -7   5   6 1289.57   60.59
   7   5  -6 1142.09   58.89
  -5   6   7 1418.56   58.49
   5  -6   7 1299.07   60.89
   5   6  -7 1300.17   58.69
   0  -7   6   -1.40    0.90
   0   7   6    0.20    0.50
   6   0   7   -0.90    0.90
  -7   6  -1  443.76   20.10
  -1   7  -6  419.46   20.20
  -7  -6   1  429.16   19.70
   1   7   6  444.16   19.20
  -1  -7   6  413.16   19.90
   7   6   1  416.86   19.50
   6   1   7  438.66   19.80
  -6  -1   7  440.26   19.90
   1  -7  -6  450.35   20.00
  -1   7   6  422.76   19.10
   1  -7   6  423.96   20.00
  -6   1   7  419.66   19.90
   6  -1   7  422.46   19.80
   1   7  -6  436.96   20.20
   7   6  -1  410.66   19.50
   6   1  -7  382.06   20.40
   7   6  -1  478.15   20.40
  -7   6   1  439.26   19.10
  -7   6  -2  815.02   38.30
   2   7   6  846.12   36.50
   6   2   7  795.32   37.70
  -2  -7   6  832.82   37.80
  -6  -2   7  857.01   37.70
  -7  -6   2  850.31   37.60
   7   6   2  797.82   36.70
   6  -2  -7  772.82   38.90
  -2   7  -6  825.62   38.40
  -7   6   2  804.12   38.10
   7   6  -2  765.82   36.70
  -2   7   6  827.12   36.40
   7   6  -2  881.51   38.60
   6  -2   7  823.32   37.70
   2  -7   6  867.41   37.90
  -6   2   7  787.02   37.70
   2   7  -6  809.72   36.40
   6   2  -7  824.62   38.60
  -7   6   2  870.91   36.30
   2   7  -6  825.32   38.40
   7   6   3  439.96   19.90
  -6  -3   7  439.36   20.30
   3   7   6  448.56   19.70
  -7  -6   3  447.06   20.20
  -3  -7   6  426.66   20.30
  -7   6  -3  463.55   20.60
  -3   7  -6  449.06   20.60
   6   3   7  465.25   19.80
  -6   3   7  416.86   20.30
   3   7  -6  443.16   20.70
   6   3  -7  441.26   20.80
   7   6  -3  409.56   19.90
   6  -3   7  408.96   20.30
   3   7  -6  429.46   19.60
   7   6  -3  426.96   20.80
  -3   7   6  434.36   19.50
   3  -7   6  453.75   20.50
  -7   6   3  448.96   19.40
  -7   6  -4 1920.11   86.09
  -7  -6   4 1820.62   84.49
  -6  -4   7 1861.91   84.49
  -4   7  -6 1865.41   86.09
   4   7   6 1902.21   81.99
   6   4   7 1873.81   81.99
  -4  -7   6 1853.51   84.59
  -6   4  -7 2014.60   86.19
   7   6   4 1874.91   82.09
   4   7  -6 1840.22   86.09
  -7   6   4 1906.61   81.59
   7   6  -4 1810.42   86.19
   4   7  -6 1809.02   81.79
   7   6  -4 1774.22   81.99
   6  -4   7 1756.52   84.59
  -6   4   7 1825.62   84.49
   4  -7   6 1892.11   84.69
   6   4  -7 1844.12   86.19
  -4   7   6 1860.21   81.69
   6   5   7   -3.90    3.40
  -7   6  -5    1.80    0.70
   7   6   5    0.60    1.00
   5   7   6    1.30    1.00
  -6   5  -7    3.50    0.80
  -7  -6   5    3.10    0.80
  -6  -5   7    1.90    1.00
  -5   7   6    2.80    0.60
   5   7  -6    3.10    0.70
   6   5  -7    2.30    0.80
   6   5  -7    2.30    0.80
  -6   5   7    1.40    1.00
  -6  -7   6    4.40    0.90
  -7  -6   6    4.30    0.90
  -6  -6   7    3.20    0.90
  -7   6  -6    2.20    0.70
   6   7   6    4.00    1.10
   6   6   7    2.20    2.20
   6   6   7    3.60    1.10
   7   6   6    2.30    1.00
  -6   6   7    4.00    1.00
   6   7  -6    2.30    0.70
   7   0  -7   -0.40    0.90
  -7   7   0    0.80    0.30
  -1  -7   7    5.80    1.20
  -7  -1   7    7.40    1.10
   7  -1  -7    5.10    1.20
  -1   7  -7    5.80    0.80
   7   7   1    6.40    1.20
  -7   1   7    5.90    1.00
   1  -7   7    8.20    1.40
   1   7  -7    5.50    0.80
   7   1  -7    4.70    1.00
   7   7  -1    9.80    2.10
   7   7  -1    5.00    0.90
  -7  -7   2  238.18   11.00
  -2  -7   7  236.68   11.30
   7   7   2  233.08   11.10
  -7  -2   7  226.88   11.10
   7  -2  -7  254.37   12.00
  -2   7  -7  234.18   11.30
   2   7   7  245.68   10.80
  -7   7  -2  214.78   11.10
  -2   7   7  234.58   10.60
  -7   2   7  227.98   11.10
   7   2  -7  222.08   11.70
   2   7  -7  241.88   10.70
   2   7  -7  233.18   11.30
   2  -7   7  241.28   11.40
   7   7  -2  227.68   11.00
   7   7  -2  241.08   11.50
  -7  -7   3  223.08   10.30
  -3  -7   7  207.78   10.40
   7   7   3  216.18   10.40
  -7  -3   7  206.18   10.30
   3   7   7  214.78   10.10
   7   3   7  204.98   10.20
  -7   7  -3  216.28   10.40
  -3   7  -7  226.28   10.50
  -7   7   3  220.68    9.80
  -3   7   7  216.08    9.90
   7   3  -7  221.58   10.90
  -7   3   7  217.78   10.40
   3   7  -7  218.98    9.90
   3   7  -7  220.48   10.60
   3  -7   7  226.48   10.70
   7   7  -3  213.98   10.20
   7   7  -3  224.38   10.80
  -7  -7   4   98.19    4.70
  -4  -7   7   89.69    5.00
   4   7   7   98.19    4.90
  -7  -4   7   99.69    4.90
  -4   7  -7   89.09    5.00
  -7   4  -7   86.99    5.20
   7   4   7   91.69    5.10
  -7   7  -4   81.99    4.90
   4   7   7   91.39    5.00
   7   7   4   91.69    5.10
  -4   7   7   92.49    4.50
  -7   4   7   87.59    4.90
   4  -7   7  106.19    5.30
   7   4  -7   96.29    5.30
   4   7  -7   96.49    4.60
   4   7  -7   94.99    5.10
  -7   7   4   87.19    4.40
   7   7  -4   97.19    4.90
   7   7  -4   89.89    5.30
  -7  -7   5  196.98    9.20
  -5  -7   7  193.58    9.30
  -7  -5   7  199.98    9.30
   5   7   7  206.28    9.40
  -7   5  -7  190.78    9.60
   7   5   7  191.58    9.30
   5   7   7  201.48    9.30
   7   7   5  189.98    9.30
  -7   7  -5  190.68    9.50
  -5   7  -7  186.08    9.50
  -5   7   7  204.78    8.80
  -7   5   7  192.58    9.30
   7   5  -7  174.78    9.40
   5   7  -7  189.48    8.90
   5   7  -7  185.98    9.50
   7   5  -7  191.98    9.70
   7   7  -5  198.98    9.20
   7   7  -5  192.78    9.70
  -7  -7   6   19.70    1.90
  -6  -7   7   19.50    2.00
  -7  -6   7   19.10    2.00
   6   7   7   20.10    3.80
  -7   6  -7   19.70    2.40
   7   6   7   17.60    2.50
   7   7   6   16.20    2.30
  -7   7  -6   19.40    2.20
  -6   7  -7   14.60    2.20
   6   7   7   18.00    2.40
  -7   6   7   19.10    2.20
   6   7  -7   21.70    2.00
   7   6  -7   22.70    2.70
  -7  -7   7    7.90    1.80
   7   7   7    5.90    1.20
   0   0   8    9.50    1.80
   0   0  -8    9.00    1.70
   0   8   0   10.50    1.20
   1   8   0    0.70    0.40
   0  -1   8    1.70    0.90
   0  -1  -8    0.50    0.50
   0   1   8    1.80    0.80
   0   2   8   35.90    2.40
  -8   0   2   31.90    1.90
   2   8   0   29.00    2.10
   0   2  -8   31.30    2.30
  -2   8   0   28.70    2.20
  -2   8   0   29.10    1.80
   2   8   0   32.00    2.20
   0  -2   8   35.50    2.50
   0  -2  -8   30.50    2.20
   0  -3   8    1.10    1.00
   0   3  -8   -0.60    0.50
   3   8   0    0.30    0.70
  -8   0   3   -0.40    0.50
   0  -3  -8   -0.20    0.40
   0   3   8   -0.20    0.70
   0  -4  -8  256.37   11.50
  -4   8   0  240.48   10.90
   0  -4   8  228.48   11.50
   0   4  -8  240.48   11.50
   0   4   8  232.88   11.40
   4   8   0  227.08   11.00
   4   8   0  250.37   11.60
  -8   0   4  235.78   11.20
   8   0  -4  270.57   11.80
   0   4   8  229.18   10.90
   0   5   8   -0.50    0.40
   0   5   8   -1.00    0.80
   8   0  -5    0.80    0.60
   5   8   0   -0.30    0.70
   0  -5  -8   -0.50    0.40
  -8   0   6   97.29    4.90
   0  -6  -8  104.09    4.90
   0   6   8  101.59    5.00
   0  -6   8   95.09    5.30
   6   8   0   91.99    5.30
   0   6   8   98.79    4.70
  -6   8   0   92.59    4.70
   6   8   0   90.99    5.00
   0   6  -8   92.79    5.10
   8   0  -6  104.49    5.80
  -7   8   0   -0.10    0.40
   0  -7   8   -1.40    1.10
   8   0  -7   -1.10    1.00
   0  -7  -8   -0.40    0.50
   0   7  -8   -0.30    0.60
  -1   0  -8  127.69    6.10
   0   8  -1  121.99    5.80
   0   8  -1  118.69    5.90
  -8  -1   0  113.69    5.60
   1   0   8  108.29    6.00
   1   0  -8  121.59    6.00
  -1   0   8  116.99    6.00
   0   8   1  122.59    5.80
   8   1   0  136.99    5.80
  -8   1   0  112.69    5.60
   0   8   1  119.59    5.70
  -1   8  -1  132.29    6.50
   8   1   1  150.78    6.50
  -1   8  -1  131.59    6.30
  -1   1  -8  134.79    6.60
  -8  -1   1  132.99    6.30
   1  -1  -8  131.99    6.50
   1   1   8  127.29    6.60
  -8   1  -1  128.39    6.20
  -1  -1   8  125.09    6.60
   1   8   1  141.89    6.50
   1   8   1  135.49    6.30
   1   8  -1  137.99    6.50
  -8   1   1  128.09    6.30
  -1   8   1  135.69    6.30
   1  -1   8  124.39    6.70
  -1   1   8  126.79    6.60
  -1  -1  -8  137.39    6.60
   1   1  -8  134.69    6.60
  -1   8   1  136.49    6.40
   1   8  -1  138.49    6.30
  -8  -1   2    1.10    0.50
  -2   8  -1    0.80    0.30
  -2   8  -1    0.90    0.70
  -1  -2   8    2.00    0.90
   2   8   1    0.90    0.40
  -1  -2  -8    0.50    0.50
   8   1  -2    1.80    0.70
  -1   2   8    2.40    0.90
   1  -2   8    1.40    1.00
  -2   8   1    1.40    0.60
  -8   1   2    1.50    0.50
  -2   8   1    0.70    0.30
  -3   8  -1   58.69    3.00
   1   3   8   55.59    3.20
  -1  -3   8   56.09    3.50
   3   8   1   54.09    3.10
  -1   3  -8   61.49    3.40
  -3   8  -1   59.99    3.10
   1  -3  -8   60.99    3.10
   3   8   1   56.59    3.20
  -3   8   1   55.09    3.10
  -1   3   8   62.79    3.30
   1   3  -8   57.39    3.30
   1  -3   8   52.09    3.50
   3   8  -1   58.29    3.20
   3   8  -1   61.09    3.20
  -8   1   3   56.19    3.00
  -1  -3  -8   53.89    3.20
  -3   8   1   57.79    2.80
  -1   4  -8   16.70    1.90
   1   4   8   17.50    1.50
  -8  -1   4   11.80    1.40
   1  -4  -8   14.80    1.40
   4   8   1   16.60    1.80
  -4   8  -1   11.60    1.60
  -4   8  -1   12.90    1.20
  -1  -4   8   12.30    1.80
   4   8  -1   17.50    1.80
  -1   4   8   17.20    1.30
  -8   1   4   15.70    1.40
   1   4  -8   14.80    1.70
  -4   8   1   12.20    1.50
  -4   8   1   15.50    1.00
   1  -4   8   12.40    2.10
  -1   4   8   14.40    1.70
   1   5   8    1.00    0.60
  -5   8  -1    0.50    0.30
   1   5   8    1.60    0.70
  -1  -5   8   -0.60    0.90
   5   8   1    0.30    0.80
   8   1  -5    0.90    0.70
  -1   5   8    1.30    0.50
  -8   1   5    1.40    0.70
   5   8  -1    1.10    0.80
  -1   5   8    0.60    0.80
   1   6   8   -0.90    0.60
   1  -6  -8    0.30    0.50
   1   6   8    0.80    0.70
   8  -1  -6    0.30    0.70
  -1   6   8   -0.10    0.50
   6   8  -1    0.20    0.70
   8   1  -6   -0.50    0.80
  -1   6   8   -0.20    0.80
   1   6  -8   -0.60    0.60
  -1   7  -8  152.68    7.90
  -1  -7   8  160.88    8.00
  -8  -1   7  157.58    7.70
  -7   8  -1  163.98    7.60
   8  -1  -7  155.18    8.90
   1   7   8  155.68    7.50
   1   7   8  166.98    7.70
   7   8   1  152.58    7.80
  -8   1   7  157.78    7.70
   7   8  -1  154.88    8.10
   1   7  -8  155.18    7.90
  -7   8   1  160.38    7.30
   1  -7   8  161.78    8.10
   7   8  -1  156.08    7.70
  -1   7   8  156.08    7.40
  -8  -2   0   25.80    1.50
  -2   0   8   28.90    2.10
   0   8  -2   24.50    1.80
   2   0  -8   29.30    2.00
   2   0   8   25.40    2.30
   0   8  -2   26.30    2.00
  -2   0  -8   20.90    2.20
   0   8   2   26.00    1.90
  -8  -2   1  149.99    7.00
  -2  -1   8  151.88    7.30
   8   2   1  164.88    7.20
   1   8   2  147.69    7.00
   2  -1  -8  152.48    7.30
  -1   8  -2  143.99    7.00
  -2   1  -8  157.08    7.40
   2   1   8  148.59    7.40
  -1   8  -2  142.59    7.20
   2  -1   8  139.19    7.50
   2   1  -8  139.79    7.30
   1   8  -2  149.29    7.30
  -2   1   8  154.98    7.30
  -1   8   2  150.68    7.00
  -2  -1  -8  148.89    7.40
   1   8  -2  149.99    7.00
   8   2   2    7.50    1.70
  -2   8  -2    4.60    1.10
  -2   8  -2    3.20    0.80
   2   8   2    4.70    0.80
  -8  -2   2    3.20    0.60
  -2   8   2    5.80    1.30
   8   2  -2    4.00    1.00
   2   3   8  281.47   14.10
   3   8   2  302.07   13.70
   2   3   8  302.07   13.60
   2  -3  -8  288.37   14.20
  -3   8  -2  300.57   14.20
   8   2   3  308.47   13.80
  -3   8  -2  298.27   13.60
  -3  -8   2  292.27   14.10
  -2   3  -8  327.37   14.40
  -2  -3   8  309.27   14.20
   2   3  -8  295.77   14.30
   8   2  -3  327.77   14.60
   2  -3   8  304.17   14.40
   3   8  -2  298.37   13.60
  -3   8   2  305.97   13.60
   3   8  -2  299.77   14.30
  -8   2   3  292.07   14.00
  -2   3   8  303.47   14.10
   2   4   8   12.30    1.50
   4   8   2   10.90    1.80
  -2  -4   8   10.70    1.90
  -4   8  -2    9.90    1.30
   2  -4  -8   13.30    1.50
   2   4   8   11.40    1.50
   8   2   4    7.50    1.80
  -4  -8   2    9.50    1.50
  -8   2   4   13.10    1.30
   8   2  -4   11.10    1.40
  -2   4   8   11.90    1.80
   8   2  -4   11.80    2.20
   4   8  -2   14.70    1.80
   2   4  -8   12.60    1.60
   2  -5  -8  907.01   48.50
  -8  -2   5 1045.70   47.70
  -5  -8   2 1028.10   47.70
   2   5   8 1036.10   47.80
   2   5   8 1069.29   46.30
  -5   8  -2 1063.69   48.50
  -2  -5   8 1021.20   47.80
  -2   5  -8 1119.99   48.70
   8   2   5 1063.39   46.40
   5   8   2 1057.99   46.30
   5   8  -2 1028.50   48.70
   2   5  -8 1059.19   48.60
  -2   5   8 1026.80   47.80
  -5   8   2 1079.69   46.10
   5   8  -2 1043.10   46.30
  -8   2   5 1012.10   47.70
   8   2  -5 1141.69   49.10
  -2   5   8 1005.00   46.10
   2  -5   8 1067.79   48.10
   2   6   8   -0.70    0.70
  -2   6  -8    0.60    0.60
   2   6   8    1.10    0.80
   6   8  -2    0.60    0.70
  -2   6   8   -0.50    0.90
  -2   6   8   -0.50    0.50
  -8   2   6   -0.60    0.70
   8   2  -6   -0.30    0.80
   6   8  -2   -0.80    0.60
  -2   7  -8  696.73   32.70
  -7   8  -2  701.43   32.60
  -7  -8   2  695.43   32.10
  -2  -7   8  714.63   32.30
   7   8   2  696.13   31.40
  -8  -2   7  677.83   32.10
   8  -2  -7  801.72   33.20
   2   7   8  719.73   32.20
   2   7   8  724.23   31.20
   7   8  -2  701.53   31.30
  -8   2   7  666.23   32.10
   2   7  -8  697.43   32.70
  -7   8   2  727.83   31.00
   8   2  -7  593.94   33.10
   2  -7   8  701.63   32.50
   2   7  -8  681.73   31.00
  -2   7   8  683.53   31.00
   7   8  -2  714.63   32.90
  -8  -3   0  104.79    5.10
   8   3   0  107.79    5.60
   0   8  -3  103.89    5.20
  -3   0   8  112.09    5.50
   0   8   3  105.09    5.20
   3   0  -8  106.39    5.40
  -3   0  -8  112.39    5.60
   0   8  -3  109.49    5.40
  -3  -1   8   42.60    2.80
   3   1   8   34.70    3.00
  -8  -3   1   37.90    2.20
   8   3   1   40.00    2.90
  -1   8  -3   38.20    2.50
  -1   8  -3   38.60    2.40
  -3   1  -8   41.30    2.70
  -1  -8   3   38.00    2.70
   3  -1  -8   43.50    2.50
   1   8   3   41.40    2.50
   1   8  -3   44.00    2.50
   1   8  -3   43.40    2.50
  -3   1   8   45.70    2.80
  -1   8   3   39.20    2.40
   3   1  -8   42.90    2.60
  -2  -8   3  106.19    5.70
  -2   8  -3  112.79    5.60
   3  -2  -8  109.59    5.70
  -3  -2   8  109.79    5.70
  -8  -3   2  106.19    5.40
   8   3   2  110.49    5.70
   3   2   8  104.19    5.80
   2   8   3  111.49    5.50
  -2   8  -3  108.99    5.40
  -3   2  -8  123.89    5.80
   2   8  -3  120.79    5.50
   3   2  -8  115.29    5.70
   2   8  -3  118.19    5.70
  -3   2   8  117.39    5.70
   8   3  -2  121.39    6.00
  -2   8   3  116.09    5.40
   8   3  -2  103.49    6.00
  -3  -3   8  480.55   21.90
  -3   8  -3  476.95   22.10
   3   8   3  472.25   21.10
  -3  -8   3  467.65   21.80
   3   3   8  448.36   21.90
  -3   3  -8  502.15   22.20
   3   3   8  474.75   21.10
  -8  -3   3  484.95   21.70
   8   3   3  473.05   21.30
   3   8  -3  475.25   22.20
  -3   8   3  459.85   21.00
  -3   3   8  465.05   21.80
   8   3  -3  501.45   22.40
   3  -3   8  449.66   22.20
   3   3  -8  469.35   22.20
   8   3  -3  444.26   21.60
   3   8  -3  485.05   21.10
  -4  -8   3  384.56   18.40
  -4   8  -3  393.76   18.60
  -8  -3   4  400.16   18.30
   4   8   3  407.46   17.90
  -3   4  -8  431.46   18.80
  -3  -4   8  380.86   18.50
   8   3   4  394.66   18.10
   3   4   8  383.06   18.40
   3   4   8  400.66   17.90
   3   4  -8  406.66   18.80
  -8   3   4  397.76   18.30
   4   8  -3  368.66   17.80
   4   8  -3  400.96   18.80
  -3   4   8  396.36   18.40
  -4   8   3  389.76   17.70
   8   3  -4  432.16   19.10
   3  -4   8  385.76   18.80
   5   8   3  100.89    5.30
  -3   5  -8  104.19    5.40
   3   5   8  107.99    5.30
   3   5   8  107.19    5.20
  -5  -8   3   95.89    5.10
  -3  -5   8   96.19    5.40
   8   3   5   97.19    5.40
  -5   8  -3   99.79    5.10
  -8  -3   5   95.09    5.10
  -3   5   8  100.09    5.30
   5   8  -3  113.09    5.10
   8   3  -5  100.59    5.90
  -5   8   3  105.99    4.90
  -3   5   8  100.99    4.80
   5   8  -3  113.79    5.50
   3  -5   8   92.19    5.80
  -8   3   5  101.29    5.10
   3   5  -8  103.09    5.40
   3   6   8   87.69    4.60
  -3  -6   8   79.49    4.70
  -3   6  -8   92.69    4.80
  -8  -3   6   85.89    4.50
  -6  -8   3   87.89    4.50
   6   8   3   86.59    4.70
   8   3   6   81.09    4.80
   3   6   8   87.89    4.60
  -6   8  -3   85.29    4.40
   3   6  -8   88.09    4.30
  -8   3   6   85.29    4.50
  -6   8   3   83.99    4.20
   8   3  -6   81.79    5.20
   6   8  -3   88.19    4.80
  -3   6   8   82.09    4.60
   3  -6   8   88.69    5.20
   6   8  -3   97.09    4.60
   3   6  -8   85.59    4.70
  -3  -7   8  213.08   10.20
  -7  -8   3  216.88   10.00
  -7   8  -3  209.68   10.10
   3   7   8  205.58   10.10
  -8  -3   7  215.58   10.10
   3   7   8  215.78    9.90
  -3   7  -8  209.88   10.20
   7   8   3  212.88   10.10
  -7   8   3  214.48    9.60
   8   3  -7  196.58   10.70
  -3   7   8  204.38    9.60
   3  -7   8  212.58   10.60
   7   8  -3  220.18    9.90
   3   7  -8  209.38    9.70
  -8   3   7  208.88   10.10
   3   7  -8  210.78   10.30
   7   8  -3  206.18   10.40
   0   8   4    1.10    0.60
   0  -8   4    1.40    0.90
  -8  -4   0    1.50    0.50
  -4   0   8    1.60    0.90
   0   8  -4    1.00    0.40
   0   8  -4    1.80    0.70
   1   8   4  134.79    6.50
   4  -1  -8  120.89    6.90
  -1  -8   4  136.29    6.80
   8   4   1  126.69    6.90
  -1   8  -4  137.09    6.80
  -8  -4   1  140.89    6.50
  -1   8  -4  138.69    6.50
  -4  -1   8  142.49    6.90
   1  -8   4  148.59    6.90
  -4   1   8  136.59    6.80
   1   8  -4  142.69    6.50
   1   8  -4  143.49    6.80
   4   1  -8  140.99    6.90
  -1   8   4  138.59    6.40
  -8  -4   2   20.10    1.60
   8   4   2   18.00    2.40
  -4  -2   8   23.80    2.10
   2   8   4   23.00    2.00
  -2   8  -4   23.90    1.90
  -4   2   8   27.50    2.20
   8   4  -2   22.20    2.70
  -2   8   4   23.80    1.70
   3   8   4 1569.64   69.09
  -4   3  -8 1660.03   72.79
   4   3   8 1657.93   69.19
   8   4   3 1533.65   69.29
   4   3   8 1339.57   71.59
  -8  -4   3 1602.14   71.29
  -4  -3   8 1614.54   71.39
  -3   8  -4 1557.04   72.59
  -3  -8   4 1538.95   71.39
  -4   3   8 1610.44   71.39
   3   8  -4 1572.14   69.09
  -3   8   4 1595.34   68.99
   4  -3   8 1361.76   71.69
   8   4  -3 1761.62   72.99
   4   3  -8 1565.34   72.69
   3   8  -4 1548.45   72.69
  -4  -4   8  213.88   10.30
   8   4   4  209.38   10.20
  -4  -8   4  206.28   10.20
   4   4   8  222.38   10.00
  -4   8  -4  207.28   10.30
   4   8   4  202.68   10.00
  -8  -4   4  213.28   10.10
   8   4  -4  221.28   10.80
   4   4  -8  214.08   10.40
  -4   8   4  213.48    9.70
   4   4  -8  202.48    9.70
  -4   4   8  219.58   10.30
   4   8  -4  230.08    9.90
   4   8  -4  227.18   10.40
  -5  -8   4 1743.23   81.29
   4   5   8 1840.22   78.79
  -4  -5   8 1779.32   81.29
   5   8   4 1777.52   78.79
  -8  -4   5 1759.12   81.19
  -4   5  -8 1953.50   82.89
   8   4   5 1731.03   78.89
   4   5   8 1785.42   81.39
  -5   8  -4 1810.42   82.69
  -5   8   4 1830.52   78.49
  -8   4   5 1777.72   81.19
   4   5  -8 1791.82   82.79
   4   5  -8 1726.93   78.59
   8   4  -5 1831.72   83.09
   5   8  -4 1722.13   78.69
   5   8  -4 1821.42   82.89
   4  -5   8 1723.83   81.69
  -4   5   8 1748.53   81.29
   6   8   4   47.40    3.50
  -8  -4   6   52.39    3.10
   8   4   6   53.39    3.50
  -4  -6   8   50.29    3.30
   4   6   8   55.29    3.40
   4   6   8   47.60    3.30
  -6  -8   4   53.79    3.10
  -6   8  -4   50.09    3.00
  -4   6  -8   52.49    3.30
   4   6  -8   50.39    3.30
  -4   6   8   52.59    2.80
   8   4  -6   48.40    3.80
  -6   8   4   49.60    2.70
   4   6  -8   48.30    2.80
   4  -6   8   50.09    3.70
   6   8  -4   58.79    3.20
  -8   4   6   50.69    3.10
   6   8  -4   50.49    3.40
  -4   6   8   53.19    3.30
  -8  -4   7  409.76   18.90
  -7  -8   4  400.26   18.90
   7   8   4  397.26   18.60
  -4  -7   8  415.66   19.00
   4   7   8  413.96   18.50
  -4   7  -8  428.46   19.30
   4   7   8  412.46   19.00
   8   4   7  405.36   18.60
  -7   8  -4  421.76   19.20
  -7   8   4  408.96   18.20
  -8   4   7  390.46   18.90
   4   7  -8  395.06   18.20
   8   4  -7  411.26   19.60
   7   8  -4  411.76   18.50
   4  -7   8  387.86   19.40
  -5   0   8  362.66   16.30
   0   8  -5  374.16   15.70
   0   8  -5  378.16   16.50
   5   0  -8  336.97   15.60
   8   5   0  328.17   16.20
   0   8   5  377.76   15.70
   0  -8   5  342.67   16.40
   5   0  -8  299.47   16.70
  -1   8  -5  213.38   10.70
  -8  -5   1  235.88   10.40
   8   5   1  205.28   10.70
  -5  -1   8  226.98   10.70
   1   8   5  231.38   10.20
  -1  -8   5  229.88   10.70
   5   1  -8  215.18   10.90
   1  -8   5  229.48   10.70
   1   8  -5  230.68   10.20
   1   8  -5  229.18   10.80
   5   1  -8  205.78   10.00
  -1   8   5  222.28   10.20
  -5   1   8  226.58   10.70
  -2  -8   5  656.93   31.20
   2   8   5  654.63   30.10
  -2   8  -5  671.53   31.60
   8   5   2  625.54   30.40
  -5   2  -8  761.42   31.80
  -5  -2   8  676.93   31.20
   5   2  -8  628.84   29.90
   5   2  -8  666.03   31.70
   2   8  -5  693.43   30.10
   2  -8   5  664.43   31.20
  -5   2   8  658.63   31.10
  -2   8   5  693.53   30.00
   8   5  -2  732.23   31.90
  -8   5   2  694.63   29.90
   2   8  -5  688.53   31.70
   5   3   8 1246.38   54.69
   3   8   5 1258.97   54.69
  -3  -8   5 1272.07   56.49
  -8  -5   3 1250.57   56.29
  -5  -3   8 1213.08   56.49
   8   5   3 1213.48   54.89
  -3   8  -5 1272.67   57.39
  -5   3  -8 1316.37   57.59
  -3   8   5 1282.47   54.49
   5   3  -8 1188.18   57.49
  -8   5   3 1288.47   54.39
   5   3  -8 1169.78   54.49
   3   8  -5 1264.37   54.59
   5  -3   8 1035.30   56.59
   3   8  -5 1263.87   57.49
   8   5  -3 1287.17   57.69
  -5   3   8 1208.08   56.39
   8   5   4  694.63   31.60
  -8  -5   4  711.13   32.20
  -4   8  -5  702.93   32.80
  -4  -8   5  704.83   32.30
   4   8   5  694.43   31.40
  -5  -4   8  700.13   32.30
  -5   4  -8  758.32   33.00
   5   4   8  743.93   31.40
   5   4  -8  682.63   32.90
  -5   4   8  696.43   32.30
  -4   8   5  696.23   31.10
   8   5  -4  702.13   33.10
   5   4  -8  655.73   31.10
   4   8  -5  729.33   32.90
   4   8  -5  680.53   31.20
  -5  -8   5  120.59    6.00
  -5   8  -5  112.09    5.90
  -5   5  -8  115.29    6.20
   5   5   8  108.39    6.70
  -8  -5   5  127.29    5.80
   8   5   5  110.59    6.10
  -5  -5   8  119.09    6.00
   5   8   5  113.59    5.90
   5   5   8  124.39    6.00
  -5   8   5  120.19    5.50
   5  -5   8  107.99    6.40
   5   5  -8  117.69    6.10
   5   8  -5  121.69    6.20
   8   5  -5  116.29    6.40
   5   8  -5  124.59    5.70
   5   5  -8  113.39    5.60
  -5   5   8  119.09    6.00
   5   6   8    0.80    0.80
   6   8   5    0.10    0.90
   5   6   8    0.10    1.40
  -8  -5   6   -0.20    0.80
  -5  -6   8    0.40    0.90
  -5   6  -8    0.00    0.70
   8   5   6   -0.60    1.00
  -6  -8   5   -0.20    0.80
  -6   8  -5    0.10    0.50
  -8   5  -6   -0.10    0.70
  -5   6   8    0.90    1.00
  -6   8   5   -0.40    0.60
   5   6  -8    0.20    0.60
   6   8  -5    0.10    0.60
   8   5  -6    0.40    0.80
  -8   5   6   -0.50    0.90
   8   5  -6   -1.30    2.30
  -8   5  -7    2.10    0.90
  -5  -7   8    2.60    1.00
   7   8   5    1.70    1.00
  -5   7  -8    2.20    0.70
  -7  -8   5    4.00    0.90
   5   7   8    1.80    1.00
  -7   8  -5    3.40    0.60
   5   7   8    2.40    1.40
  -8  -5   7    3.30    0.90
   8   5   7    2.30    1.10
   5   7  -8    2.70    0.70
   7   8  -5    2.80    0.80
  -5   7   8    2.10    1.00
  -8   5   7    3.00    1.00
   5   7  -8    2.40    0.70
   8   5  -7    1.40    2.50
   8   6   0  250.57   12.80
   0   8   6  284.07   12.30
  -6   0   8  283.57   12.80
   0  -8   6  272.17   12.90
   0   8  -6  286.37   12.90
   6   0   8  242.58   13.00
   8   6   1  142.59    8.00
  -8  -6   1  160.78    7.60
  -6  -1   8  164.18    7.90
  -1  -8   6  165.18    8.00
   1   8   6  172.28    7.50
  -1   8  -6  164.48    7.90
   1   8  -6  175.78    7.40
   8   6  -1  134.19    8.10
  -1   8   6  170.18    7.40
  -6   1   8  155.98    7.90
   1  -8   6  168.88    8.00
   6   1  -8  142.19    8.20
   1   8  -6  173.68    7.90
   6  -1   8  137.09    8.10
  -2   8  -6  262.07   12.70
  -6  -2   8  271.87   12.60
   2   8   6  263.67   12.20
   8   6   2  256.77   12.60
  -2  -8   6  270.07   12.70
  -8  -6   2  269.07   12.40
   2   8  -6  285.27   12.10
  -8   6   2  276.47   12.00
   6   2  -8  267.67   13.00
  -6   2   8  268.97   12.60
   2  -8   6  269.47   12.70
  -2   8   6  260.97   12.00
   2   8  -6  272.87   12.80
   8   6  -2  274.67   13.10
   6  -2   8  227.78   12.70
  -8   6  -3  557.84   26.90
  -6   3  -8  577.74   27.10
  -3   8  -6  593.14   26.90
   8   6   3  575.24   26.00
  -6  -3   8  583.34   26.50
   3   8   6  572.04   25.70
   6  -3  -8  553.44   27.70
  -3  -8   6  578.94   26.60
  -8  -6   3  602.14   26.40
   3   8  -6  578.24   25.60
   6   3  -8  582.34   27.10
   6   3  -8  515.35   25.60
  -6   3   8  567.94   26.50
   6  -3   8  507.85   26.60
   8   6  -3  601.74   27.20
   3   8  -6  569.84   26.90
  -8   6   3  602.74   25.40
  -3   8   6  585.74   25.50
   3  -8   6  609.74   26.70
  -4   8  -6   37.90    2.60
  -4  -8   6   35.40    2.70
   4   8   6   37.00    2.80
  -8   6  -4   44.90    2.80
  -8  -6   4   36.20    2.40
   6   4   8   37.50    2.90
   8   6   4   33.60    3.00
  -6  -4   8   38.30    2.80
  -6   4   8   37.70    2.80
   6   4  -8   41.70    2.90
  -4   8   6   35.70    2.20
   6   4  -8   34.90    2.70
   4   8  -6   44.20    2.50
   8   6  -4   35.20    3.20
   6  -4   8   38.40    3.10
   4   8  -6   36.60    2.70
   8   6  -4   29.20    3.80
   5   8   6  173.48    8.30
  -8  -6   5  175.38    8.20
  -6   5  -8  176.78    8.70
   6   5   8  170.88    8.30
  -8   6  -5  184.88    8.60
  -6  -5   8  173.78    8.40
  -5  -8   6  179.38    8.40
   8   6   5  171.28    8.50
  -5   8  -6  172.28    8.50
  -5   8   6  170.18    7.90
   5   8  -6  172.18    8.00
   6   5  -8  167.48    8.10
   5   8  -6  167.58    8.60
   6   5  -8  172.18    8.60
   6  -5   8  160.38    8.60
  -6   5   8  165.48    8.40
   8   6  -5  171.08    8.80
   6   8   6    2.20    1.10
  -8  -6   6    2.30    0.80
  -6   8  -6    2.10    0.60
  -6  -6   8    4.00    1.00
  -8   6  -6    1.60    0.80
  -6  -8   6    2.90    1.00
   6   6   8    2.40    1.00
  -6   6  -8    3.00    0.80
   6   6  -8    1.80    0.80
  -8   6   6    2.10    1.00
   6   8  -6    2.90    0.70
  -6   6   8    3.00    1.10
   8   6  -6    3.00    1.70
   6   7   8  138.89    7.30
  -6  -7   8  148.79    7.20
   8   6   7  140.79    7.40
  -7  -8   6  149.99    7.20
  -6   7  -8  152.08    7.50
  -7   8  -6  144.79    7.30
  -8  -6   7  148.19    7.10
   7   8   6  139.19    7.40
   7   8  -6  151.78    7.10
   6   7  -8  140.89    7.40
   8   6  -7  141.29    7.60
  -6   7   8  145.69    7.30
   7   8  -6  134.99    7.40
   8   6  -7  131.49    8.00
   6   7  -8  145.49    7.00
  -8   6   7  148.59    7.30
   0   8   7  519.45   23.20
   0  -8   7  551.04   24.20
  -7   0   8  525.85   24.00
   7   0   8  514.15   23.80
   0   8  -7  514.95   24.40
  -8   7   0  510.65   24.20
   8   7   0  499.65   23.60
   8   7   1  164.48    8.60
  -1  -8   7  177.98    8.60
   1   8   7  178.58    8.20
  -8   7  -1  169.48    8.40
  -1   8  -7  177.58    8.60
  -7  -1   8  168.48    8.50
   1  -8   7  184.78    8.80
  -8   7   1  183.48    8.00
   1   8  -7  175.08    8.60
   1   8  -7  174.98    8.10
  -7   1   8  170.18    8.50
   8   7  -1  161.78    8.60
  -1   8   7  179.98    8.10
   7  -1   8  176.28    8.40
  -8   7  -2  473.05   22.20
  -8  -7   2  492.35   21.80
  -2  -8   7  481.15   22.00
   7  -2  -8  415.46   23.40
   8   7   2  466.85   21.60
  -7  -2   8  468.05   21.90
   2   8   7  473.95   21.20
  -2   8  -7  491.55   22.30
  -2   8   7  473.05   21.10
   8   7  -2  491.55   22.50
   2  -8   7  517.75   22.20
   2   8  -7  486.45   21.10
   2   8  -7  490.75   22.30
   8   7  -2  442.46   21.60
   7   2  -8  426.76   22.60
  -7   2   8  471.85   21.90
  -3   8  -7  919.91   42.00
   8   7   3  908.31   40.30
   3   8   7  924.51   40.10
  -8   7  -3  872.21   41.90
  -7  -3   8  897.61   41.20
  -8  -7   3  936.21   41.20
  -3  -8   7  921.11   41.40
  -3   8   7  881.31   39.80
   7   3  -8  890.11   42.30
   8   7  -3  916.81   42.20
   8   7  -3  834.12   40.30
  -8   7   3  957.90   39.70
   3   8  -7  896.91   39.90
   3  -8   7  893.61   41.50
  -7   3   8  866.91   41.20
   3   8  -7  897.21   42.00
   8   7   4   42.70    3.50
  -4  -8   7   43.10    3.00
  -8  -7   4   41.30    2.60
  -4   8  -7   44.00    3.00
   7   4   8   46.10    3.20
  -7   4  -8   48.20    3.30
  -8   7  -4   48.40    2.90
  -7  -4   8   44.40    2.90
   4   8   7   42.10    3.10
  -4   8   7   41.80    2.60
   8   7  -4   48.40    3.60
   7   4  -8   45.90    3.30
   4   8  -7   45.60    2.70
  -7   4   8   40.00    2.90
   7   5   8   23.00    2.60
   5   8   7   25.80    2.60
   5   8   7   24.30    2.60
  -5   8  -7   25.70    2.30
  -8   7  -5   25.50    2.30
   8   7   5   21.90    2.70
  -5  -8   7   25.50    2.40
  -8  -7   5   25.90    2.00
  -7  -5   8   24.90    2.20
  -7   5   8   23.70    2.40
   5   8  -7   26.50    2.40
   7   5  -8   22.50    3.40
   8   7  -5   29.60    3.50
   8   7  -5   24.00    2.60
   5   8  -7   27.00    2.10
  -8   7  -6  253.57   11.80
  -6   8  -7  237.88   11.80
   6   8   7  240.18   11.50
  -6  -8   7  244.48   11.50
  -7   6  -8  267.57   12.00
   7   6   8  240.98   11.50
   8   7   6  236.38   11.60
  -8  -7   6  235.48   11.40
  -7  -6   8  236.38   11.50
   6   8  -7  239.48   11.10
   8   7  -6  239.18   11.90
  -7   6   8  244.28   11.60
   6   8  -7  236.18   11.80
   8   7  -6  239.18   11.60
   7   6  -8  232.18   11.40
   7   6  -8  233.88   11.80
  -7  -8   7   23.90    2.20
  -8  -7   7   18.60    2.10
  -7  -7   8   22.00    2.30
   7   8   7   19.30    2.80
  -8   7  -7   16.90    2.70
  -7   8  -7   21.30    2.50
   7   7   8   26.60    2.80
   8   7   7   21.00    3.00
   7   7  -8   25.80    2.50
   7   7  -8   23.00    2.90
   8   7  -7   30.80    3.70
  -7   7   8   26.50    2.60
  -8   7   7   21.60    2.60
   7   8  -7   28.00    2.70
   7   8  -7   24.50    2.50
   0  -8   8   11.40    2.50
   0  -8  -8   15.40    2.00
  -8   0   8   13.60    2.00
  -8   8   0   14.70    1.70
  -8   8   0   16.90    1.70
   0   8   8   17.00    1.70
   0   8  -8   14.60    2.00
   8   8   0   14.40    2.40
  -1  -8   8    4.60    1.30
  -1   8  -8    2.90    0.70
  -8  -1   8    3.80    0.90
   8  -1  -8    2.40    1.80
   1   8   8    3.20    0.70
   8   8   1    4.60    1.20
  -8   8  -1    2.30    0.50
  -8   8   1    4.00    0.80
  -1   8   8    4.20    0.70
   1  -8   8    4.30    1.40
  -8   1   8    4.10    1.00
   1   8  -8    3.80    0.80
   1   8  -8    2.70    0.70
   8   8  -1    5.70    1.20
  -8  -8   2    4.40    0.90
  -2  -8   8    4.10    1.20
   8   8   2    2.70    1.10
   8  -2  -8    2.90    1.60
   2   8   8    2.70    0.80
  -2   8  -8    2.90    0.70
  -8   8  -2    2.70    0.60
  -8   8   2    3.40    0.80
  -2   8   8    3.70    0.70
   8   2  -8    2.30    1.00
  -8   2   8    4.30    1.10
   2  -8   8    4.30    1.40
  -8  -8   3    1.60    0.80
  -3  -8   8    2.40    1.00
   3   8   8    0.80    0.90
  -8  -3   8    2.00    0.90
   8   8   3    2.40    1.10
  -3   8   8    0.70    0.70
  -8   3   8    2.00    1.00
   3  -8   8    1.60    1.30
   8   3  -8    1.30    0.90
  -8   8   3    0.40    0.70
   8   8  -3    0.50    0.70
  -8  -8   4    1.70    0.80
  -4  -8   8    2.30    1.00
   4   8   8    1.80    1.10
  -8  -4   8    0.80    0.90
   8   8   4    1.00    1.10
   4   8   8    0.40    0.90
   4  -8   8    2.00    1.30
  -4   8   8    1.90    0.80
   4   8  -8    2.70    0.70
   4   8  -8    1.10    0.70
  -8   4   8    2.20    1.00
   8   8  -4    0.50    0.70
  -8  -8   5    2.00    0.80
  -8  -5   8    2.20    1.00
   8   8   5    0.30    1.10
  -8   5  -8    1.00    0.90
   8   5   8    1.40    1.10
   5   8   8    2.10    1.40
   5   8   8    1.50    1.00
  -8   8  -5    2.30    0.70
  -5   8  -8    2.10    0.70
   8   5  -8    2.60    2.60
   8   5  -8    2.30    0.90
   5   8  -8    1.90    0.80
   5   8  -8    2.00    0.70
  -8   5   8    2.80    1.10
   8   8  -5    1.70    0.80
  -8  -8   6    7.40    1.80
  -6  -8   8   11.70    2.00
  -8  -6   8    9.40    1.90
   6   8   8   10.40    2.40
  -6   8   8   12.90    2.30
  -8   6   8   10.00    2.30
   6   8  -8   12.80    2.20
   8   6  -8   13.20    2.40
   8   8  -6   10.20    2.40
  -8  -8   7   34.50    2.70
  -7  -8   8   37.10    2.80
  -8  -7   8   31.30    2.60
   8   8   7   31.30    3.40
  -8   7  -8   31.40    3.30
   8   7   8   31.00    3.40
  -7   8  -8   31.40    3.10
   7   8   8   33.20    3.10
  -8   8  -7   33.10    3.10
  -7   8   8   36.60    3.10
   8   7  -8   40.90    4.40
   8   7  -8   40.40    3.20
   7   8  -8   36.40    3.30
   7   8  -8   38.80    3.10
  -8   7   8   32.40    3.10
   8   8  -7   37.40    3.10
  -8  -8   8  104.69    5.70
   8   8   8  101.09    6.20
  -8   8  -8  111.19    6.20
  -8   8   8  108.39    6.00
   8   8  -8  116.99    6.40
   8   8  -8  105.49    6.10
  -9   0   0    4.60    1.00
   0   9   0    5.40    1.20
  -1   9   0    6.30    1.10
   2   9   0   52.19    3.00
   2   9   0   53.69    3.00
   0  -2  -9   54.19    3.10
  -9   0   2   48.60    2.70
   0   2   9   49.20    3.20
   0   2  -9   54.49    3.20
  -2   9   0   51.89    3.00
  -2   9   0   49.30    2.70
   0  -2   9   46.80    3.40
  -3   9   0    4.30    1.00
  -9   0   4   67.79    3.60
   4   9   0   68.79    3.90
   0  -4   9   64.59    4.10
   0   4   9   72.79    3.90
  -4   9   0   71.69    3.70
  -4   9   0   68.99    3.50
   4   9   0   69.59    3.80
   0  -4  -9   63.69    3.70
   0   4  -9   67.99    3.90
   0   5   9    0.50    0.80
   5   9   0    0.00    0.70
   0  -5  -9   -0.70    0.50
   0   5   9   -0.20    0.50
   0  -5   9   -0.90    1.00
   0   6   9   21.30    1.70
   0  -6   9   15.90    2.50
   0   6  -9   13.90    2.20
  -9   0   6   16.50    1.80
  -6   9   0   19.20    1.80
   6   9   0   17.40    2.20
   0  -6  -9   22.80    1.90
   0  -7  -9   -0.60    0.60
   0  -7   9   -1.20    1.10
   0   7   9    0.70    0.80
   0   7   9    0.00    0.60
   9   0  -7    0.80    1.20
   7   9   0    0.50    0.80
   0  -8   9  186.78    9.30
   0   8   9  178.88    8.60
   0   8  -9  177.58    9.00
   0   8   9  190.68    9.00
  -9   0   8  174.88    8.90
   8   9   0  183.98    9.00
  -8   9   0  184.88    8.60
  -1   0  -9   -0.20    0.60
   0   9   1    0.00    0.70
   1   0  -9    0.70    0.50
  -9  -1   0   -0.30    0.50
  -9   1   0   -0.60    0.50
   0   9  -1    0.30    0.40
  -1   0   9    1.90    1.00
   1   0   9    1.00    0.90
   0   9  -1    0.30    0.70
  -1   9  -1   13.40    1.40
   1   9   1   12.60    1.90
   1   9   1   10.90    1.50
  -1   9  -1   13.00    1.90
  -9   1  -1   13.80    1.30
   1   9  -1   18.50    1.80
   1   9  -1   17.70    1.60
  -9   1   1   13.40    1.30
  -1   9   1   17.30    1.90
   1  -1   9   17.00    2.10
  -1   9   1   16.20    1.30
  -2   9  -1   39.60    2.30
   1  -2  -9   43.20    2.50
  -2   9  -1   37.20    2.60
  -9  -1   2   38.60    2.20
  -1  -2   9   39.80    2.80
  -1   2  -9   39.30    2.70
  -9   1  -2   40.20    2.10
   2   9   1   35.50    2.50
   2   9   1   39.70    2.70
   1   2   9   42.60    2.70
   2   9  -1   39.60    2.50
  -1  -2  -9   41.30    2.70
  -2   9   1   38.80    2.50
   1   2  -9   38.50    2.60
   1  -2   9   34.30    2.90
  -1   2   9   41.30    2.80
   3   9   1   55.49    3.20
   3   9   1   52.69    3.20
  -9  -1   3   51.09    3.00
  -3   9  -1   53.69    2.90
  -1   3  -9   63.59    3.50
  -1  -3   9   55.59    3.40
   1  -3  -9   61.79    3.10
  -3   9  -1   54.49    3.20
   1   3   9   58.59    3.30
  -3   9   1   59.29    2.80
   1   3  -9   55.69    3.40
  -9   1   3   53.09    3.00
   1  -3   9   47.80    3.60
  -1   3   9   52.59    3.30
   3   9  -1   57.49    3.30
   3   9  -1   57.29    3.30
  -3   9   1   54.19    3.10
  -1   4  -9  312.27   14.30
  -1  -4   9  275.67   14.10
   1   4   9  303.77   13.50
  -9  -1   4  277.57   13.80
  -4   9  -1  307.67   14.00
   1   4   9  289.17   14.00
  -4   9  -1  297.47   13.50
   1  -4  -9  295.37   14.10
   4   9   1  288.77   13.60
  -4   9   1  309.67   13.50
   4   9  -1  298.47   13.60
  -4   9   1  326.97   13.90
  -9   1   4  298.47   13.90
  -1  -4  -9  308.47   14.20
   1   4  -9  300.07   14.30
  -1   4   9  296.67   14.00
   4   9  -1  300.37   14.30
   1  -4   9  289.67   14.30
  -1   5  -9  222.48   10.50
  -5   9  -1  217.88    9.90
  -9  -1   5  209.88   10.10
   1   5   9  214.48   10.30
  -5   9  -1  216.58   10.20
   1   5   9  215.58    9.90
  -1  -5   9  213.88   10.50
   5   9   1  207.78   10.00
   1  -5  -9  206.78   10.30
   5   9  -1  198.88    9.90
  -1  -5  -9  224.68   10.40
  -5   9   1  215.48    9.90
   1   5  -9  213.98   10.40
   5   9  -1  224.68   10.50
  -1   5   9  209.78    9.80
  -1   5   9  206.58   10.30
  -9   1   5  204.58   10.10
   1  -5   9  214.48   10.60
   9   1  -5  242.98   11.10
  -9  -1   6  257.67   12.80
  -1   6  -9  280.57   13.20
   1   6   9  279.67   12.50
   6   9   1  275.67   12.70
   1  -6  -9  263.47   13.00
  -6   9  -1  287.47   12.50
  -6   9  -1  281.17   12.90
  -1  -6   9  264.47   13.10
   1   6   9  276.67   13.00
   9   1  -6  263.87   13.90
  -6   9   1  291.77   12.50
  -1   6   9  268.87   12.40
   1   6  -9  273.17   13.20
   6   9  -1  277.57   13.30
  -1   6   9  278.97   13.00
   1  -6   9  278.17   13.30
   6   9  -1  269.87   12.60
  -1  -6  -9  267.37   13.10
  -9   1   6  269.27   12.80
   7   9   1  183.08    9.00
  -9  -1   7  180.18    9.00
   1  -7  -9  169.18    9.20
   9  -1  -7  197.08   10.40
  -7   9  -1  189.98    8.70
  -1  -7   9  185.98    9.30
   1   7   9  180.78    8.70
  -7   9  -1  197.08    9.00
   1   7   9  192.18    9.10
  -7   9   1  191.78    8.70
  -1   7   9  186.08    9.10
  -1  -7  -9  193.18    9.20
  -1   7   9  178.08    8.60
   7   9  -1  188.38    9.00
   1  -7   9  193.58    9.50
   7   9  -1  182.68    9.40
  -9   1   7  187.28    9.00
  -1  -8   9   44.70    3.30
   9  -1  -8   36.20    6.60
  -8   9  -1   37.00    2.70
   1   8   9   44.40    2.90
  -9  -1   8   40.00    2.90
  -8   9  -1   37.70    2.80
  -1   8  -9   38.70    2.90
   8   9   1   42.90    3.30
   1   8   9   36.60    2.70
   1   8  -9   43.30    3.00
   8   9  -1   47.90    3.30
  -1   8   9   41.50    2.90
  -1   8   9   37.30    2.60
  -8   9   1   38.90    2.70
  -9   1   8   37.00    2.80
  -1  -8  -9   33.10    3.00
  -2   0  -9    0.60    0.60
   2   0   9   -0.30    0.90
   0   9   2    0.80    0.70
   0   9  -2    1.60    0.80
  -9  -2   0    0.20    0.50
   9   2   0    1.50    0.90
   0   9  -2    0.60    0.40
   2  -1  -9   45.70    2.50
  -2  -1   9   45.70    2.90
  -1   9  -2   37.40    2.40
  -1   9  -2   36.10    2.50
   2   1   9   36.30    2.90
   9   2   1   45.20    2.90
  -9  -2   1   34.80    2.20
  -2   1  -9   45.00    3.00
   1   9   2   38.30    2.70
   1   9  -2   42.60    2.60
   1   9  -2   48.20    2.80
   2   1  -9   46.70    2.70
  -2  -1  -9   36.60    2.80
  -1   9   2   38.30    2.50
   2  -1   9   33.10    3.10
  -2   1   9   44.30    2.90
  -2   2  -9  264.67   12.60
   2   9   2  261.07   12.00
  -2   9  -2  274.87   11.90
   9   2   2  293.07   12.20
  -2  -2   9  247.98   12.40
  -2   9  -2  271.97   12.40
   2   2   9  242.88   12.40
   2  -2  -9  264.67   12.40
  -9  -2   2  259.27   12.10
   2   2  -9  262.67   12.50
  -2   2   9  265.17   12.40
   2   9  -2  257.87   11.90
   2   9  -2  263.77   12.50
  -2  -2  -9  253.67   12.50
  -2   9   2  264.97   11.90
   2  -2   9  232.38   12.60
  -9   2   2  265.67   12.10
   3   9   2  231.78   10.90
   9   2   3  256.57   11.20
   2   3   9  229.38   11.30
  -3   9  -2  240.78   10.90
   2  -3  -9  232.98   11.30
  -2  -3   9  223.28   11.30
  -9  -2   3  232.18   11.10
  -2   3  -9  257.17   11.50
  -3   9  -2  236.68   11.30
  -9   2   3  232.68   11.10
   2   3  -9  234.28   11.40
  -3   9   2  235.28   10.80
   3   9  -2  252.07   11.40
  -2   3   9  223.58   11.30
   2  -3   9  213.58   11.60
   3   9  -2  246.18   10.90
  -2  -3  -9  257.17   11.50
  -9  -2   4  466.25   21.60
  -4   9  -2  474.85   21.00
  -2   4  -9  480.05   22.10
   4   9   2  447.26   21.10
   9   2   4  458.35   21.30
  -4   9  -2  477.15   22.00
  -2  -4   9  448.36   21.80
   2   4   9  463.85   21.80
   2   4   9  468.35   21.00
   2  -4  -9  444.26   22.00
  -2   4   9  478.05   21.80
   4   9  -2  492.65   22.20
   2  -4   9  468.95   22.10
   2   4  -9  450.25   22.10
   4   9  -2  460.05   21.00
  -4   9   2  481.75   21.00
   9   2  -4  530.65   22.60
  -9   2   4  468.35   21.60
  -5   9  -2  131.89    6.10
  -5   9  -2  127.49    6.20
  -2   5  -9  133.49    6.50
   2   5   9  127.59    6.40
  -9  -2   5  115.99    6.20
   5   9   2  130.09    6.30
  -2  -5   9  124.29    6.60
   2  -5  -9  121.09    6.50
   2   5   9  129.59    6.10
   5   9  -2  128.49    6.20
   5   9  -2  132.89    6.60
  -5   9   2  121.29    6.00
  -9   2   5  127.29    6.20
  -2   5   9  125.89    6.40
   2  -5   9  116.79    6.80
   9   2  -5  135.69    7.10
   2   5  -9  125.29    6.50
  -9  -2   6    6.60    1.60
  -2   6  -9   10.00    2.00
  -2  -6   9   11.00    2.00
   2   6   9   10.80    1.80
  -6   9  -2   10.00    1.70
   2   6   9    9.30    1.70
  -6   9  -2    8.90    1.40
   6   9   2   10.50    2.20
  -2   6   9    7.90    1.40
  -6   9   2    7.40    1.50
  -9   2   6    8.70    1.70
   6   9  -2    8.90    2.10
  -2   6   9   11.90    2.00
   2   6  -9    8.10    1.90
  -2  -7   9   27.70    2.80
   2   7   9   28.50    2.40
   2   7   9   24.80    2.20
  -7   9  -2   23.70    2.10
   7   9   2   32.60    2.80
  -9  -2   7   27.80    2.30
  -7   9   2   23.60    2.10
   2  -7   9   28.70    3.30
  -2   7   9   28.50    2.10
   2   7  -9   33.90    2.10
  -2   7   9   31.30    2.50
  -9   2   7   28.00    2.30
   2   8   9  194.08    9.30
   2   8   9  199.68    9.50
  -2   8  -9  195.68    9.60
  -2  -8   9  204.18    9.70
  -9  -2   8  192.58    9.40
  -8   9  -2  192.48    9.50
   8   9   2  199.18    9.60
  -9   2   8  188.18    9.50
  -8   9   2  199.28    9.10
   2   8  -9  189.88    9.00
   2   8  -9  193.18    9.60
  -2   8   9  196.78    9.60
   8   9  -2  203.38    9.50
  -2   8   9  187.28    9.10
   8   9  -2  187.78    9.90
   2  -8   9  196.88   10.00
   3   0   9    0.50    1.30
  -3   0  -9    1.70    0.70
  -9  -3   0    1.90    0.60
   0   9  -3    1.50    0.80
   0   9  -3    1.10    0.50
  -3   0   9    2.20    1.00
   0   9   3    2.70    0.70
   9   3   0   -0.30    1.00
   9   3   1    3.00    1.10
   3   1   9    2.90    1.30
   1   9   3    1.70    0.80
  -1   9  -3    1.80    0.80
  -1   9  -3    1.70    0.50
  -1   9   3    3.10    0.70
   9   3  -1    2.90    1.30
  -3   1   9    4.00    1.10
   1   9  -3    2.40    0.50
  -3  -1  -9    2.20    0.70
   2   9   3  972.70   43.30
   9   3   2 1003.20   43.60
  -3  -2   9  981.20   44.80
  -2   9  -3  973.30   45.40
  -9  -3   2  971.00   44.50
  -3   2  -9 1031.20   45.60
   3   2   9  905.11   44.90
   3  -2  -9  930.51   45.50
  -2   9  -3 1000.60   43.20
  -2   9   3 1002.90   43.20
   3   2  -9  971.70   45.50
   2   9  -3  990.80   45.50
   2   9  -3  970.10   43.20
  -3   2   9  986.80   44.70
   3  -3  -9   60.99    3.70
  -3  -3   9   62.79    3.80
  -9  -3   3   52.29    3.20
   3   9   3   59.39    3.60
   9   3   3   61.09    3.80
   3   3   9   59.79    3.80
  -3   9  -3   62.79    3.50
  -3   9  -3   57.39    3.30
  -9   3   3   62.49    3.30
   9   3  -3   58.99    5.10
   3   3  -9   60.89    3.60
   9   3  -3   62.59    4.20
  -3   9   3   60.09    3.30
  -3   3   9   64.39    3.70
  -3  -4   9 1107.79   50.99
   4   9   3 1089.69   49.40
  -9  -3   4 1124.19   50.79
  -4   9  -3 1167.68   49.30
   9   3   4 1142.39   49.60
  -4  -9   3 1086.59   50.89
  -3   4  -9 1163.38   51.89
   3   4   9 1063.89   50.99
   3   4   9 1146.69   49.40
  -4   9  -3 1127.89   51.79
  -4   9   3 1131.49   49.20
  -3   4   9 1095.89   50.99
   9   3  -4 1207.18   52.29
   3  -4   9  979.50   51.39
  -9   3   4 1118.39   50.89
   4   9  -3 1137.29   51.89
   4   9  -3 1104.09   49.30
   3   4  -9 1096.29   51.89
  -5   9  -3   50.39    2.80
   9   3   5   51.19    3.40
  -9  -3   5   48.00    2.80
   3   5   9   49.00    3.30
  -3   5  -9   53.59    3.30
   5   9   3   49.00    3.30
   3   5   9   50.89    3.10
  -3  -5   9   46.00    3.20
  -5  -9   3   42.60    3.00
  -3   5   9   48.30    3.20
   3  -5   9   44.10    3.90
  -9   3   5   49.30    2.90
   9   3  -5   60.89    5.60
   3   5  -9   50.19    3.10
   9   3  -5   47.50    3.90
   5   9  -3   51.39    3.30
  -5   9   3   46.40    2.70
   3   6   9  930.51   40.40
   6   9   3  902.21   40.50
  -3   6  -9  928.21   42.40
  -9  -3   6  883.41   41.50
  -6  -9   3  893.31   41.60
  -3  -6   9  926.81   41.70
   3   6   9  918.11   41.70
  -6   9  -3  901.61   42.20
  -6   9   3  930.61   40.20
   6   9  -3  891.81   40.30
   3  -6   9  895.81   42.10
   3   6  -9  883.91   40.20
   6   9  -3  937.71   42.50
   9   3  -6  896.21   42.90
  -3   6   9  890.61   41.60
  -3   6   9  920.11   40.10
  -9   3   6  917.01   41.60
   3   6  -9  909.11   42.40
  -3   7  -9  160.18    8.20
   3   7   9  164.58    7.90
  -9  -3   7  164.38    8.00
   7   9   3  168.28    8.20
   3   7   9  165.98    8.10
  -7  -9   3  165.58    8.00
  -7   9  -3  163.88    8.00
  -3  -7   9  162.38    8.20
  -7   9   3  165.18    7.60
  -9   3   7  162.58    8.00
   9   3  -7  154.58    8.90
  -3   7   9  160.78    7.70
   7   9  -3  173.38    7.90
  -3   7   9  159.68    8.10
   3   7  -9  163.58    7.70
   3   7  -9  167.48    8.20
   7   9  -3  165.18    8.40
   3  -7   9  160.88    8.70
   3   8   9   78.09    4.60
  -8  -9   3   83.19    4.40
   3   8   9   77.59    4.50
  -9  -3   8   81.19    4.40
  -3   8  -9   81.99    4.50
   8   9   3   79.19    4.80
  -8   9  -3   79.09    4.40
  -3  -8   9   77.99    4.70
  -8   9   3   77.49    4.30
   3   8  -9   82.09    4.60
   8   9  -3   90.19    4.70
   8   9  -3   74.69    4.80
   3  -8   9   77.69    5.30
  -3   8   9   79.89    4.60
   3   8  -9   80.79    4.20
  -3   8   9   81.09    4.20
  -9   3   8   76.39    4.50
   4   0  -9    1.00    0.50
   0   9  -4   -1.00    0.70
   1   9   4  436.16   19.00
   9   4   1  400.16   19.50
  -4   1  -9  471.95   20.20
  -4  -1   9  429.86   19.80
   4  -1  -9  389.36   20.10
  -1   9  -4  434.46   19.90
  -1  -9   4  391.16   19.70
  -1   9  -4  434.96   19.00
  -9  -4   1  415.56   19.40
   1   9  -4  421.76   19.90
  -1   9   4  432.56   19.00
  -4   1   9  429.56   19.70
   4   1  -9  427.26   20.00
   1   9  -4  421.46   19.00
  -4  -2   9 1095.89   50.39
  -9  -4   2 1111.09   50.19
   9   4   2 1074.29   49.10
   2   9   4 1056.09   48.70
  -2  -9   4 1072.99   50.39
  -2   9  -4 1132.39   48.70
  -2   9  -4 1095.89   51.19
  -4   2  -9 1167.28   51.39
  -2   9   4 1110.79   48.70
   2   9  -4 1129.49   48.70
   4   2  -9 1096.19   51.29
  -4   2   9 1102.19   50.39
   2   9  -4 1087.19   51.19
  -9  -4   3  655.53   29.70
  -3  -9   4  628.74   29.90
  -4   3  -9  710.63   30.50
  -3   9  -4  641.74   30.30
   4   3   9  536.95   30.20
   9   4   3  622.74   29.30
  -4  -3   9  657.33   30.00
   3   9   4  643.04   29.00
   9   4  -3  713.13   30.80
  -3   9   4  654.73   28.80
   4   3  -9  640.34   30.50
  -4   3   9  655.73   29.90
   3   9  -4  666.43   28.90
   3   9  -4  675.63   30.50
  -4   9  -4  424.66   19.90
   4   9   4  430.86   19.20
  -4   4  -9  417.76   20.10
   4   4   9  408.26   19.90
   4   4   9  419.86   19.10
   9   4   4  405.96   19.40
  -9  -4   4  421.26   19.50
  -4  -4   9  431.06   19.80
  -4  -9   4  416.36   19.70
   9   4  -4  457.45   20.50
   4   4  -9  416.16   20.00
   4   9  -4  426.46   19.00
   4   4  -9  403.16   18.80
  -4   9   4  419.96   18.90
  -9   4   4  439.26   19.60
  -4   4   9  431.96   19.70
   4   9  -4  428.06   20.00
  -4   5  -9   75.99    4.40
   9   4   5   68.99    4.40
  -5  -9   4   69.79    4.10
   4   5   9   75.39    4.60
   4   5   9   71.39    4.10
  -4  -5   9   69.89    4.30
  -9  -4   5   73.39    3.90
  -5   9  -4   76.49    4.00
   5   9   4   74.49    4.20
  -9   4   5   74.79    4.10
   4   5  -9   81.79    4.30
  -5   9   4   75.09    3.80
   5   9  -4   83.19    4.10
   9   4  -5   75.59    4.80
  -4   5   9   75.69    4.30
   4   5  -9   71.39    3.80
   5   9  -4   80.19    4.40
  -4  -6   9    2.30    1.10
   4   6   9   -0.60    0.90
   9   4   6    1.00    0.90
  -6  -9   4    0.60    0.90
  -6   9  -4    0.40    0.50
   6   9   4    1.10    0.90
  -9  -4   6    1.60    0.80
   4   6   9   -0.90    1.30
  -9   4   6    1.10    0.80
  -4   6   9    2.30    1.00
   9   4  -6   -0.50    0.80
   4  -6   9   -1.20    1.40
  -6   9   4    0.20    0.60
   4   6  -9    0.60    0.60
   7   9   4   82.99    4.70
  -9  -4   7   76.09    4.30
  -4  -7   9   79.69    4.50
   9   4   7   75.29    4.70
  -7   9  -4   77.59    4.30
  -7  -9   4   79.29    4.20
   4   7   9   80.69    4.40
  -4   7  -9   79.39    4.60
   4   7   9   79.49    4.80
  -4   7   9   84.19    4.20
  -9   4   7   75.19    4.40
   7   9  -4   84.79    4.30
   7   9  -4   72.69    4.60
   4   7  -9   79.19    4.50
  -4   7   9   80.09    4.60
   4   7  -9   75.69    4.00
   4  -7   9   78.79    5.30
  -7   9   4   73.39    4.10
  -4  -8   9   23.90    2.50
   8   9   4   22.20    3.00
  -9  -4   8   21.90    2.30
  -8  -9   4   23.30    2.10
  -4   8  -9   22.00    2.40
  -8   9  -4   18.80    2.20
   4   8   9   20.40    2.50
  -9   4  -8   21.90    3.30
   4   8   9   18.90    2.90
  -4   8   9   21.40    2.50
  -9   4   8   19.90    2.40
   4  -8   9   19.20    3.30
   4   8  -9   23.30    2.50
  -4   8   9   25.20    2.70
   8   9  -4   21.70    2.70
   9   4  -8   23.10    3.30
   4   8  -9   22.40    2.10
   0  -9   5    1.40    1.10
   0   9  -5    0.40    0.80
  -5   1  -9  234.48   11.50
  -1   9  -5  233.48   11.30
  -1  -9   5  225.88   11.30
   1   9   5  249.38   10.80
  -5  -1   9  242.08   11.30
  -9  -5   1  243.98   11.00
  -1   9  -5  243.18   10.80
   9   5   1  205.58   11.40
   5   1  -9  218.98   10.60
  -5   1   9  244.68   11.30
   1   9  -5  237.08   11.30
  -1   9   5  235.68   10.70
   1   9  -5  247.48   10.80
   1  -9   5  232.08   11.30
   5   1  -9  232.88   11.50
  -2   9  -5  585.74   27.00
  -2  -9   5  574.44   26.70
   2   9   5  584.44   25.80
  -5  -2   9  566.84   26.70
   9   5   2  555.44   26.30
  -5   2  -9  583.04   27.20
  -5   2   9  598.04   26.70
   2   9  -5  598.24   25.80
   2   9  -5  575.54   27.10
  -9   5   2  610.14   25.60
   5   2  -9  569.64   27.20
   5   2  -9  523.25   25.60
  -2   9   5  591.44   25.70
  -3   9  -5    7.30    1.60
  -5   3  -9   11.90    2.40
  -5  -3   9    9.50    2.20
   3   9   5    9.20    1.90
  -3  -9   5    5.00    1.10
  -9  -5   3    6.30    1.40
  -5   3   9    9.70    2.10
  -3   9   5    8.00    1.30
   9   5   4  316.77   15.90
  -5  -4   9  349.87   16.10
   4   9   5  342.17   15.60
  -5   4  -9  337.77   16.40
  -4   9  -5  341.37   16.20
   5   4   9  353.46   15.60
  -9  -5   4  350.76   15.80
  -4  -9   5  352.86   16.00
  -4   9   5  329.37   15.30
   5   4  -9  338.07   16.30
   5   4  -9  324.17   15.30
   4   9  -5  331.27   16.30
   9   5  -4  354.66   16.60
   4   9  -5  350.96   15.40
  -5   4   9  346.97   16.00
  -5  -9   5   65.79    3.70
   5   5   9   65.49    3.80
  -5  -5   9   64.29    3.90
   9   5   5   62.69    4.20
  -5   9  -5   64.69    3.60
  -9  -5   5   68.59    3.50
   5   9   5   65.79    3.90
   5   5   9   62.09    5.60
  -9   5   5   63.59    3.70
  -5   9   5   62.39    3.30
   5   9  -5   72.19    3.60
   5   9  -5   60.49    4.00
  -5   5   9   63.99    3.80
   9   5  -5   61.99    4.30
   5   5  -9   64.39    3.80
   5   5  -9   58.09    3.40
  -5  -6   9  414.16   19.10
  -9  -5   6  417.86   19.00
   6   9   5  416.16   18.80
  -5   6  -9  435.66   19.50
   5   6   9  421.26   18.70
  -6  -9   5  408.96   19.10
   9   5   6  409.96   18.90
  -6   9  -5  409.76   19.30
   5   6   9  409.06   19.50
   6   9  -5  412.26   19.50
  -6   9   5  426.36   18.30
   5   6  -9  408.26   19.50
  -5   6   9  384.56   19.10
   5   6  -9  395.06   18.40
   6   9  -5  405.16   18.50
  -9   5   6  399.56   19.10
   9   5  -6  388.36   19.90
   7   9   5   42.20    3.50
  -5  -7   9   44.30    3.00
  -9  -5   7   39.20    2.80
  -9   5  -7   39.70    3.70
  -7   9  -5   42.90    2.80
  -7  -9   5   37.20    2.80
   5   7   9   40.30    4.30
   9   5   7   41.60    3.50
  -5   7  -9   41.70    3.20
   5   7   9   45.30    3.20
   5   7  -9   34.20    2.70
   9   5  -7   42.20    3.70
  -5   7   9   45.50    3.20
   5  -7   9   38.40    3.90
  -9   5   7   40.40    3.00
   7   9  -5   42.10    3.10
   5   7  -9   43.80    3.10
   8   9   5   99.69    5.80
  -5   8  -9  100.39    5.60
  -8   9  -5   99.69    5.40
   9   5   8   91.39    5.70
  -5  -8   9  102.09    5.50
  -9  -5   8  100.39    5.30
   5   8   9   97.19    5.50
   5   8   9   98.99    6.20
  -8  -9   5   97.89    5.20
  -9   5  -8  110.59    6.20
  -5   8   9  107.39    5.60
   5   8  -9   95.49    5.50
   9   5  -8  101.19    6.00
  -9   5   8   96.79    5.50
   8   9  -5   92.09    5.60
   5   8  -9   93.49    5.10
   8   9  -5  114.69    5.70
   0   9  -6    0.30    0.60
   0   9   6    1.40    0.60
   0   9  -6   -0.70    0.70
  -6   0   9   -1.30    1.00
   0  -9   6    1.20    1.10
   9   6   0   -1.90    1.20
   1   9   6  532.15   23.40
  -1  -9   6  526.45   24.30
  -1   9  -6  536.95   23.30
   9   6   1  478.55   23.90
  -9  -6   1  547.95   24.00
  -6  -1   9  548.15   24.20
  -1   9  -6  521.45   24.50
  -1   9   6  528.65   23.30
   1   9  -6  522.55   24.50
   1   9  -6  536.15   23.30
  -6   1   9  536.05   24.20
   6   1  -9  467.55   24.80
   1  -9   6  506.35   24.30
  -2   9  -6  229.08   11.30
   9   6   2  209.68   11.40
  -6  -2   9  228.48   11.20
   2   9   6  233.68   10.90
  -2  -9   6  237.98   11.30
  -6   2  -9  253.97   11.60
  -9  -6   2  246.08   11.00
   2  -9   6  244.08   11.40
   2   9  -6  235.28   11.30
  -9   6   2  245.58   10.60
   6   2  -9  211.48   11.50
  -2   9   6  234.48   10.70
  -6   2   9  231.68   11.20
   2   9  -6  235.88   10.80
   9   6   3  198.48   10.40
  -3   9  -6  215.18   10.30
  -6  -3   9  219.58   10.30
  -9  -6   3  216.48   10.00
   3   9   6  213.88   10.00
  -6   3  -9  224.48   10.60
  -3  -9   6  210.78   10.30
   6   3  -9  206.48   10.50
   9   6  -3  220.08   10.80
   3   9  -6  209.18   10.40
  -3   9   6  212.08    9.70
   6   3  -9  201.78    9.90
   3   9  -6  218.18    9.90
  -6   3   9  216.98   10.30
  -6  -4   9  142.69    7.00
  -9   6  -4  146.39    7.20
   9   6   4  132.09    7.30
   4   9   6  138.09    6.90
  -9  -6   4  139.79    6.70
  -4  -9   6  137.99    7.00
  -4   9  -6  143.39    6.90
  -4   9   6  138.59    6.50
   6   4  -9  128.59    6.70
   4   9  -6  136.49    6.60
  -6   4   9  139.69    7.00
   6   4  -9  139.19    7.20
  -9  -6   5  203.38    9.40
  -6   5  -9  213.88    9.90
  -5  -9   6  195.08    9.60
   9   6   5  181.78    9.70
  -9   6  -5  213.78    9.90
  -5   9  -6  199.48    9.60
   6   5   9  198.48    9.50
   5   9   6  192.58    9.50
  -6  -5   9  196.58    9.60
   6   5  -9  186.18    9.80
   6   5  -9  185.08    9.20
   9   6  -5  193.18   10.00
  -5   9   6  204.38    9.10
   5   9  -6  196.18    9.80
   5   9  -6  199.98    9.20
  -6   5   9  190.18    9.50
  -9  -6   6   63.39    3.50
  -6   9  -6   63.99    3.70
   9   6   6   60.79    4.30
   6   6   9   63.79    3.90
  -6  -6   9   70.69    3.90
  -6  -9   6   59.69    3.80
   6   9   6   61.59    4.10
  -6   6  -9   60.49    4.10
  -6   9   6   62.89    3.70
   6   9  -6   68.59    3.70
   6   6  -9   63.29    4.00
   6   9  -6   62.49    3.90
  -6   6   9   69.29    3.90
  -9   6   6   62.59    3.80
   6   6  -9   58.99    3.70
   6  -6   9   55.39    4.60
   9   6  -6   63.19    4.30
  -7  -9   6  140.29    7.00
  -9  -6   7  139.09    6.90
   9   6   7  137.89    7.40
   6   7   9  148.99    7.20
  -6  -7   9  141.69    7.10
   7   9   6  144.39    7.40
  -9   6  -7  145.09    7.60
  -6   7  -9  131.19    7.30
   7   9  -6  146.19    7.00
  -6   7   9  148.79    7.20
   7   9  -6  135.49    7.30
   9   6  -7  120.19   11.10
   6   7  -9  137.29    7.20
   6   7  -9  132.49    6.80
   9   6  -7  140.29    7.60
  -9   6   7  140.69    7.20
  -8   9  -6   54.69    3.60
  -8  -9   6   49.80    3.30
  -6   8  -9   48.00    3.80
  -9  -6   8   50.19    3.30
  -6  -8   9   51.19    3.50
  -9   6  -8   50.89    4.20
   6   8   9   54.69    4.00
   6   8  -9   46.90    3.50
   9   6  -8   54.29    4.00
   6   8  -9   54.59    3.60
   8   9  -6   50.09    3.80
  -9   6   8   45.70    3.60
   7   0  -9    0.20    1.20
   0   9   7    0.40    0.60
   7   0   9    0.40    1.70
  -9   7   0    0.00    0.60
  -7   0   9    1.10    1.00
   0  -9   7    0.40    1.10
   0   9  -7    0.10    0.50
   1   9   7   86.69    4.60
   9   7   1   83.69    5.40
  -1  -9   7   86.79    5.00
  -7  -1   9   94.99    4.80
  -9   7  -1   73.69    4.70
  -1   9  -7   89.69    4.80
  -9   7   1   93.49    4.40
   1  -9   7   96.49    5.20
  -1   9   7   92.69    4.50
   1   9  -7   95.29    4.50
  -7   1   9   94.69    4.90
   1   9  -7   92.09    4.80
   9   7  -1   75.99    5.60
  -9   7   1   79.59    4.60
  -2  -9   7   32.10    2.80
  -9  -7   2   35.70    2.40
  -7  -2   9   39.20    2.80
  -9   7  -2   27.90    2.50
  -2   9  -7   33.10    2.50
   2   9   7   33.70    2.60
   9   7   2   31.30    3.30
  -7   2   9   34.60    2.70
   2   9  -7   39.60    2.50
   9   7  -2   29.00    4.10
  -2   9   7   32.80    2.20
   7  -2   9   31.80    3.40
   7   2  -9   38.30    3.20
   2  -9   7   35.70    3.10
   7  -3  -9    4.90    2.10
   3   9   7    3.50    0.90
  -3  -9   7    5.90    1.20
  -9   7  -3    3.40    0.70
   9   7   3    3.90    1.40
   9   7  -3    2.30    0.90
   9   7  -3    4.80    1.80
   3   9  -7    7.20    1.70
  -3   9   7    5.30    0.80
  -9   7  -4  161.08    8.40
  -4  -9   7  171.18    8.30
   9   7   4  159.58    8.50
  -4   9  -7  172.68    8.30
   4   9   7  171.68    8.20
  -9  -7   4  178.38    8.10
  -7  -4   9  170.18    8.30
  -7   4  -9  156.18    8.60
   4   9  -7  167.18    7.90
   9   7  -4  166.08    8.70
  -4   9   7  167.58    7.80
  -7   4   9  164.88    8.30
   4   9  -7  166.78    8.40
  -9  -7   5    1.60    0.80
  -5  -9   7    1.90    1.00
   9   7   5    0.90    1.20
  -7  -5   9    2.10    1.00
  -9   7  -5    0.80    0.70
   5   9   7    1.10    1.00
   7   5   9    1.20    1.10
   7   5  -9    2.20    0.70
   5   9  -7    1.70    0.70
  -5   9   7    2.70    0.90
   7   5  -9    2.00    1.50
   9   7  -5    0.60    0.80
  -7   5   9    2.60    1.20
   9   7  -5    3.40    2.20
   7   6   9   -0.10    1.10
  -6  -9   7    1.50    1.00
   6   9   7    2.20    1.10
  -7  -6   9    2.00    1.10
   7   6  -9    1.70    0.80
  -7   6   9    1.50    1.20
   7   6  -9    1.80    1.30
   9   7  -6    3.10    2.30
  -7  -9   7    5.70    1.10
  -9  -7   7    7.40    1.80
  -9   7  -7    4.50    1.00
   7   7   9   11.50    2.60
   9   7  -7   10.80    2.60
  -9   7   7    4.40    1.30
   7   9  -7   10.60    2.40
   7   7  -9    7.20    1.40
  -9   7  -8   30.60    3.50
   7   8   9   33.00    3.30
  -7   8  -9   29.50    3.30
  -8   9  -7   32.90    3.10
   8   9   7   27.80    3.50
  -9  -7   8   27.20    2.60
  -8  -9   7   28.30    2.70
   9   7   8   27.30    3.60
  -9   7   8   25.30    3.00
  -7   8   9   35.10    3.10
   7   8  -9   34.80    3.50
   7   8  -9   35.90    3.00
   9   7  -8   33.90    3.30
   8   9  -7   33.30    3.20
   9   7  -8   37.40    6.80
   0  -9   8   -1.20    1.20
   0   9  -8   -0.60    0.60
   9   8   0   -0.40    1.10
  -8   0   9   -0.90    1.00
   0   9  -8    0.50    0.70
   8   0  -9   -2.40    1.70
  -9   8   0   -0.50    0.60
   0   9   8   -0.80    0.70
   1   9   8  193.98    9.30
  -1  -9   8  205.98    9.90
  -9   8  -1  197.28    9.60
   9   8   1  189.18    9.90
  -8  -1   9  198.48    9.60
  -1   9  -8  194.88    9.70
   1   9  -8  201.68    9.20
  -8   1   9  199.38    9.60
   1   9  -8  194.18    9.70
  -9   8   1  202.38    9.20
   1  -9   8  209.58   10.00
   9   8  -1  188.28   10.00
  -1   9   8  195.88    9.20
  -2  -9   8   88.99    5.00
   9   8   2   83.29    5.20
   2   9   8   84.89    4.60
   8  -2  -9   67.99    9.60
  -9   8  -2   79.09    4.60
  -8  -2   9   83.09    4.70
  -2   9  -8   89.19    4.70
   2   9  -8   87.79    4.40
   2  -9   8   94.89    5.30
  -2   9   8   83.89    4.40
   2   9  -8   87.59    4.80
   8   2  -9   72.49    5.60
  -8   2   9   86.09    4.70
   9   8  -2   89.09    5.50
  -9   8   2   90.69    4.50
  -3   9  -8  113.69    5.90
  -9   8  -3  105.89    5.90
  -9  -8   3  119.29    5.70
   9   8   3  112.19    6.40
  -8  -3   9  117.19    5.90
  -3  -9   8  111.99    6.00
   3   9   8  111.99    5.80
  -8   3  -9  112.99    6.50
  -8   3   9  110.29    5.90
   3   9  -8  119.19    5.60
   3  -9   8  111.39    6.50
   3   9  -8  112.19    6.00
  -3   9   8  108.79    5.60
   9   8  -3  113.69    6.60
   9   8  -3  105.89    6.30
   9   8   4   13.60    2.90
   4   9   8   11.50    2.50
   4   9   8   12.60    2.30
  -9  -8   4   16.90    2.00
  -4   9  -8   15.30    2.20
  -9   8  -4   11.00    2.10
  -4  -9   8   14.40    2.30
  -8  -4   9   17.70    2.20
   8   4  -9   16.70    2.80
   4   9  -8   15.70    2.20
  -8   4   9   15.00    2.40
   4   9  -8   17.60    1.90
  -4   9   8   14.00    2.20
  -9  -8   5  163.98    7.90
  -8   5  -9  160.38    8.60
   5   9   8  165.68    8.30
   5   9   8  161.68    8.10
  -5  -9   8  163.48    8.10
  -8  -5   9  165.28    8.00
  -5   9  -8  159.98    8.20
  -9   8  -5  166.58    8.20
   9   8   5  153.48    8.30
   5   9  -8  154.58    8.20
  -8   5   9  159.58    8.10
   5   9  -8  152.68    7.70
   9   8  -5  151.28    8.40
   8   5  -9  161.28    8.50
   9   8  -5  174.68    9.00
  -8  -6   9   22.30    2.40
  -9  -8   6   16.50    2.10
  -6  -9   8   20.50    2.40
  -6   9  -8   24.00    2.60
  -9   8  -6   13.90    2.80
   9   8  -6   18.80    2.80
   8   6  -9   22.70    2.90
   6   9  -8   17.70    2.50
   6   9  -8   19.40    2.60
   8   7   9   60.19    4.20
   7   9   8   61.29    4.40
  -9  -8   7   55.59    3.70
  -7   9  -8   67.69    4.20
  -8   7  -9   61.09    4.50
  -9   8  -7   67.09    4.40
   9   8   7   55.69    4.50
   8   7  -9   61.89    4.20
  -9   8   7   52.79    4.20
   7   9  -8   63.19    4.20
   8   7  -9   68.49    5.50
   9   8  -7   61.29    4.30
  -7   9   8   60.59    4.20
  -8   7   9   62.09    4.20
   7   9  -8   61.59    4.10
  -8  -9   8   59.49    3.90
  -8  -8   9   61.99    3.90
  -8   9  -8   61.69    4.40
  -9   8  -8   57.99    4.60
   8   9   8   60.49    4.60
  -8   8  -9   58.39    4.50
   8   8   9   61.19    4.50
   9   8   8   58.69    4.70
  -8   8   9   61.19    4.40
   8   8  -9   66.79    5.30
   9   8  -8   73.69    6.40
   9   8  -8   60.89    4.30
  -8   9   8   60.29    4.40
  -9   8   8   57.59    4.40
   8   8  -9   65.59    4.30
   8   9  -8   73.89    4.90
   8   9  -8   61.09    4.20
   0   9   9    0.90    1.10
   9   9   0    2.70    1.20
  -1  -9   9  193.08    9.80
  -1   9  -9  185.98    9.60
  -9  -1   9  189.98    9.50
   1   9   9  196.68    9.50
   1   9   9  184.68    9.20
   9   9   1  195.28    9.80
  -9   9  -1  200.08    9.20
  -1   9   9  191.78    9.10
   1  -9   9  199.48   10.00
  -9   1   9  190.38    9.50
   1   9  -9  193.48    9.10
   1   9  -9  196.08    9.70
  -9   9   1  199.48    9.20
   9   9  -1  201.18    9.80
  -2  -9   9   63.89    4.30
   2   9   9   59.79    4.00
  -9  -2   9   67.09    3.90
   9  -2  -9   60.99    8.70
   2   9   9   59.69    3.80
   9   9   2   71.09    4.60
  -9   9  -2   58.29    4.00
  -2   9  -9   65.89    4.00
  -2   9   9   57.89    3.70
   2  -9   9   62.99    4.70
  -9   2   9   64.59    4.00
   2   9  -9   70.19    3.60
   2   9  -9   67.29    4.00
  -9   9   2   61.19    3.90
  -3  -9   9   64.89    4.30
   3   9   9   64.29    4.20
  -9  -3   9   68.89    4.10
   9   9   3   69.59    4.70
   3   9   9   62.39    4.10
  -9   9  -3   71.59    4.10
  -3   9  -9   70.99    4.20
  -9   3   9   68.59    4.20
  -3   9   9   67.89    4.20
   3  -9   9   60.09    5.00
   9   3  -9   60.39    5.30
   3   9  -9   73.39    3.80
   3   9  -9   71.89    4.20
  -3   9   9   67.39    4.00
   9   9  -3   63.89    4.50
  -9  -9   4   76.99    4.20
  -4  -9   9   69.09    4.50
   4   9   9   68.09    4.70
  -9  -4   9   77.89    4.20
  -9   9  -4   67.09    4.30
  -9   4  -9   78.49    5.20
   9   9   4   74.39    4.90
  -4   9  -9   74.09    4.40
   4   9   9   71.79    4.50
  -9   4   9   68.89    4.30
   4  -9   9   64.09    5.30
  -4   9   9   75.89    4.60
   4   9  -9   72.89    4.00
   4   9  -9   72.79    4.30
   9   4  -9   69.59    5.20
   9   9  -4   65.99    4.70
  -9  -9   5   21.90    2.50
  -9  -5   9   28.60    2.60
  -9   5  -9   17.50    3.80
   5   9   9   20.50    4.00
  -5   9  -9   27.20    2.90
  -5   9   9   25.10    3.10
   9   5  -9   27.50    3.40
   5   9  -9   22.40    2.50
   5   9  -9   29.60    2.80
   9   9  -5   24.60    3.00
  -9  -9   6   30.50    2.70
  -6  -9   9   32.10    2.90
  -6   9  -9   29.20    3.10
  -9   6  -9   25.10    3.80
   9   6   9   25.60    3.50
   6   9   9   29.40    3.30
  -9   9  -6   32.00    3.20
   9   9   6   27.90    3.60
  -6   9   9   33.50    3.20
   9   6  -9   36.00    3.50
   6   9  -9   29.30    2.90
   6   9  -9   32.70    3.00
  -9   6   9   22.80    3.10
   9   9  -6   28.10    3.20
   9   9   7   10.60    1.80
  -9   7  -9    7.90    1.40
   9   7   9    7.20    1.60
  -7   9  -9    7.30    1.20
   7   9   9    9.30    1.60
  -9   9  -7   12.70    3.00
  -9   9   7   12.20    2.00
   7   9  -9   15.40    3.20
  -9   7   9   10.70    1.80
   9   9  -7   14.50    2.80
  -9  -9   8   53.49    3.60
  -8  -9   9   51.49    3.60
  -9  -8   9   50.29    3.50
   9   9   8   42.90    4.30
  -9   8  -9   51.39    4.40
   9   8   9   46.10    4.30
  -8   9  -9   51.09    4.20
   8   9   9   49.50    4.30
  -9   9  -8   50.09    4.20
  -8   9   9   47.20    4.10
   9   8  -9   49.80    4.00
  -9   9   8   46.90    4.10
   8   9  -9   57.79    4.80
   8   9  -9   48.90    3.90
  -9   8   9   47.80    4.10
   9   9  -8   62.99    5.80
   9   9  -8   47.90    4.00
  -9  -9   9    3.40    1.30
   9   9   9    1.30    1.60
  -9   9  -9    0.70    1.10
  -9   9   9    0.50    1.50
   9   9  -9    2.20    0.90
 -10   0   0  362.76   16.80
   0   0  10  341.97   17.20
   0   0 -10  382.66   17.40
   0  10   0  364.36   16.60
   0  10   0  379.56   17.20
  -1  10   0    3.40    0.50
  -2  10   0   34.80    2.20
   2  10   0   33.20    2.80
   2  10   0   35.00    2.40
   0   2 -10   39.20    2.80
  -2  10   0   34.80    2.70
   0   2  10   40.00    2.70
   0  -2  10   36.50    3.00
   0  -3 -10    0.00    0.50
   3  10   0    0.20    0.80
   0  -3  10   -0.30    1.10
   0   3  10    1.50    0.90
  -3  10   0   -0.40    0.40
   4  10   0  233.68   11.20
   4  10   0  255.17   11.70
   0  -4 -10  231.58   11.60
 -10   0   4  239.88   11.30
   0   4  10  240.58   11.60
   0   4 -10  244.78   11.70
  -4  10   0  243.28   11.10
  -4  10   0  256.87   11.40
   0  -4  10  231.38   11.70
   0  -5 -10    0.00    0.60
  -5  10   0   -0.60    0.70
   5  10   0    1.20    0.80
   0   5  10    0.90    0.90
   0   5 -10    0.30    0.60
   0  -5  10   -0.90    1.00
 -10   0   5   -0.70    0.70
  -6  10   0  620.74   26.50
   0   6 -10  592.04   27.90
   0  -6  10  568.54   27.60
   6  10   0  591.04   26.60
   0  -6 -10  590.14   27.80
   0   6  10  588.94   26.40
   0   6  10  610.54   27.50
 -10   0   6  583.74   27.30
  10   0  -7    1.40    1.50
   0  -7  10   -0.90    1.20
   0   7  10    1.50    0.70
  -7  10   0   -0.10    0.80
   7  10   0    1.90    0.90
   0   7 -10   -0.50    0.60
   0  -7 -10    0.30    0.80
 -10   0   7   -0.60    0.90
   0   7  10    1.60    1.00
   8  10   0  423.16   19.70
 -10   0   8  397.46   20.00
   0   8  10  417.96   20.10
   0   8 -10  438.26   20.40
  -8  10   0  449.46   19.40
   0   8  10  429.76   19.40
   0  -8  10  448.76   20.50
 -10   0   9   -1.00    1.10
   0   9  10    0.70    1.10
   0   9  10   -0.30    0.80
   9  10   0    3.40    1.30
   0   9 -10   -0.60    0.70
   0  10   1   20.00    2.20
   1   0  10   22.80    2.30
   0  10  -1   19.80    2.10
   0  10  -1   18.50    1.70
 -10   1   0   14.50    1.60
   0  10   1   15.80    1.60
  -1  10  -1   13.90    2.20
  -1  10  -1   15.00    1.60
 -10   1  -1   14.80    1.60
   1   1  10   18.40    2.30
   1  10   1   13.70    1.60
  -1   1 -10   17.70    2.30
   1  10   1   14.20    2.10
  -1  -1  10   19.60    2.30
 -10   1   1   14.20    1.50
  -1  10   1   17.80    1.50
  -1  10   1   17.50    2.10
   1  10  -1   16.40    1.70
   1  10  -1   19.10    2.20
   1  -1  10   14.60    2.40
   2  10   1  127.49    6.40
   2  10   1  135.89    6.60
   1  -2 -10  131.89    6.60
  -2  10  -1  135.09    6.40
  -1  -2  10  125.99    6.70
  -1   2 -10  135.69    6.80
   1   2  10  122.89    6.70
  -2  10  -1  135.19    6.40
 -10  -1   2  125.59    6.30
   2  10  -1  129.09    6.60
  -2  10   1  130.09    6.30
   1   2 -10  133.49    6.70
   1  -2  10  122.39    6.80
  -2  10   1  141.19    6.40
 -10   1   2  126.79    6.30
   2  10  -1  133.09    6.40
  -1  -2 -10  136.39    6.70
  -1   2  10  131.69    6.70
   1   3  10  427.46   20.60
  -1  -3  10  415.56   20.60
   1  -3 -10  407.36   20.80
  -1   3 -10  445.06   20.90
  -3  10  -1  447.06   19.90
   3  10   1  421.66   19.90
  -3  10  -1  455.75   20.70
 -10  -1   3  440.26   20.30
  -3  10   1  465.05   19.80
 -10   1   3  445.06   20.30
   3  10  -1  427.56   19.90
  -3  10   1  501.85   20.60
  -1  -3 -10  454.35   20.90
   3  10  -1  465.05   20.90
  -1   3  10  430.36   20.60
   1   3 -10  446.36   20.90
   1  -3  10  417.96   20.80
  -4  10  -1   25.10    2.20
   1  -4 -10   24.30    2.10
  -1  -4  10   22.50    2.60
   4  10   1   26.40    2.40
  -1   4 -10   27.90    2.50
   1   4  10   26.90    2.30
  -4  10  -1   22.30    1.80
 -10  -1   4   21.20    1.90
   1  -4  10   21.80    2.80
   4  10  -1   24.70    2.30
 -10   1   4   22.60    1.90
  -4  10   1   22.30    2.10
  -1   4  10   26.70    2.40
  -1  -4 -10   28.60    2.20
   1   4 -10   26.70    2.30
  -5  10  -1   63.59    3.40
   1   5  10   60.09    3.60
   5  10   1   58.69    3.60
  -1   5 -10   58.99    3.70
  -1  -5  10   56.09    3.80
  -5  10  -1   63.29    3.20
   1  -5 -10   60.29    3.50
 -10  -1   5   53.99    3.30
   5  10  -1   63.99    3.50
 -10   1   5   54.39    3.30
  -5  10   1   56.69    3.30
   1  -5  10   52.59    4.00
  -1  -5 -10   55.99    3.50
   1   5 -10   57.49    3.60
   5  10  -1   56.79    3.60
  -1   5  10   64.19    3.60
  -6  10  -1    1.20    0.50
   1   6  10    3.40    0.70
  -1  -6  10    3.00    1.20
  -1   6 -10    2.10    0.70
  -6  10  -1    1.90    0.80
 -10  -1   6    1.80    0.90
   1  -6 -10    2.90    0.70
 -10   1   6    2.30    0.90
   1  -6  10    1.70    1.20
  10   1  -6    3.20    1.20
  -1  -6 -10    1.80    0.70
   1   6 -10    2.00    0.70
  -6  10   1    1.30    0.70
   6  10  -1    0.60    0.80
  -1  -7  10   81.69    4.80
 -10  -1   7   74.29    4.20
   1   7  10   76.99    4.40
  -1   7 -10   77.59    4.40
   1   7  10   73.09    4.10
  -7  10  -1   75.79    4.20
   7  10   1   80.29    4.50
 -10   1   7   72.69    4.20
  -7  10   1   79.89    4.10
  -1   7  10   74.29    4.00
  -1  -7 -10   71.29    4.50
   1  -7  10   82.49    5.00
   7  10  -1   77.89    4.40
   1   7 -10   78.69    4.40
   7  10  -1   65.49    4.70
  -1   7  10   82.89    4.50
  10   1  -7   60.79    6.40
  -1   8 -10   50.39    3.50
  -1  -8  10   51.89    3.90
   1   8  10   45.30    3.20
 -10  -1   8   47.10    3.30
  -8  10  -1   52.69    3.20
   8  10   1   56.39    3.80
   1   8  10   52.79    3.50
  -8  10   1   49.99    3.30
 -10   1   8   45.40    3.40
   1  -8  10   53.09    4.20
  -1  -8 -10   41.70    3.70
  -1   8  10   50.69    3.20
  -1   8  10   56.19    3.60
   1   8 -10   50.99    3.50
   1   9  10  148.09    7.80
   1   9  10  143.59    7.40
  -9  10  -1  156.38    7.50
   9  10   1  158.48    8.00
 -10  -1   9  152.58    7.70
  -1   9 -10  148.29    7.80
   9  10  -1  160.18    8.00
   1   9 -10  152.18    7.30
   1   9 -10  151.88    7.80
 -10   1   9  145.29    7.70
  -9  10   1  156.58    7.50
  -1   9  10  153.38    7.80
  -1   9  10  145.59    7.40
 -10   2   0    6.70    1.30
   0  10  -2    6.20    1.50
   0  10  -2    9.20    2.00
  -1  10  -2  331.77   15.20
  -2   1 -10  339.47   15.50
 -10   2  -1  349.87   14.90
   2   1  10  289.67   15.30
   2  -1 -10  312.97   15.30
  -2  -1  10  314.17   15.20
 -10  -2   1  329.37   14.80
  -1  10  -2  330.47   14.70
   1  10   2  314.77   14.60
   2   1 -10  332.27   15.30
  -2   1  10  313.57   15.20
   2  -1  10  291.97   15.40
  -2  -1 -10  314.37   15.40
  -1  10   2  327.57   14.60
   1  10  -2  319.37   15.30
   1  10  -2  333.07   14.70
 -10   2   1  333.97   14.90
  -2  10  -2    0.60    0.90
  -2   2 -10    1.80    0.80
   2  10   2    0.70    0.80
  -2  -2  10    2.60    1.10
  -2   2  10    2.50    1.10
  -2  10   2    3.20    0.80
  10   2  -2    1.60    1.20
  -3  10  -2  491.05   22.50
  -3  10  -2  480.85   21.60
  -2   3 -10  510.55   22.80
   2   3  10  462.85   22.40
  -2  -3  10  463.55   22.40
   2  -3 -10  479.25   22.60
 -10  -2   3  467.75   22.10
   3  10   2  482.45   21.70
 -10   2   3  499.75   22.20
  -2   3  10  472.55   22.40
   2  -3  10  438.76   22.70
   2   3 -10  487.35   22.70
  -3  10   2  472.25   21.50
   3  10  -2  485.35   21.60
  -2  -3 -10  531.55   22.80
   3  10  -2  482.85   22.70
   2  -4 -10  223.98   11.10
 -10  -2   4  227.48   10.80
  -2  -4  10  223.88   11.10
   4  10   2  224.88   10.70
  -4  10  -2  232.08   10.60
  -4  10  -2  230.38   11.00
  -2   4 -10  229.18   11.20
   2   4  10  226.28   11.10
 -10   2   4  231.88   10.80
  -2  -4 -10  245.78   11.20
   2  -4  10  220.48   11.50
   4  10  -2  231.58   10.70
  -4  10   2  233.98   10.60
   2   4 -10  236.48   11.20
  -2   4  10  225.28   11.00
   4  10  -2  235.08   11.20
   5  10   2  390.46   18.00
  -5  10  -2  410.46   17.90
  -2  -5  10  393.46   18.60
   2  -5 -10  364.16   18.80
   2   5  10  398.36   17.90
   2   5  10  379.26   18.50
  -5  10  -2  400.76   18.60
 -10  -2   5  390.56   18.30
  -2  -5 -10  393.36   18.80
   5  10  -2  416.16   18.90
  10   2  -5  419.96   19.50
   2  -5  10  390.86   19.00
  -2   5  10  389.36   18.50
   2   5 -10  401.96   18.80
 -10   2   5  397.96   18.40
   5  10  -2  386.56   17.90
  -5  10   2  406.86   17.80
  -6  10  -2  692.93   31.00
  -6  10  -2  725.73   29.70
   2   6  10  656.83   30.70
  -2  -6  10  650.83   30.80
   2   6  10  642.04   29.70
 -10  -2   6  641.24   30.50
   6  10   2  642.54   29.80
  -2   6 -10  674.83   31.20
   2  -6  10  652.23   31.20
  -2   6  10  655.43   30.70
   2   6 -10  677.93   31.20
  -2  -6 -10  722.83   31.30
 -10   2   6  644.14   30.60
  -6  10   2  675.93   29.60
  10   2  -6  629.84   32.10
   6  10  -2  659.83   29.70
   2   7  10  234.18   11.10
  -7  10  -2  247.38   11.50
  -2   7 -10  243.18   11.60
   2   7  10  237.88   11.50
  -2  -7  10  230.18   11.60
 -10  -2   7  226.98   11.30
  -7  10  -2  254.07   11.10
   7  10   2  231.18   11.30
 -10   2   7  235.88   11.30
   7  10  -2  247.38   11.80
   2   7 -10  236.78   11.60
  -2   7  10  231.08   11.50
  -2  -7 -10  220.58   11.60
   2  -7  10  243.98   12.10
  -2   7  10  230.88   10.90
   7  10  -2  245.58   11.20
  -7  10   2  246.68   11.00
  -2  -8  10  543.55   25.30
   2   8  10  520.35   24.30
  -2   8 -10  544.05   25.50
  -8  10  -2  565.24   25.40
 -10  -2   8  513.25   25.00
   8  10   2  534.75   24.60
   2   8  10  536.55   25.20
  -8  10  -2  557.54   24.30
 -10   2   8  516.95   25.00
   2   8 -10  548.35   25.60
   8  10  -2  545.95   25.80
  -2   8  10  530.75   24.20
  -2  -8 -10  548.35   25.60
   8  10  -2  554.24   24.50
  -2   8  10  541.45   25.20
   2  -8  10  533.85   25.70
  -8  10   2  564.34   24.20
   2   8 -10  537.95   24.20
   9  10   2   26.80    3.70
   2   9  10   22.10    2.60
  -2  -9  10   18.60    3.30
  -9  10  -2   21.80    2.70
   2   9  10   18.80    3.00
 -10  -2   9   23.10    2.60
  -2   9 -10   24.10    2.80
 -10   2   9   23.50    2.80
  -2   9  10   24.80    2.70
  -2   9  10   27.60    2.90
   2   9 -10   29.00    2.80
  -3   0  10  242.78   12.20
  -3   0 -10  257.57   12.50
   0  10  -3  254.77   11.80
   0  10   3  246.38   11.70
   0  10  -3  255.77   12.30
   3   0 -10  252.87   12.30
  10   3   0  290.77   12.50
   3   1  10  316.47   17.30
  -1  10  -3  365.06   17.10
  10   3   1  399.06   16.90
   3  -1 -10  348.87   17.10
  -3  -1  10  357.86   17.00
  -3   1 -10  348.07   17.20
  -1  10  -3  364.86   16.30
 -10  -3   1  376.86   16.60
   1  10   3  359.16   16.30
  -3   1  10  356.96   17.00
  -1  10   3  369.66   16.30
   3   1 -10  365.06   17.10
   1  10  -3  352.96   17.10
 -10   3   1  380.26   16.70
  -3  -1 -10  353.46   17.20
   1  10  -3  367.26   16.40
   3  -2 -10  253.77   12.50
  -3   2 -10  282.77   12.60
   2  10   3  255.37   11.90
  -2  10  -3  255.27   11.90
  -3  -2  10  245.58   12.40
  10   3   2  272.17   12.40
  -2  10  -3  243.38   12.30
 -10  -3   2  257.47   12.00
   3   2  10  240.68   12.70
   2  10  -3  261.97   12.50
  -2  10   3  259.37   11.80
 -10   3   2  260.67   12.10
  -3   2  10  252.17   12.40
   3   2 -10  264.37   12.50
  -3  -2 -10  280.27   12.60
   2  10  -3  269.27   11.90
  10   3   3  420.16   18.50
  -3   3 -10  407.16   19.00
 -10  -3   3  396.76   18.40
   3  -3 -10  364.76   19.00
  -3  -3  10  401.96   18.70
  -3  10  -3  407.76   18.00
   3  10   3  405.16   18.10
  -3  10  -3  401.16   18.80
   3   3  10  370.66   18.80
  -3  10   3  403.26   17.90
   3   3 -10  395.16   18.90
  -3   3  10  410.36   18.70
   3  10  -3  407.06   18.90
   3  10  -3  401.76   18.00
 -10   3   3  398.96   18.50
  -3  -3 -10  402.46   19.00
   4  10   3   23.30    2.40
  -3  -4  10   19.30    2.40
   3   4  10   21.10    2.60
  10   3   4   24.50    2.60
  -3   4 -10   19.60    2.30
  -4  10  -3   18.80    2.00
  -4  10  -3   18.00    1.70
   3  -4 -10   18.30    3.20
  -4  10   3   20.20    1.80
   4  10  -3   22.40    2.20
 -10   3   4   16.70    1.90
  10   3  -4   29.10    4.50
   3   4 -10   21.60    2.20
  -3  -5  10   74.29    4.40
 -10  -3   5   73.69    4.00
   3   5  10   74.99    4.50
  -5  10  -3   74.79    4.00
   5  10   3   77.99    4.30
  -5  10  -3   75.99    4.10
   3   5  10   75.59    4.10
   3  -5  10   63.19    5.20
  -5  10   3   73.29    3.90
  -3   5  10   82.19    4.40
   5  10  -3   82.79    4.10
  10   3  -5   70.09    5.20
 -10   3   5   73.89    4.10
   5  10  -3   74.49    4.40
   3   6  10   85.09    4.70
  -3  -6  10   87.69    5.10
  -6  10  -3   87.59    4.70
 -10  -3   6   85.39    4.60
  -6  10  -3   92.39    4.80
   3   6  10   86.09    5.20
  -3   6 -10   93.19    5.00
   6  10   3   89.69    5.00
   6  10  -3  102.19    4.80
  10   3  -6   80.99    6.00
   3   6 -10   91.89    4.90
  -6  10   3   88.79    4.50
   3   6 -10   91.29    4.50
 -10   3   6   85.29    4.80
   3  -6  10   82.19    5.80
   6  10  -3   87.69    5.00
  -3   6  10   97.79    5.00
  -7  10  -3    4.90    1.00
 -10  -3   7    8.20    1.80
  -3  -7  10    7.40    1.40
   3   7  10    7.70    1.50
  -7  10  -3    3.90    0.70
   3   7  10    4.80    1.00
 -10   3   7    5.10    1.10
   7  10  -3    4.90    0.90
   3  -7  10    4.40    1.80
  -7  10   3    5.30    0.90
   3   8  10  162.48    8.20
  -8  10  -3  180.18    8.10
  -3  -8  10  169.08    8.60
   8  10   3  163.28    8.40
   3   8  10  162.18    8.60
  -8  10  -3  166.88    8.40
  -3   8 -10  163.48    8.50
 -10  -3   8  161.38    8.20
   8  10  -3  175.38    8.30
  -3   8  10  171.98    8.10
   8  10  -3  162.08    8.70
  -3   8  10  170.38    8.50
 -10   3   8  158.88    8.30
   3   8 -10  163.28    8.50
  -8  10   3  168.48    8.00
   3  -8  10  162.88    9.30
   3   8 -10  165.08    7.90
  -9  10  -3   54.39    4.10
   3   9  10   56.89    4.30
 -10  -3   9   61.29    3.80
  -3  -9  10   59.09    4.10
  -9  10  -3   60.49    3.80
   3   9  10   57.79    3.90
  -3   9 -10   58.09    4.00
   3   9 -10   62.49    3.60
   9  10  -3   50.69    4.40
 -10   3   9   55.09    4.20
   3   9 -10   65.69    4.00
  -3   9  10   60.09    4.00
   0  10  -4  187.08    8.90
  10   4   0  177.58    9.50
   0  10   4  179.78    8.50
   0  10  -4  187.28    8.60
  -4   0  10  187.98    9.00
  -4   0 -10  169.78    9.10
   4   0 -10  186.58    9.00
  -4   1 -10  147.29    7.40
  -1  10  -4  139.19    7.00
  10   4   1  132.49    7.60
  -4  -1  10  146.29    7.30
   4  -1 -10  142.19    7.30
 -10  -4   1  158.08    6.90
   1  10   4  140.19    6.90
  -1  10  -4  142.89    6.90
  -1  10   4  138.99    6.80
  -4   1  10  145.69    7.20
  -4  -1 -10  143.09    7.40
   4   1 -10  146.39    7.20
   1  10  -4  137.69    7.10
  10   4  -1  124.59    8.20
   1  10  -4  148.49    6.90
  -4  -2  10    0.80    1.00
  10   4   2    1.40    1.10
  -4   2 -10    0.60    0.80
  -2  10  -4    0.70    0.50
 -10  -4   2    0.90    0.80
   2  10   4    1.70    0.90
  -2  10  -4    1.10    0.90
   4   2  10    3.40    2.20
  10   4  -2   -1.20    2.30
  -2  10   4    1.10    0.60
   4  -2  10   -0.80    2.20
   2  10  -4    2.40    0.90
   2  10  -4    1.00    0.60
  -4   2  10    1.00    1.10
  -3  10  -4  235.68   11.60
   4   3  10  228.88   12.40
 -10  -4   3  243.88   11.30
  -3 -10   4  230.58   11.60
   3  10   4  247.88   11.30
  -4   3 -10  241.58   11.80
  10   4   3  241.38   11.70
  -4  -3  10  247.58   11.70
  -3  10  -4  260.97   11.20
  -3  10   4  241.88   11.10
  -4   3  10  243.28   11.70
  10   4  -3  214.78   13.60
   4   3 -10  243.98   11.80
   3  10  -4  250.77   11.20
   3  10  -4  254.77   11.80
 -10   4   3  251.57   11.50
  -4  10  -4   12.20    1.60
  10   4   4   14.40    2.50
  -4 -10   4   13.50    2.00
 -10  -4   4   12.00    1.60
  -4  -4  10   10.90    2.30
   4   4  10   17.00    3.80
  -4  10   4   11.40    1.50
   4   4 -10   10.80    1.50
 -10   4   4   11.30    1.80
  -4   4  10   16.70    2.30
   4  10  -4   16.00    2.10
   4   5  10  602.14   26.60
  -5  10  -4  628.14   26.50
   5  10   4  570.94   26.60
  -4  -5  10  588.44   27.50
  -5  10  -4  606.84   27.70
  -5 -10   4  585.14   27.40
 -10  -4   5  587.24   27.20
   4   5  10  598.94   27.70
  10   4   5  567.14   26.90
  -4   5 -10  617.44   27.90
   4   5 -10  580.84   27.90
   4   5 -10  571.34   26.30
  -4   5  10  594.04   27.40
   5  10  -4  579.24   26.50
 -10   4   5  601.34   27.30
  -5  10   4  606.94   26.40
  10   4   6  128.39    6.80
   4   6  10  132.89    7.00
   6  10   4  127.09    6.60
 -10  -4   6  124.39    6.20
  -6  10  -4  125.39    6.40
  -6 -10   4  123.69    6.40
  -4  -6  10  126.79    6.60
   4   6  10  125.99    6.40
  -4   6 -10  125.29    6.60
 -10   4   6  124.59    6.40
  10   4  -6  121.49    7.40
   4   6 -10  122.49    6.60
  -6  10   4  127.39    6.10
   4   6 -10  115.99    6.00
  -4   6  10  132.59    6.60
   6  10  -4  127.99    6.70
   6  10  -4  133.79    6.30
   7  10   4  219.38   10.70
  -7  10  -4  226.98   10.70
  -4   7 -10  219.78   10.80
   4   7  10  223.28   11.00
  -7 -10   4  222.18   10.60
  -4  -7  10  220.78   10.70
 -10  -4   7  218.88   10.50
   4   7  10  222.38   10.50
   4   7 -10  208.28   10.10
   4   7 -10  217.68   10.80
 -10   4   7  209.98   10.60
  10   4  -7  205.88   11.60
   7  10  -4  225.78   10.30
  -7  10   4  225.08   10.10
   7  10  -4  219.48   11.00
  -4   7  10  223.78   10.70
   4   8  10  297.87   13.80
  -8  10  -4  305.47   14.20
  -4   8 -10  304.17   14.30
   4   8  10  301.97   14.30
 -10  -4   8  295.27   13.90
  -8 -10   4  313.77   14.00
   4   8 -10  282.67   13.40
   4   8 -10  291.97   14.30
  -4   8  10  293.67   14.20
 -10   4   8  288.47   14.00
   8  10  -4  286.67   14.40
  10   4  -8  273.37   15.10
   4  -8  10  260.07   15.00
   8  10  -4  320.07   13.80
  -4   9 -10   56.79    4.10
 -10   4  -9   56.59    5.10
   4   9  10   52.29    4.70
 -10  -4   9   62.69    3.70
   9  10   4   56.69    4.50
  -9  10  -4   51.19    4.00
  -4  -9  10   54.09    4.00
 -10   4   9   49.99    4.00
   9  10  -4   52.49    4.20
  10   4  -9   56.59    5.30
   4   9 -10   65.79    4.00
  -4   9  10   61.89    4.20
   4   9 -10   56.29    3.60
  -5   0  10  114.69    6.00
   0  10  -5  120.89    5.90
   0  10  -5  113.99    5.70
   5   0 -10  111.59    6.20
   0  10   5  109.99    5.60
  -5   0 -10  121.39    6.20
  -1 -10   5   53.99    3.60
  -5  -1  10   53.89    3.60
  -1  10  -5   51.89    3.20
   1  10   5   53.29    3.20
   5  -1 -10   50.09    4.00
  -1  10  -5   52.49    3.20
  -5   1 -10   59.99    3.80
  -1  10   5   55.09    3.10
   1  10  -5   55.59    3.30
   1  10  -5   52.99    3.30
   5   1 -10   56.99    3.50
  -5   1  10   59.09    3.60
   2  10   5   62.29    3.60
  -2  10  -5   64.09    3.50
  -5  -2  10   59.59    3.90
  -2  10  -5   72.09    3.60
  -2 -10   5   53.89    3.70
   5   2 -10   65.99    3.80
  -5   2  10   63.99    3.90
   2  10  -5   66.49    3.60
   2  10  -5   61.29    3.70
  -2  10   5   65.09    3.40
   5   2 -10   55.09    3.40
 -10  -5   3  220.18   10.00
  -3  10  -5  216.28    9.90
  -5  -3  10  207.38   10.30
  -3 -10   5  217.28   10.20
  -3  10  -5  208.98   10.20
   3  10   5  214.78   10.00
  10   5   3  210.28   10.60
  -5   3  10  216.68   10.30
   5   3 -10  189.98    9.60
   3  10  -5  210.08   10.40
   3  10  -5  210.18    9.80
  -3  10   5  213.88    9.70
   5   3 -10  211.18   10.40
  -4 -10   5  233.38   11.40
  -5   4 -10  247.08   11.70
  10   5   4  233.48   11.60
   4  10   5  242.18   11.20
  -4  10  -5  234.88   11.40
  -5  -4  10  242.78   11.50
   5   4  10  209.38   13.50
 -10  -5   4  244.28   11.20
 -10   5   4  238.08   11.30
   5   4 -10  220.48   10.80
  10   5  -4  241.78   12.10
   4  10  -5  251.87   11.00
  -4  10   5  240.18   10.80
  -5   4  10  242.28   11.50
   5   5  10  178.88   10.70
  -5   5 -10  173.28    8.90
   5  10   5  174.38    8.50
  -5 -10   5  163.28    8.50
 -10  -5   5  177.68    8.40
  -5  -5  10  183.38    8.70
  10   5   5  168.68    8.90
  -5  10  -5  173.38    8.50
   5   5 -10  169.58    8.70
   5   5 -10  159.88    8.10
   5  10  -5  175.68    8.80
  -5  10   5  173.58    8.10
 -10   5   5  183.68    8.50
  -5   5  10  178.78    8.70
  10   5  -5  171.18    9.30
   5  10  -5  179.38    8.30
   6  10   5  153.48    7.60
  -5  -6  10  152.18    7.60
  -6  10  -5  153.48    7.40
  10   5   6  146.29    7.80
 -10  -5   6  151.68    7.30
  -6 -10   5  143.99    7.40
  -5   6 -10  142.09    7.70
   5   6  10  159.98    8.90
   5   6  10  148.09    7.40
  -6  10   5  152.08    7.10
 -10   5   6  141.59    7.40
  10   5  -6  148.19    8.30
  -5   6  10  152.18    7.60
   5   6 -10  136.19    7.10
   6  10  -5  151.98    7.20
   6  10  -5  142.49    7.70
   5   6 -10  142.79    7.60
  10   5   7    4.00    1.30
  -7 -10   5    4.40    1.10
  -5  -7  10    3.90    1.20
 -10  -5   7    4.30    1.00
  -5   7 -10    2.70    0.90
 -10   5  -7    2.30    1.10
  -7  10  -5    2.60    0.70
   5   7  10    6.80    2.30
   7  10   5    4.70    1.20
   5   7  10    4.00    1.20
   5  -7  10    2.80    2.10
   5   7 -10    3.30    0.90
   7  10  -5    3.00    0.90
 -10   5   7    4.00    1.30
  10   5  -7    3.30    1.10
   5   8  10  118.79    7.40
 -10  -5   8  114.09    5.90
  -5  -8  10  109.89    6.30
 -10   5  -8  119.29    7.00
  -5   8 -10  111.39    6.30
   8  10   5  114.59    6.50
  -8 -10   5  114.79    6.00
   5   8 -10  106.79    5.80
  -5   8  10  115.29    6.30
   5   8 -10  116.59    6.30
 -10   5   8  110.99    6.40
   8  10  -5  108.29    6.40
  10   5  -8  106.59    7.00
   8  10  -5  127.69    6.20
   9  10   5   70.69    5.10
  -5  -9  10   64.79    4.40
   5   9  10   65.39    4.60
  -9 -10   5   68.99    4.20
  -5   9 -10   67.89    4.60
 -10   5  -9   73.29    5.60
  -9  10  -5   69.19    4.60
   5   9 -10   72.89    4.50
  10   5  -9   71.69    5.40
  -5   9  10   73.79    4.60
 -10   5   9   63.59    4.50
   9  10  -5   63.19    4.70
   5   9 -10   62.29    4.10
   0 -10   6  109.59    6.30
   6   0 -10  103.69    6.70
   0  10  -6  122.59    5.80
   0  10   6  124.29    5.80
  -6   0  10  127.69    6.20
   0  10  -6  120.69    6.10
   6   1  10    2.80    4.90
  -6  -1  10    6.00    1.20
  -1 -10   6    4.60    1.20
  -1  10  -6    7.70    1.80
   1  10   6    4.00    0.80
  -6   1 -10    2.10    0.90
   6  -1 -10    4.30    1.50
  10   6   1    2.40    1.60
  -1  10  -6    4.00    0.70
  10   6  -1    1.20    2.10
   1  10  -6    3.60    0.70
   6  -1  10   -1.60    3.30
  -6  -2  10   32.20    2.90
   2  10   6   33.50    2.60
  -2  10  -6   32.30    2.40
 -10  -6   2   34.80    2.50
  10   6   2   24.60    3.50
  -2  10  -6   35.40    2.40
  -2 -10   6   28.00    2.70
   2  10  -6   34.70    2.60
  -2  10   6   31.40    2.20
   6   2 -10   38.70    2.90
  -6   2  10   33.30    2.80
  10   6   3   88.19    6.00
  -6   3 -10   96.89    5.70
 -10  -6   3  109.09    5.10
  -3  10  -6   97.59    5.20
  -6  -3  10  100.39    5.40
   3  10   6  100.19    5.30
  -3 -10   6   99.29    5.40
  -3  10   6   96.49    4.90
   6   3 -10   98.79    5.50
  -6   3  10  100.99    5.40
   3  10  -6  110.59    5.20
  10   6   4   57.29    4.50
  -4  10  -6   64.79    3.70
 -10  -6   4   66.99    3.50
  -6  -4  10   65.79    3.90
  -6   4 -10   52.29    4.10
  -4 -10   6   64.99    3.90
   4  10   6   62.79    3.90
  -6   4  10   71.29    4.00
   4  10  -6   69.79    3.70
   6   4 -10   64.29    4.00
  10   6  -4   54.39    4.50
   6   4 -10   62.39    3.90
  -4  10   6   62.09    3.40
   4  10  -6   61.19    3.80
  -5  10  -6   55.19    3.10
   5  10   6   49.00    3.40
  -6   5 -10   42.10    3.70
  -5 -10   6   49.70    3.30
 -10  -6   5   48.30    3.00
  10   6   5   44.10    4.00
  -6  -5  10   48.40    3.40
  -5  10   6   49.00    3.10
   6   5 -10   47.40    3.30
   6   5 -10   54.99    3.50
 -10   6   5   44.60    3.20
   5  10  -6   42.40    3.30
  -6   5  10   52.89    3.40
   5  10  -6   54.19    3.10
  10   6  -5   44.50    3.90
  -6 -10   6   96.19    5.40
  -6  -6  10  105.29    5.50
  -6   6 -10  103.69    5.80
   6  10   6  104.99    5.70
   6   6  10  100.99    5.60
  10   6   6   97.59    6.00
 -10  -6   6  101.09    5.20
   6  10  -6  102.39    5.20
   6   6 -10   94.19    5.30
   6   6 -10  100.09    5.60
 -10   6   6   94.39    5.50
   6  10  -6   95.29    5.60
  -6   6  10  107.29    5.60
  10   6  -6  101.19    6.10
 -10   6  -7    5.90    1.30
  -6   7 -10    4.00    1.00
   6   7 -10    7.10    1.20
   7  10  -6    4.50    0.90
 -10   6   7    7.40    1.40
  -8 -10   6   76.39    4.70
   6   8  10   85.09    5.10
  10   6   8   78.09    5.50
  -8  10  -6   85.99    5.00
 -10  -6   8   82.49    4.60
   8  10   6   82.09    5.40
 -10   6  -8   77.29    5.80
  -6   8 -10   78.39    5.20
  -6  -8  10   86.79    4.90
 -10   6   8   76.49    5.00
  10   6  -8   85.69    5.60
   8  10  -6   80.09    5.10
   6   8 -10   79.69    4.80
   6   8 -10   88.09    5.00
  -6   8  10   88.59    5.10
  -6   9 -10    3.60    1.00
   6   9  10    4.40    1.40
 -10  -6   9    5.30    1.20
  -9  10  -6    2.80    1.00
  -6  -9  10    5.10    1.40
 -10   6  -9    2.10    1.30
   9  10   6    4.10    1.60
   6   9 -10    4.00    1.20
   9  10  -6    2.40    1.00
  -6   9  10    5.20    1.50
 -10   6   9    2.80    1.50
  10   6  -9    4.20    1.20
   0  10  -7   75.89    4.00
 -10   7   0   58.99    4.20
   0  10   7   76.99    3.90
   0  10  -7   70.49    4.10
   0 -10   7   75.39    4.50
  -7   0  10   74.09    4.20
  10   7   1    1.30    1.40
  -1  10  -7    2.00    0.60
   7  -1 -10    3.50    2.50
 -10   7  -1    0.20    0.70
  -1  10  -7    2.00    0.80
  -1 -10   7    0.90    1.20
   1  10   7    1.10    0.80
  -7  -1  10    2.30    1.10
   1 -10   7    1.50    1.20
   7  -1  10    1.60    2.20
  -7   1  10    3.80    1.20
  -1  10   7    1.00    0.60
 -10   7   1    1.20    0.90
   1  10  -7    1.60    0.60
   1  10  -7    3.10    0.90
  10   7  -1    3.20    2.10
  -7   2 -10   86.69    5.90
   2  10   7   99.99    5.30
  -2  10  -7  108.89    5.20
  -2  10  -7  100.09    5.40
  -7  -2  10  105.89    5.50
  -2 -10   7  101.59    5.60
  10   7   2   96.39    6.30
   7  -2  10   91.59    6.60
   2  10  -7  107.49    5.20
  -2  10   7  104.49    5.10
   2  10  -7   99.79    5.40
  -7   2  10  106.89    5.50
   7   2 -10  101.59    5.90
  -3 -10   7    6.10    1.30
   7  -3 -10    3.20    3.40
  10   7   3    5.30    1.50
   3  10   7    5.70    1.10
  -7  -3  10    9.20    2.10
 -10  -7   3    8.70    1.90
   7  -3  10    6.40    2.20
  -3  10   7    4.90    0.90
  10   7  -3    6.70    3.30
  -7  -4  10   79.39    4.50
  -4 -10   7   82.09    4.60
  -7   4 -10   73.69    4.90
 -10  -7   4   84.79    4.30
 -10   7  -4   80.89    4.70
  10   7   4   73.49    5.20
   4  10   7   75.49    4.50
  -4  10  -7   79.79    4.40
  -4  10   7   73.79    4.10
   7   4 -10   80.29    4.80
  10   7  -4   70.19    5.00
   4  10  -7   72.79    4.50
   7  -4  10   63.19    6.00
  -7   4  10   80.39    4.60
   4  10  -7   81.69    4.20
   5  10   7    0.00    1.10
  -5  10  -7    0.00    0.60
  -7  -5  10    1.20    1.10
  -5 -10   7    0.90    1.00
 -10  -7   5   -0.40    0.90
  10   7  -5   -0.40    0.80
   7   5 -10    1.10    0.70
  -7   5  10    1.50    1.20
  10   7  -5    5.80    4.10
  -5  10   7   -0.10    1.00
   5  10  -7    0.80    0.90
  -7   6 -10   49.90    4.30
  -7  -6  10   60.19    3.90
  -6  10  -7   62.99    3.80
 -10  -7   6   56.09    3.50
  -6 -10   7   58.09    3.70
 -10   7  -6   60.39    4.30
   7   6 -10   60.69    4.00
  10   7  -6   56.49    4.30
 -10   7   6   50.49    3.90
  10   7  -6   61.89   11.30
   6  10  -7   55.69    3.60
   7   6 -10   57.89    4.60
   6  10  -7   50.79    3.80
  10   7   7    3.30    1.50
  -7   7 -10    2.40    1.00
 -10   7  -7    3.80    1.10
   7  10   7    5.10    1.30
   7   7  10    4.90    1.30
 -10   7   7    1.50    1.40
  10   7  -7    4.50    1.10
   7  10  -7    3.50    0.90
   8  10   7  115.49    6.60
  -8  10  -7  119.89    6.40
  -7   8 -10  109.59    6.60
  -7  -8  10  114.09    6.10
 -10   7  -8  117.59    6.90
  10   7   8  102.79    6.70
  -8 -10   7  116.29    6.10
   7   8  10  112.49    6.40
  10   7  -8  110.29    6.70
  -7   8  10  116.09    6.40
 -10   7   8  109.69    6.40
   8  10  -7  100.89    6.30
   7   8 -10  110.89    6.40
   7   8 -10  112.99    6.40
   8  10  -7  129.19    6.40
  -7   9 -10   30.50    3.50
  -9 -10   7   29.30    2.90
   7   9  10   26.10    3.60
  -7  -9  10   30.00    3.00
  -9  10  -7   30.40    3.60
 -10   7  -9   25.50    4.10
  10   7   9   22.30    3.90
 -10  -7   9   32.40    2.80
   9  10   7   28.80    3.70
   7   9 -10   30.80    4.00
  10   7  -9   29.20    3.60
   7   9 -10   31.10    3.20
  -7   9  10   32.30    3.40
   9  10  -7   26.10    3.20
 -10   7   9   24.00    3.30
   0 -10   8    9.70    1.70
 -10   8   0    8.40    1.10
   0  10   8    8.20    1.80
  -8  -1  10    1.30    1.20
  10   8   1    1.40    1.40
  -1  10  -8    2.50    0.80
  -1  10  -8    0.70    0.60
   8  -1 -10   -4.30    3.60
   8   1 -10    1.70    1.40
   1 -10   8   -0.90    1.30
  -8   1  10    1.40    1.20
   1  10  -8    1.10    0.70
   1  10  -8    2.50    0.90
  -8   2 -10    2.00    1.00
 -10   8  -2    2.00    0.80
   2  10   8    1.60    1.00
   8  -2 -10   -1.10    4.30
  -8  -2  10    4.50    1.20
  -2 -10   8    1.20    1.30
  10   8   2    3.70    1.50
   2 -10   8    1.40    1.50
  10   8  -2    6.40    2.20
   2  10  -8    2.90    0.80
  -8   2  10    3.30    1.20
   8   2 -10    2.80    1.20
  -2  10   8    2.00    0.80
 -10  -8   3   10.10    2.40
  -3  10  -8   13.40    2.20
  -8  -3  10   13.50    2.30
   8   3 -10   13.30    3.30
  -8   3  10   13.80    2.50
   3  10  -8   10.20    2.30
   3  10  -8   14.90    2.10
  -8  -4  10    3.00    1.20
 -10  -8   4    2.20    1.10
  10   8   4    1.10    1.40
  -4 -10   8    2.10    1.20
  -4  10  -8    2.20    0.80
   4  10   8    1.20    1.10
  -4  10   8    1.70    1.10
   4  10  -8    1.20    0.80
   4  10  -8    2.20    0.90
   8   4 -10    2.30    0.90
  -8   4  10    3.10    1.30
 -10  -8   5   39.50    3.00
 -10   8  -5   36.70    3.60
  -5  10  -8   41.20    3.30
   5  10   8   36.90    3.90
   5  10  -8   36.70    3.30
   5  10  -8   37.60    3.00
   8   5 -10   43.10    3.70
  -8   5  10   41.60    3.30
  10   8  -5   38.10    3.70
  10   8   6   -1.70    1.50
  -6  10  -8    0.70    0.80
 -10  -8   6   -0.40    1.00
  -6 -10   8    1.20    1.10
  -8  -6  10    0.00    1.10
   6  10   8    0.30    1.10
   6  10  -8    0.20    0.80
  10   8  -6   -0.10    0.90
   6  10  -8   -0.40    1.00
  -8   6  10    0.90    1.30
   8   6 -10    1.80    0.90
  10   8  -6    6.30    3.20
   8   7  10   22.30    3.50
  -7  10  -8   27.20    3.10
   7  10   8   27.60    3.40
  10   8   7   20.90    3.80
 -10   8  -7   22.40    3.60
  -7 -10   8   31.80    2.90
  -8  -7  10   29.50    2.80
 -10  -8   7   30.00    2.60
  -8   7  10   30.60    3.30
   7  10  -8   25.30    3.10
   7  10  -8   32.20    3.30
  10   8  -7   27.80    3.30
 -10   8   7   21.20    3.30
   8   7 -10   32.20    3.20
  10   8  -7   39.70    8.50
  -8   8 -10   -1.00    1.10
   8  10   8    1.40    1.40
   8   8  10    1.10    1.40
  -8 -10   8    1.70    1.20
  10   8   8   -0.70    1.50
  -8  -8  10    0.70    1.10
 -10  -8   8    1.10    1.20
  -8  10  -8    0.50    1.00
 -10   8  -8    0.80    1.10
  -8  10   8   -0.30    1.50
  10   8  -8    0.40    1.00
   8   8 -10    1.80    0.90
  -8   8  10    1.60    1.60
   8  10  -8    0.80    0.90
 -10   8   8   -2.10    1.50
   9  10   8   39.50    4.20
 -10   8  -9   46.50    4.50
  10   8   9   35.60    4.40
  -8   9 -10   43.40    4.20
   8   9  10   39.50    4.00
  -9  10  -8   44.50    4.10
  -8  -9  10   41.60    3.40
 -10  -8   9   42.50    3.30
  -9 -10   8   43.20    3.40
  -9  10   8   40.70    4.10
  -8   9  10   43.30    3.90
 -10   8   9   41.40    3.90
   9  10  -8   43.10    3.80
   8   9 -10   46.40    3.80
  10   8  -9   42.00    3.90
   8   9 -10   47.20    5.20
   0  10   9   75.19    4.30
  10   9   0   85.09    5.60
   0  10  -9   81.09    4.30
  -9   0  10   75.59    4.50
   0  10  -9   73.79    4.50
 -10   9   0   70.19    4.40
  -9  -1  10   19.20    2.50
   1  10   9   12.70    2.20
  -1  10  -9   16.90    2.40
 -10   9  -1   12.30    2.50
   1  10  -9   18.00    2.50
  -9   1  10   20.10    2.70
  -1  10   9   15.90    2.20
  -9  -2  10  110.29    5.70
   2  10   9  103.49    5.70
   9  -2 -10   89.29   13.50
  10   9   2  104.89    6.50
   2  10   9   98.59    5.60
  -2  10  -9  103.69    5.70
 -10   9  -2  100.29    6.00
   2  10  -9  105.39    5.80
   2  10  -9  113.49    5.40
  -9   2  10   99.49    6.00
  -2  10   9  103.29    5.40
  -9  -3  10    3.80    1.30
  -3  10  -9    1.80    0.80
  -3 -10   9    1.90    1.40
 -10   9  -3    0.00    0.90
   3  10   9    0.90    1.40
  -9   3 -10    0.20    1.20
  -3  10   9    1.60    1.10
   9   3 -10    3.50    1.30
   3  10  -9    2.10    0.80
  -4 -10   9   96.79    5.40
  -9   4 -10   86.09    6.20
   4  10   9   92.99    5.80
   4  10   9   84.99    5.40
 -10   9  -4   84.49    5.50
  10   9   4   92.59    6.10
  -4  10  -9   92.39    5.30
 -10  -9   4  101.19    5.30
   4  10  -9   90.49    5.30
  10   9  -4   87.19    5.80
  -9   4  10   92.09    5.40
   9   4 -10   95.09    6.10
   4  10  -9   91.29    4.90
 -10  -9   5   23.00    2.80
  -9   5 -10   20.80    4.00
   5  10   9   26.70    4.30
  10   9   5   16.90    3.80
 -10   9  -5   23.40    3.30
  -9  -5  10   28.60    2.70
  -5  10  -9   22.50    3.00
  -5 -10   9   24.10    2.90
   5  10   9   20.40    3.20
  10   9  -5   19.00    3.20
   5  10  -9   19.50    2.60
  -9   5  10   23.50    3.10
  -5  10   9   26.50    3.30
   9   5 -10   30.20    3.60
   5  10  -9   23.50    2.90
  -6  10  -9   66.99    4.50
  -9   6 -10   65.39    5.20
 -10   9  -6   67.19    4.80
  -6 -10   9   63.29    4.20
  -9  -6  10   67.79    4.20
 -10  -9   6   66.99    4.20
   6  10   9   65.69    4.60
  10   9   6   59.09    5.10
   9   6 -10   70.79    4.80
   6  10  -9   62.29    4.40
  10   9  -6   60.19    4.60
  -6  10   9   68.59    4.70
  -9   6  10   64.59    4.50
   7  10   9   28.30    3.50
  -9   7 -10   23.00    4.00
 -10  -9   7   29.50    3.00
  -9  -7  10   32.70    2.90
  -7 -10   9   28.70    3.00
 -10   9  -7   29.90    3.80
  10   9   7   22.60    3.90
  -7  10  -9   32.70    3.50
 -10   9   7   24.10    3.60
  -7  10   9   30.50    3.50
  -9   7  10   28.80    3.40
  10   9  -7   27.80    3.40
   7  10  -9   31.20    3.20
   9   7 -10   32.40    3.40
   8  10   9    4.70    1.50
  10   9   8    5.80    1.80
  -9   8 -10    2.80    1.20
  -8 -10   9    7.30    1.40
 -10  -9   8    4.90    1.30
   9   8  10    4.40    1.60
  -8  10  -9    4.90    1.20
 -10   9  -8    2.70    1.20
  -9   8  10    6.50    1.80
 -10   9   8    4.10    1.80
  10   9  -8    4.10    1.10
  -8  10   9    3.90    1.70
   8  10  -9    5.90    1.10
  -9 -10   9   27.60    2.90
 -10  -9   9   29.30    3.00
  -9  -9  10   28.00    2.90
  10   9   9   22.00    3.90
 -10   9  -9   25.40    4.10
   9  10   9   25.90    3.70
  -9   9 -10   26.70    3.90
   9   9  10   24.00    3.90
  -9  10  -9   26.30    3.90
 -10   9   9   25.30    3.60
  10   9  -9   25.10    3.40
  -9  10   9   29.80    3.80
   9   9 -10   29.80    3.30
  -9   9  10   29.80    3.60
   9  10  -9   34.00    4.70
   9  10  -9   29.60    3.30
   0 -10  10  220.28   11.10
 -10   0  10  194.78   10.60
 -10  10   0  231.18   10.40
   0  10  10  214.18   10.70
   0  10  10  212.18   10.20
   0  10 -10  213.78   10.10
   0  10 -10  211.58   10.70
  -1 -10  10   13.90    3.30
  -1  10 -10   21.30    2.70
 -10  -1  10   20.10    2.80
  10  10   1   25.20    4.00
   1  10  10   16.00    2.70
   1  10  10   14.60    2.60
 -10  10  -1   18.90    2.90
  -1  10  10   17.40    2.70
   1 -10  10   15.00    3.70
   1  10 -10   19.20    2.80
 -10   1  10   20.60    2.80
  -2 -10  10   70.99    4.90
  10  10   2   78.59    5.60
 -10  -2  10   76.49    4.60
   2  10  10   69.19    4.90
  -2  10 -10   78.59    4.70
 -10  10  -2   77.19    4.60
  -2  10  10   77.19    4.90
  -2  10  10   74.49    4.60
 -10   2  10   71.59    4.70
   2  10 -10   75.69    4.30
   2  10 -10   76.59    4.70
   2 -10  10   69.49    5.60
  -3 -10  10  125.79    7.20
  -3  10 -10  128.59    7.10
 -10  -3  10  137.09    6.90
  10  10   3  135.39    7.70
 -10   3 -10  134.49    8.10
   3  10  10  121.59    6.90
 -10  10  -3  138.39    6.80
   3  10  10  123.99    7.30
  -3  10  10  134.59    7.00
   3 -10  10  125.69    8.30
  -3  10  10  134.89    7.20
   3  10 -10  131.59    6.60
   3  10 -10  125.89    7.00
 -10   3  10  129.39    7.00
  -4 -10  10  125.29    7.00
 -10  -4  10  130.79    6.80
   4  10  10  117.09    6.90
 -10   4 -10  137.89    8.10
   4  10  10  119.49    7.50
  10  10   4  131.89    7.70
  -4  10 -10  135.59    7.00
  10   4 -10  125.79    8.20
 -10   4  10  126.49    7.00
   4  10 -10  135.19    6.50
   4  10 -10  129.69    7.00
  -4  10  10  129.69    7.10
  10  10  -4  122.79    7.40
 -10 -10   5   74.79    4.70
  -5 -10  10   69.99    4.70
 -10  -5  10   74.69    4.50
   5  10  10   63.59    4.80
 -10   5 -10   73.69    5.80
  -5  10 -10   72.89    4.80
 -10  10  -5   70.09    5.00
  10  10   5   68.29    5.40
  10   5 -10   72.09    5.60
  -5  10  10   75.99    4.90
   5  10 -10   73.39    4.30
   5  10 -10   73.89    4.70
 -10   5  10   68.99    4.70
  10  10  -5   62.69    5.00
 -10 -10   6    3.30    1.40
  -6 -10  10    3.20    1.30
 -10  -6  10    3.60    1.20
   6  10  10    3.10    1.50
 -10   6 -10    1.90    1.40
  -6  10 -10    3.10    1.00
 -10  10  -6    2.70    1.20
  10  10   6    1.90    1.70
  10   6 -10    3.90    1.30
  -6  10  10    4.30    1.60
   6  10 -10    4.00    1.20
   6  10 -10    4.00    1.00
 -10   6  10    4.00    1.60
  10  10  -6    1.80    1.00
 -10 -10   7   51.19    3.80
  -7 -10  10   49.60    3.80
 -10  -7  10   52.49    3.70
  -7  10 -10   51.19    4.30
 -10   7 -10   46.20    4.90
  10  10   7   51.09    4.60
   7  10  10   46.50    4.20
 -10  10  -7   50.69    4.60
  -7  10  10   53.19    4.20
 -10   7  10   50.49    4.20
 -10  10   7   51.89    4.50
   7  10 -10   52.49    4.10
   7  10 -10   53.59    4.10
  10   7 -10   51.39    4.40
  10  10  -7   62.69    5.70
  10  10  -7   44.60    4.10
  -8  10 -10    8.70    1.40
 -10   8 -10    6.20    1.50
  10  10   8    7.70    1.70
   8  10  10    8.40    1.70
 -10  10  -8    8.30    1.50
  -8  10  10   11.20    2.00
 -10   8  10   12.00    2.00
 -10  10   8   11.20    2.20
  10  10  -8    8.10    1.30
 -10 -10   9   19.90    2.90
  -9 -10  10   17.40    2.70
 -10  -9  10   21.10    2.90
  -9  10 -10   18.70    3.80
  10  10   9   18.60    3.80
  -9  10  10   19.00    3.60
  10   9 -10   19.10    3.20
 -10   9  10   17.80    3.40
   9  10 -10   22.60    3.10
 -10  10   9   17.50    3.50
  10  10  -9   19.90    3.20
 -10 -10  10   56.09    4.10
  10  10  10   50.69    5.00
 -10  10 -10   65.39    5.30
 -10  10  10   63.29    4.80
  10  10 -10   55.29    4.50
   0   0  11    0.60    1.00
   0  11   0    0.40    0.80
   0  11   0   -0.30    0.40
   1  11   0    2.00    0.90
   0   1  11    2.40    1.10
   0   1 -11    1.70    0.60
  -1  11   0    2.60    0.90
   0  -1  11    2.40    1.00
   0   2 -11  337.47   15.60
   2  11   0  345.87   15.50
  -2  11   0  335.27   15.40
   2  11   0  317.37   14.80
 -11   0   2  320.67   15.10
   0   2  11  317.97   15.40
   0  -2 -11  318.57   15.50
  -2  11   0  337.57   14.80
   0  -2  11  299.07   15.40
   0  -3  11   -0.90    1.10
  -3  11   0   -0.40    0.50
   3  11   0    1.00    0.90
   3  11   0   -0.50    0.50
  -3  11   0    0.00    0.80
   0  -3 -11    0.10    0.60
   0   3 -11    0.00    0.60
   0   4 -11  196.28    9.90
  -4  11   0  207.18    9.40
   4  11   0  195.28    9.40
   4  11   0  212.38    9.90
   0  -4  11  194.38    9.90
   0   4  11  199.08    9.70
   0  -4 -11  193.48    9.80
 -11   0   4  193.28    9.50
   0  -5 -11    0.20    0.70
   0   5 -11    0.30    0.70
  -5  11   0    0.10    0.80
   5  11   0    1.60    0.90
   0  -5  11    0.10    1.30
  -6  11   0    0.00    0.80
   0  -6 -11   -0.20    0.80
 -11   0   6    0.30    0.90
   0   6  11    2.40    1.20
   0  -6  11   -0.50    1.20
   0   6 -11    0.50    0.70
   0   7  11    1.20    1.20
  -7  11   0   -0.10    0.90
   0   7 -11   -0.20    0.70
   7  11   0    1.90    1.00
   0  -7  11    0.30    1.40
   0   8 -11   79.49    4.70
 -11   0   8   80.69    4.60
   0   8  11   80.39    4.50
   0   8  11   80.49    4.90
  -8  11   0   83.29    4.70
   8  11   0   81.19    5.00
   0   9  11   -1.30    1.00
   0   9 -11    0.00    0.80
  -9  11   0   -1.20    1.20
   9  11   0    2.70    1.40
  10  11   0  163.88    8.50
   0  10 -11  145.59    8.00
   0  10  11  150.98    7.60
   0  10  11  150.08    8.00
 -10  11   0  157.78    8.00
 -11   0  10  143.99    7.80
   0 -10  11  156.78    8.50
   0  10 -11  141.99    7.40
  -1   0 -11    0.50    0.60
   0  11   1    1.00    0.90
   1   0  11    1.30    1.00
   0  11  -1    1.70    0.50
 -11   1   0    0.00    0.80
  -1   0  11    3.10    1.10
  -1  -1  11   38.50    3.10
   1  11   1   41.60    2.70
  -1  11  -1   42.50    3.00
  -1  11  -1   41.90    2.60
   1  11   1   44.60    3.00
   1  -1 -11   45.70    2.80
   1   1  11   43.00    3.10
  -1   1 -11   45.60    3.10
  -1  11   1   40.50    2.60
  -1  11   1   39.90    2.80
   1   1 -11   43.20    2.90
   1  11  -1   43.70    3.00
   1  11  -1   37.80    2.60
  -1   1  11   45.30    3.20
   1  -1  11   40.20    3.20
   1   2  11   80.39    4.60
   2  11   1   85.39    4.50
  -1   2 -11   86.49    4.70
  -2  11  -1   78.49    4.30
  -1  -2  11   74.59    4.70
  -2  11  -1   77.59    4.40
   1  -2 -11   81.39    4.40
   1  -2  11   74.49    4.80
   2  11  -1   73.89    4.40
  -1  -2 -11   86.19    4.60
  -2  11   1   85.69    4.30
   2  11  -1   79.89    4.40
  -2  11   1   82.99    4.40
  -1   2  11   91.39    4.70
 -11   1   2   79.59    4.20
   1   2 -11   79.89    4.50
  -3  11  -1  255.77   12.00
  -1   3 -11  266.37   12.40
  -1  -3  11  236.98   12.20
 -11  -1   3  251.77   11.80
  -3  11  -1  261.97   11.70
   3  11   1  248.58   11.70
   1   3  11  249.18   12.20
   1  -3 -11  242.38   12.10
  -3  11   1  260.87   11.70
   3  11  -1  245.98   11.70
   1  -3  11  238.88   12.30
  -1   3  11  251.27   12.20
 -11   1   3  258.17   11.90
   3  11  -1  250.47   12.20
   1   3 -11  258.17   12.20
  -1  -3 -11  269.17   12.30
   1  -4 -11   34.90    2.70
   1   4  11   34.80    2.80
   4  11   1   35.40    2.70
  -1  -4  11   29.70    2.80
  -1   4 -11   36.00    2.70
  -4  11  -1   33.10    2.60
  -4  11  -1   30.80    2.50
 -11  -1   4   29.50    2.30
 -11   1   4   31.70    2.30
  -1   4  11   39.90    2.90
   4  11  -1   35.90    2.80
  -4  11   1   37.80    2.60
   1  -4  11   28.70    3.20
  -1  -4 -11   33.00    2.80
   4  11  -1   32.30    2.70
 -11  -1   5  835.62   38.50
   1  -5 -11  816.72   39.30
  -5  11  -1  900.81   39.20
  -1  -5  11  796.62   38.80
   5  11   1  820.42   37.50
   1   5  11  805.72   38.80
  -1   5 -11  851.71   39.40
  -5  11  -1  895.01   37.50
   5  11  -1  824.02   37.50
   1  -5  11  810.42   39.00
   5  11  -1  856.21   39.50
  -1   5  11  854.81   38.80
   1   5 -11  869.11   39.40
  -1  -5 -11  837.72   39.40
  -5  11   1  882.51   37.40
 -11   1   5  819.82   38.60
  -1   6 -11   71.29    4.30
  -1  -6  11   70.69    4.60
   6  11   1   76.39    4.40
   1   6  11   73.19    4.40
 -11  -1   6   67.09    4.00
  -6  11  -1   74.39    4.20
   1  -6 -11   72.59    4.60
  -6  11   1   75.99    4.10
  -1  -6 -11   63.69    4.50
   6  11  -1   70.49    4.60
   1   6 -11   77.19    4.40
   6  11  -1   81.99    4.30
  -1   6  11   80.39    4.50
 -11   1   6   73.89    4.10
   1  -6  11   70.29    5.00
 -11  -1   7  866.91   40.20
   1   7  11  852.11   39.00
  -1  -7  11  898.21   40.60
   1   7  11  884.31   40.40
   7  11   1  847.22   39.10
  -7  11  -1  943.21   39.00
  -1   7 -11  864.61   41.00
   7  11  -1  841.42   39.10
   1  -7  11  895.41   40.80
 -11   1   7  866.31   40.20
  -1   7  11  892.31   40.40
  -1  -7 -11  861.81   41.00
  -7  11   1  895.41   39.00
   1   7 -11  864.01   41.00
  -8  11  -1   24.10    2.70
   1   8  11   25.30    2.50
  -1  -8  11   21.00    3.40
 -11  -1   8   21.40    2.50
  -1   8 -11   24.60    2.80
   1   8  11   20.80    3.00
  -1   8  11   28.40    3.00
  -1   8  11   25.50    2.60
   1   8 -11   27.70    2.80
 -11   1   8   26.60    2.60
  -8  11   1   23.60    2.70
  -9  11  -1  375.56   16.50
   1   9  11  351.86   17.00
  -1  -9  11  361.66   17.30
  -1   9 -11  343.07   17.20
   9  11   1  345.57   16.80
   1   9  11  350.86   16.40
  -9  11   1  388.56   16.50
   9  11  -1  358.36   16.80
   1   9 -11  350.66   17.20
  -1   9  11  347.07   16.40
   1  -9  11  355.76   17.60
  10  11   1   47.40    4.40
  -1 -10  11   31.90    3.80
 -11  -1  10   37.30    3.40
 -10  11  -1   37.90    3.60
  -1  10 -11   41.10    3.10
  -1  10 -11   34.20    3.40
   1  10  11   41.70    3.70
   1  10  11   34.00    3.50
   1 -10  11   35.50    4.30
   1  10 -11   37.60    3.40
 -11   1  10   32.40    3.40
  -1  10  11   40.20    3.60
   1  10 -11   38.80    3.00
  -1  10  11   35.20    3.50
  -2   0 -11    0.60    0.70
   0  11  -2    2.40    0.90
   0  11   2    1.70    0.80
  -2   0  11    1.80    1.00
   0  11  -2   -0.10    0.40
 -11   2   0    0.80    0.90
  -1  11  -2   76.89    4.20
 -11   2  -1   81.79    4.10
  -2  -1  11   68.99    4.40
   2   1  11   73.89    4.60
  -2   1 -11   74.19    4.50
   2  -1 -11   76.79    4.10
  -1  11  -2   79.59    4.00
   1  11   2   73.29    4.10
 -11   2   1   72.19    3.90
   2   1 -11   75.99    4.20
  -2  -1 -11   82.79    4.40
  -2   1  11   71.99    4.30
   1  11  -2   71.59    4.10
   1  11  -2   75.09    4.10
  -1  11   2   72.39    4.10
   2  -1  11   70.79    4.70
  -2  11  -2   56.79    3.40
   2  -2 -11   59.49    3.40
 -11  -2   2   52.89    3.10
  -2  -2  11   52.59    3.60
   2   2  11   57.69    3.80
   2  11   2   53.19    3.30
  -2   2 -11   53.09    3.60
  -2  11  -2   52.79    3.10
   2   2 -11   56.39    3.40
   2  -2  11   50.99    4.00
  -2  -2 -11   60.59    3.60
  -2  11   2   52.79    3.30
   2  11  -2   59.99    3.50
   2  11  -2   52.19    3.30
 -11   2   2   52.89    3.10
  -2   2  11   59.19    3.70
  -3  11  -2    9.00    1.50
  -2  -3  11   11.30    2.20
 -11  -2   3    8.00    1.60
  -3  11  -2    9.60    2.00
   2   3  11   12.60    2.50
   3  11   2   12.50    1.90
   2  -3 -11   14.50    2.10
   3  11  -2   11.40    1.90
  -2  -3 -11   11.60    2.20
   2   3 -11   13.30    2.00
   2  -3  11    8.10    1.70
  -3  11   2   12.20    1.80
  -2   4 -11  194.88   10.00
   2   4  11  195.18   10.00
   2  -4 -11  201.48   10.00
 -11  -2   4  194.98    9.60
  -2  -4  11  192.78    9.90
   4  11   2  200.88    9.60
  -4  11  -2  208.78    9.80
  -4  11  -2  211.68    9.50
   4  11  -2  199.58    9.50
 -11   2   4  197.68    9.60
  -2   4  11  213.58    9.90
   2   4 -11  200.28   10.00
  -4  11   2  206.78    9.40
  -2  -4 -11  212.38   10.00
   4  11  -2  198.78   10.00
   2  -4  11  203.48   10.40
   5  11   2    1.20    1.00
  -2   5 -11    0.00    0.70
  -5  11  -2   -0.50    0.60
  -5  11  -2   -0.30    0.90
   2   5  11    0.70    1.10
   2  -5 -11   -0.20    0.90
  -2  -5  11    1.20    1.10
   2   5 -11    0.80    0.70
  -5  11   2   -0.10    0.70
  -2   5  11    2.20    1.20
 -11   2   5   -1.10    0.80
  -2  -5 -11   -0.90    0.70
   2  -5  11    0.40    1.50
  -6  11  -2    2.10    0.70
   2   6  11    3.60    1.30
  -2   6 -11    3.60    0.90
  -2  -6  11    4.60    1.30
  -6  11  -2    2.90    1.00
   6  11  -2    3.10    0.80
  -2  -6 -11    2.10    0.90
   2  -6  11    4.20    1.70
 -11   2   6    5.20    1.10
  -6  11   2    4.00    0.90
  -7  11  -2  101.99    5.20
   2   7  11   94.19    5.60
   2   7  11   90.19    5.10
  -2   7 -11   97.09    5.50
 -11  -2   7   89.59    5.00
   7  11   2   94.69    5.50
  -2  -7  11   90.49    5.60
  -2   7  11  102.29    5.50
   2  -7  11   96.99    6.30
  -7  11   2   95.09    5.10
  -2  -7 -11   89.99    5.60
   2   7 -11  101.69    5.40
 -11   2   7   91.49    5.20
   7  11  -2  109.79    5.30
   7  11  -2   91.89    5.70
   2   8  11   15.20    3.20
  -8  11  -2   17.40    2.70
  -2  -8  11   17.70    3.10
   8  11   2   24.90    3.50
   2   8  11   19.80    2.50
  -2   8 -11   20.10    2.70
 -11  -2   8   20.10    2.40
  -8  11   2   15.80    2.80
  -2   8  11   26.00    3.00
   2   8 -11   23.90    2.20
 -11   2   8   22.80    2.60
   2   8 -11   26.50    2.80
   2   9  11  107.19    6.30
  -2   9 -11  114.19    6.50
   2   9  11  112.79    6.70
   9  11   2  121.09    6.80
  -2  -9  11  114.29    6.70
  -9  11  -2  124.99    6.30
 -11   2   9  110.79    6.40
   9  11  -2  123.09    6.70
   2   9 -11  114.79    6.50
  -2   9  11  119.89    6.60
   2  -9  11  130.69    7.70
  -9  11   2  120.19    6.40
  -2   9  11  121.39    6.40
  -2  10 -11   99.59    5.90
   2  10  11   95.19    5.80
 -11  -2  10  100.89    5.80
  10  11   2  103.89    6.50
  -2 -10  11   95.99    6.20
   2  10 -11  103.59    5.50
  10  11  -2  120.09    6.60
  -2  10  11  106.29    6.10
   2 -10  11  102.49    7.10
 -11   2  10   99.69    5.90
  -2  10  11  105.19    6.10
   2  10 -11  102.29    5.90
  11   3   0    1.80    1.50
  -3   0 -11    0.30    0.80
   3   0  11    3.80    1.60
 -11   3   0    2.60    0.80
   0  11  -3    1.30    0.90
   0  11   3    0.50    0.70
  -3   0  11    1.70    1.10
  -1  11  -3    2.30    0.90
  11   3   1    2.80    1.30
   1  11   3    2.50    0.80
  -3  -1  11    3.00    1.20
 -11   3   1    2.30    0.80
  -1  11   3    2.10    0.80
   1  11  -3    2.40    0.90
  11   3  -1    3.90    1.80
  -3  -1 -11    1.10    0.70
  -3   1  11    2.70    1.10
  -2  11  -3   29.70    2.20
  -3  -2  11   30.50    2.90
 -11  -3   2   29.40    2.40
  -2  11  -3   32.20    2.60
  11   3   2   36.70    3.30
   3  -2 -11   39.30    2.80
   3   2  11   38.00    3.80
   2  11   3   32.00    2.60
   2  11  -3   30.70    2.40
   2  11  -3   33.00    2.60
  -2  11   3   34.10    2.40
   3   2 -11   33.90    2.50
  -3   2  11   35.10    2.90
  -3  -2 -11   34.70    2.90
 -11   3   2   28.60    2.20
   3  -2  11   28.20    4.00
  -3  11  -3   77.09    4.20
 -11  -3   3   80.19    4.20
  -3  -3  11   74.29    4.70
   3  -3 -11   82.19    4.80
  -3   3 -11   75.69    4.70
  -3  11  -3   84.89    4.40
  11   3   3   91.19    5.00
   3   3  11   88.59    5.50
   3  11   3   80.99    4.50
  -3  -3 -11   82.79    4.70
  -3  11   3   77.79    4.20
  -3   3  11   86.59    4.70
   3  -3  11   65.89    5.60
   3   3 -11   79.99    4.50
   3  11  -3   79.59    4.30
   3  11  -3   76.29    4.50
 -11   3   3   80.79    4.30
 -11  -3   4  348.07   16.30
   4  11   3  351.56   16.10
  -4  11  -3  357.16   16.60
   3   4  11  349.37   16.90
   3  -4 -11  320.07   17.10
  -4  11  -3  372.66   16.00
  -3   4 -11  363.46   16.90
  -3  -4  11  341.07   16.60
   4  11  -3  345.87   16.00
   3   4 -11  357.46   16.80
  -4  11   3  344.67   15.90
  -3   4  11  360.06   16.60
 -11   3   4  361.36   16.40
  -3  -4 -11  390.36   16.90
   3  -4  11  299.67   17.30
  -3  -5  11  287.67   14.30
   5  11   3  298.37   13.90
  -5  11  -3  316.97   13.80
   3   5  11  302.67   14.50
  -5  11  -3  295.67   14.20
 -11  -3   5  304.77   14.00
  -3   5 -11  307.27   14.50
  -3   5  11  289.97   14.20
   5  11  -3  297.37   13.70
  -3  -5 -11  308.07   14.50
   3   5 -11  300.97   14.40
 -11   3   5  305.87   14.10
   3  -5  11  258.07   15.00
   5  11  -3  308.17   14.50
  -5  11   3  298.87   13.60
  -6  11  -3  339.17   14.50
  -3  -6  11  311.57   15.00
   3   6  11  323.17   15.10
 -11  -3   6  308.57   14.70
  -3   6 -11  314.27   15.10
   6  11   3  305.77   14.60
  -6  11  -3  314.27   14.90
   3   6 -11  309.77   14.20
  -6  11   3  315.37   14.30
   6  11  -3  313.17   15.20
  11   3  -6  282.57   16.30
   6  11  -3  322.47   14.40
 -11   3   6  317.57   14.80
   3   6 -11  332.17   15.20
  -3   6  11  316.87   15.00
  -3  -6 -11  314.47   15.30
   3  -6  11  283.87   15.80
 -11  -3   7  704.73   32.30
  -7  11  -3  740.23   32.90
   3   7  11  679.53   31.50
  -7  11  -3  764.92   31.50
   3   7  11  708.03   32.60
   7  11   3  634.14   31.70
  -3   7 -11  725.53   33.10
  -3   7  11  716.03   32.60
  -7  11   3  700.33   31.30
   3   7 -11  715.03   33.10
   7  11  -3  716.63   33.20
  -3  -7 -11  717.43   33.20
   3   7 -11  668.03   31.20
   3  -7  11  667.83   33.40
   7  11  -3  706.13   31.50
 -11   3   7  679.93   32.40
   3   8  11  109.79    6.00
 -11  -3   8  115.89    6.00
   8  11   3  118.69    6.50
   3   8  11  112.29    6.70
  -8  11  -3  121.09    6.10
  -3  -8  11  111.99    6.40
  -3   8 -11  114.29    6.30
   8  11  -3  118.79    6.10
   3   8 -11  108.59    5.70
  -3   8  11  115.19    6.40
   8  11  -3  111.09    6.60
  -3  -8 -11   94.59    6.70
  -8  11   3  114.39    6.00
 -11   3   8  115.39    6.10
   3   8 -11  121.39    6.30
  -3   9 -11  317.87   15.20
   3   9  11  306.97   14.60
   3   9  11  319.47   15.30
   9  11   3  297.37   14.90
  -3  -9  11  308.27   15.10
   3  -9  11  306.27   16.20
  -3   9  11  317.87   15.10
   9  11  -3  328.57   14.80
   3   9 -11  314.77   15.20
 -11   3   9  304.87   15.00
 -11  -3  10   33.20    3.10
   3  10  11   21.10    3.30
  -3  10 -11   27.70    3.30
  -3 -10  11   22.90    3.40
  10  11   3   27.70    4.10
   3  10 -11   29.40    3.10
  -3  10  11   31.60    3.50
 -11   3  10   28.90    3.30
   3  10 -11   29.90    2.90
   4   0  11    5.50    2.80
  11   4   0    0.90    1.90
   0  11  -4    0.00    0.50
   0  11   4   -0.30    0.70
   0  11  -4    0.30    0.90
  -4   0  11    0.60    1.00
  -4  -1  11   27.50    2.70
  -1  11  -4   27.20    2.50
  11   4   1   27.30    3.80
  -1  11  -4   26.50    2.10
   1  11   4   27.60    2.40
  -4   1  11   33.30    2.80
   4  -1  11   36.50    6.40
   1  11  -4   26.10    2.30
  11   4  -1   30.50    5.70
   4   1 -11   31.60    2.40
   1  11  -4   30.30    2.50
 -11   4   1   26.10    2.20
  -4  -1 -11   22.90    2.90
  -1  11   4   25.50    2.20
   4   2  11   87.99    7.10
  -4   2 -11   85.89    5.20
  -2  11  -4   90.49    4.80
  11   4   2   87.39    5.70
  -2  11  -4   92.39    4.70
   4  -2 -11   89.89    5.50
   2  11   4   93.39    4.80
  -4  -2  11   84.79    5.10
 -11   4   2   95.69    4.70
  -4  -2 -11   90.59    5.20
   4  -2  11   71.69    7.70
  -2  11   4   89.09    4.60
   4   2 -11   93.89    5.00
  11   4  -2  102.89    8.30
   2  11  -4   98.19    4.90
   2  11  -4   87.99    4.90
  -4   2  11   94.49    5.00
   3  11   4   61.19    3.70
  -4  -3  11   52.59    3.80
   4   3  11   67.89    5.90
  -4   3 -11   50.59    3.90
  -3  11  -4   54.29    3.30
  -3  11  -4   61.79    3.60
 -11  -4   3   60.79    3.40
   4  -3 -11   55.79    5.20
  11   4   3   58.09    4.30
  -3  11   4   58.69    3.30
  11   4  -3   72.69    8.10
  -4  -3 -11   62.89    4.00
   3  11  -4   63.29    3.60
 -11   4   3   55.39    3.40
  -4   3  11   57.69    3.70
  -4  -4  11  197.38    9.80
  -4   4 -11  193.18    9.90
   4   4  11  222.58   11.00
  -4  11  -4  200.88    9.70
   4  11   4  194.88    9.50
  11   4   4  191.58   10.00
 -11  -4   4  206.38    9.50
  -4  11  -4  210.28    9.50
   4  -4 -11  170.38   12.00
   4  11  -4  205.38    9.40
   4   4 -11  181.08    9.10
   4   4 -11  202.78    9.90
 -11   4   4  200.88    9.60
  -4   4  11  206.38    9.80
  -4  11   4  192.88    9.20
   4  11  -4  200.68    9.90
   5  11   4   23.30    2.60
  -5  11  -4   20.40    2.50
 -11  -4   5   20.60    2.00
   4   5  11   27.00    4.70
  -4  -5  11   17.60    2.70
  11   4   5   25.60    3.00
  -4   5 -11   16.80    2.70
  -5  11  -4   19.30    2.00
   4   5 -11   24.50    2.50
  -5  11   4   18.00    2.00
  -4   5  11   23.80    2.50
   5  11  -4   17.90    2.50
  -6  11  -4   10.10    2.40
  -4  -6  11    8.00    1.50
   4  -6  11    4.30    2.50
  -6  11   4    5.50    1.00
   4   6 -11    6.50    1.00
   6  11  -4    5.50    1.00
 -11   4   6    4.40    1.20
  -7  11  -4  106.59    6.00
  -4  -7  11  111.19    6.40
  -4   7 -11  115.59    6.30
   4   7  11  117.19    7.00
  -7  11  -4  119.89    6.10
 -11  -4   7  112.39    5.80
   4   7  11  109.39    6.10
   7  11  -4  109.29    6.30
   4   7 -11  113.99    6.20
 -11   4   7  109.69    6.10
   7  11  -4  124.19    5.90
  -7  11   4  113.89    5.80
   4   7 -11  103.39    5.60
 -11  -4   8   64.79    3.90
   4   8  11   52.29    4.30
  -4   8 -11   62.89    4.40
   4   8  11   65.59    5.40
  -8  11  -4   56.69    4.20
  -4  -8  11   54.49    4.30
   8  11   4   68.29    4.50
   4   8 -11   68.89    4.20
  -4   8  11   72.49    4.40
   8  11  -4   58.99    4.50
   4   8 -11   59.79    3.80
 -11   4  -9  124.09    7.80
  -9  11  -4  126.79    6.60
   9  11   4  123.49    7.10
   4   9  11  111.89    6.70
 -11  -4   9  125.19    6.50
  -4  -9  11  113.29    6.70
   4   9  11  117.39    7.80
  -4   9 -11  121.59    6.80
  -4   9  11  126.49    6.80
   4   9 -11  122.79    6.70
 -11   4   9  121.69    6.70
   9  11  -4  112.09    7.00
   9  11  -4  138.19    6.90
  -4  10 -11   35.10    3.50
 -11   4 -10   30.10    5.00
  -4 -10  11   27.20    3.50
   4  10  11   27.50    3.50
 -11  -4  10   37.50    3.10
  10  11   4   34.50    4.30
 -10  11  -4   26.70    3.50
  -4  10  11   38.40    3.70
 -11   4  10   36.10    3.60
   4  10 -11   32.70    3.00
   4  10 -11   35.20    3.40
  11   5   0    0.20    2.20
   5   0  11    6.90    5.40
  -1  11  -5   43.50    2.90
  -5   1 -11   35.80    3.50
   1  11   5   44.10    2.90
  -1  11  -5   43.00    2.80
   5   1  11   49.30   11.90
  -5  -1  11   42.30    3.30
   5  -1 -11   51.99    3.90
   1  11  -5   40.10    2.90
  -5   1  11   45.20    3.30
  -5  -1 -11   40.70    3.50
  -1  11   5   44.50    2.80
   5  -1  11   46.70   10.80
   1  11  -5   45.60    3.00
   5  -2 -11   50.39    5.10
  -2  11  -5   48.40    3.20
   2  11   5   47.70    3.10
   5   2  11   62.89   10.80
  11   5   2   39.30    4.30
  -2  11  -5   48.60    2.90
  -5  -2  11   42.90    3.40
  -5  -2 -11   39.00    3.60
   2  11  -5   49.90    3.20
  -5   2  11   51.79    3.30
   5   2 -11   52.19    3.30
   5  -3 -11   36.60    7.90
 -11  -5   3   46.10    2.90
  -3  11  -5   40.20    2.90
  -5  -3  11   36.40    3.20
  11   5   3   34.60    3.90
   5   3  11   59.39   10.20
  -3  11  -5   38.20    2.70
   3  11   5   42.80    3.00
 -11   5   3   41.40    2.80
   3  11  -5   39.70    3.00
   5   3 -11   34.80    2.80
  -5   3  11   44.80    3.20
  -3  11   5   39.80    2.60
   3  11  -5   43.50    3.00
   5   3 -11   44.80    3.00
  -4 -11   5   95.49    5.20
   5   4  11  106.79   10.20
  -5  -4  11   91.19    5.30
  -4  11  -5  104.09    5.00
  -4  11  -5   96.59    5.00
  11   5   4   88.79    5.80
   4  11   5   97.49    5.20
  -5   4 -11   89.59    5.50
 -11  -5   4   99.49    5.00
   5   4 -11   87.99    4.90
 -11   5   4   97.69    5.10
  -5   4  11   99.59    5.40
   5   4 -11   95.39    5.30
   4  11  -5   91.09    5.30
   4  11  -5   95.99    5.00
  -4  11   5   95.49    4.80
 -11  -5   5  123.59    6.00
  11   5   5  113.09    6.80
  -5  -5  11  117.19    6.30
  -5 -11   5  120.79    6.20
  -5   5 -11  120.69    6.50
   5  11   5  121.19    6.20
  -5  11  -5  130.09    6.20
  -5  11  -5  121.19    6.10
   5  11  -5  123.29    6.00
 -11   5   5  114.99    6.10
  -5   5  11  121.29    6.40
   5   5 -11  106.69    5.90
   5   5 -11  121.39    6.30
  11   5  -5  105.49    7.20
   5  11  -5  111.79    6.30
  -5  11   5  117.89    5.90
  11   5   6   34.90    3.90
  -6  11  -5   40.60    3.20
  -6  11  -5   40.90    2.90
  -5   6 -11   36.50    3.40
 -11  -5   6   38.70    2.70
  -6 -11   5   40.10    3.00
   6  11  -5   34.60    3.30
 -11   5   6   34.30    3.00
  -6  11   5   34.50    3.00
  11   5  -6   29.30    4.40
   5   6 -11   31.80    2.90
   5   6 -11   44.40    3.20
  -7 -11   5  403.06   18.90
 -11   5  -7  428.96   19.80
 -11  -5   7  403.96   18.70
   7  11   5  402.06   18.70
  -5   7 -11  406.56   19.30
  -5  -7  11  396.06   18.90
   7  11  -5  399.26   19.30
   5   7 -11  369.66   18.10
   5   7 -11  400.36   19.30
 -11   5   7  412.56   18.90
   7  11  -5  404.56   18.30
  11   5  -7  390.36   20.10
  -5   7  11  400.96   19.00
 -11   5  -8   69.19    5.40
  -5  -8  11   62.29    4.30
  -8  11  -5   63.29    4.30
   5   8  11   60.29    4.50
  -5   8 -11   66.89    4.50
 -11  -5   8   65.59    4.00
   8  11   5   66.79    4.80
   8  11  -5   57.09    4.50
   5   8 -11   70.69    4.30
 -11   5   8   61.69    4.40
   5   8 -11   57.89    4.00
  -5   8  11   72.99    4.40
  11   5  -8   56.39    5.70
  -9  11  -5  125.49    7.10
   9  11   5  128.09    7.30
 -11   5  -9  125.69    8.00
 -11  -5   9  124.29    6.60
  -5  -9  11  122.19    6.90
   5   9  11  119.79    6.90
  -5   9 -11  126.69    7.00
   9  11  -5  141.99    7.00
 -11   5   9  124.79    6.90
   5   9 -11  126.79    6.90
  -5   9  11  132.69    7.00
   9  11  -5  119.79    7.10
  11   5  -9  111.79    8.10
 -11   5 -10    0.90    1.40
   5  10  11    3.40    1.50
  10  11   5    3.60    1.60
  -5 -10  11    1.90    1.40
  -5  10 -11    2.10    1.00
  11   5 -10    0.70    1.50
  10  11  -5    6.80    1.80
 -11   5  10    3.70    1.60
   5  10 -11    4.40    1.20
  11   6   0    0.20    2.30
  -6   0  11    0.40    1.10
   6   0  11    0.30    6.20
   0  11  -6   -0.30    0.80
   0  11  -6   -0.50    0.60
   6   1  11   16.70    7.60
  -6   1 -11   16.30    2.90
   1  11   6   16.00    2.10
  -6  -1  11   18.00    2.50
  -1  11  -6   17.40    2.20
   1  11  -6   20.00    2.20
  -1  11   6   16.30    1.90
   1  11  -6   17.40    2.10
   6  -1  11    9.10    5.60
  -6   1  11   22.80    2.60
  -2  11  -6   15.70    2.20
   2  11   6   16.80    2.10
   6   2  11   14.90    8.20
   6  -2 -11    9.20    2.90
  -2 -11   6   12.50    2.50
  -6  -2  11   12.50    2.40
  -2  11   6   11.70    1.80
   2  11  -6   15.40    2.20
   2  11  -6   17.40    2.20
  -3 -11   6    4.30    1.30
   6  -3 -11    0.40    4.70
  -6  -3  11    2.90    1.20
  -6   3 -11    0.70    1.00
  11   6   3    2.50    1.50
   3  11   6    3.50    1.00
  -3  11   6    2.70    0.80
  11   6  -3    4.20    6.60
   6  -3  11   -1.50    4.10
   3  11  -6    2.20    0.70
  -4  11  -6   -0.10    0.90
  -4  11  -6   -0.40    0.60
 -11  -6   4    0.00    1.00
  11   6   4   -1.20    1.30
   4  11   6   -0.30    0.90
  -4 -11   6   -0.60    1.10
   4  11  -6    0.10    0.80
   6   4 -11    0.60    0.70
   6  -4  11   -3.10    3.70
  11   6  -4    9.60    7.80
  -6   4  11    0.80    1.20
 -11  -6   5   56.59    3.30
  -5  11  -6   53.59    3.40
 -11   6  -5   45.80    4.20
  -5 -11   6   53.09    3.50
  11   6   5   42.40    4.40
   5  11  -6   43.30    3.60
   5  11  -6   55.89    3.40
   6   5 -11   47.20    3.70
  -5  11   6   51.09    3.40
   6   5 -11   55.09    3.60
 -11   6   5   46.10    3.50
 -11   6  -6   -1.00    1.00
   6  11   6    1.30    1.20
 -11  -6   6   -1.00    1.00
  -6  -6  11   -0.70    1.20
  -6  11  -6    0.60    0.70
  11   6   6   -2.30    1.80
  -6 -11   6   -0.30    1.00
   6  11  -6    0.40    0.90
   6   6 -11    0.90    0.80
  -6   6  11    1.60    1.30
   6   6 -11   -0.60    1.20
   7  11   6   88.79    5.30
 -11  -6   7   84.59    4.60
  11   6   7   70.29    5.70
   6   7  11   78.59    5.10
 -11   6  -7   80.79    5.80
  -6  -7  11   79.79    4.90
  -7  11  -6   88.99    4.90
  -6   7 -11   78.29    5.30
   6   7 -11   86.49    5.00
  11   6  -7   77.49    5.90
 -11   6   7   77.99    5.00
   6   7 -11   77.39    4.90
  -6   7  11   91.69    5.10
   7  11  -6   75.89    5.10
  -8 -11   6    4.00    1.30
 -11   6  -8    3.10    1.40
  -8  11  -6    4.30    1.00
  -6  -8  11    4.30    1.40
   6   8  11    4.20    1.50
   8  11   6    5.50    1.50
  -6   8 -11    2.60    1.10
 -11   6   8    2.80    1.70
  11   6  -8    2.60    1.30
   6   8 -11    4.20    1.40
  -6  -9  11  101.79    5.90
  -9  11  -6  105.49    6.30
 -11   6  -9  108.59    7.00
   9  11   6  101.39    6.40
 -11  -6   9  104.39    5.70
   6   9  11   98.19    6.20
  -9 -11   6  101.99    5.90
  -6   9 -11  108.09    6.30
   9  11  -6   95.79    6.20
   6   9 -11  103.79    6.00
  -6   9  11  110.69    6.20
 -11   6   9  102.69    6.10
   9  11  -6  117.99    6.20
  11   6  -9   94.49    6.90
   6  10  11    7.10    1.60
  10  11   6    7.20    1.70
 -10  11  -6    5.80    1.40
  -6  10 -11    4.50    1.10
 -11   6 -10    3.10    1.40
  -6 -10  11    8.20    1.60
  10  11  -6    4.60    1.10
  11   6 -10    4.60    1.40
 -11   6  10    7.40    1.70
  -7   0  11    0.50    1.20
   0  11  -7    0.40    0.90
   0  11  -7    0.00    0.60
  11   7   0    2.00    2.40
  -1  11  -7    5.10    1.00
  11   7   1    5.80    2.10
  -7  -1  11   10.40    2.30
  -1  11   7    5.40    1.00
  11   7  -1    6.40    3.10
   1  11  -7    9.70    2.10
  -7  -2  11    6.10    1.40
 -11   7  -2    1.50    0.90
  -2 -11   7    3.40    1.40
  -2  11  -7    3.00    0.70
   2  11   7    3.20    1.10
  11   7   2    3.60    1.60
  -2  11  -7    4.30    1.10
   7  -2 -11    5.30    4.70
   2  11  -7    3.40    0.80
  11   7  -2   11.60    4.30
   7  -2  11    1.50    3.20
  -2  11   7    3.10    0.80
  -7  -3  11   34.30    3.00
  -3 -11   7   28.00    3.00
  11   7   3   25.60    4.10
  -7   3 -11   22.80    3.50
   3  11   7   28.70    2.80
  -3  11  -7   32.70    2.70
   3  11  -7   27.70    2.70
  -3  11   7   29.50    2.60
   3  11  -7   37.30    2.70
   7   3 -11   37.60    3.40
  -4  11  -7    0.60    0.60
 -11  -7   4    1.20    1.30
  11   7   4   -2.10    1.40
   4  11  -7   -0.50    0.70
   7   4 -11    1.10    0.80
   7  -4  11   -1.30    3.20
  -4  11   7   -0.20    1.00
  11   7  -4    6.10    6.40
   4  11  -7    1.70    0.90
  -7   5 -11    3.30    1.20
  11   7   5    5.40    1.80
 -11   7  -5    6.60    1.20
 -11  -7   5   10.40    2.30
   7  -5  11    1.60    3.60
  11   7  -5    6.10    7.00
 -11   7   5    4.80    1.40
   5  11  -7    5.80    1.00
  -6  11  -7    2.10    0.80
  -7  -6  11    2.40    1.20
  11   7   6   -0.10    1.60
 -11  -7   6    1.60    1.20
 -11   7  -6    1.40    1.10
   6  11   7    3.00    1.30
   6  11  -7    0.40    0.90
  11   7  -6    0.40    1.10
  -7  -7  11   25.50    2.90
   7  11   7   28.00    3.50
 -11   7  -7   26.60    3.90
 -11  -7   7   24.00    2.60
  -7  11  -7   25.70    3.20
  -7 -11   7   27.00    2.90
  -7   7 -11   22.80    3.50
  -7   7  11   30.10    3.20
 -11   7   7   18.40    3.20
   7  11  -7   31.30    3.00
  11   7  -7   19.50    3.80
   7  11  -7   21.80    3.10
  -7  -8  11    4.90    1.40
   7   8  11    3.20    1.40
 -11  -7   8    5.10    1.30
  11   7   8    0.80    1.70
 -11   7  -8    2.10    1.20
  -8  11  -7    2.60    1.00
   8  11   7    4.30    1.50
  -7   8 -11    1.50    1.10
  11   7  -8    3.20    1.20
   8  11  -7    2.80    0.90
   7   8 -11    4.20    1.80
 -11   7   8    0.50    1.50
  -7  -9  11    4.00    1.30
   7   9  11    4.10    1.60
 -11   7  -9    2.00    1.30
   9  11   7    4.70    1.60
  -9  11  -7    2.30    1.10
  -7   9 -11    3.70    1.10
  -9 -11   7    5.30    1.40
  11   7  -9    2.80    1.20
   9  11  -7    4.00    1.10
 -11   7   9    3.70    1.70
  10  11   7   25.40    3.90
  -7  10 -11   19.90    3.70
  -7 -10  11   24.10    3.00
 -11   7 -10   17.90    4.30
 -10 -11   7   21.60    3.20
 -10  11  -7   21.60    4.30
   7  10  11   20.70    3.60
 -11  -7  10   29.00    2.90
  10  11  -7   22.50    3.30
   7  10 -11   23.20    3.70
  -7  10  11   29.40    3.50
  10  11  -7   28.60    4.90
 -10  11   7   24.10    3.90
   7  10 -11   27.50    3.20
 -11   7  10   25.40    3.50
  11   7 -10   20.10    3.90
 -11   8   0   -0.60    1.20
   0  11   8    0.30    0.80
  11   8   0    4.70    2.20
   0  11  -8    1.20    0.70
  -1  11  -8   35.40    2.80
  -8   1 -11   22.00    3.80
   1  11   8   26.10    2.70
  -1 -11   8   23.60    3.10
  11   8   1   36.20    5.10
  11   8  -1   41.60    6.50
   1  11  -8   33.20    2.80
  -1  11   8   29.10    2.60
   8   1 -11   29.70    5.30
  -2  11  -8    1.70    1.00
  -8   2 -11   -0.20    1.20
   2  11   8    3.00    1.10
  -2  11  -8    1.30    0.70
  11   8   2    1.60    1.70
   8  -2 -11    0.10    5.70
   2  11  -8    0.30    0.70
  -2  11   8   -0.20    0.90
  -8   2  11    1.30    1.30
  11   8  -2    7.30    3.60
   8   2 -11    1.90    1.20
  -8  -3  11   28.40    2.80
  -3  11  -8   26.40    2.70
  -3 -11   8   19.90    3.00
  -8   3 -11   19.10    3.80
  -3  11  -8   25.70    2.70
  -3  11   8   20.90    2.80
   3  11  -8   22.50    2.80
  -8   3  11   26.80    3.00
   8   3 -11   29.80    3.70
  -4  11  -8   21.20    2.70
  -8  -4  11   23.80    2.70
  -4 -11   8   17.00    2.80
  -8   4 -11   15.40    3.60
 -11  -8   4   23.10    3.20
   4  11   8   16.70    3.10
 -11   8  -4   13.70    3.30
  -4  11   8   17.50    3.10
   8   4 -11   25.60    3.40
  -8   4  11   19.70    2.80
   4  11  -8   17.90    2.70
 -11  -8   5   15.00    3.00
   5  11   8   12.40    2.10
  -5 -11   8   17.30    2.70
  -5  11  -8   16.70    2.80
  -8  -5  11   16.30    2.70
   5  11   8   16.90    3.00
   8   5 -11   19.90    3.10
  11   8  -5   19.60    5.40
   5  11  -8   13.20    2.50
  -8   5  11   18.50    2.90
  -8   6 -11   31.00    4.20
   6  11   8   40.40    3.70
  -6 -11   8   41.80    3.30
  -6  11  -8   41.20    3.50
  -8  -6  11   40.40    3.30
  11   8   6   27.60    4.60
 -11   8  -6   37.80    4.10
 -11  -8   6   37.40    3.30
  11   8  -6   34.10    4.00
  -8   6  11   43.30    3.60
   8   6 -11   40.10    3.70
   6  11  -8   34.20    3.50
 -11   8   6   34.00    3.80
   6  11  -8   40.80    3.20
  11   8  -6   55.99   13.20
   7  11   8   34.60    3.70
  11   8   7   24.40    4.40
  -8  -7  11   34.10    3.10
  -7  11  -8   35.20    3.70
  -7 -11   8   37.70    3.20
  -8   7 -11   31.80    3.90
 -11  -8   7   34.00    3.40
 -11   8  -7   30.50    4.00
   8   7 -11   36.80    3.60
  11   8  -7   30.80    3.90
  -8   7  11   39.10    3.60
 -11   8   7   28.70    3.70
   7  11  -8   37.00    3.30
   7  11  -8   30.80    3.40
   8  11   8   24.90    3.60
  -8  11  -8   22.20    3.70
  -8 -11   8   24.30    2.80
  -8   8 -11   19.10    3.70
 -11  -8   8   24.60    2.70
 -11   8  -8   18.30    4.10
  -8  -8  11   24.00    2.80
   8  11  -8   28.50    3.40
  -8   8  11   23.80    3.40
  11   8  -8   19.50    3.50
 -11   8   8   17.50    3.40
   8  11  -8   21.40    3.10
   8   8 -11   28.20    3.20
  -8   9 -11    9.50    1.50
 -11   8  -9    7.00    1.50
   8   9  11    7.60    1.60
  -9  11  -8    6.90    1.30
   9  11   8   10.30    1.80
  11   8   9    5.10    1.90
  11   8  -9    7.90    1.40
 -11   8   9   12.20    2.00
   9  11  -8   11.20    2.80
  -9  11   8   10.80    2.00
 -10 -11   8   -1.80    1.30
  10  11   8    0.00    1.50
 -10  11  -8   -1.60    1.30
 -11   8 -10   -1.30    1.30
  -8 -10  11    0.60    1.20
 -11  -8  10    0.70    1.30
  -8  10 -11   -1.10    1.10
   8  10  11   -0.70    1.50
   8  10 -11    1.30    0.90
  11   8 -10   -1.00    1.00
  10  11  -8    0.50    2.20
 -11   8  10   -1.10    1.70
  10  11  -8   -0.90    0.80
  -8  10  11    0.00    1.60
 -10  11   8   -2.20    1.80
  -9   0  11    0.70    1.30
 -11   9   0   -1.80    1.30
   9   0 -11   -3.50    3.60
   0  11  -9    0.30    0.70
   0  11   9   -1.20    0.90
  -9   1 -11   26.00    4.20
  -1  11  -9   22.90    2.80
   1  11   9   17.50    2.70
  -1  11  -9   27.90    2.70
  -9  -1  11   26.70    3.00
  -9   1  11   21.70    3.00
   1  11  -9   28.70    2.70
   1  11  -9   22.80    2.80
  11   9   2    3.10    1.80
  -2  11   9    1.50    1.20
  -9   2  11    3.60    1.40
  11   9   3   21.30    4.40
  -3  11  -9   24.50    2.90
  -9   3 -11   20.00    4.30
  -3  11  -9   27.40    2.90
  -9  -3  11   26.50    2.90
   3  11  -9   27.10    2.70
   3  11  -9   24.80    2.90
  -3  11   9   19.90    3.30
   9   3 -11   21.00    4.60
  -9   3  11   21.70    3.10
 -11   9  -4   91.89    6.10
   4  11   9   93.99    6.20
  11   9   4  103.49    7.00
  -4  11  -9  102.99    5.80
  -4 -11   9   99.79    5.80
   4  11   9   93.29    5.90
  -9  -4  11  108.79    5.70
  -9   4 -11  103.39    6.70
  -9   4  11  104.39    5.90
   9   4 -11   99.79    6.60
   4  11  -9  103.39    5.50
   4  11  -9   99.29    5.80
  -5 -11   9    3.80    1.40
  -5  11  -9    2.30    0.90
   5  11   9    3.40    1.50
  11   9   5    1.90    1.80
 -11   9  -5    2.60    1.20
 -11  -9   5    4.30    1.70
  -9   5  11    5.80    1.60
   9   5 -11    4.50    1.20
  11   9  -5    1.40    1.10
   5  11  -9    4.10    1.20
   5  11  -9    3.30    0.90
  -9   6 -11   45.40    4.80
  11   9   6   45.70    4.90
   6  11   9   51.29    4.20
 -11   9  -6   48.60    4.60
  -6  11  -9   56.79    4.20
  -9  -6  11   51.39    3.80
  -6 -11   9   52.89    3.80
   6  11  -9   51.89    3.70
  11   9  -6   43.80    4.40
  -9   6  11   54.69    4.10
 -11   9   6   50.89    4.30
   9   6 -11   53.69    4.50
  -6  11   9   56.69    4.40
   6  11  -9   50.79    4.00
 -11  -9   7    3.40    1.40
  -9   7 -11    0.60    1.20
  -9  -7  11    2.60    1.20
  -7 -11   9    3.60    1.30
   7  11   9    1.90    1.30
  -7  11  -9    1.00    1.00
 -11   9  -7    1.00    1.20
  11   9   7    0.90    1.60
   7  11  -9    2.90    1.00
 -11   9   7    0.70    1.60
  -7  11   9    1.20    1.60
   7  11  -9    2.50    1.30
   9   7 -11    3.90    1.10
  -9   7  11    2.50    1.50
  11   9  -7    0.90    1.00
   8  11   9   42.90    4.10
 -11  -9   8   43.20    3.60
  11   9   8   33.70    4.60
  -9  -8  11   44.40    3.40
  -8  11  -9   39.40    4.30
  -8 -11   9   42.00    3.40
 -11   9  -8   43.00    4.70
  -9   8 -11   41.00    4.50
 -11   9   8   44.50    4.10
  -8  11   9   46.30    4.30
   9   8 -11   42.80    3.90
  11   9  -8   38.70    4.10
  -9   8  11   42.40    4.00
   8  11  -9   45.40    4.00
   8  11  -9   41.20    3.70
  -9  11  -9   18.20    4.10
 -11   9  -9   21.90    4.30
 -11  -9   9   22.80    2.90
  -9   9 -11   25.20    3.90
   9  11   9   20.90    3.70
  -9  -9  11   25.00    2.90
  -9 -11   9   24.40    2.90
  -9   9  11   24.90    3.60
  11   9  -9   18.50    3.50
   9   9 -11   26.90    3.30
   9  11  -9   30.00    4.50
  -9  11   9   21.40    3.80
 -11   9   9   22.60    3.60
   9  11  -9   25.70    3.20
  -9  10 -11   34.50    4.40
 -11  -9  10   28.30    3.10
 -11   9 -10   29.10    4.80
  10  11   9   27.00    4.20
 -10 -11   9   26.60    3.10
  -9 -10  11   27.70    3.10
   9  10  11   21.90    4.00
 -10  11  -9   25.50    4.80
  10  11  -9   28.20    3.40
  -9  10  11   31.80    3.90
 -11   9  10   31.20    3.90
  11   9 -10   27.90    3.80
   9  10 -11   29.10    3.50
 -10  11   9   27.80    4.00
  10   0 -11   -6.60    5.60
  11  10   0    3.00    1.90
   0  11 -10    0.80    0.80
 -11  10   0   -1.40    1.60
   0 -11  10   -0.90    1.70
 -10   0  11    0.80    1.30
   0  11  10    2.50    1.50
   1  11  10  119.99    6.60
 -11  10  -1  119.29    6.50
  -1 -11  10  116.99    6.90
   1  11  10  110.39    6.40
  -1  11 -10  111.99    6.50
  11  10   1  121.79    7.70
  -1  11 -10  117.59    6.10
 -10  -1  11  118.99    6.50
  -1  11  10  118.39    6.30
   1 -11  10  121.19    7.30
  11  10  -1  127.59    8.20
  -1  11  10  117.29    6.60
   1  11 -10  111.09    6.50
   1  11 -10  120.19    6.10
 -10   1  11  113.49    6.50
  -2 -11  10    3.00    1.60
  -2  11 -10    3.20    0.90
 -10   2 -11    3.40    1.50
   2  11  10    4.20    1.30
 -11  10  -2    5.30    1.40
  11  10   2    5.00    2.00
  -2  11 -10    5.10    1.20
 -10   2  11    3.40    1.40
  -2  11  10    3.90    1.50
   2  11 -10    3.20    0.90
  10   2 -11    2.00    2.40
   3  11  10   35.40    3.80
  11  10   3   44.30    5.00
 -10  -3  11   44.70    3.60
  -3  11 -10   43.30    3.60
 -10   3 -11   36.70    5.00
  -3  11 -10   47.10    3.40
  -3 -11  10   34.10    3.70
   3  11 -10   43.40    3.50
  10   3 -11   36.50    6.10
  -3  11  10   40.30    3.80
   3  11 -10   42.70    3.30
 -10   3  11   42.40    3.70
  -4  11 -10   23.60    3.20
   4  11  10   18.80    3.30
  -4 -11  10   20.30    3.20
 -10  -4  11   28.00    2.90
 -10   4 -11   23.10    4.60
  11  10   4   21.20    4.30
  10   4 -11   25.00    5.00
   4  11 -10   23.80    3.10
  -4  11  10   23.30    3.40
 -10   4  11   24.80    3.30
   4  11 -10   24.40    2.80
 -10  -5  11   25.40    2.90
  -5  11 -10   23.00    3.20
  -5 -11  10   20.70    3.00
   5  11 -10   21.70    3.00
   5  11 -10   22.80    3.00
  10   5 -11   20.50    4.20
  -5  11  10   23.30    3.50
 -10   5  11   24.60    3.40
 -11 -10   6   13.10    3.20
   6  11  10   14.10    3.20
  -6  11 -10   17.80    3.30
  -6 -11  10   15.30    2.80
 -10  -6  11   18.70    2.80
   6  11 -10   16.40    2.90
 -10   6  11   18.50    3.30
  10   6 -11   18.90    3.80
   6  11 -10   17.20    3.00
  -6  11  10   18.90    3.40
  11  10  -6   29.30    6.70
 -10  -7  11    0.70    1.10
  -7  11 -10   -1.30    1.10
   7  11  10   -1.80    1.20
  -7 -11  10    0.60    1.20
 -11  10  -7   -1.80    1.30
  11  10   7   -2.00    1.60
   7  11 -10   -1.90    1.30
   7  11 -10    0.20    0.90
 -10   7  11    0.20    1.60
  10   7 -11    0.30    1.00
  11  10  -7   -1.10    1.00
  -7  11  10   -0.30    1.70
   8  11  10   27.10    3.60
 -10  -8  11   24.50    2.90
  -8 -11  10   27.20    2.90
 -11 -10   8   27.10    3.30
  11  10   8   22.40    4.90
  -8  11 -10   21.60    4.20
 -11  10  -8   23.60    4.60
 -10   8 -11   27.00    4.30
  -8  11  10   26.60    3.70
 -10   8  11   27.80    3.60
   8  11 -10   26.80    3.90
   8  11 -10   28.80    3.30
  10   8 -11   29.10    3.60
 -11  10   8   26.10    3.80
  11  10  -8   23.90    3.60
   9  11  10   -0.20    1.40
 -11  10  -9   -1.50    1.40
 -10  -9  11    1.00    1.30
  11  10   9   -1.30    1.60
 -10   9 -11   -0.80    1.40
  -9 -11  10    0.70    1.20
 -11 -10   9    0.90    1.40
   9  11 -10    0.80    0.80
  10   9 -11    0.20    1.00
 -11  10   9    0.10    1.80
  -9  11  10   -0.80    1.70
 -10   9  11   -0.90    1.70
  11  10  -9   -0.70    1.00
 -10 -11  10    4.40    1.50
 -11 -10  10    3.60    1.50
 -10 -10  11    1.80    1.30
  10  11  10    1.60    1.60
 -11  10  10    1.60    1.80
  10  10 -11    1.30    1.00
  11  10 -10    2.10    1.10
 -10  11  10    4.00    2.00
 -10  10  11    2.70    1.80
  10  11 -10    1.80    0.90
 -11   0  11   -1.10    1.30
  11   0 -11   -8.00    7.80
   0  11  11   -0.40    1.50
   0  11  11   -1.20    1.10
   0  11 -11   -0.20    1.00
  11  11   0    0.90    1.80
  -1 -11  11   -0.90    1.50
   1  11  11    0.30    1.20
 -11  -1  11    0.80    1.20
   1  11  11    0.10    1.50
  -1  11 -11    0.90    1.00
  -1  11 -11   -0.80    0.80
  11  11   1    0.70    1.90
  -1  11  11   -0.10    1.50
   1  11 -11    0.80    1.00
   1  11 -11    1.10    0.80
   1 -11  11   -0.20    1.60
  11  11  -1    0.80    1.80
  -2 -11  11   60.79    4.80
  11  11   2   73.99    5.90
 -11  -2  11   68.39    4.40
   2  11  11   63.99    4.80
 -11   2 -11   60.39    5.90
  -2  11 -11   68.79    4.20
 -11  11  -2   63.99    4.60
  -2  11 -11   65.09    4.50
   2  11  11   62.19    4.50
  -2  11  11   66.29    4.70
 -11   2  11   64.69    4.50
  -2  11  11   62.59    4.90
   2  11 -11   62.29    4.10
   2  11 -11   64.49    4.40
   2 -11  11   59.89    5.70
  -3 -11  11  100.19    6.30
 -11  -3  11  106.69    6.00
  11  11   3  107.69    7.10
 -11   3 -11  117.69    7.50
   3  11  11   94.09    6.10
 -11  11  -3  103.59    6.20
   3  11  11   96.19    6.60
  -3  11 -11  112.59    5.80
  -3  11 -11  111.79    6.20
  -3  11  11  107.89    6.30
   3  11 -11  102.89    5.80
   3  11 -11  110.19    6.20
 -11   3  11  105.29    6.20
  11  11  -3  120.19    7.40
  -4 -11  11   90.99    5.60
 -11  -4  11   96.29    5.40
   4  11  11   85.59    5.60
 -11   4 -11  102.39    7.10
  -4  11 -11   94.09    5.70
 -11  11  -4   92.29    5.60
  11  11   4   88.69    6.40
  11   4 -11   76.09    8.00
  -4  11  11   96.09    5.80
   4  11 -11   91.29    5.30
   4  11 -11   94.29    5.60
 -11   4  11   93.79    5.70
   5  11  11    6.90    1.60
 -11   5 -11    4.20    1.50
  -5  11 -11    4.40    1.10
 -11  11  -5    4.50    1.50
  11  11   5    6.90    1.80
  11   5 -11    5.40    1.80
  -5  11  11    8.00    1.80
  -6 -11  11   41.20    3.60
 -11  -6  11   44.70    3.50
   6  11  11   41.50    4.00
 -11   6 -11   38.50    5.00
  -6  11 -11   45.50    4.20
  11  11   6   40.40    4.50
  -6  11  11   42.50    4.00
  11   6 -11   39.20    4.90
 -11   6  11   37.50    4.00
   6  11 -11   40.20    3.80
   6  11 -11   43.10    3.70
 -11  11   6   47.20    4.40
 -11 -11   7    2.80    1.70
  -7 -11  11    5.00    1.40
   7  11  11    2.60    1.40
 -11   7 -11    2.00    1.50
  -7  11 -11    4.30    1.30
  11  11   7    3.60    1.70
  -7  11  11    5.70    1.80
  11   7 -11    3.80    1.30
 -11   7  11    3.30    1.60
   7  11 -11    1.60    1.50
   7  11 -11    3.70    1.00
 -11  11   7    3.00    1.90
  11  11  -7    1.60    1.00
 -11 -11   8    7.30    1.80
  -8  11 -11    5.80    1.50
 -11   8 -11    5.40    1.60
 -11  11  -8    5.20    1.70
  11  11   8    5.70    1.80
   8  11  11    6.60    1.80
  11   8 -11    5.00    1.30
 -11   8  11    6.50    1.70
  -8  11  11    8.20    2.00
 -11  11   8    5.60    1.90
  11  11  -8    4.30    1.30
 -11 -11   9   32.00    3.70
  -9 -11  11   41.00    3.40
 -11  -9  11   40.80    3.60
 -11  11  -9   35.20    6.00
  11  11   9   34.10    4.70
   9  11  11   31.80    4.40
  -9  11  11   39.90    4.20
 -11  11   9   44.10    4.40
   9  11 -11   42.30    3.80
  11   9 -11   37.10    4.20
  11  11  -9   33.40    3.90
 -11 -11  10   -0.30    1.60
 -10 -11  11    0.70    1.30
 -11 -10  11    1.50    1.40
 -11  10 -11   -0.90    1.60
 -11  10  11   -0.30    1.90
  11  10 -11    0.00    0.90
 -11  11  10   -1.40    1.70
 -10  11  11   -1.50    1.90
  10  11 -11    0.90    1.00
  11  11 -10    0.10    0.90
 -11 -11  11   50.29    4.20
 -11  11 -11   43.10    7.30
 -11  11  11   55.59    4.90
  11  11 -11   51.99    4.30
   0   0  12   27.80    2.80
   0   0 -12   27.50    2.50
   0  12   0   27.80    2.60
   0  12   0   25.40    2.30
   1  12   0   -0.30    0.50
  -1  12   0    0.00    0.50
   1  12   0    0.20    0.90
  -1  12   0    0.60    0.90
   0   1  12    1.40    1.10
   0  -1 -12    1.10    0.60
   0  -1  12   -0.60    1.00
   0   2 -12  362.36   16.80
   2  12   0  360.76   16.70
   2  12   0  333.87   16.00
  -2  12   0  364.16   16.60
  -2  12   0  357.46   16.00
   0   2  12  335.97   16.60
   0  -2 -12  347.17   16.70
 -12   0   2  367.66   16.30
   0  -2  12  321.37   16.60
   3  12   0    7.80    1.90
   0  -3 -12   10.60    2.20
   0   4 -12  904.21   41.10
   0   4  12  850.61   40.40
   0  -4  12  864.41   40.60
  -4  12   0  915.31   39.10
   0  -4 -12  831.62   41.00
 -12   0   4  900.21   40.20
   4  12   0  877.71   39.10
   0   5  12    2.90    1.30
 -12   0   5    0.40    0.90
   0  -5 -12    1.60    0.80
   0  -5  12    0.20    1.30
  -5  12   0    2.10    1.00
  -6  12   0 1008.10   41.50
   0  -6 -12  896.31   43.50
   0   6 -12  950.90   43.60
   0  -6  12  940.81   43.10
   0   6  12  929.81   42.90
   6  12   0  852.71   41.60
 -12   0   6  937.21   42.70
  -7  12   0   -0.90    1.00
   0   7 -12   -0.30    0.80
 -12   0   7   -1.30    1.00
   7  12   0    1.80    1.20
   0   8 -12  441.46   21.70
 -12   0   8  438.86   21.20
   8  12   0  442.86   20.80
  -8  12   0  494.35   20.70
   0  -8  12  452.55   21.70
   9  12   0   -1.00    1.30
   0  10  12    0.80    1.30
  10  12   0    1.20    1.50
 -12   0  10   -0.30    1.20
   0  10  12    1.10    1.70
   0 -10  12    0.50    1.80
   0  10 -12    1.30    1.00
   0  11  12   -0.80    1.70
   0  11 -12    0.40    1.10
   0  11  12   -1.80    1.40
   0 -11  12   -0.70    1.80
 -12   0  11   -0.30    1.40
   0  11 -12   -0.80    0.80
  -1   0 -12   15.00    2.30
   0  12   1   17.20    2.30
   0  12  -1   13.30    1.80
  -1   0  12   12.60    2.40
   0  12  -1   15.10    2.30
   1   0  12   16.20    2.60
   1  12   1    2.00    0.90
   1  -1 -12    1.40    0.60
  -1  12  -1    3.00    1.00
  -1  -1  12   -0.30    1.10
  -1  12  -1    0.80    0.50
   1   1  12    2.30    1.10
  -1   1  12    1.60    1.20
  -1  -1 -12    1.50    0.70
   1  12  -1    0.80    0.90
  -1  12   1    1.50    0.90
   1  12  -1    0.70    0.50
   1  -1  12    1.70    1.20
   1   2  12   11.40    2.40
  -1  -2  12    5.70    1.40
   1  -2 -12    8.20    1.90
  -2  12  -1   10.40    2.20
  -2  12  -1    9.10    1.80
   1  -2  12   11.40    2.60
   2  12  -1    9.80    2.20
  -2  12   1   11.10    2.10
   1   2 -12   12.30    2.20
 -12   1   2    6.30    1.20
  -1  -3  12  102.49    5.90
   1   3  12  105.79    5.90
  -3  12  -1  108.99    5.60
  -1   3 -12  106.79    5.80
   3  12   1  102.49    5.50
  -3  12  -1  111.29    5.60
 -12  -1   3  102.79    5.50
   1  -3 -12  101.49    5.70
   1   3 -12  112.19    5.80
   3  12  -1   99.39    5.70
  -1   3  12  111.39    5.90
   3  12  -1  106.99    5.60
   1  -3  12  109.89    6.10
  -1  -3 -12  108.49    5.80
  -3  12   1  108.59    5.50
 -12   1   3  106.09    5.50
  -1  -4  12   13.20    2.50
  -4  12  -1   13.60    2.40
  -1   4 -12    9.60    2.40
   1  -4 -12   10.00    2.50
   1   4  12   13.00    2.70
   4  12   1   15.50    2.40
   4  12  -1   15.20    2.20
   1  -4  12   14.00    3.00
  -4  12   1   14.30    2.20
   1   4 -12   13.90    2.40
  -5  12  -1  117.59    6.10
   1   5  12  115.89    6.40
  -1   5 -12  117.89    6.40
   1  -5 -12  118.39    6.50
   5  12   1  118.99    6.10
  -1  -5  12  111.29    6.50
 -12  -1   5  112.69    6.00
  -1  -5 -12  110.99    6.40
  -5  12   1  120.49    6.00
  -1   5  12  120.59    6.30
   5  12  -1  119.49    6.40
   1   5 -12  114.19    6.30
   1  -5  12  115.49    6.80
   5  12  -1  119.99    6.10
 -12   1   5  113.59    6.00
  -1   6 -12    1.70    0.90
  -6  12  -1    2.30    1.10
   1   6  12    1.60    1.40
  -1  -6 -12    1.60    1.00
   1   6 -12    1.60    0.80
   1  -6  12    1.20    1.50
  -6  12   1    1.90    1.00
  -1   6  12    2.90    1.40
  -1  -7  12   -0.70    1.40
  -7  12  -1   -0.30    1.10
   7  12   1    1.00    1.20
  -1   7 -12    0.90    0.90
 -12  -1   7   -0.50    1.00
  -1  -7 -12   -0.60    1.10
  -7  12   1   -1.30    1.00
   1  -7  12   -0.20    1.70
 -12   1   7   -0.20    1.10
   7  12  -1    2.40    1.20
  -1   7  12   -0.50    1.40
   1   7 -12    0.30    0.80
  -1   8 -12   43.90    3.80
 -12  -1   8   41.80    3.50
   1   8  12   39.10    4.20
  -8  12  -1   53.49    3.70
  -1  -8  12   46.10    4.10
   8  12   1   51.19    4.00
  -1   8  12   48.80    4.10
  -8  12   1   50.79    3.80
   1  -8  12   55.09    4.80
   1   8 -12   45.60    3.80
   8  12  -1   56.19    3.90
 -12  -1   9   41.20    3.50
  -1  -9  12   44.50    4.20
   1   9  12   43.20    4.10
  -1   9 -12   41.70    3.60
   9  12   1   48.40    4.10
 -12   1   9   39.30    3.60
  -9  12   1   35.90    4.20
   1  -9  12   47.30    4.70
   9  12  -1   49.20    4.00
   1   9 -12   41.90    3.50
   1   9 -12   41.90    3.10
  -1   9  12   41.90    4.00
  -1  10 -12   -0.90    0.90
 -12  -1  10   -1.80    1.30
   1  10  12   -2.40    1.60
  10  12   1   -0.20    1.40
  -1 -10  12   -0.90    1.50
  -1  10 -12   -0.60    0.80
   1  10  12   -1.70    1.20
   1  10 -12   -0.90    0.90
  -1  10  12   -1.40    1.50
   1 -10  12   -0.40    1.90
  10  12  -1    2.70    1.60
 -12   1  10   -1.80    1.30
   1  11  12  134.29    7.60
  11  12   1  132.89    8.10
 -12  -1  11  130.39    7.20
  -1  11 -12  130.99    6.80
  -1  11 -12  130.39    7.20
  -1 -11  12  140.59    7.70
   1  11  12  127.99    7.20
 -11  12  -1  132.49    7.50
   1  11 -12  126.49    6.70
   1  11 -12  128.69    7.30
   1 -11  12  133.69    8.20
  -1  11  12  136.39    7.50
  11  12  -1  149.69    8.20
  -1  11  12  119.79    7.30
 -12   1  11  130.69    7.20
   2   0 -12   70.19    4.00
  -2   0  12   62.99    4.30
   2   0  12   74.99    4.80
   0  12   2   72.19    4.00
   0  12  -2   69.09    3.90
   0  12  -2   68.99    4.10
   1  12   2   39.80    2.90
  -1  12  -2   40.70    2.90
  -2  -1  12   34.40    3.10
  -1  12  -2   37.90    2.60
  -2   1 -12   34.80    3.20
   2  -1 -12   40.10    2.90
   1  12  -2   37.00    3.00
  -1  12   2   40.00    2.90
 -12   2   1   40.20    2.90
  -2   1  12   40.20    3.20
   1  12  -2   34.30    2.60
   2   1 -12   42.40    2.80
   2  -2 -12   94.59    5.20
  -2  12  -2   94.09    5.00
  -2   2 -12   92.69    5.30
   2  12   2   91.09    5.00
  -2  12  -2   95.49    5.10
  -2  -2  12   80.19    5.30
   2   2  12   99.79    5.80
 -12   2   2   92.29    4.90
  -2  -2 -12  108.49    5.40
   2   2 -12   88.59    5.20
   2  12  -2   88.39    5.00
  -2  12   2   96.59    4.90
   2  -2  12   99.09    5.90
  -2   2  12   93.39    5.30
   2  12  -2   91.09    5.10
  -2   3 -12   57.69    3.90
   3  12   2   54.29    3.50
  -3  12  -2   59.19    3.70
  -3  12  -2   54.59    3.50
   2   3  12   60.99    4.30
 -12  -2   3   52.09    3.50
   2  -3 -12   59.79    3.90
  -2  -3  12   50.79    3.90
 -12   2   3   53.49    3.50
  -2   3  12   59.49    3.90
   2   3 -12   61.59    3.70
   3  12  -2   52.39    3.60
   3  12  -2   59.89    3.70
  -2  -3 -12   65.09    4.00
   2  -3  12   61.19    4.60
  -3  12   2   62.49    3.50
  -4  12  -2  373.26   16.80
  -2  -4  12  337.07   16.80
   2   4  12  344.17   16.90
   2  -4 -12  347.57   17.00
  -4  12  -2  367.76   16.20
  -2   4 -12  350.16   16.90
   4  12   2  331.67   16.10
 -12  -2   4  370.56   16.50
  -2   4  12  346.17   16.70
  -4  12   2  352.56   16.00
   2   4 -12  357.86   16.90
   2  -4  12  346.77   17.30
 -12   2   4  359.96   16.50
   4  12  -2  355.56   17.00
  -2  -4 -12  360.26   17.00
   4  12  -2  338.47   16.10
   2   5  12  172.68    9.00
  -2   5 -12  172.38    8.70
   2  -5 -12  176.48    9.30
  -5  12  -2  177.98    8.40
   5  12   2  168.58    8.50
  -5  12  -2  173.68    8.70
 -12  -2   5  168.88    8.40
  -2  -5  12  167.58    8.80
   5  12  -2  169.98    8.80
  -5  12   2  177.48    8.30
   2   5 -12  174.68    8.80
 -12   2   5  170.98    8.50
   2  -5  12  167.98    9.50
  -2   5  12  169.98    8.80
   5  12  -2  177.08    8.40
  -2  -5 -12  169.98    8.90
 -12  -2   6  767.42   35.60
  -6  12  -2  830.72   34.70
  -2   6 -12  770.82   36.40
   2   6  12  766.42   35.90
   2   6 -12  784.12   36.40
  -2   6  12  753.42   35.80
 -12   2   6  799.62   35.70
   6  12  -2  781.42   36.50
   2  -6  12  763.42   36.50
   6  12  -2  725.33   34.80
  -2  -6 -12  764.92   36.40
  -6  12   2  792.22   34.50
  -2   7 -12   99.59    5.70
  -2  -7  12   91.39    5.80
 -12  -2   7   92.99    5.30
   2   7  12   94.39    6.00
   7  12   2   98.79    5.70
  -7  12  -2  106.89    5.50
   2  -7  12  103.29    7.50
   2   7 -12  105.09    5.70
   7  12  -2  104.29    5.50
 -12   2   7  102.99    5.40
  -2  -7 -12   84.39    6.10
  -7  12   2   99.79    5.40
   7  12  -2   97.39    5.90
  -2  -8  12  573.04   27.10
   2   8  12  587.14   27.20
 -12  -2   8  579.04   26.80
   8  12   2  552.74   26.30
  -2   8 -12  579.84   27.40
   2  -8  12  584.64   27.80
  -8  12   2  616.74   26.10
   2   8 -12  563.94   27.40
   8  12  -2  565.24   26.20
  -2   8  12  581.24   27.10
   9  12   2   71.39    4.90
   2   9  12   58.39    4.40
 -12  -2   9   64.59    4.40
  -9  12  -2   70.29    4.80
  -2  -9  12   65.99    4.80
  -2   9 -12   65.89    4.50
 -12   2   9   68.79    4.50
   9  12  -2   75.19    4.80
   2  -9  12   59.19    5.80
   2   9 -12   65.49    4.00
   2   9 -12   67.99    4.50
  -2   9  12   66.49    4.70
 -12  -2  10   70.09    4.40
  10  12   2   70.79    5.20
  -2  10 -12   66.09    4.50
   2  10  12   64.79    5.10
 -10  12  -2   63.69    4.70
   2  10  12   57.99    4.50
  -2 -10  12   65.49    4.80
   2  10 -12   62.69    4.10
   2  10 -12   67.49    4.50
 -12   2  10   66.29    4.60
  -2  10  12   62.99    4.80
  10  12  -2   78.39    5.10
   2 -10  12   56.49    5.80
 -12  -2  11    1.80    1.40
  -2 -11  12    1.10    1.60
 -11  12  -2    0.10    1.60
  -2  11 -12    0.50    0.90
 -12   2 -11   -1.80    1.40
  11  12   2    2.90    1.90
   2  11  12   -1.10    1.30
   2  11  12   -1.20    1.90
  -2  11 -12    0.80    1.10
  -2  11  12    2.30    1.60
   2 -11  12   -1.80    2.10
   2  11 -12    0.70    1.10
 -12   2  11    0.40    1.40
  11  12  -2    3.70    1.80
   2  11 -12   -0.10    0.90
   3   0  12  248.48   12.90
 -12   3   0  285.47   11.90
  -3   0 -12  250.47   12.40
   0  12  -3  255.77   11.70
   0  12  -3  248.88   12.10
   3   0 -12  236.98   12.20
  -3   0  12  241.78   12.20
   0  12   3  240.18   11.60
  -1  12  -3   17.40    2.10
  -1  12  -3   20.50    2.50
  -3  -1  12   15.90    2.60
   1  12   3   23.00    2.40
  -3   1 -12   17.10    2.80
  -3   1  12   19.50    2.60
   3   1 -12   25.80    2.20
 -12   3   1   23.20    2.40
   1  12  -3   19.90    2.10
  -1  12   3   24.00    2.20
   1  12  -3   21.30    2.50
  -3  -1 -12   21.10    2.70
  -3   2 -12   24.60    2.80
  -2  12  -3   21.90    2.30
   2  12   3   29.60    2.60
  -2  12  -3   26.80    2.70
  -3  -2  12   22.70    2.80
  -3  -2 -12   29.60    3.00
   2  12  -3   27.00    2.60
  -2  12   3   28.10    2.30
   3   2 -12   28.90    2.50
  -3   2  12   25.00    2.80
 -12   3   2   22.30    2.40
  -3   3 -12  119.89    6.60
  -3  12  -3  125.49    6.20
  -3  -3  12  110.39    6.40
   3  12   3  121.49    6.20
   3   3  12  137.99    7.40
  -3  12  -3  112.79    6.10
   3  -3 -12  121.59    6.80
   3   3 -12  122.29    6.40
  -3   3  12  120.39    6.40
   3  -3  12  123.69    7.70
   3  12  -3  119.99    6.20
  -3  12   3  118.49    6.00
 -12   3   3  120.59    6.10
   3  12  -3  113.79    6.40
 -12  -3   4   16.40    2.30
   3  -4 -12   22.50    4.40
  -4  12  -3   12.20    2.10
  -4  12  -3   15.70    2.50
   4  12   3   17.80    2.30
  -3   4 -12   11.50    2.70
   3  -4  12   21.30    4.50
   4  12  -3   18.10    2.20
  -3   4  12   18.20    2.80
   4  12  -3   14.90    2.40
  -4  12   3   17.20    2.10
   3   4 -12   20.20    2.40
  -5  12  -3   37.40    3.10
  -5  12  -3   42.00    3.30
   3   5  12   47.60    4.70
   5  12   3   43.20    3.60
 -12  -3   5   38.50    2.90
  -3   5 -12   37.00    3.50
 -12   3   5   33.20    2.90
   5  12  -3   36.30    3.30
  -3   5  12   44.40    3.50
   3   5 -12   44.20    3.20
   5  12  -3   48.90    3.10
   3  -5  12   44.20    5.20
  -5  12   3   38.50    2.90
  -3   6 -12    3.30    0.90
  -6  12  -3    1.90    1.10
  -3  -6  12    4.80    1.50
  -6  12  -3    2.50    0.90
   3   6  12    5.90    2.10
 -12  -3   6    1.60    1.10
   6  12   3    3.50    1.20
   3  -6  12    4.60    2.40
  -6  12   3    3.70    1.00
 -12   3   6    3.80    1.20
   3   6 -12    2.20    0.90
   6  12  -3    2.30    0.90
   7  12   3    3.30    1.20
  -3  -7  12    0.70    1.40
  -3   7 -12    0.30    0.90
 -12  -3   7    0.90    1.10
   3   7  12    0.40    2.00
   3  -7  12    0.90    3.00
 -12   3   7   -0.20    1.10
   3   7 -12   -0.20    0.90
  -3   7  12    2.60    1.40
  -3  -7 -12   -0.50    1.10
  -7  12   3    0.30    1.10
   7  12  -3    0.80    0.90
   3   7 -12    1.80    0.80
   3   8  12   69.29    5.60
  -3   8 -12   68.19    4.70
   8  12   3   70.59    4.80
 -12  -3   8   65.89    4.30
  -3  -8  12   66.39    4.70
  -8  12  -3   73.39    4.70
   8  12  -3   81.09    4.60
  -8  12   3   65.59    4.70
   3  -8  12   64.89    6.70
  -3  -8 -12   57.89    5.20
  -3   8  12   74.29    4.80
   8  12  -3   67.59    5.00
 -12   3   8   66.39    4.50
   3   8 -12   71.69    4.50
   3   9  12   67.29    4.80
 -12  -3   9   76.99    4.70
  -9  12  -3   79.99    5.00
   9  12   3   77.19    5.30
  -3   9 -12   76.29    4.90
  -3  -9  12   70.79    5.10
 -12   3   9   75.49    4.90
   3  -9  12   62.59    7.00
  -3   9  12   77.09    5.10
   3   9 -12   83.09    4.90
   9  12  -3   85.29    5.10
   3   9 -12   76.69    4.50
  10  12   3  133.79    7.70
  -3 -10  12  129.39    7.40
   3  10  12  131.79    7.90
   3  10  12  122.59    7.20
 -12  -3  10  139.99    7.10
 -12   3 -10  128.79    8.50
 -10  12  -3  142.19    7.30
  -3  10 -12  135.59    7.40
   3  10 -12  127.39    6.80
 -12   3  10  134.39    7.30
  -3  10  12  131.99    7.40
  10  12  -3  145.09    7.60
   3 -10  12  127.89    9.20
   3  10 -12  129.59    7.30
  11  12   3    1.50    1.70
 -12   3 -11    0.00    1.50
   3  11  12    2.10    2.20
  -3  11 -12    2.20    1.20
 -11  12  -3    0.00    1.50
   3  11  12   -0.30    1.30
  -3 -11  12    1.20    1.50
 -12  -3  11    3.30    1.40
  -3  11 -12    1.60    0.90
   3  11 -12    1.90    0.90
  12   3 -11   -2.60    3.50
  -3  11  12    1.80    1.60
  11  12  -3    3.10    2.00
 -12   3  11    2.70    1.60
   3  11 -12    0.70    1.10
  12   4   0    8.80    2.80
   0  12   4    6.10    1.00
   0  12  -4    4.50    0.70
   0  12  -4    6.10    1.10
  -4  -1  12   11.60    2.40
  -1  12  -4   13.60    2.10
   1  12   4   16.40    2.20
  12   4   1    9.40    2.60
  -1  12  -4   11.10    1.90
 -12   4  -1   16.90    2.50
 -12   4   1   13.40    2.20
  12   4  -1   14.00    3.30
   1  12  -4   13.20    2.40
  -1  12   4   11.30    1.90
  -4   1  12   17.20    2.60
  -2  12  -4   14.30    1.80
  -4  -2  12   14.20    2.60
   2  12   4   19.50    2.40
  -2  12  -4   16.70    2.40
  -4  -2 -12   11.80    2.80
   2  12  -4   16.60    2.30
  -2  12   4   15.60    2.00
   2  12  -4   12.50    2.20
  -4   2  12   16.60    2.70
  12   4  -2   16.30    3.50
 -12   4   2   12.90    2.10
  -3  12  -4   39.30    3.00
  12   4   3   33.30    4.10
  -3  12  -4   34.80    2.60
  -4  -3  12   31.20    3.20
   4  -3 -12   45.20    5.10
   3  12   4   43.20    3.10
  -3  12   4   36.60    2.60
   3  12  -4   38.20    3.00
  -4   3  12   39.80    3.30
   3  12  -4   35.80    3.00
  -4  -3 -12   35.60    3.50
 -12   4   3   34.20    2.80
   4  -3  12   42.00    7.60
   4   3 -12   43.40    3.10
   4  12   4  129.29    6.60
  -4  -4  12  113.09    6.80
  -4  12  -4  123.29    6.50
  -4  12  -4  127.89    6.50
  -4   4 -12  126.09    7.00
   4   4  12  148.39    9.00
 -12  -4   4  137.69    6.50
  -4  12   4  129.79    6.30
  -4  -4 -12  133.89    7.10
   4  12  -4  126.39    6.50
   4   4 -12  129.39    6.70
  -4   4  12  129.49    6.80
   4   4 -12  114.59    6.20
   4  12  -4  116.49    6.80
 -12   4   4  132.39    6.60
  -4   5 -12   62.09    4.30
 -12  -4   5   60.49    3.80
  -5  12  -4   59.29    4.00
  -5  12  -4   57.69    3.80
   5  12  -4   59.19    4.10
  -4  -5 -12   67.09    4.60
   4   5 -12   52.39    3.60
 -12   4   5   59.19    3.90
   4   5 -12   68.99    4.10
   5  12  -4   72.29    3.90
  -5  12   4   58.49    3.70
  -4  -6  12  528.45   25.40
  -4   6 -12  537.55   25.80
   4   6  12  585.04   26.10
  -6  12  -4  541.75   25.60
   6  12   4  532.05   24.70
 -12  -4   6  557.74   25.10
 -12   4   6  572.54   25.30
   4   6 -12  489.25   24.30
  -4   6  12  544.15   25.40
   6  12  -4  536.45   25.80
  -6  12   4  551.74   24.40
   4   6 -12  538.15   25.70
  -7  12  -4  102.89    5.80
  -7  12  -4   96.09    5.80
  -4  -7  12   92.89    5.70
 -12  -4   7   96.49    5.40
   7  12   4  104.79    5.90
  -4   7 -12  105.09    5.90
   4   7  12  114.79    7.70
   7  12  -4   94.79    5.90
  -7  12   4   95.69    5.60
  -4   7  12  103.59    5.90
   7  12  -4  107.79    5.50
   4   7 -12  105.79    5.80
  -4  -7 -12  100.79    6.40
   4   7 -12   86.19    5.30
  -4  -8  12  318.07   15.30
   8  12   4  305.27   15.10
   4   8  12  345.47   16.10
  -4   8 -12  319.37   15.80
  -8  12  -4  333.77   14.90
  -4  -8 -12  275.07   15.70
   8  12  -4  315.67   15.70
   4   8 -12  307.57   15.50
   8  12  -4  327.07   14.80
  -4   8  12  316.97   15.40
 -12   4   8  323.17   15.20
   9  12   4  107.99    6.80
 -12   4  -9  112.09    7.70
   4   9  12  121.49    8.10
  -4  -9  12  109.09    6.50
  -4   9 -12  124.39    6.70
 -12  -4   9  113.79    6.20
  -9  12  -4  121.89    6.60
   4   9  12  104.79    6.50
   4   9 -12  113.19    6.10
 -12   4   9  120.49    6.50
  -4   9  12  122.19    6.70
   9  12  -4  120.19    6.50
   9  12  -4  106.99    6.90
   4   9 -12  120.19    6.60
 -12   4 -10   74.99    6.20
  -4  10 -12   74.59    4.90
  -4 -10  12   67.99    4.80
 -10  12  -4   70.59    5.00
 -12  -4  10   71.29    4.50
   4  10  12   60.59    4.80
  10  12   4   68.89    5.40
   4  10 -12   76.79    4.80
   4  10 -12   68.79    4.40
  -4  10  12   70.29    5.00
 -12   4  10   69.39    4.90
  10  12  -4   80.79    5.50
 -11  12  -4    6.20    1.70
  -4  11 -12    4.90    1.10
 -12   4 -11    3.30    1.60
   4  11  12    6.30    1.60
  -4 -11  12    9.20    1.80
  11  12   4   10.00    2.00
  -4  11  12    7.70    1.70
   4  11 -12   11.50    2.70
  12   4 -11    3.60    2.80
   0  12   5  320.67   15.00
   5   0  12  332.87   22.50
   0  12  -5  320.97   15.80
  -5   0 -12  336.37   16.10
  -5   0  12  327.07   15.70
   0  12  -5  334.57   15.10
   5   0 -12  330.07   16.00
  12   5   1    3.30    2.50
  -5  -1  12    8.40    1.50
  -1  12  -5    7.00    1.20
   1  12   5    6.50    1.10
   1  12  -5    5.80    0.90
   5  -1  12   19.10    7.00
  -5   1  12    7.00    1.40
  -1  12   5    9.50    1.90
  12   5  -1    9.30    4.40
 -12   5   1    9.00    2.20
  -5  -1 -12    4.20    1.10
  -5  -2  12  104.39    6.10
  -2  12  -5  110.89    5.80
  -5   2 -12  109.49    6.30
   2  12   5  108.89    5.80
   5  -2 -12  116.99    7.60
   5   2 -12  114.39    6.20
   2  12  -5  112.19    5.80
  12   5  -2   96.59   13.00
   2  12  -5  113.19    6.00
   5  -2  12   88.09   14.40
  -2  12   5  111.89    5.70
 -12   5   2  128.29    5.90
  -5   2  12  113.09    6.20
  -5  -2 -12  118.49    6.50
   5  -3 -12    2.20    2.40
   5   3  12   10.20    5.40
  -5   3  12    0.10    1.40
  12   5  -3   -0.70    5.20
   5  -3  12    7.20    5.90
   5   4  12   10.90    4.80
 -12  -5   4    2.80    1.30
   4  12  -5    3.00    1.10
   5  -4  12    5.30    5.20
   5   4 -12    3.90    0.80
  -5   5 -12    2.50    1.00
  -5  -5  12    2.70    1.30
  -5  12  -5    4.10    1.20
   5   5  12   11.80    4.70
   5   5 -12    5.80    1.20
  -5  12   5    4.40    1.10
  -5  -5 -12    3.50    1.20
   5  12  -5    3.10    0.90
 -12   5   5    4.30    1.30
   5  -5  12    4.60    4.60
  -5   6 -12   44.40    4.00
  -6  12  -5   50.99    3.80
  -5  -6  12   42.30    3.70
  -6  12  -5   49.70    3.60
   6  12   5   55.79    4.00
 -12  -5   6   50.49    3.40
   6  12  -5   51.89    3.50
  -6  12   5   42.90    3.70
   5   6 -12   41.90    3.60
 -12   5   6   43.30    3.60
   6  12  -5   42.70    3.80
  -5   6  12   57.69    3.90
   5   6 -12   49.60    3.60
  -7  12  -5    1.00    1.30
 -12  -5   7    2.90    1.20
 -12   5  -7    0.80    1.20
   7  12   5    3.50    1.30
  -5   7 -12    0.40    1.00
  -7  12  -5    2.20    0.90
  -5  -7  12    0.40    1.40
   5   7 -12    1.60    1.20
   5  -7  12   -5.40    4.20
   7  12  -5    1.20    1.00
 -12   5   7    1.20    1.50
  -8  12  -5   84.59    5.20
 -12   5  -8   74.19    6.20
  -8  12  -5   80.59    5.30
   8  12   5   76.79    5.30
  -5  -8  12   79.39    5.10
  -5   8 -12   86.09    5.40
 -12  -5   8   84.49    4.90
   8  12  -5   91.99    5.10
  -5   8  12   89.19    5.30
   8  12  -5   70.89    5.20
   5   8 -12   84.79    5.10
 -12   5   8   82.29    5.10
   5   9  12    1.10    1.50
  -5  -9  12    3.00    1.50
  -9  12  -5    2.60    1.50
 -12  -5   9    4.70    1.40
   9  12   5    4.30    1.60
 -12   5  -9    1.40    1.50
  -5   9 -12    2.50    1.00
 -12   5   9    3.30    1.50
   5   9 -12    3.90    1.00
   5   9 -12    3.60    1.20
   9  12  -5    1.90    1.10
   9  12  -5    5.90    1.50
 -10  12  -5   65.09    4.80
  10  12   5   64.29    5.10
   5  10  12   57.09    4.80
  -5  10 -12   65.69    4.80
  -5 -10  12   60.49    4.50
 -12   5 -10   60.99    5.90
 -12  -5  10   66.79    4.30
   5  10 -12   70.19    4.60
   5  10 -12   62.99    4.30
  10  12  -5   72.29    5.10
  -5  10  12   70.09    4.80
 -12   5  10   66.09    4.80
  10  12  -5   55.59    4.90
 -11  12  -5   -1.90    1.50
  -5 -11  12   -0.90    1.20
 -12   5 -11   -0.60    1.50
   5  11  12   -1.60    1.30
 -12  -5  11    0.80    1.30
  11  12   5    1.60    1.70
  -5  11 -12   -0.30    1.00
   5  11 -12   -0.70    1.30
  12   5 -11   -0.40    2.00
 -12   5  11   -1.10    1.50
  11  12  -5    1.70    2.00
   5  11 -12    0.70    0.90
  -5  11  12    0.50    1.70
  -6   0 -12   76.69    5.10
   6   0  12   56.29   10.60
   0  12  -6   76.89    4.30
   0  12   6   72.09    4.20
   6   1  12   10.80    9.30
   6  -1  12    5.60    8.40
  12   6  -1   -3.40    5.30
  -2  12  -6   46.50    3.20
  -6   2 -12   40.20    4.00
   2  12   6   46.60    3.40
  -6  -2 -12   47.20    4.10
   2  12  -6   48.60    3.40
  -2  12   6   45.90    3.00
   6   2 -12   54.89    3.80
  -3  12  -6    3.00    0.70
  -6  -3  12    1.10    1.30
  -3  12  -6    1.90    1.00
   3  12  -6    1.40    0.70
  -3  12   6    1.10    0.90
   6  -3  12    6.40    6.90
  -6   3  12    3.50    1.30
   6   3 -12    3.00    0.80
 -12   6   3    2.40    1.20
  12   6  -3    8.10    7.80
   4  12   6    0.10    1.00
  -4  12  -6    1.00    0.70
  -4  12  -6   -0.80    1.10
   6  -4  12   -2.30    6.30
   4  12  -6   -0.10    0.80
  -4  12   6   -0.30    1.00
  -6   4  12    1.30    1.30
   4  12  -6    1.10    1.10
   6   4 -12    1.20    0.80
  -5  12  -6    1.80    0.70
   5  12   6    1.80    1.20
  -6  -5  12    0.60    1.30
  12   6   5   -1.00    1.90
  -6   5 -12   -0.60    1.00
  -5  12  -6    0.90    1.10
 -12   6  -5    0.00    1.10
 -12  -6   5    1.10    1.40
   5  12  -6    2.70    1.10
   5  12  -6    0.10    0.80
 -12   6   5   -1.50    1.20
  -5  12   6   -0.80    1.20
 -12  -6   6  159.38    7.60
   6  12   6  146.79    7.80
  -6   6 -12  143.29    8.00
  -6  12  -6  153.18    7.50
  -6  -6  12  139.59    7.60
 -12   6  -6  149.69    8.40
  -6  12  -6  147.09    7.70
  12   6   6  124.19    8.70
   6  12  -6  135.79    7.80
  -6   6  12  148.99    7.80
   6  12  -6  146.19    7.40
 -12   6   6  150.78    7.70
   6   6 -12  149.99    7.80
  -6   7 -12    2.60    1.10
 -12   6  -7    3.00    1.40
  -6  -7  12    3.30    1.30
   7  12   6    4.60    1.40
  -7  12  -6    2.70    1.00
  -7  12  -6    1.60    1.30
 -12  -6   7    3.70    1.30
 -12   6   7    2.40    1.60
   7  12  -6    1.60    0.90
   6   7 -12    2.20    1.50
  -8  12  -6  118.49    6.60
  -6   8 -12  121.49    6.80
  -6  -8  12  111.59    6.40
   8  12   6  118.19    6.90
 -12  -6   8  120.69    6.30
  -8  12  -6  118.99    6.80
 -12   6  -8  105.79    7.50
   8  12  -6  110.29    6.70
  -6   8  12  122.19    6.70
  12   6  -8   96.09    7.80
 -12   6   8  122.09    6.60
   8  12  -6  121.59    6.30
   6   8 -12  118.59    6.60
 -12  -6   9    4.40    1.30
  -9  12  -6    2.00    1.40
  -6   9 -12    1.70    1.10
  -6  -9  12    2.50    1.30
 -12   6  -9    0.70    1.50
   9  12   6    3.70    1.50
 -12   6   9    2.30    1.60
   6   9 -12    3.50    1.40
  12   6  -9    0.40    1.60
   9  12  -6    3.80    1.40
   6   9 -12    3.00    0.90
 -10  12  -6    5.80    1.50
   6  10  12    6.30    1.50
  -6  10 -12    6.30    1.20
 -12   6 -10    4.50    1.50
  10  12  -6    6.10    1.20
  12   6 -10    6.70    1.80
 -12   6  10   11.10    1.90
 -12   6 -11   -0.70    1.40
 -12  -6  11    3.00    1.40
   6  11  12   -1.90    1.30
 -11  12  -6    0.30    1.50
  11  12   6    2.10    1.70
  -6 -11  12    2.30    1.20
  -6  11 -12    0.60    1.10
 -12   6  11    2.10    1.70
   6  11 -12    1.00    0.90
   6  11 -12    1.20    1.50
  11  12  -6    2.90    2.30
  12   6 -11    1.80    1.70
  -6  11  12    0.10    1.70
  -7   0  12   30.50    3.10
  -7   0 -12   28.00    3.90
   7   0 -12   36.40    5.40
   0  12  -7   29.40    2.80
   0  12   7   23.70    2.70
   0  12  -7   29.70    2.80
  12   7   1   -0.70    2.90
  -7  -1  12    0.10    1.20
  -1  12  -7    0.40    0.70
  -1  12  -7    0.30    1.00
   1  12  -7    1.10    1.00
   1  12  -7    0.10    0.70
  12   7  -1    9.80    5.20
   7   1 -12    3.10    1.30
  -7   1  12    0.50    1.30
  -1  12   7   -0.50    0.80
  -2  12  -7   27.70    2.80
  -2  12  -7   29.50    2.70
  -7  -2  12   28.50    3.10
   7  -2 -12   22.40    5.10
  -7   2 -12   26.70    3.80
  -7  -2 -12   27.10    3.80
   2  12  -7   31.50    2.80
   7  -2  12   16.80    5.50
  -2  12   7   23.80    2.60
  -7   2  12   32.00    3.00
   2  12  -7   28.90    2.90
  -7  -3  12   14.30    2.80
   3  12   7   16.10    2.90
  -3 -12   7   12.50    1.90
  -7   3 -12   13.90    3.50
  -3  12  -7   17.30    2.50
  -3  12  -7   18.60    2.60
   7  -3  12    6.10    5.30
  -7   3  12   21.00    2.90
  -3  12   7   14.40    2.50
  12   7  -3   11.50    7.90
   3  12  -7   17.50    2.60
   4  12   7    0.80    1.20
  -4  12  -7    3.50    1.10
  -4  12  -7    1.80    0.70
  -4 -12   7    0.00    1.30
  -7  -4  12    1.30    1.30
  12   7   4   -1.10    2.00
   7   4 -12    1.50    0.90
 -12   7   4   -0.50    1.50
   4  12  -7    1.60    1.10
  12   7  -4   -1.90    7.90
  -4  12   7    1.10    1.20
   7  -4  12   -2.00    5.30
 -12  -7   5   19.40    3.30
  -7  -5  12   14.40    2.70
  -5  12  -7   18.80    2.80
   5  12   7   19.00    3.10
  -5  12  -7   18.90    2.90
  -5 -12   7   15.80    2.80
 -12   7   5   13.10    1.90
   7   5 -12   19.10    3.10
   5  12  -7   11.50    2.70
   5  12  -7   15.80    2.70
  -6  12  -7    3.10    1.30
  -7  -6  12    2.60    1.40
  -6 -12   7    3.90    1.40
   6  12   7    3.60    1.50
  -6  12  -7    2.70    1.00
 -12  -7   6    4.40    1.60
   7   6 -12    2.50    1.00
 -12   7   6    0.40    1.50
  -7   6  12    4.60    1.50
  -7  -7  12    6.20    1.40
  12   7   7    2.00    2.10
  -7 -12   7   10.90    2.60
  -7  12  -7    6.10    1.10
 -12   7  -7    5.50    1.40
  -7   7 -12    3.80    1.20
  -7  12  -7    7.40    1.50
   7  12  -7    4.90    1.00
  12   7  -7    3.50    1.60
 -12   7   7    6.60    1.70
  -8  12  -7   30.30    3.60
  -7   8 -12   30.80    3.80
 -12   7  -8   27.00    4.40
  -7  -8  12   26.70    3.10
   8  12   7   34.70    3.70
  -8 -12   7   27.60    3.10
 -12  -7   8   32.20    3.10
  -8  12  -7   31.50    4.00
  -7   8  12   35.90    3.50
   8  12  -7   22.50    3.30
 -12   7   8   25.10    3.60
   7   8 -12   34.80    3.40
   8  12  -7   33.00    3.30
  12   7  -8   22.80    4.40
 -12  -7   9    1.70    1.30
 -12   7  -9    0.40    1.30
  -9  12  -7    0.20    1.30
  -7   9 -12    0.00    1.10
  -7  -9  12    1.10    1.30
   9  12   7    2.70    1.50
  -9  12  -7   -0.70    1.40
 -12   7   9   -0.10    1.50
   7   9 -12    0.80    0.90
   9  12  -7    2.80    1.50
  -7   9  12    3.50    1.70
  12   7  -9   -0.40    1.40
   9  12  -7    0.80    1.00
  -7  10 -12    7.00    1.50
  -7 -10  12   11.60    2.60
 -10  12  -7    7.60    1.70
  10  12   7    8.80    1.90
  -7  10  12    8.20    1.90
   7  10 -12    5.20    1.10
 -12   7  10    7.40    1.80
  12   7 -10    5.30    1.50
 -10  12   7   10.90    2.30
 -12  -7  11    3.50    1.40
  11  12   7    1.70    1.70
 -11  12  -7    0.30    1.50
  -7 -11  12    2.50    1.20
   7  11  12    1.10    1.40
 -12   7  11    2.50    1.80
 -11  12   7   -0.60    1.80
  -7  11  12    1.70    1.80
  -8   0 -12   27.40    4.10
  -8   0  12   34.60    3.30
   0  12  -8   32.50    3.00
  12   8   0   34.40    8.10
   8   0 -12   37.60    7.90
   0  12   8   25.30    2.80
   0  12  -8   36.40    3.00
 -12   8  -1   -0.50    1.40
  -8   1 -12   -0.70    1.20
  -8  -1  12    2.60    1.40
  -1  12  -8    2.00    1.00
  -1  12  -8    1.30    0.80
   8   1 -12    3.00    1.70
   1  12  -8    3.10    1.10
   1  12  -8    1.20    0.80
  12   8  -1    4.50    4.20
  -8   1  12    2.10    1.40
  -1  12   8    0.00    1.00
  -8  -2  12   10.70    2.70
  -2  12  -8   12.20    2.50
  -2  12  -8   15.70    2.60
   2  12  -8   11.20    2.60
  12   8  -2   10.10    5.60
  -8   2  12   13.50    2.80
   2  12  -8   14.80    2.50
   8   2 -12   18.40    4.40
   3  12   8   16.70    3.20
  -3  12  -8   24.70    2.90
  -3  12  -8   21.00    2.80
  -8  -3  12   23.50    3.00
   8   3 -12   23.00    4.00
  12   8  -3   14.60    6.40
   3  12  -8   25.80    2.80
  -3  12   8   19.70    3.10
  -8   3  12   24.80    3.10
   3  12  -8   20.30    2.90
  -8   4 -12   -1.50    1.20
   4  12   8    0.30    1.30
  12   8   4    0.40    2.10
  -4  12  -8    2.30    1.10
  -8  -4  12    1.80    1.30
  -4  12  -8    0.80    0.80
  -4 -12   8   -1.00    1.30
   4  12  -8    1.50    1.10
 -12   8   4   -2.00    1.50
  12   8  -4    6.40    6.40
   8   4 -12    1.20    1.10
  -4  12   8    1.60    1.50
  -8   4  12    3.50    1.50
   4  12  -8    0.80    0.80
  -8   5 -12   39.80    4.60
   5  12   8   45.50    4.00
  -5  12  -8   51.89    3.70
   5  12   8   34.10    4.90
  12   8   5   35.20    5.50
  -5 -12   8   39.80    3.60
 -12   8  -5   34.00    4.50
  -5  12  -8   47.70    3.80
  -8  -5  12   47.30    3.60
   5  12  -8   42.10    3.70
   5  12  -8   47.40    3.50
 -12   8   5   44.70    3.90
  -8   5  12   49.20    3.90
   8   5 -12   47.10    4.10
 -12  -8   6    9.80    1.90
  -6 -12   8    8.70    1.60
  -8  -6  12   13.80    2.80
  -6  12  -8   13.70    3.00
   6  12   8    8.30    1.70
  -6  12  -8   14.90    3.20
   6  12  -8   12.70    2.80
 -12   8   6    8.70    2.00
  -8   7 -12   16.00    3.70
  -7  12  -8   18.00    3.60
   7  12   8   20.50    3.40
  -7  12  -8   19.70    3.30
 -12  -8   7   21.60    3.10
  -8  -7  12   19.30    2.80
  -7 -12   8   19.50    2.90
 -12   8   7   18.30    3.40
   7  12  -8   15.30    3.10
   7  12  -8   21.30    3.00
  -8   7  12   25.30    3.30
   8   7 -12   21.10    3.30
  -8  12  -8   -0.30    1.10
   8  12   8   -0.10    1.40
  -8 -12   8   -0.80    1.30
  -8  -8  12   -0.20    1.20
  -8   8 -12   -0.90    1.10
 -12   8  -8   -1.50    1.30
 -12  -8   8    0.80    1.40
  -8  12  -8   -0.20    1.40
  12   8  -8   -0.90    1.20
  -8   8  12    1.90    1.50
 -12   8   8   -1.30    1.60
   8   8 -12    1.10    0.90
   8  12  -8    0.60    0.90
   8  12  -8    1.50    1.30
  -9 -12   8   21.40    3.10
  -8   9 -12   27.00    3.90
   9  12   8   20.70    3.50
  -9  12  -8   21.20    3.50
  -9  12  -8   26.40    4.70
 -12  -8   9   27.90    3.10
  -8  -9  12   26.50    2.90
 -12   8   9   23.60    3.70
  12   8  -9   18.90    4.10
  -8   9  12   24.40    3.60
   9  12  -8   26.10    3.30
  -9  12   8   24.10    4.00
   8   9 -12   25.70    3.40
   9  12  -8   28.00    4.00
  10  12   8    2.20    1.70
 -10  12  -8    1.10    1.60
 -12  -8  10    4.00    1.50
  -8 -10  12    3.20    1.20
 -12   8 -10    3.10    1.60
  -8  10 -12    1.90    1.30
  10  12  -8    3.10    2.20
 -12   8  10    3.60    1.80
 -10  12   8    1.70    1.80
  12   8 -10    1.90    1.30
  -8  10  12    3.40    1.90
 -11  12  -8    9.50    1.80
  11  12   8   13.30    2.20
 -12   8 -11   11.20    2.00
  -8  11 -12   21.00    4.40
  -8  11  12   17.10    3.60
 -11  12   8   16.90    3.80
 -12   8  11   15.50    3.60
  11  12  -8   13.50    3.20
  -9   0 -12   73.69    6.40
   9   0 -12   73.09   12.80
  -9   0  12   92.49    5.30
   0  12   9   90.59    5.20
   0  12  -9   94.29    4.90
  12   9   0   71.49    8.10
   0  12  -9   88.59    5.10
 -12   9  -1    2.20    1.60
  -9   1 -12    2.90    1.40
  -9  -1  12    5.60    1.50
  12   9   1    6.20    2.50
   1  12   9    3.10    1.30
  -1  12  -9    3.10    0.90
  -1 -12   9   -0.40    1.60
   9   1 -12    3.00    2.40
  12   9  -1    7.40    3.20
   1  12  -9    2.00    0.80
  -9   1  12    4.60    1.50
   2  12   9    2.60    1.30
  -9   2 -12    1.50    1.30
  12   9   2    2.90    2.30
 -12   9  -2    2.90    1.40
  -2 -12   9    0.50    1.70
  -9   2  12    4.00    1.40
  12   9  -2    3.30    3.70
   2  12  -9    2.90    0.90
   9   2 -12    1.70    1.80
  -2  12   9    3.60    1.40
   3  12   9    2.60    1.40
  -3  12  -9    2.40    0.90
  -9   3 -12    3.90    1.50
  -3  12  -9    3.90    1.20
  -3 -12   9    0.70    1.60
  12   9   3    3.90    2.40
  -3  12   9    4.20    1.50
   9   3 -12    1.60    1.50
  -9   3  12    6.00    1.50
   3  12  -9    2.80    0.90
  -4 -12   9    0.40    1.40
   4  12   9    2.00    1.40
  12   9   4   -1.20    2.00
  -9   4 -12    0.10    1.30
  -4  12  -9    2.40    1.20
  -9  -4  12    3.80    1.40
  -4  12  -9    1.90    0.90
   4  12  -9    1.10    0.90
   9   4 -12    2.80    1.30
   4  12  -9    2.30    1.10
  -9   4  12    2.90    1.50
  -5  12  -9   75.49    4.90
  -5 -12   9   68.79    4.80
  12   9   5   68.09    6.60
  -9   5 -12   83.09    5.80
  -9  -5  12   75.59    4.70
   5  12   9   72.39    5.10
 -12   9  -5   70.29    5.70
  -5  12  -9   77.49    4.80
   5  12  -9   70.09    4.80
   9   5 -12   73.29    5.50
  -9   5  12   76.29    5.00
 -12   9   5   76.49    5.20
   5  12  -9   72.49    4.60
   6  12   9    1.70    1.40
  -9  -6  12    0.80    1.30
  -6  12  -9    0.40    1.30
 -12   9  -6    0.10    1.40
  -6 -12   9   -0.50    1.20
  -6  12  -9    0.10    1.00
  12   9   6   -2.50    2.00
  -9   6  12    1.20    1.60
  -6  12   9   -0.60    1.70
   6  12  -9    0.30    1.20
   9   6 -12    1.20    1.10
 -12   9   6   -2.10    1.60
   6  12  -9   -0.10    0.90
  12   9   7   19.70    4.60
  -9  -7  12   28.50    2.90
  -7 -12   9   22.40    2.90
 -12  -9   7   28.40    3.50
  -9   7 -12   25.40    4.00
 -12   9  -7   24.90    4.60
   7  12   9   27.30    3.60
  -7  12  -9   24.50    4.00
   7  12  -9   27.20    3.20
 -12   9   7   22.40    3.70
   7  12  -9   22.50    3.40
  -7  12   9   25.20    3.80
   9   7 -12   25.80    3.60
  -9   7  12   26.70    3.50
  -8 -12   9   -0.40    1.20
 -12   9  -8   -0.60    1.40
  -9   8 -12    0.00    1.10
  -9  -8  12    1.30    1.30
   8  12   9    0.90    1.40
 -12  -9   8    0.40    1.50
  -8  12  -9   -0.50    1.20
  12   9   8   -1.80    1.80
   8  12  -9    0.20    1.50
   8  12  -9    0.70    0.80
  -8  12   9   -0.60    1.80
 -12   9   8   -0.60    1.70
  -9   8  12    2.70    1.70
  12   9  -8   -1.30    1.10
   9   8 -12    2.00    1.00
  -9 -12   9    0.30    1.30
  -9  -9  12    2.30    1.30
  -9  12  -9    0.90    1.50
 -12   9  -9    0.90    1.60
  -9   9 -12    2.00    1.20
   9  12   9    2.30    1.50
 -12  -9   9    2.70    1.50
   9  12  -9    1.40    1.00
 -12   9   9    0.10    1.90
   9  12  -9    3.80    1.90
  12   9  -9    1.60    1.30
   9   9 -12    1.90    1.10
  -9  12   9    1.50    2.00
  -9   9  12    3.80    1.70
 -10  12  -9   -1.70    1.90
  10  12   9   -0.40    1.40
 -12  -9  10    0.40    1.50
  -9  10 -12   -1.40    1.40
  -9 -10  12    0.20    1.20
  12   9 -10   -0.80    1.10
 -10  12   9   -1.20    1.90
   9  10 -12    0.20    0.90
  -9  10  12   -0.50    1.60
 -12   9  10   -1.30    1.80
 -12  -9  11    0.10    1.40
  11  12   9    0.20    1.80
 -11  12  -9   -1.80    1.50
 -12   9 -11   -1.40    1.60
  -9 -11  12    1.70    1.30
  -9  11 -12   -2.10    1.60
  11  12  -9   -0.50    0.90
  12   9 -11    0.80    1.20
   9  11 -12    1.40    1.00
 -12   9  11    0.00    1.70
 -11  12   9   -1.60    1.60
  -9  11  12   -0.80    1.70
   0  12 -10    2.00    0.90
   0 -12  10    2.50    1.90
  12  10   0    4.40    2.60
 -10   0  12    2.50    1.40
 -10   0 -12    0.10    1.30
   0  12  10    4.50    1.60
  10   0 -12   -4.00    5.50
   0  12  10    3.80    1.30
 -10  -1  12   33.20    3.40
   1  12  10   34.00    3.50
  12  10   1   38.70    5.90
   1  12  10   36.50    3.60
 -10   1 -12   34.80    4.90
  -1  12 -10   28.20    3.20
  -1  12 -10   36.80    3.10
  -1  12  10   33.50    3.60
  12  10  -1   34.40    6.70
   1  12 -10   35.60    3.00
  -1  12  10   37.00    3.60
   1  12 -10   31.20    3.20
 -10   1  12   28.60    3.40
   2  12  10    1.80    1.40
  -2 -12  10   -0.50    1.60
  -2  12 -10    3.60    1.20
  -2  12 -10    1.80    0.90
   2  12  10    2.10    1.60
 -10   2 -12    2.00    1.40
  12  10   2    2.90    2.00
 -10  -2  12    4.20    1.40
 -12  10  -2    0.00    1.50
 -10   2  12    1.60    1.50
  -2  12  10    1.70    1.40
   2  12 -10    3.70    1.20
   2  12 -10    2.50    0.90
  12  10  -2    3.20    2.80
  10   2 -12   -1.50    2.50
 -10  -3  12   60.99    4.10
  -3  12 -10   58.29    4.10
   3  12  10   53.59    4.70
 -12  10  -3   48.30    4.40
  12  10   3   59.09    6.20
 -10   3 -12   55.69    5.50
   3  12  10   53.59    4.40
  -3 -12  10   48.60    4.30
  -3  12 -10   63.19    4.00
  10   3 -12   48.40    6.80
 -10   3  12   58.89    4.30
  -3  12  10   54.59    4.40
   3  12 -10   59.09    3.90
   3  12 -10   52.89    4.10
  12  10  -3   65.09    8.00
  -4 -12  10   16.10    3.10
  -4  12 -10   23.50    3.00
  12  10   4   21.40    5.00
  -4  12 -10   25.50    3.30
 -10  -4  12   26.70    3.00
 -10   4 -12   19.80    4.40
   4  12  10   18.20    3.40
   4  12 -10   24.40    3.10
  -4  12  10   19.10    3.50
  12  10  -4   33.60    7.50
 -10   4  12   23.50    3.30
   4  12 -10   24.70    2.90
 -10  -5  12   84.29    5.00
  -5  12 -10   85.59    5.20
 -10   5 -12   85.89    6.40
  12  10   5   78.69    6.60
   5  12  10   76.09    5.30
  -5 -12  10   79.29    5.20
  -5  12 -10   85.09    5.40
 -12  10   5   86.49    5.60
 -10   5  12   86.09    5.40
  -5  12  10   82.29    5.50
   5  12 -10   76.39    4.90
   5  12 -10   83.69    5.30
  12  10  -5   98.99    9.50
  10   5 -12   77.49    6.30
   6  12  10   -0.20    1.20
 -10  -6  12    0.70    1.20
  -6  12 -10   -0.50    1.00
  -6  12 -10    0.70    1.40
  12  10   6    0.80    1.80
 -10   6 -12   -1.10    1.30
  -6 -12  10    0.80    1.30
  10   6 -12    0.20    1.30
   6  12 -10    1.10    0.90
   6  12 -10    1.20    1.30
  -6  12  10    0.10    1.80
 -10   6  12    1.60    1.60
 -12  10   6   -0.50    1.80
  -7 -12  10   23.20    2.90
  -7  12 -10   26.70    4.00
  12  10   7   20.30    4.50
 -10   7 -12   25.30    4.30
   7  12  10   22.50    3.50
 -10  -7  12   30.00    3.00
   7  12 -10   30.00    3.30
  -7  12  10   26.90    3.90
 -12  10   7   23.70    3.80
  10   7 -12   26.40    4.00
 -10   7  12   24.10    3.50
   7  12 -10   21.80    3.50
 -10   8 -12    8.00    1.60
   8  12  10   17.00    3.40
  -8 -12  10   13.70    2.80
 -12 -10   8   14.30    2.10
 -12  10  -8    7.20    1.80
  -8  12 -10   10.50    1.70
  12  10   8    8.10    2.30
 -12  10   8   15.50    3.60
   8  12 -10   12.20    1.90
  -8  12  10   12.50    2.20
   9  12  10    8.60    1.90
 -10   9 -12   17.10    4.20
  12  10   9    7.10    2.30
 -12 -10   9   14.70    3.50
  -9 -12  10    8.70    1.60
 -12  10   9   11.10    2.10
  -9  12  10   14.90    3.60
  12  10  -9    9.50    1.60
   9  12 -10   12.60    2.80
 -10 -10  12   30.50    3.30
 -10  12 -10   31.10    6.70
 -10 -12  10   27.80    3.50
 -12 -10  10   29.40    3.70
  10  12  10   26.50    4.40
 -12  10 -10   31.40    6.00
 -10  10 -12   30.50    5.10
  10  12 -10   29.90    3.50
  10  10 -12   30.50    3.60
 -12  10  10   29.00    4.10
 -10  12  10   30.40    4.10
  12  10 -10   30.50    4.00
 -10  10  12   37.60    4.10
 -10 -11  12    7.10    1.60
 -12 -10  11    3.30    1.70
 -10  11 -12    1.70    1.90
 -12  10 -11    5.00    2.10
  11  12  10    1.40    1.90
 -11 -12  10    1.80    1.90
  11  12 -10    4.60    1.20
 -11  12  10    3.30    2.10
  10  11 -12    3.90    1.10
  12  10 -11    3.60    1.30
 -10  11  12    4.50    1.90
 -12  10  11    5.20    2.00
 -11   0 -12   22.00    4.80
   0  12 -11   29.50    2.80
   0  12 -11   24.00    3.10
   0 -12  11   23.60    3.90
   0  12  11   27.00    3.60
  12  11   0   25.90    5.90
   0  12  11   23.60    3.50
 -11   0  12   25.50    3.30
  -1 -12  11   25.10    3.70
  -1  12 -11   30.10    2.90
  12  11   1   37.50    5.70
   1  12  11   26.40    3.80
   1  12  11   22.60    3.40
 -11  -1  12   29.10    3.20
  -1  12 -11   25.60    3.20
 -11   1 -12   28.40    4.80
   1  12 -11   28.20    2.90
 -11   1  12   27.10    3.50
  12  11  -1   38.20    6.00
  -1  12  11   30.10    3.60
  -1  12  11   24.30    3.60
   1  12 -11   27.90    3.20
  -2 -12  11   66.19    4.90
 -11  -2  12   74.99    4.60
   2  12  11   66.09    5.20
 -12  11  -2   57.59    5.00
  -2  12 -11   70.49    4.70
  12  11   2   77.09    6.40
  -2  12 -11   74.69    4.40
 -11   2 -12   66.79    6.20
   2  12  11   60.79    4.70
   2  12 -11   69.69    4.70
  -2  12  11   70.09    4.90
   2  12 -11   68.19    4.30
  12  11  -2   83.79    6.90
 -11   2  12   73.39    4.80
 -12  11  -3    4.80    1.70
 -11   3 -12    5.90    1.70
  -3 -12  11    5.40    1.60
  12  11   3    9.40    2.40
   3  12  11    5.90    1.50
   3  12  11    6.60    2.10
  11   3 -12    0.90    2.60
  -3  12  11    7.90    1.80
   4  12  11   -0.90    1.20
 -12  11  -4   -1.50    1.50
  -4 -12  11    0.30    1.40
 -11   4 -12    0.30    1.50
  12  11   4    1.30    1.90
  -4  12 -11    0.40    1.20
  -4  12 -11    0.40    1.00
  11   4 -12   -0.60    2.00
  -4  12  11    0.40    1.50
  12  11  -4    5.20    2.70
 -11   4  12    1.30    1.50
   4  12 -11    0.90    1.10
   4  12 -11    1.30    0.90
  12  11   5    3.50    1.90
   5  12  11    1.50    1.30
  -5 -12  11    2.50    1.50
 -11  -5  12    3.70    1.40
 -11   5 -12    3.40    1.60
  -5  12 -11    2.90    1.10
  -5  12 -11    2.70    1.40
  11   5 -12    1.20    1.70
  12  11  -5    5.90    3.00
  -5  12  11    2.80    1.70
 -11   5  12    4.30    1.70
   5  12 -11    2.40    0.90
   5  12 -11    2.30    1.30
 -12  11   5    3.00    2.00
 -11  -6  12    4.70    1.40
  12  11   6    2.90    1.90
  -6 -12  11    5.40    1.50
  -6  12 -11    3.30    1.30
   6  12  11    1.70    1.40
  -6  12 -11    4.30    1.50
 -11   6 -12    1.50    1.40
   6  12 -11    4.00    1.50
  11   6 -12    3.80    1.60
 -12  11   6    4.70    2.00
  -6  12  11    3.90    1.80
   6  12 -11    3.40    1.00
 -11   6  12    4.20    1.70
  -7  12 -11    7.20    1.50
   7  12  11   10.50    1.90
 -11  -7  12   14.40    2.80
  -7 -12  11   11.70    2.60
  12  11   7    8.70    2.10
  -7  12  11   10.50    2.10
 -12  11   7   11.00    2.20
 -11   7  12    8.70    1.90
   7  12 -11    8.20    1.80
 -11   8 -12    3.60    1.50
  12  11   8    3.30    2.00
  -8  12 -11    3.90    1.60
   8  12  11    3.80    1.60
  11   8 -12    3.00    1.20
   8  12 -11    4.00    1.00
  -8  12  11    3.70    1.80
 -11   8  12    6.60    2.00
 -12  11   8    4.30    1.80
 -11  -9  12    7.80    1.60
   9  12  11    4.00    1.70
 -11   9 -12    3.70    1.60
  -9 -12  11    6.80    1.50
 -12 -11   9    4.80    2.20
  -9  12 -11    5.00    1.90
  12  11   9    3.40    2.10
   9  12 -11    5.30    1.10
 -11   9  12    4.50    1.90
  12  11  -9    4.80    1.40
  -9  12  11    6.60    2.00
 -12  11   9    5.50    2.00
  11   9 -12    4.50    1.20
 -10  12 -11    0.00    2.20
 -10 -12  11    0.90    1.60
 -11  10 -12    0.10    1.80
 -11 -10  12    4.00    1.60
 -12 -11  10    0.60    2.00
 -12  11  10   -1.70    1.90
  10  12 -11    1.70    0.90
 -10  12  11    1.50    2.00
 -11  10  12    0.90    1.80
  12  11 -10    1.00    1.10
  11  10 -12    0.60    1.00
 -11 -11  12   -2.20    1.50
 -12  11 -11   -4.50    3.00
 -12  11  11   -1.80    1.70
 -11  11  12   -1.20    1.70
  11  11 -12   -0.10    1.00
  12  11 -11    0.70    1.20
  11  12 -11   -0.10    0.90
   0 -12  12   11.80    2.30
 -12   0 -12   12.30    2.00
   0  12  12    9.40    2.00
   0  12  12    8.10    1.80
  -1 -12  12    4.10    1.70
 -12  -1  12    9.20    1.70
   1  12  12    4.50    1.60
   1  12  12    6.40    2.10
  -1  12 -12    6.30    1.30
  12  12   1    9.70    2.40
  -1  12  12    5.40    1.80
   1  12 -12    6.00    1.30
   1  12 -12    5.60    1.10
 -12   1  12    6.20    1.50
  12  12  -1    7.30    2.40
  -2 -12  12    0.50    1.60
   2  12  12   -0.20    2.10
 -12   2 -12   -0.60    1.60
  12  12   2    5.00    2.20
   2  12  12    0.20    1.40
  -2  12 -12    3.20    1.20
  -2  12 -12    2.50    1.00
 -12   2  12    3.90    1.70
  -2  12  12    1.30    1.80
   2  12 -12    1.70    1.20
   2  12 -12    2.90    0.90
  12   2 -12   -7.20    5.20
  12  12  -2    5.00    2.10
  -3 -12  12   70.69    5.00
 -12  -3  12   77.49    4.70
  12  12   3   73.19    6.00
 -12   3 -12   64.49    6.30
   3  12  12   64.19    5.00
 -12  12  -3   57.69    5.30
   3  12  12   68.39    6.50
  -3  12 -12   74.39    4.50
  -3  12 -12   72.29    4.90
  -3  12  12   71.79    5.10
   3  12 -12   64.79    4.50
   3  12 -12   74.59    4.80
 -12   3  12   76.39    5.00
  12  12  -3   82.89    6.90
  -4 -12  12   -0.10    1.40
 -12  -4  12    0.30    1.30
  12  12   4    1.40    1.80
  -4  12 -12   -0.80    0.90
 -12  12  -4   -2.10    1.70
  -4  12 -12   -1.30    1.10
  -4  12  12   -1.00    1.70
  12   4 -12   -1.90    2.50
   4  12 -12   -0.30    1.20
   4  12 -12    0.20    0.80
 -12   4  12    0.20    1.60
  12  12  -4    2.10    2.50
 -12  -5  12   14.20    2.80
  -5  12 -12   10.00    1.60
  12  12   5    9.60    2.10
 -12  12  -5    7.60    1.90
   5  12  12    8.70    1.80
  -5  12  12    7.70    1.80
   5  12 -12    7.20    1.50
  12   5 -12    8.50    2.40
  12  12  -5   12.10    2.90
  -6 -12  12    0.40    1.30
 -12  -6  12    1.20    1.30
   6  12  12   -2.00    1.50
  12  12   6   -0.10    1.90
  -6  12 -12   -1.60    1.20
  -6  12  12   -1.10    1.70
 -12   6  12   -0.80    1.80
   6  12 -12   -0.60    1.50
   6  12 -12    0.10    0.90
  12   6 -12    2.00    1.90
  -7 -12  12   -0.40    1.30
 -12  -7  12   -0.10    1.40
  12  12   7   -1.20    1.70
 -12   7 -12   -1.80    1.40
  12   7 -12    1.20    1.50
   7  12 -12    0.80    0.90
 -12   7  12   -1.60    1.80
  -8 -12  12    2.30    1.30
 -12  -8  12    3.70    1.60
  12  12   8    1.10    1.80
 -12   8 -12    2.60    1.70
  -8  12 -12    0.30    1.60
 -12  12   8    4.40    2.00
  -8  12  12   -0.10    1.70
  12   8 -12    5.10    1.60
   8  12 -12    3.20    1.00
 -12   8  12    1.60    1.90
 -12  -9  12   -0.90    1.60
  -9  12 -12   -1.70    1.90
  12   9 -12    0.50    1.30
   9  12 -12   -0.70    0.80
 -10 -12  12   25.10    3.50
 -10  12 -12   16.30    2.80
 -12  12 -10   19.10    3.80
 -12  12  10   24.60    4.10
 -12  10  12   22.60    4.00
 -12  11 -12   -3.60    3.30
  12  11 -12    2.10    1.30
 -12  12  11   -2.60    1.90
 -11  12  12   -1.30    2.00
  11  12 -12    0.80    1.10
  12  12 -11    1.00    1.20
 -12  12 -12   54.89    4.70
   0   0  13    0.20    1.20
   0   0 -13    1.20    0.70
   0  13   0    2.00    1.10
   0  13   0   -0.60    0.80
  -1  13   0   -0.10    0.80
   1  13   0    2.80    1.10
   0   1  13    1.10    1.30
   0   1 -13    1.20    0.70
  -1  13   0    2.90    1.10
   0  -1 -13    2.10    0.80
   0  -1  13   -0.60    1.20
  -2  13   0   11.70    2.50
   0   2 -13   13.40    2.50
   0   2  13   12.70    2.70
   2  13   0   10.00    2.30
   0   3  13    2.80    1.50
   0  -3  13    3.70    1.40
   0   3 -13    1.50    0.80
  -3  13   0    2.60    1.10
   0  -4  13  132.69    7.40
  -4  13   0  135.89    6.80
 -13   0   4  132.69    6.90
   0   4 -13  135.59    7.10
   0   4  13  131.29    7.20
   0  -4 -13  127.29    7.20
   5  13   0    1.80    1.10
  -5  13   0    0.00    1.10
   0  -5 -13   -0.60    1.00
   0  -5  13   -0.40    1.50
   0   5 -13    0.30    0.90
   0   5  13   -1.20    1.40
   6  13   0  131.39    7.00
   0   6 -13  136.09    7.30
   0  -6  13  135.19    7.60
  -6  13   0  138.09    7.00
 -13   0   6  134.59    7.00
   0  -7  13   -1.60    1.70
   7  13   0   -0.30    1.20
   0   7  13   -1.10    1.60
   8  13   0   -0.80    1.10
   0   9  13   -2.10    1.60
   9  13   0    0.20    1.30
   0  -9  13   -1.40    1.70
 -13   0   9   -0.40    1.30
   0  10 -13  212.88   10.70
  10  13   0  222.48   11.40
   0 -10  13  236.48   11.90
 -10  13   0  228.58   11.30
   0  10 -13  219.18   11.40
   0  10  13  227.68   11.60
 -13   0  10  232.58   11.30
 -13   0  11   -1.00    1.40
  11  13   0    0.10    1.60
   0  11 -13   -1.30    1.00
   0 -11  13   -2.70    1.80
   0  12 -13   -1.40    1.00
 -13   0  12    0.40    1.40
  12  13   0    0.60    2.10
  -1   0 -13    1.10    0.80
   0  13  -1    2.00    1.10
   1   0  13    3.30    1.50
  -1   0  13   -0.60    1.20
   0  13  -1    0.10    0.70
   1   0 -13    1.20    0.70
  -1  -1  13  124.29    7.40
  -1   1 -13  145.09    7.40
  -1  13  -1  140.29    7.10
  -1  13  -1  145.39    7.30
   1   1  13  142.89    7.60
   1  13   1  140.29    7.00
  -1   1  13  130.19    7.40
   1  13  -1  141.19    7.10
  -1  -1 -13  147.99    7.40
  -1  13   1  145.39    7.10
   1  -1  13  138.99    7.60
   1   1 -13  142.69    7.30
   1  13  -1  139.09    7.20
  -2  13  -1   27.10    2.90
   1  -2 -13   23.10    2.80
   1   2  13   28.00    3.40
  -1   2 -13   25.20    2.90
   2  13  -1   27.00    2.90
  -1   2  13   21.80    3.00
  -1  -2 -13   25.90    3.00
   1   2 -13   29.60    2.80
  -2  13   1   26.20    2.70
   1  -2  13   23.80    3.40
  -3  13  -1  396.26   17.50
   1   3  13  376.06   18.20
   1  -3 -13  379.76   18.30
  -1  -3  13  343.47   18.10
  -1   3 -13  394.76   18.30
  -3  13   1  381.66   17.40
  -1   3  13  363.16   18.10
 -13   1   3  402.76   17.90
  -1  -3 -13  386.56   18.40
   1   3 -13  386.36   18.30
   1  -3  13  378.16   18.40
  -4  13  -1   29.80    3.20
   1  -4 -13   32.70    3.70
   1   4  13   27.20    3.70
  -1   4 -13   32.70    3.30
   4  13   1   36.70    3.50
   1  -4  13   34.40    3.90
  -4  13   1   35.20    3.00
   1   4 -13   34.10    3.10
  -1   4  13   26.60    3.40
  -5  13  -1  726.53   31.30
   5  13   1  672.03   31.30
  -1   5 -13  715.83   32.90
   1   5  13  683.63   32.40
   1  -5 -13  702.63   32.90
 -13  -1   5  714.53   32.10
  -1  -5  13  679.33   32.40
   1   5 -13  691.23   32.80
  -5  13   1  724.33   31.20
 -13   1   5  697.73   32.10
   5  13  -1  651.53   31.20
 -13  -1   6   27.80    3.00
   6  13   1   36.10    3.30
  -1  -6  13   31.20    3.60
   1   6  13   26.20    3.80
  -1   6 -13   33.70    3.20
   1   6 -13   34.60    3.30
   6  13  -1   39.30    3.20
   1  -6  13   28.10    4.30
 -13   1   6   30.10    3.10
  -1   6  13   28.10    3.60
  -6  13   1   34.50    3.10
  -1   7 -13  477.35   23.50
  -7  13  -1  515.95   22.50
   7  13   1  455.45   22.50
 -13  -1   7  492.25   23.00
   1   7  13  488.45   23.50
  -1  -7  13  498.55   23.40
   1  -7  13  507.55   23.80
  -1   7  13  496.55   23.30
 -13   1   7  507.75   23.10
   1   7 -13  487.45   23.50
   7  13  -1  482.55   22.40
  -7  13   1  508.25   22.40
   8  13   1    2.00    1.40
   1   8  13    1.60    1.70
  -1  -8  13    2.70    1.60
 -13  -1   8    0.70    1.30
  -1   8 -13    0.30    0.90
  -8  13  -1    0.70    1.50
   1  -8  13   -2.30    1.80
   1   8 -13    0.90    0.90
 -13   1   8    0.60    1.40
  -1   8  13    1.10    1.70
   1   8 -13    0.20    1.00
   8  13  -1    2.50    1.30
  -1  -9  13   64.19    4.70
   1   9  13   55.59    4.90
 -13  -1   9   57.79    4.20
  -9  13  -1   56.19    4.60
  -1   9 -13   56.39    4.20
   9  13   1   58.59    4.50
   1   9 -13   56.79    4.20
  -9  13   1   57.49    4.60
   1  -9  13   61.59    5.30
 -13   1   9   59.69    4.30
   1   9 -13   58.09    3.80
  -1   9  13   57.59    4.70
   9  13  -1   62.19    4.40
   1  10  13    6.70    2.10
  10  13   1    5.60    1.60
 -13  -1  10    4.80    1.50
  -1  10 -13    5.40    1.20
 -10  13  -1    4.70    1.80
  -1 -10  13    6.10    1.70
  -1  10 -13    3.90    1.00
 -13   1  10    8.20    1.70
   1  10 -13    6.10    1.20
   1  10 -13    3.80    1.00
  -1  10  13    6.30    2.00
  10  13  -1    7.70    1.80
   1 -10  13    7.50    2.30
  11  13   1    1.60    1.60
  -1 -11  13    0.80    1.60
  -1  11 -13    1.50    0.90
 -13  -1  11    3.00    1.50
   1  11  13    0.60    2.10
  -1  11 -13    1.90    1.10
  11  13  -1    2.20    1.70
 -13   1  11    1.90    1.60
   1  11 -13    1.10    0.90
  -1  11  13    0.60    1.90
   1  11 -13    0.80    1.10
   1 -11  13   -1.30    2.10
 -13   1 -12   30.90    5.60
  12  13   1   46.20    5.30
 -13  -1  12   42.70    3.90
  -1  12 -13   36.90    3.20
  -1 -12  13   33.10    4.10
   1  12  13   33.60    4.80
  12  13  -1   47.80    5.30
   1  12 -13   32.50    3.20
  -1  12  13   34.60    4.40
   2   0 -13    1.60    0.70
  -2   0 -13    1.10    0.90
   0  13   2    1.60    0.90
   0  13  -2    1.40    1.10
  -1  13  -2  171.38    8.20
   2   1  13  191.68    9.20
  -2  -1  13  149.49    8.50
  -1  13  -2  158.78    8.40
   1  13   2  164.18    8.10
  -2   1 -13  168.78    8.60
  -2  -1 -13  170.08    8.70
   1  13  -2  167.68    8.20
   2   1 -13  166.18    8.50
   2  -1  13  185.08    9.20
  -2   1  13  151.18    8.50
   1  13  -2  160.58    8.40
  -1  13   2  166.18    8.10
  -2  13  -2   60.69    4.00
  -2  13  -2   60.59    4.00
   2  13   2   65.59    4.00
  -2   2 -13   59.09    4.20
   2  -2 -13   59.79    4.20
  -2  -2  13   52.79    4.20
  -2  13   2   61.09    3.80
 -13   2   2   60.59    4.10
  -2   2  13   61.59    4.20
  -2  -2 -13   66.59    4.30
   2   2 -13   65.39    4.00
   2  13  -2   59.29    4.20
  -3  13  -2   57.49    3.80
  -2   3 -13   50.89    4.00
   2  -3 -13   60.39    4.30
  -3  13  -2   56.99    3.80
   2   3 -13   55.19    3.80
  -3  13   2   57.09    3.70
  -2  -3 -13   61.09    4.30
  -2   3  13   56.39    4.10
   3  13  -2   46.10    3.80
 -13   2   3   53.09    3.80
  -2  -4  13   61.29    4.50
   4  13   2   64.39    4.20
   2   4  13   79.59    5.50
  -2   4 -13   65.69    4.50
   2  -4 -13   71.99    5.20
  -4  13  -2   64.99    4.50
 -13   2   4   60.99    4.20
   2   4 -13   69.29    4.30
   4  13  -2   60.99    4.40
   4  13  -2   66.29    4.20
  -2  -4 -13   63.39    4.70
  -4  13   2   66.69    4.10
  -2  -5  13   26.30    3.20
   2   5  13   28.70    4.30
   5  13   2   19.30    3.00
  -2   5 -13   23.60    3.10
   2   5 -13   23.50    3.00
  -2   5  13   26.60    3.30
  -5  13   2   24.80    2.70
   5  13  -2   21.90    3.00
 -13   2   5   18.50    2.80
  -2   6 -13   16.40    3.00
   2   6  13   17.20    4.00
   6  13   2   17.40    2.80
  -6  13  -2   11.10    1.70
 -13  -2   6   17.30    3.20
  -2  -6  13   17.20    3.10
  -6  13   2   13.00    2.70
   2  -6  13   19.30    4.50
   2   6 -13   19.00    2.90
 -13   2   6   14.40    2.70
   6  13  -2   15.10    3.20
  -2   6  13   13.90    3.10
  -2   7 -13    4.10    1.00
   7  13   2    4.50    1.30
 -13  -2   7    4.00    1.40
  -2  -7  13    5.00    1.60
  -7  13  -2    3.40    1.50
  -2  -7 -13    2.10    1.40
  -7  13   2    4.10    1.30
   2   7 -13    3.70    1.00
   2   7 -13    3.50    1.10
   2  -7  13    7.60    2.60
  -2   7  13    4.70    1.70
  -8  13  -2   -0.90    1.40
  -2   8 -13    1.00    0.90
 -13  -2   8    1.20    1.40
   2   8  13    1.60    1.90
   8  13   2    1.60    1.40
  -2  -8  13    1.10    1.40
  -8  13   2   -0.80    1.40
   2   8 -13    0.80    0.90
   2  -8  13    2.40    2.50
  -2   8  13    0.30    1.60
 -13   2   8    2.20    1.50
   2   8 -13    1.10    1.00
  -2   9 -13   13.80    2.80
  -2  -9  13   17.10    3.10
   2   9  13   12.20    2.30
   9  13   2   15.30    3.30
  -9  13  -2   10.30    1.80
 -13  -2   9   13.90    3.00
 -13   2   9   13.20    3.00
  -2   9  13   10.30    1.90
   2  -9  13   14.90    2.80
   2   9 -13   12.00    2.80
 -10  13  -2    7.00    1.80
 -13  -2  10   10.20    1.70
   2  10  13    7.80    2.20
  10  13   2    7.90    1.80
  -2 -10  13    9.70    1.90
  -2  10  13    7.10    1.90
  10  13  -2    8.40    1.80
 -13   2  10    8.60    1.80
   2  10 -13    6.40    1.30
   2 -10  13    4.00    2.40
 -11  13  -2  149.19    8.50
  -2  11 -13  154.88    8.20
 -13   2 -11  141.09    9.40
 -13  -2  11  156.18    8.10
  -2 -11  13  157.38    8.40
   2  11  13  151.18    8.90
  11  13   2  160.68    8.80
 -13   2  11  158.48    8.20
   2 -11  13  152.68    9.60
  -2  11  13  146.19    8.40
  11  13  -2  163.58    8.70
   2  11 -13  149.59    8.20
   2  11 -13  138.39    7.60
 -13  -2  12    6.90    1.60
  -2 -12  13    3.70    1.70
   2  12  13    6.30    2.70
  12  13   2    7.30    2.20
  12  13  -2    7.50    2.10
  -1  13  -3    0.60    1.10
   1  13   3    1.30    1.00
  -3  -1  13   -1.70    1.30
  -1  13  -3   -0.30    0.60
   3   1 -13    1.00    0.70
  -1  13   3    0.60    0.90
  -3   1  13    0.50    1.30
  -3  -1 -13   -0.60    0.90
  -2  13  -3    0.20    0.70
   2  13   3    2.10    1.00
 -13   3   2   -1.90    1.30
  -2  13   3    0.10    0.90
   2  13  -3   -0.90    0.70
  -3   2  13    0.10    1.30
  -3  -2 -13   -0.10    0.90
   3   2 -13    1.20    0.70
  -3  13  -3  180.48    8.90
  -3   3 -13  166.28    9.00
  -3  -3  13  161.08    8.90
   3  -3 -13  180.58    9.40
   3  13  -3  159.48    8.60
   3   3 -13  169.78    8.90
 -13   3   3  186.78    8.70
  -3  13   3  170.88    8.40
   3  -3  13  203.58   10.60
   3  13  -3  166.98    8.90
  -3  -3 -13  176.18    9.20
  -3   4 -13   25.60    3.20
   3  -4 -13   37.50    5.50
  -3  -4  13   27.10    3.20
   4  13   3   30.00    3.10
  -4  13  -3   25.40    3.30
 -13   3   4   21.60    2.90
   3   4 -13   33.10    3.00
  -4  13   3   30.40    2.70
   4  13  -3   33.60    2.90
  -3  -4 -13   27.30    3.70
  -3   4  13   28.70    3.30
   4  13  -3   25.40    3.00
   5  13   3  386.46   18.90
 -13  -3   5  435.96   19.30
  -5  13  -3  416.06   18.90
   3   5  13  456.55   20.30
  -3   5 -13  407.96   19.80
  -3  -5  13  389.56   19.50
  -3  -5 -13  409.16   20.00
   5  13  -3  408.26   19.90
  -3   5  13  400.36   19.60
  -5  13   3  406.66   18.70
 -13   3   5  441.16   19.40
   3   5 -13  404.76   19.80
   5  13  -3  399.36   18.80
   6  13   3   78.79    5.00
 -13  -3   6   78.69    4.90
  -3  -6  13   78.49    5.10
   3   6  13   95.19    7.00
  -6  13  -3   75.29    5.10
  -3   6 -13   82.49    5.20
   3   6 -13   86.09    5.10
   6  13  -3   87.99    4.80
   3  -6  13   77.79    7.40
   6  13  -3   84.59    5.20
  -3   6  13   80.39    5.20
  -6  13   3   81.39    4.80
 -13   3   6   81.79    4.90
  -3  -6 -13   74.29    5.60
  -3  -7  13  389.76   18.90
  -3   7 -13  397.26   19.20
  -7  13  -3  418.86   18.40
 -13  -3   7  387.76   18.60
   3   7  13  425.86   19.60
   7  13   3  375.96   18.40
   3  -7  13  377.46   20.40
   7  13  -3  403.26   19.30
  -3  -7 -13  350.96   19.30
  -3   7  13  389.16   18.90
   3   7 -13  394.96   19.10
  -7  13   3  415.46   18.20
 -13   3   7  434.36   19.10
   7  13  -3  396.16   18.20
  -8  13  -3  178.08    8.90
  -3  -8  13  171.48    9.10
   8  13   3  168.18    8.90
  -3   8 -13  176.18    9.10
 -13  -3   8  175.28    8.80
   3  -8  13  171.38   11.00
 -13   3   8  173.68    8.90
  -3   8  13  178.18    9.10
   8  13  -3  172.38    8.70
   3   8 -13  175.58    9.10
   3   8 -13  163.78    8.40
   3   9  13   49.30    5.30
  -3  -9  13   48.00    4.10
  -3   9 -13   52.59    4.10
  -9  13  -3   48.40    4.20
   9  13   3   49.80    4.30
 -13  -3   9   53.89    3.90
   3   9 -13   54.99    4.00
   3  -9  13   41.70    6.70
 -13   3   9   54.89    4.30
  -3   9  13   53.39    4.30
   3   9 -13   45.00    3.50
   9  13  -3   54.49    4.20
  -3  10 -13   35.60    3.70
 -10  13  -3   36.70    4.20
 -13  -3  10   42.00    3.60
   3  10  13   34.60    5.30
  -3 -10  13   34.70    3.70
  10  13   3   39.10    4.30
   3  10 -13   34.70    3.30
  10  13  -3   44.00    4.40
   3  10 -13   40.30    3.60
 -13   3  10   42.60    4.00
  -3  10  13   37.40    3.90
  -3 -11  13    0.60    1.50
 -11  13  -3   -2.00    1.70
  -3  11 -13    0.30    0.90
  11  13   3    0.00    1.60
 -13   3 -11   -1.00    1.40
  -3  11 -13   -0.80    1.00
 -13  -3  11    1.20    1.40
  11  13  -3    1.50    1.90
  -3  11  13   -1.50    1.70
   3  11 -13   -0.30    1.20
 -13   3  11    1.20    1.70
   3  11 -13    1.80    0.80
  12  13   3    3.30    1.90
  -3 -12  13    1.00    1.60
  -3  12 -13    0.50    0.90
 -12  13  -3   -0.60    2.00
 -13   3 -12   -1.80    1.50
  -3  12 -13    0.90    1.10
 -13  -3  12    3.70    1.50
  -3  12  13   -1.10    1.70
  12  13  -3    3.30    2.20
   3  12 -13    1.30    0.90
   3  12 -13    0.30    1.30
 -13   3  12    3.00    1.70
   0  13   4   -0.70    0.90
   4   0 -13    1.80    0.80
  -4   1 -13  433.96   20.30
   1  13   4  395.76   19.20
   4   1  13  486.65   22.30
  -1  13  -4  403.56   19.30
  -1  13  -4  406.56   20.10
   1  13  -4  390.46   19.30
   1  13  -4  404.46   20.10
   4  -1  13  456.65   22.50
  -4  -1 -13  455.85   20.40
   4   1 -13  409.36   20.10
  -1  13   4  398.46   19.10
   4   2 -13   12.20    2.60
   4  -3 -13  194.88   10.70
  -4  -3  13  172.08    9.40
   3  13   4  185.78    9.20
  -3  13  -4  184.38    9.10
  -4   3 -13  187.98    9.70
   4   3 -13  181.08    9.50
   4  -3  13  202.58   13.40
  -4   3  13  179.18    9.50
   3  13  -4  181.68    9.00
  -4  -3 -13  203.78    9.90
  -3  13   4  183.48    8.90
 -13   4   3  198.98    9.30
   3  13  -4  178.48    9.50
  -4  13  -4    7.90    1.40
  -4  -4  13    8.60    1.70
  -4   4 -13    5.50    1.10
  -4  13   4    9.30    2.20
 -13   4   4    7.60    1.50
  -4  -4 -13    8.10    1.30
   4   4 -13    8.60    1.30
   4  13  -4   10.50    2.60
  -5  13  -4    0.00    0.90
  -4  -5  13   -0.10    1.30
  -5  13  -4   -0.80    1.30
   5  13   4    1.90    1.20
   4   5 -13    1.80    0.90
   4   5 -13    0.00    1.10
  -5  13   4    0.40    1.00
   5  13  -4    1.10    0.80
  -4  -5 -13   -0.40    1.10
  -4   5  13    2.30    1.40
   5  13  -4    3.90    1.20
  -4   6 -13    4.60    1.10
  -4  -6  13    6.50    1.60
  -6  13  -4    6.50    1.50
  -6  13   4    6.90    1.40
   6  13  -4    4.80    1.10
   4   6 -13    6.20    1.30
   4  -6  13    9.30    4.10
  -4  -6 -13    4.30    1.30
   7  13   4   27.70    3.40
  -4   7 -13   27.90    3.40
  -4  -7  13   26.50    3.30
   4   7  13   33.70    7.60
 -13  -4   7   21.10    3.20
  -7  13  -4   20.90    3.40
  -4   7  13   33.10    3.50
   7  13  -4   23.80    3.30
 -13   4   7   26.10    3.30
   4   7 -13   30.00    3.20
 -13  -4   8   21.00    3.00
  -8  13  -4   15.80    3.40
   8  13   4   25.10    3.50
  -4   8 -13   19.90    3.30
  -4   8  13   26.90    3.40
   4   8 -13   24.50    3.10
   4   8 -13   17.60    2.80
   8  13  -4   13.60    3.40
 -13   4   8   20.70    3.40
  -4  -9  13   58.49    4.40
 -13  -4   9   62.29    4.30
  -4   9 -13   60.19    4.50
 -13   4  -9   49.30    5.60
  -9  13  -4   61.19    4.60
   9  13   4   55.59    4.70
  -4   9  13   67.09    4.70
 -13   4   9   58.29    4.60
   4   9 -13   63.59    4.40
   4   9 -13   54.69    4.00
   9  13  -4   62.99    4.50
  10  13   4    0.50    1.50
 -13  -4  10    0.40    1.40
 -13   4 -10   -2.00    1.50
  -4 -10  13   -1.30    1.40
  -4  10 -13   -0.90    1.00
  10  13  -4    0.80    1.60
  -4  10  13    0.50    1.60
   4  10 -13    0.60    0.80
 -13   4  10   -0.60    1.60
   4  10 -13    0.00    1.20
  -4 -11  13   20.70    3.10
  -4  11 -13   22.50    3.40
  11  13   4   21.90    4.00
 -13  -4  11   23.10    3.20
 -13   4  11   22.40    3.60
   4  11 -13   14.60    3.30
  11  13  -4   23.30    4.40
  -4  11  13   17.60    3.50
  -4 -12  13    0.20    1.30
 -13   4 -12   -1.00    1.50
 -13  -4  12    2.40    1.60
  -4  12 -13    0.90    1.30
  12  13   4    2.10    1.70
  -4  12 -13    0.40    1.00
 -13   4  12    0.30    1.60
  -4  12  13   -1.40    1.70
  12  13  -4    1.80    2.40
   4  12 -13    1.60    0.80
   4  12 -13   -0.80    1.30
  13   5   0   -2.80    4.80
   5   0  13   18.20    7.80
  -1  13  -5   92.79    5.20
  -1  13  -5   94.79    5.30
  -5  -1  13   91.89    5.40
  -5   1 -13   90.59    5.90
  13   5  -1   78.19   13.60
  -5  -1 -13   97.09    5.90
  -1  13   5   89.99    5.10
   1  13  -5   95.69    5.40
   1  13  -5   96.09    5.30
  -5   1  13   95.29    5.50
   5   1 -13  100.79    5.70
   2  13   5   -1.10    1.10
  -2  13  -5    0.00    0.70
   5   2  13   14.20    6.80
   5  -2 -13    1.90    1.70
  13   5  -2   -1.50    5.40
  -5   2  13   -0.20    1.40
   5   2 -13    1.00    0.80
   3  13   5    0.00    1.10
   5   3  13   12.20    6.10
  -3  13  -5   -0.60    1.00
  -3  13  -5   -0.10    0.70
  -5   3  13    1.30    1.30
 -13   5   3   -1.00    1.30
   3  13  -5    1.40    1.00
   5   3 -13    0.80    0.80
  -3  13   5   -0.70    0.90
   5  -3  13    3.20    7.60
  -5  -3 -13   -0.50    1.10
  -5  -4  13    8.40    1.60
  -4  13  -5   12.90    2.50
  -4  13  -5    8.40    1.40
  -5   4 -13    6.50    1.30
  -4  13   5    9.00    1.30
   5  -4  13   10.30    7.20
  -5  -5  13  130.19    7.30
   5  13   5  132.19    7.20
  -5   5 -13  138.69    7.60
  -5  13  -5  133.39    7.30
  -5  13  -5  136.09    7.10
   5  13  -5  141.89    7.00
   5  13  -5  131.19    7.40
   5   5 -13  137.19    7.40
 -13   5   5  148.29    7.40
  -5  13   5  134.89    7.00
  -5  -5 -13  136.09    7.90
  -5   5  13  138.29    7.40
  -6  13  -5   13.80    3.00
  -5   6 -13   15.50    3.20
  -5  -6  13   15.20    2.90
   6  13   5   17.10    3.10
 -13  -5   6   11.00    1.80
   6  13  -5   12.10    2.90
   5  -6  13    2.60    5.70
 -13   5   6   13.10    2.90
  -6  13   5    8.70    1.70
  -5  -7  13  203.98   10.40
 -13   5  -7  185.38   11.20
  -5   7 -13  220.58   10.70
  -7  13  -5  223.88   10.30
   7  13   5  202.78   10.40
   7  13  -5  215.88   10.00
   5   7 -13  190.58   10.00
   7  13  -5  204.08   10.70
  -5   7  13  215.08   10.60
 -13   5   7  220.08   10.50
   5   7 -13  206.08   10.50
  -5  -7 -13  189.88   11.10
   8  13   5   39.20    4.00
 -13  -5   8   40.10    3.50
  -8  13  -5   36.90    3.90
  -5   8 -13   40.60    3.80
 -13   5  -8   30.20    4.90
  -5  -8  13   36.50    3.60
  -5  -8 -13   31.10    5.00
   5   8 -13   44.20    3.60
   8  13  -5   47.20    3.60
   5   8 -13   35.40    3.50
   8  13  -5   35.40    3.80
 -13   5   8   38.40    3.80
 -13   5  -9   69.19    6.40
  -9  13  -5   86.59    5.50
  -5  -9  13   81.19    5.20
 -13  -5   9   87.99    5.20
  -5   9 -13   86.99    5.50
   9  13   5   82.49    5.60
 -13   5   9   85.49    5.50
  -5   9  13   87.99    5.50
   9  13  -5   72.49    5.50
   5   9 -13   86.89    5.30
   9  13  -5   84.19    5.40
   5   9 -13   78.89    5.10
  -5  10 -13   24.20    3.50
  -5 -10  13   21.50    3.10
 -13  -5  10   23.70    3.40
  10  13   5   21.70    3.90
 -10  13  -5   18.50    3.70
   5  10 -13   25.20    3.20
   5  10 -13   22.10    3.40
 -13   5  10   19.40    3.70
  10  13  -5   24.00    4.30
  -5  10  13   25.80    3.60
  -5 -11  13    2.90    1.40
 -13  -5  11    3.60    1.60
 -11  13  -5    0.60    1.70
  11  13   5    3.50    1.60
 -13   5  11    4.20    1.90
   5  11 -13    1.00    1.50
  -5  11  13    3.40    1.80
  11  13  -5    6.50    2.10
 -13   5 -12    3.70    1.80
  -5 -12  13    6.00    1.60
  12  13   5    7.40    2.10
  -5  12 -13    1.90    1.30
 -12  13  -5    2.40    2.00
 -13  -5  12    7.30    1.80
   5  12 -13    4.50    1.00
 -13   5  12    5.30    1.90
  12  13  -5    6.20    2.60
  -5  12  13    1.40    1.80
   5  12 -13    2.40    1.60
   6   0 -13    1.80    1.20
  13   6   0   -9.30    6.00
   6   0  13    1.50   10.50
  -1  13  -6  230.18   11.40
   1  13   6  217.78   11.00
  -1  13  -6  234.28   11.00
   6  -1 -13  233.98   12.60
  -6   1 -13  241.98   11.90
  -6  -1  13  220.98   11.40
   6  -1  13  272.37   25.20
  -6   1  13  217.78   11.40
  -1  13   6  220.78   10.90
   1  13  -6  226.68   11.40
   6   1 -13  229.88   11.80
   1  13  -6  233.18   11.00
  -6  -1 -13  243.18   11.90
   2  13   6    9.80    1.50
  -2  13  -6   10.00    2.40
  -2  13  -6   10.30    2.50
  -6  -2  13    8.10    1.60
   6  -2 -13   12.00    3.10
  -2  13   6   10.30    2.30
  -6  -2 -13    8.00    1.40
   2  13  -6   13.00    2.60
   6  -2  13   15.40   10.50
  -6   2  13   13.90    2.80
  13   6  -2    2.30    8.20
  -3  13  -6   85.49    5.00
  -3  13  -6   84.29    5.00
   3  13   6   84.09    5.20
  -6  -3  13   81.79    5.30
  -6   3 -13   83.89    5.80
  -6   3  13   87.79    5.30
 -13   6   3   98.89    5.30
   3  13  -6   89.99    5.00
   3  13  -6   84.69    5.20
  -3  13   6   84.09    4.90
   6   3 -13   90.69    5.40
  -6  -3 -13   90.19    5.90
  13   6   4   -2.30    2.90
  -6  -4  13    1.80    1.50
  -6   4 -13    1.40    1.20
   4  13   6    4.70    1.30
  -4  13  -6    3.70    1.30
  -4  13  -6    2.20    0.80
   6  -4  13   -3.40    9.90
   6   4 -13    3.30    0.90
 -13   6   4    1.90    1.50
  -4  13   6    2.80    1.30
   4  13  -6    3.90    1.10
   4  13  -6    3.20    1.00
  -6   4  13    3.90    1.50
  -6  -4 -13    2.10    1.20
   5  13   6   -0.70    1.20
  -5  13  -6   -0.90    1.20
  -5  13  -6    0.20    0.80
  -5  13   6   -1.00    1.50
   6   5 -13    0.50    0.80
   5  13  -6   -0.70    0.80
  -6  -5 -13   -1.50    1.10
   5  13  -6    1.90    1.10
  -6   5  13    1.10    1.50
   6  13   6    6.00    1.50
  -6   6 -13    2.90    1.20
 -13   6  -6    1.20    1.30
  -6  13  -6    4.70    1.40
  -6  -6  13    3.90    1.50
  -6  13  -6    3.40    1.00
   6  13  -6    2.20    0.90
  -6  -6 -13    1.00    1.30
   6  -6  13  -10.80    8.00
   6  13  -6    4.90    1.20
  -6   6  13    6.10    1.60
   6   6 -13    3.00    0.90
 -13   6   6    3.50    1.60
  -7  13  -6    0.90    1.40
  -7  13  -6    2.00    1.10
 -13  -6   7    3.40    1.50
  -6  -7  13    0.60    1.30
   7  13   6    1.40    1.40
  -6   7 -13    0.40    1.00
 -13   6  -7   -0.70    1.30
   7  13  -6    2.60    1.20
  -6  -7 -13   -0.80    1.30
   6   7 -13    1.40    0.90
   7  13  -6    0.30    1.00
 -13   6   7    1.00    1.50
  -6   7  13    4.10    1.50
   8  13   6    1.50    1.50
  -6  -8  13   -1.20    1.20
  -6   8 -13   -0.70    1.00
 -13  -6   8    1.20    1.30
  -8  13  -6   -0.90    1.40
   8  13  -6   -0.90    0.90
   8  13  -6   -0.80    1.20
   6   8 -13    0.20    0.90
 -13   6   8   -1.60    1.60
  -6   8  13    2.00    1.50
  -9  13  -6   17.20    3.50
 -13  -6   9   24.20    3.10
  -6  -9  13   17.30    2.90
   9  13   6   21.60    3.50
 -13   6   9   14.30    3.40
   9  13  -6   18.90    3.60
   6   9 -13   20.00    3.10
   9  13  -6   13.80    3.10
 -13   6 -10   -1.10    1.40
  10  13   6    1.60    1.40
 -10  13  -6   -1.60    1.60
  -6  10 -13    0.60    1.10
 -13  -6  10    2.40    1.50
  -6 -10  13   -0.60    1.30
  10  13  -6    0.30    1.80
  -6  10  13    0.50    1.70
  10  13  -6   -1.20    1.00
   6  10 -13    0.30    1.00
 -13   6  10    1.20    1.70
  -6  11 -13   -0.80    1.20
  -6 -11  13    0.30    1.20
 -13  -6  11    1.80    1.50
  11  13   6    2.90    1.60
 -11  13  -6   -1.90    1.70
   6  11 -13   -0.20    0.90
  -6  11  13   -0.80    1.80
  11  13  -6    1.50    2.20
  -6  12 -13    1.00    1.40
 -12  13  -6    0.60    1.80
  -6  12 -13    0.90    1.30
 -13   6 -12   -0.20    1.40
  -6 -12  13    2.70    1.40
  12  13   6    2.70    1.80
 -12  13   6    1.70    1.80
   6  12 -13    1.70    1.00
 -13   6  12    2.20    1.70
  -6  12  13   -0.60    1.70
   0  13   7   -1.20    1.00
  -7   0  13   -1.20    1.40
  13   7   0    1.90    6.40
   7   0 -13    3.50    1.70
   0  13  -7   -0.80    1.10
   0  13  -7    0.50    0.70
  -7   1 -13  119.19    7.20
  -1  13  -7  116.69    6.40
   7  -1 -13  132.19   10.40
  -1  13  -7  117.59    6.20
  -7  -1  13  112.39    6.50
   1  13   7  113.19    6.40
  -1  13   7  105.49    6.50
  -7   1  13  117.79    6.60
  -7  -1 -13  120.59    7.30
   1  13  -7  121.49    6.50
   7   1 -13  126.09    7.70
   1  13  -7  122.69    6.30
  -2  13  -7    4.30    1.20
  -7   2 -13    1.50    1.20
  -2  13  -7    3.60    0.90
   2  13   7    4.10    1.30
  13   7   2    0.10    3.50
  -7  -2  13    5.30    1.50
  -7  -2 -13    1.90    1.30
   2  13  -7    3.10    0.90
  13   7  -2    0.40    9.30
  -3  13  -7   14.40    2.70
  -3  13  -7   19.00    2.80
  -7  -3  13   15.90    3.00
   3  13   7   16.30    3.10
  -3  13   7   16.20    2.90
   3  13  -7   22.30    2.80
  13   7  -3    3.50    8.90
  -7   3  13   21.40    3.10
   3  13  -7   18.10    2.80
   7   3 -13   21.20    3.70
  13   7   4    0.60    2.70
   4  13   7    6.50    1.50
  -4  13  -7    5.40    1.30
  -7   4 -13    3.90    1.30
  -7  -4  13    8.00    1.60
   4  13  -7    5.30    1.00
  -4  13   7    6.00    1.50
   7  -4  13   -3.70    8.10
 -13   7   4    6.20    1.70
  -5  13  -7   20.60    3.10
  -7   5 -13   18.20    3.70
  -5  13  -7   20.10    3.00
   5  13   7   19.10    3.30
  -7  -5  13   18.70    3.00
   7   5 -13   22.90    3.40
   5  13  -7   18.30    3.00
 -13   7   5   17.50    3.20
   5  13  -7   24.90    2.90
  -7   5  13   26.10    3.20
  -7   6 -13    2.90    1.20
 -13   7  -6    1.60    1.40
  -6  13  -7    6.30    1.50
  -6  13  -7    4.00    1.10
 -13   7   6    6.80    1.80
   7   6 -13    4.10    1.10
   6  13  -7    3.40    1.00
  -7  13  -7   61.09    4.50
  -7  -7  13   60.79    4.20
   7  13   7   62.49    4.70
 -13   7  -7   48.00    5.40
  -7  13  -7   59.39    4.80
  -7   7 -13   60.79    4.90
   7  13  -7   53.99    4.30
 -13   7   7   56.99    4.60
   7  13  -7   58.49    4.10
  -7   7  13   61.19    4.50
   7   7 -13   60.39    4.50
  -7  -8  13    0.70    1.30
  -8  13  -7    0.40    1.40
  -7   8 -13    1.30    1.20
 -13  -7   8    2.70    1.50
   8  13   7    1.60    1.30
 -13   7  -8   -1.10    1.30
   8  13  -7    0.80    1.20
   7   8 -13    0.50    0.90
 -13   7   8    0.50    1.70
  -7   8  13    3.40    1.60
   8  13  -7    0.60    0.90
  -7   9 -13    6.80    1.40
  -9  13  -7    8.70    1.70
   9  13   7    9.70    1.90
   7   9 -13   12.90    3.00
   9  13  -7    9.00    1.70
 -13   7   9    8.10    1.90
   9  13  -7    6.80    1.20
 -10  13  -7    2.70    1.60
  -7 -10  13    4.60    1.30
  10  13   7    4.00    1.60
 -10  13   7    5.30    2.10
  10  13  -7    5.80    2.10
 -13   7  10    2.90    1.70
   7  10 -13    3.40    1.00
  -7  10  13    6.40    1.80
  10  13  -7    3.00    1.10
  -7  11 -13   -0.90    1.20
 -13   7 -11   -1.90    1.50
 -11  13  -7   -2.30    1.60
 -13  -7  11    0.90    1.60
  -7 -11  13    0.60    1.20
  11  13   7   -0.70    1.50
 -13   7  11    0.50    1.70
  -7  11  13   -1.50    1.80
 -11  13   7   -1.50    1.70
   7  11 -13    0.80    0.90
  -7  12 -13   11.30    1.90
 -13   7 -12    7.20    1.80
  -7  12 -13    7.10    1.70
  -7 -12  13   12.60    2.70
 -12  13  -7    5.70    2.10
  12  13   7    7.10    1.90
 -13  -7  12   10.40    2.00
  13   7 -12   10.10    2.50
 -12  13   7    8.10    2.10
  -7  12  13    9.20    2.20
 -13   7  12    7.20    2.00
  13   8   0    6.60    4.80
   8   0 -13    3.50    2.50
   0  13  -8    0.80    0.80
   0  13  -8    1.20    1.10
   0  13   8    0.30    1.20
  -8   0  13    1.30    1.40
  -8   1 -13    4.70    1.40
  -1  13  -8   11.20    2.60
  13   8   1    2.00    4.10
   1  13   8    6.80    1.40
  -1  13  -8   10.50    2.60
  -8   1  13    8.60    1.70
  -8  -1 -13    5.00    1.50
  13   8  -1    3.30    5.30
   8   1 -13    7.40    2.00
   2  13   8   36.30    3.90
  -2  13  -8   42.00    3.60
  -8  -2  13   45.80    3.80
  -2  13  -8   44.50    3.50
  -8   2 -13   50.99    4.80
   8   2 -13   47.70    5.40
  -2  13   8   46.20    3.70
   2  13  -8   48.40    3.50
  -8   2  13   41.40    3.80
  -8  -2 -13   40.70    4.70
   2  13  -8   46.60    3.70
  -8   3 -13    1.40    1.30
  -8  -3  13    2.30    1.40
   3  13   8    2.20    1.40
  -3  13  -8    2.40    0.90
  -3  13  -8    4.20    1.30
  13   8   3   -0.10    3.20
  -8  -3 -13    0.30    1.30
  13   8  -3    9.00    7.30
   3  13  -8    1.90    0.90
   8   3 -13    3.50    1.40
 -13   8   3    0.80    1.60
   3  13  -8    3.70    1.20
  -8   3  13    4.70    1.60
  -4  13  -8   29.20    3.30
   4  13   8   31.30    3.70
  -8   4 -13   32.10    4.30
  -8  -4  13   32.50    3.30
  -4  13  -8   31.50    3.30
   4  13  -8   29.00    3.30
  -8   4  13   33.60    3.50
   4  13  -8   33.00    3.10
   8   4 -13   31.90    4.10
 -13   8   4   31.00    3.70
   5  13   8    5.30    1.60
  -5  13  -8    3.30    1.00
  -8  -5  13    5.40    1.60
  -5  13  -8    5.40    1.40
  -8   5 -13    2.50    1.20
  13   8   5   -1.00    2.60
   8   5 -13    3.50    1.20
 -13   8   5    3.60    1.80
   5  13  -8    3.60    1.00
   5  13  -8    5.40    1.30
   6  13   8   48.00    4.20
  -6  13  -8   48.00    4.20
  -8  -6  13   46.00    3.70
  -8   6 -13   48.90    4.60
  -6  13  -8   50.69    4.00
 -13   8  -6   36.50    5.10
   8   6 -13   47.70    4.30
  -8   6  13   51.39    4.10
   6  13  -8   43.90    3.90
   6  13  -8   44.50    3.60
 -13   8   6   47.00    4.30
  -7  13  -8    1.00    1.30
  -8   7 -13    0.70    1.20
  -8  -7  13    1.10    1.20
  -7  13  -8    0.10    1.20
   7  13   8    1.80    1.30
 -13   8  -7   -0.60    1.40
  -8   7  13    2.00    1.60
   7  13  -8    0.20    0.80
   7  13  -8    1.10    1.30
   8   7 -13    0.50    0.90
 -13   8   7   -1.90    1.70
  -8  13  -8    0.20    1.40
  -8  13  -8   -0.70    1.40
  -8  -8  13    0.10    1.30
 -13   8  -8   -1.90    1.40
   8  13   8    1.10    1.50
  -8   8 -13   -0.60    1.20
   8   8 -13    1.60    1.00
   8  13  -8   -0.50    1.40
   8  13  -8    0.10    0.90
 -13   8   8   -0.70    1.70
  -8   8  13    0.00    1.50
  -8  -9  13    0.60    1.20
   9  13   8    0.30    1.40
 -13  -8   9    0.90    1.70
  -9  13  -8   -1.70    1.50
 -13   8  -9   -1.80    1.50
  -9  13   8   -2.20    1.90
 -13   8   9   -0.30    1.60
   9  13  -8    0.40    1.60
  -8   9  13    0.70    1.70
 -13   8 -10    1.30    1.70
 -10  13  -8   -0.40    1.50
  10  13   8    0.20    1.60
  -8  10 -13    0.80    1.30
  -8 -10  13    0.50    1.30
 -13  -8  10    2.10    1.80
  10  13  -8   -1.00    2.20
  -8  10  13    1.60    1.80
 -10  13   8    0.00    1.80
 -13   8  10   -0.40    1.70
  10  13  -8   -0.70    0.90
   8  10 -13    1.60    0.90
 -13  -8  11    2.90    1.80
  -8 -11  13    1.60    1.30
  11  13   8    0.40    1.50
 -13   8 -11   -0.50    1.70
 -11  13  -8   -2.40    1.60
  -8  11 -13   -0.90    1.40
   8  11 -13    2.40    1.00
 -11  13   8    0.90    1.90
  -8  11  13    0.30    1.90
 -13   8  11   -1.50    1.80
 -13   8 -12    6.10    1.90
  -8  12 -13    5.80    1.90
  13   9   0    2.40    3.60
   0  13  -9    1.30    1.10
   0  13  -9    0.60    0.80
  -9   0  13    0.40    1.40
   9   0 -13    1.00    3.60
  -9   0 -13   -1.50    1.40
   0  13   9    0.50    1.30
  -9   1 -13   20.40    4.50
  -9  -1  13   25.20    3.20
  -1  13  -9   24.30    3.10
  -1  13  -9   27.00    2.90
   1  13   9   25.10    3.30
  -1  13   9   30.10    3.50
   1  13  -9   29.30    2.90
  -9  -1 -13   21.30    4.50
  -9   1  13   23.90    3.20
   1  13  -9   25.50    3.00
  -2  13  -9   46.40    3.80
  -9  -2  13   51.79    4.00
   2  13   9   46.90    4.10
  -9   2 -13   51.39    5.10
  -2  13  -9   49.90    3.70
  13   9  -2   43.50   10.00
  -9   2  13   48.20    4.00
   2  13  -9   53.29    3.70
   9   2 -13   52.69    6.60
  -9  -2 -13   42.40    5.10
  -2  13   9   51.69    4.20
   2  13  -9   49.20    3.90
   3  13   9    2.70    1.30
   3  13   9    2.90    1.70
  -9   3 -13    1.90    1.30
  -3  13  -9    1.70    0.90
  -9  -3  13    4.80    1.50
  13   9   3    0.10    2.80
  -3  13  -9    3.40    1.20
  -9  -3 -13    0.80    1.40
 -13   9   3    3.80    1.80
  13   9  -3    7.90    4.40
   3  13  -9    3.10    0.90
   3  13  -9    4.40    1.20
  -9   3  13    4.30    1.50
  -3  13   9    4.10    1.50
   9   3 -13    2.70    1.50
  -9  -4  13   52.59    3.90
  -4  13  -9   51.49    3.90
  -4  13  -9   50.09    3.90
  -9   4 -13   50.19    5.10
   4  13   9   46.30    4.10
  13   9   4   36.90    6.80
   4  13   9   40.00    4.60
   4  13  -9   49.70    3.70
  -9   4  13   54.79    4.10
   9   4 -13   48.80    5.10
   4  13  -9   49.99    4.00
 -13   9   4   50.59    4.30
   5  13   9   17.30    3.40
  -5  13  -9   16.50    3.40
  -9  -5  13   18.80    2.90
  -5 -13   9   14.40    3.00
  -5  13  -9   20.90    3.10
   9   5 -13   20.70    4.00
   5  13  -9   16.90    2.90
   5  13  -9   16.10    3.00
  -9   5  13   17.60    3.20
 -13   9   5   13.80    3.50
  -9   6 -13   42.70    4.60
  -6 -13   9   37.10    3.70
 -13   9  -6   35.20    5.40
  13   9   6   28.90    6.00
  -9  -6  13   42.20    3.60
  -6  13  -9   40.00    4.30
  -6  13  -9   42.60    3.80
   6  13   9   41.50    4.10
   9   6 -13   42.00    4.50
 -13   9   6   42.60    4.20
  -9   6  13   45.20    4.00
  -6  13   9   46.90    4.30
   6  13  -9   44.00    3.80
   6  13  -9   41.10    3.70
   7  13   9    0.20    1.30
  -9  -7  13    1.20    1.20
  -9   7 -13   -0.80    1.30
  -7  13  -9   -0.50    1.20
  -7  13  -9   -0.70    1.40
   9   7 -13    1.30    1.10
  -7  13   9   -2.10    1.80
  -9   7  13    0.00    1.50
   7  13  -9   -0.50    0.80
   7  13  -9   -0.30    1.30
   8  13   9   16.90    3.30
  -8  13  -9   20.10    3.50
  -9  -8  13   19.90    2.80
  -8  13  -9   20.30    4.80
  -9   8  13   18.80    3.40
 -13   9   8   16.70    3.70
  -8  13   9   13.10    2.30
   8  13  -9   17.00    3.80
  -9  -9  13    1.90    1.30
 -13   9  -9    0.60    1.80
  -9  13  -9   -1.90    1.40
   9  13   9   -1.20    1.50
  -9   9 -13    0.20    1.20
   9  13  -9    0.90    1.90
 -13   9   9   -0.10    2.00
   9  13  -9    1.20    0.90
  -9   9  13    0.20    1.60
   9   9 -13    2.20    1.10
  -9  13   9   -1.10    1.70
 -13   9 -10    6.30    2.00
  -9  10 -13    4.40    1.50
 -10  13  -9    7.80    1.80
  10  13   9    7.60    1.90
   9  10 -13    5.10    1.20
 -10  13   9   10.90    2.20
  10  13  -9   11.70    2.80
  -9  10  13    9.50    2.00
  -9  11 -13    5.10    1.90
 -13   9 -11    0.90    1.90
   9  11 -13    4.50    1.10
  11  13  -9    3.70    1.10
  -9 -12  13    1.40    1.30
  -9  12 -13    1.70    2.20
 -13   9 -12   -1.50    2.00
  -9  12 -13   -0.30    1.40
 -12  13  -9   -1.10    1.70
 -13  -9  12    5.00    2.10
  12  13   9   -0.50    2.00
 -12  13   9    1.90    1.90
  -9  12  13    2.00    2.00
 -13   9  12    3.20    2.10
   9  12 -13    1.80    1.00
 -10   0  13    0.50    1.40
   0  13 -10    0.50    0.80
   0  13  10   -0.40    1.60
   0  13  10    0.70    1.30
 -10   0 -13   -0.70    1.40
   0  13 -10    2.00    1.00
  13  10   0    1.40    2.90
  -1  13 -10   -0.20    0.90
  13  10   1    4.60    3.00
   1  13  10    0.50    1.60
 -10   1 -13   -0.60    1.40
   1  13  10    1.20    1.30
  -1  13 -10    1.20    1.10
 -10  -1  13    1.20    1.30
  -1  13  10    1.40    1.40
  10   1 -13    0.20    3.60
  13  10  -1    3.30    3.00
 -10  -1 -13   -1.00    1.40
   1  13 -10    1.10    0.80
   1  13 -10    2.60    1.10
  -1  13  10    0.20    1.50
 -10   1  13    1.70    1.50
  13  10   2    9.70    3.20
   2  13  10   16.00    3.30
  -2  13 -10   13.60    3.00
 -10  -2  13   18.90    3.00
  -2  13 -10   16.50    2.70
  -2  13  10   14.30    3.20
  -2  13  10   18.00    3.70
   2  13 -10   17.30    2.80
   2  13 -10   13.70    2.90
 -10   2  13   13.70    3.00
  -3 -13  10   19.90    3.50
  -3  13 -10   23.40    3.00
 -10   3 -13   23.20    4.70
 -10  -3  13   27.50    3.10
  -3  13 -10   23.80    3.10
   3  13  10   22.50    3.50
   3  13 -10   23.00    2.90
   3  13 -10   25.40    3.20
  13  10  -3   15.70    4.00
 -10   3  13   27.60    3.30
  -3  13  10   23.90    3.50
  13  10   4   41.20    6.60
 -10   4 -13   60.79    5.50
  -4  13 -10   53.39    4.00
 -10  -4  13   56.29    4.00
   4  13  10   49.20    4.30
  -4  13 -10   51.89    4.10
  -4 -13  10   48.10    4.20
   4  13 -10   49.60    4.00
 -10   4  13   54.89    4.30
 -13  10   4   50.49    4.60
  10   4 -13   43.40    6.10
   4  13 -10   49.90    3.90
  13  10  -4   54.49    9.80
  -4  13  10   49.60    4.40
  -5  13 -10    5.00    1.20
   5  13  10    4.90    1.40
  13  10   5    2.20    2.30
  -5  13 -10    7.50    1.50
  -5 -13  10    6.80    1.60
 -13  10   5    4.20    1.80
   5  13 -10    5.50    1.10
   5  13 -10    4.40    1.30
  10   5 -13    4.10    1.60
 -10   5  13    6.20    1.60
  -5  13  10    4.80    1.70
 -10   6 -13   23.50    4.30
 -10  -6  13   19.80    2.90
  -6  13 -10   20.10    3.30
  -6  13 -10   15.50    3.90
  -6 -13  10   17.30    3.00
   6  13  10   13.30    3.20
  13  10   6   15.70    3.00
 -10   6  13   20.10    3.40
 -13  10   6   19.00    3.80
  -6  13  10   17.30    3.60
   6  13 -10   22.90    3.10
   6  13 -10   16.00    3.10
  -7 -13  10   13.50    3.00
 -10  -7  13   21.90    3.00
  -7  13 -10   19.30    4.40
  -7  13 -10   18.10    3.40
   7  13  10   15.40    3.40
 -13  10   7   20.60    3.70
   7  13 -10   15.90    3.40
 -10   7  13   18.30    3.50
   7  13 -10   19.70    3.00
  -7  13  10   17.40    2.50
  -8 -13  10    4.80    1.60
 -10  -8  13    5.90    1.50
 -10   8 -13    3.70    1.50
  -8  13 -10    3.00    1.60
  -8  13 -10    3.10    1.80
  13  10   8   -1.30    2.20
   8  13  10    2.10    1.40
  -8  13  10    1.70    1.80
   8  13 -10    4.50    1.10
 -10   8  13    0.90    1.70
  10   8 -13    3.40    1.30
   8  13 -10    2.90    1.70
 -13  10   8    2.40    1.90
  -9  13 -10   10.70    1.90
   9  13  10    6.80    1.70
  -9  13 -10    5.00    2.20
 -10   9 -13    8.10    1.70
 -13  10   9    8.30    2.10
  -9  13  10    8.00    2.00
  10   9 -13    6.60    1.40
 -10   9  13    9.60    2.20
  10  13  10   -2.70    1.70
 -13  10 -10   -2.10    2.30
  10  13 -10   -0.20    0.90
  10  10 -13   -1.10    0.90
 -10  11 -13   -2.60    2.00
 -10 -11  13    0.40    1.30
 -13  10 -11   -2.40    2.40
  10  11 -13    1.30    1.10
  11  13 -10   -1.20    1.00
 -10  12 -13    2.80    1.70
 -12  13 -10    2.20    1.90
 -10 -12  13    2.70    1.60
 -10  12 -13    0.80    3.00
 -13  10 -12    1.50    3.40
 -12  13  10    5.60    2.20
 -13  10  12    5.10    2.30
 -10  12  13    2.60    1.90
  10  12 -13    3.00    1.00
 -11   0 -13   -0.20    1.40
   0  13 -11    0.30    0.80
   0  13  11   -1.40    1.40
  13  11   0    2.20    2.50
   0  13 -11    0.10    1.00
   0  13  11   -0.20    1.70
 -11   0  13    1.60    1.40
  -1  13 -11    3.70    1.20
 -11   1 -13    2.80    1.70
   1  13  11    3.50    1.90
  -1  13 -11    3.10    1.00
  13  11   1    5.70    2.60
   1  13  11    2.80    1.50
  -1  13  11    2.20    1.60
  -1  13  11    1.70    1.60
 -11  -1 -13    1.60    1.50
 -11   1  13    3.60    1.50
   1  13 -11    3.30    1.00
   1  13 -11    2.60    1.20
  13  11  -1    4.40    2.70
 -11   2 -13   -2.00    1.40
   2  13  11   -0.70    1.30
   2  13  11   -1.90    1.90
  -2  13 -11    0.50    0.90
 -11  -2  13    2.20    1.40
  13  11   2    0.30    2.50
  -2  13 -11    0.30    1.10
 -11  -2 -13   -1.40    1.50
 -11   2  13    0.10    1.40
   2  13 -11    0.80    1.10
  13  11  -2    1.90    2.90
  -2  13  11   -0.60    1.70
  11   2 -13   -3.70    3.50
   2  13 -11    0.50    0.90
  -3  13 -11    2.10    1.00
  13  11   3    4.90    2.60
 -11   3 -13   -0.10    1.60
  -3  13 -11    2.60    1.20
  -3 -13  11    0.20    1.40
   3  13  11   -0.80    2.30
   3  13  11    0.90    1.40
 -11  -3  13    5.10    1.50
   3  13 -11    1.90    1.00
 -11   3  13    4.10    1.50
   3  13 -11    1.90    1.20
  13  11  -3    6.60    3.20
  -3  13  11    2.60    1.80
  11   3 -13   -1.10    2.70
   4  13  11   69.29    5.00
  -4 -13  11   71.29    5.00
  13  11   4   67.59    6.90
  -4  13 -11   74.99    5.00
 -11  -4  13   76.09    4.70
  -4  13 -11   79.69    4.80
 -13  11  -4   58.89    5.40
 -11   4  13   76.19    5.00
   4  13 -11   69.09    4.90
  -4  13  11   73.09    5.20
 -13  11   4   72.49    5.40
  11   4 -13   63.79    7.90
   4  13 -11   67.59    4.60
  13  11  -4   86.39    8.80
   5  13  11   -1.30    1.30
  -5 -13  11   -1.40    1.20
 -11  -5  13   -0.50    1.40
  -5  13 -11   -1.40    1.20
  -5  13 -11   -0.70    1.30
  13  11   5   -0.20    2.00
 -11   5  13    1.30    1.70
  11   5 -13    1.00    1.80
   5  13 -11   -1.20    1.20
 -11   6 -13    6.00    1.60
  13  11   6    9.00    2.60
  -6 -13  11    6.40    1.50
   6  13  11    8.20    1.70
 -11  -6  13   12.30    3.00
 -13  11  -6    6.50    1.90
  11   6 -13    8.00    1.90
  -6  13  11    7.80    2.00
 -11   6  13   10.60    2.00
   6  13 -11    6.80    1.50
 -13  11   6    6.10    1.90
  -7 -13  11   -1.80    1.30
  13  11   7   -1.00    2.10
   7  13  11   -1.90    1.30
 -11   7 -13   -1.80    1.40
 -11  -7  13   -0.50    1.30
  -7  13 -11   -1.80    1.40
 -13  11   7   -2.10    1.60
   7  13 -11   -2.40    1.50
  11   7 -13    0.80    1.50
   7  13 -11   -0.40    0.90
 -11  -8  13    3.10    1.50
  13  11   8   -2.50    2.00
  -8 -13  11    0.50    1.40
  -8  13 -11    0.50    1.60
  -8  13 -11    0.00    1.80
 -11   8 -13    0.90    1.40
   8  13  11    1.20    1.50
  11   8 -13    0.80    1.30
 -13  11   8   -0.40    1.90
 -11   8  13    2.10    1.80
  -8  13  11   -1.80    1.60
   8  13 -11    1.10    0.80
  -9  13 -11    2.40    2.30
 -11   9 -13    2.60    1.60
  11   9 -13    2.10    1.20
   9  13 -11    3.60    1.00
 -11 -10  13    0.80    1.50
  10  13 -11   -0.30    0.80
 -13  11  10   -1.10    2.00
  11  10 -13    0.20    1.10
 -11  13 -11   27.00    4.10
 -11 -11  13   29.60    3.60
 -11  11 -13   26.70    3.60
 -11  13  11   36.90    4.40
 -11  11  13   30.80    4.40
 -13  11  11   32.00    4.60
  11  13 -11   34.40    4.00
 -12  13  11   -2.90    1.90
 -12   0  13    2.20    1.50
  13  12   0    2.10    2.20
   0  13  12   -2.30    1.90
   0  13 -12   -0.20    1.00
   0  13  12   -2.20    1.70
   1  13  12    9.60    2.30
  -1  13 -12   16.00    2.70
   1  13 -12   13.00    2.70
  -1  13  12   13.30    2.30
  13  12   2   38.20    5.70
 -12   2 -13   28.10    5.10
   2  13  12   19.50    4.90
  -2  13 -12   29.00    3.10
   2  13  12   21.40    4.00
  -2 -13  12   30.60    3.90
 -12  -2 -13   24.00    4.80
 -12   2  13   36.00    3.80
  -2  13  12   26.50    3.80
   2  13 -12   29.20    3.20
 -12  -3  13    4.10    1.50
  -3  13 -12    1.00    1.00
  -3 -13  12    1.70    1.60
  13  12   3    4.00    2.30
 -12   3 -13    1.00    1.60
   3  13  12    0.70    1.50
  -3  13 -12    2.50    1.30
  -3  13  12    1.10    1.60
  12   3 -13   -2.30    3.60
   3  13 -12    2.40    0.90
 -12   3  13    2.10    1.50
   3  13 -12    2.70    1.30
  13  12  -3    6.70    2.80
 -12   4 -13    5.30    1.70
  -4 -13  12    7.50    1.70
  -4  13 -12    5.30    1.10
 -13  12  -4    5.60    2.10
  13  12   4    7.40    2.20
   4  13  12    7.80    1.80
 -13  12   4    9.00    2.20
 -12   4  13   10.30    1.90
   4  13 -12    8.80    1.50
  13  12  -4   13.90    3.40
  -4  13  12    7.10    1.90
  -5 -13  12    4.80    1.60
 -13  12  -5    1.40    2.00
  -5  13 -12    2.10    1.20
  -5  13 -12    4.70    1.50
  13  12   5    3.70    2.30
 -12  -5  13    6.50    1.70
   5  13 -12    3.90    1.00
 -12   5  13    4.90    1.80
   5  13 -12    4.00    1.50
  12   5 -13    5.20    2.50
 -13  12   5    5.30    2.00
  -5  13  12    0.70    1.80
 -12  -6  13   46.70    3.80
  -6  13 -12   38.30    5.00
   6  13  12   29.00    4.40
  13  12   6   39.00    5.50
  -6  13 -12   39.60    3.90
  -6 -13  12   34.30    3.60
 -12   6 -13   40.50    5.10
 -12   6  13   40.20    4.30
  -6  13  12   28.20    4.10
  12   6 -13   42.40    6.80
   6  13 -12   45.90    3.80
   6  13 -12   28.20    4.20
 -13  12   6   39.40    4.40
   7  13  12    4.90    1.80
  -7 -13  12    5.20    1.50
 -13  12  -7    3.90    2.00
  -7  13 -12    5.70    1.50
  13  12   7    9.30    2.50
  -7  13 -12    4.10    1.70
  12   7 -13    6.90    2.00
  -7  13  12    4.50    2.10
 -12   7  13    7.40    2.00
  12   8 -13   23.00    5.20
   8  13 -12   19.50    3.00
 -12   9 -13    3.60    2.00
  -9  13 -12    5.90    1.80
 -12  -9  13    7.20    1.70
  -9 -13  12    4.90    1.90
  -9  13 -12    4.30    2.60
 -13  12  -9    3.50    1.80
 -12   9  13    9.30    2.40
  -9  13  12    6.70    2.20
   9  13 -12    5.60    1.10
 -13  12   9    8.70    2.30
 -12 -10  13   -1.80    1.60
 -13  12  10   -2.30    2.00
  10  13 -12    0.40    0.90
 -11  13 -12    1.00    1.80
 -12 -11  13    2.20    2.20
 -13  12 -11   -0.20    1.70
 -12  11  13    3.20    2.20
 -13  12  11    1.60    2.10
 -11  13  12    4.30    2.00
 -13   0  13    2.80    1.60
 -13   0 -13   -1.40    1.40
   0  13  13   -1.00    2.20
   0  13 -13   -0.20    1.20
   0  13 -13    0.70    0.90
  13  13   0    4.00    2.20
 -13  -1  13   48.80    4.10
   1  13  13   38.60    5.60
  13  13   1   50.69    5.70
  -1  13 -13   45.20    4.00
  -1  13 -13   43.20    3.60
  -1  13  13   40.40    4.70
   1  13 -13   35.90    3.60
   1  13 -13   46.70    3.80
 -13   1  13   51.09    4.10
 -13  -2  13   -0.80    1.60
  13  13   2    0.60    2.20
  -2  13 -13   -0.90    1.10
 -13   2  13   -0.90    1.60
  13  13  -2    2.70    2.40
  -3 -13  13   15.20    3.40
  -3  13 -13   15.90    3.30
 -13   3 -13   11.80    2.10
  -3  13  13   16.50    2.50
   3  13 -13   15.60    3.30
 -13  -4  13    0.40    1.70
  13  13   4   -1.20    2.00
  -4  13 -13   -1.40    1.30
  -4  13 -13   -0.30    1.00
   4  13 -13    0.10    0.80
 -13   4  13   -1.00    1.60
  13  13  -4    3.50    3.00
  -5 -13  13    1.70    1.50
  -5  13 -13    0.30    1.20
 -13   5 -13   -1.60    1.50
  -5  13 -13    2.00    1.30
 -13  13  -5   -2.00    2.20
  13  13   5    2.30    2.00
 -13  13   5    0.30    1.80
  -5  13  13   -1.80    1.70
   5  13 -13    0.40    1.70
 -13   5  13    0.90    1.70
 -13   6 -13   -1.40    1.50
  -6  13 -13   -1.70    1.40
  -7 -13  13   -1.60    1.30
 -13  -7  13    1.40    1.80
  13  13   7    0.40    1.90
 -13   7 -13   -1.40    1.60
  -7  13 -13   -1.90    1.70
 -13  13  -7   -3.00    2.00
  -7  13 -13   -1.50    1.50
  -7  13  13   -1.10    1.90
 -13  13   7   -0.90    1.70
   7  13 -13    1.90    1.00
 -13   7  13    0.40    1.80
 -13  -8  13    1.20    2.00
 -13   8 -13   -2.00    1.80
  13  13   8   -2.00    2.20
  -8  13 -13   -2.50    2.10
   8  13 -13    0.80    0.90
 -13  13   8   -0.70    1.80
  -9 -13  13   17.40    2.30
 -13  -9  13   24.40    4.40
  -9  13 -13   17.60    3.70
 -13  13  -9   10.20    2.40
 -13  13   9   16.70    4.00
 -13   9  13   13.50    2.50
 -13  13  10   -1.30    2.20
   0   0 -14  191.28    9.50
   0  14   0  178.18    9.00
   0  -2 -14  322.07   15.30
   0   2 -14  315.67   15.30
  -2  14   0  318.57   14.60
   2  14   0  312.07   14.60
   0  -2  14  299.87   15.30
  -4  14   0  409.16   18.30
   0   4 -14  406.56   19.10
   0   4  14  394.26   19.10
   4  14   0  395.86   18.20
   0  -4 -14  397.66   19.10
   0  -4  14  376.16   19.10
   0   5  14    2.80    1.80
 -14   0   5   -0.10    1.70
   0  -5  14    4.50    1.70
  -5  14   0    3.30    1.40
   0  -5 -14    2.40    1.10
   0   6  14  394.56   19.40
 -14   0   6  438.16   35.70
   6  14   0  384.86   18.60
   0  -6  14  402.26   19.50
   0   6 -14  408.56   19.50
  -6  14   0  408.16   18.60
   0   7 -14   -0.60    0.90
   0  -7  14   -1.00    1.60
   0   7  14   -2.10    1.70
  -7  14   0   -1.40    1.40
   7  14   0    0.20    1.10
 -14   0   7   -0.30    1.40
   0   8 -14  101.49    6.00
   0   8  14   96.69    6.50
  -8  14   0  104.89    6.30
   8  14   0  103.09    6.00
   0  -8  14  107.69    6.60
 -14   0   8  112.99    6.10
   0  -9  14   -1.20    1.60
 -14   0   9    0.20    1.60
   9  14   0    0.30    1.40
   0   9 -14   -0.80    0.80
   0  10 -14   64.29    4.30
 -14   0  10   77.69    5.10
   0  10 -14   71.79    4.80
  10  14   0   75.19    5.20
   0  10  14   70.99    5.40
   0 -10  14   71.09    5.50
 -14   0  11    1.50    1.60
   0 -11  14   -1.40    1.70
   0  11 -14    0.60    0.90
   0  11 -14   -0.90    1.00
  11  14   0    2.10    1.70
   0  12 -14  108.09    6.40
 -14   0  12  125.99    6.70
   0  12  14  105.69    7.30
   0 -12  14  102.59    7.10
 -14   0 -12   92.39    7.40
   0  12 -14   98.19    5.90
  12  14   0  117.09    7.50
  13  14   0    1.50    2.00
 -14   0  13    0.90    1.90
  -1   0 -14    1.10    0.90
  -1   0  14    1.90    1.70
   0  14  -1    3.50    1.30
   0  14   1    2.50    1.10
  -1   1 -14   19.70    3.10
  -1  14  -1   23.80    3.10
  -1  -1  14   12.90    3.30
   1  -1 -14   19.10    3.00
   1  14   1   24.80    2.80
  -1  -1 -14   18.70    3.00
   1   1 -14   21.10    2.90
   1  14  -1   14.70    3.00
   1  14  -1   19.70    2.70
  -1  14   1   18.60    2.80
  -1   1  14   14.90    3.50
  -1  -2  14   51.29    4.40
   1  -2 -14   59.29    4.20
  -2  14  -1   57.59    4.10
   2  14   1   61.29    4.00
  -1   2 -14   56.89    4.20
   2  14  -1   49.40    4.00
  -1  -2 -14   55.59    4.30
  -1   2  14   47.90    4.40
   1   2 -14   59.39    4.10
   2  14  -1   55.99    4.00
  -2  14   1   53.19    4.00
  -1  -3  14   36.90    3.80
  -1   3 -14   33.80    3.60
  -3  14  -1   35.30    3.60
   1  -3 -14   30.00    3.70
   3  14   1   39.50    3.30
  -3  14   1   32.60    3.30
   1   3 -14   37.20    3.40
  -1   3  14   33.80    3.90
  -1  -3 -14   32.80    3.80
   3  14  -1   41.80    3.40
   3  14  -1   29.70    3.50
  -4  14  -1   49.00    4.20
   1  -4 -14   53.79    4.50
   4  14   1   57.69    4.00
  -1   4 -14   55.49    4.20
  -1  -4  14   56.89    4.40
  -4  14   1   55.09    4.00
   1  -4  14   57.29    5.00
   1   4 -14   50.99    4.10
  -1  -4 -14   48.70    4.50
  -1   4  14   51.99    4.60
   4  14  -1   60.29    4.00
  -5  14  -1   86.39    5.40
   5  14   1   89.39    5.30
  -1  -5  14   83.89    5.60
  -1   5 -14   92.09    5.60
   1   5  14   93.69    6.20
  -5  14   1   83.99    5.40
 -14   1   5   90.79    5.60
   1   5 -14   87.49    5.40
   5  14  -1   88.89    5.20
  -1  -5 -14   80.09    5.80
  -1   5  14   85.99    5.70
   1  -5  14   97.59    6.30
  -1  -6  14    6.00    1.60
   6  14   1    3.60    1.40
   1   6  14    5.70    2.00
 -14  -1   6    1.40    1.70
  -1   6  14    3.20    1.90
 -14   1   6    2.20    1.60
  -6  14   1    4.90    1.50
   1  -6  14    8.00    2.20
  -7  14  -1   34.20    3.80
  -1  -7  14   44.10    4.00
  -1   7 -14   37.60    3.60
   7  14   1   37.80    3.60
   1   7  14   38.30    4.60
   7  14  -1   45.20    3.60
 -14   1   7   43.60    3.70
  -1   7  14   34.10    4.10
   1   7 -14   36.00    3.50
  -7  14   1   39.10    3.70
   1  -7  14   43.70    4.70
  -1  -8  14    2.90    1.80
  -1   8 -14    2.90    1.00
 -14  -1   8    7.00    1.70
   1   8  14    5.30    2.00
  -8  14  -1    3.80    1.60
   8  14   1    5.80    1.40
   1  -8  14    5.60    2.20
   1   8 -14    4.60    1.10
  -8  14   1    2.30    1.50
   8  14  -1    4.90    1.40
   1   8 -14    3.90    1.10
  -1   8  14    3.20    1.80
  -1   9 -14   12.00    2.80
  -1  -9  14   10.90    2.00
   1   9  14    9.70    2.30
  -9  14  -1    7.00    1.80
   9  14  -1   15.00    3.10
  -1   9  14   10.00    2.20
   1   9 -14   11.40    2.40
  -9  14   1    7.90    1.90
 -14   1   9   15.90    3.50
   1  -9  14   17.00    4.10
   1  10  14   65.29    5.60
  -1 -10  14   68.09    5.10
  10  14   1   67.79    5.20
 -14  -1  10   71.99    5.00
 -10  14  -1   56.69    5.50
  -1  10 -14   62.99    4.10
  -1  10 -14   66.89    4.60
  10  14  -1   73.39    5.10
 -14   1  10   75.89    5.00
   1 -10  14   68.99    5.80
   1  10 -14   59.29    4.10
   1  10 -14   66.79    4.60
  -1  10  14   61.79    5.20
   1  11  14   -3.00    2.30
  -1  11 -14   -0.50    1.10
  -1 -11  14   -0.40    1.70
  -1  11 -14    0.00    0.80
  11  14   1   -0.30    1.60
 -14  -1  11    1.40    1.60
  11  14  -1    0.90    1.70
   1  11 -14   -0.80    1.10
   1  11 -14    0.10    0.90
 -14   1  11    2.80    1.70
  -1  11  14   -1.50    1.90
 -14   1 -12    1.70    1.60
  12  14   1    5.00    2.10
  -1  12 -14    1.70    1.10
  -1  12 -14    3.50    1.00
   1  12  14    1.00    2.60
  -1 -12  14    4.30    1.80
  12  14  -1    4.30    2.00
   1  12 -14    1.50    1.30
   1  12 -14    3.20    1.00
  -1  12  14    4.50    2.30
 -14   1  12    4.50    1.70
  13  14   1    7.50    2.30
  -1  13 -14    2.00    0.90
  -1  13 -14    2.70    1.30
 -14  -1  13    7.10    2.00
   1  13  14    0.20    2.90
  13  14  -1    8.50    2.60
 -14   1  13    5.80    2.00
   1  13 -14    4.10    1.00
  -1  13  14    4.70    2.50
   2   0 -14   15.40    2.70
   0  14   2   13.10    2.60
  -1  14  -2   -0.40    0.90
  -1  14  -2   -0.20    1.20
   2  -1 -14    1.40    0.90
  -2  -1  14   -1.70    1.40
   1  14   2    1.50    1.10
  -2  -1 -14   -0.80    1.00
  -1  14   2    0.30    1.10
   1  14  -2   -0.80    0.80
   1  14  -2   -0.40    1.20
   2   1 -14    0.60    0.80
  -2   1  14   -0.80    1.40
  -2   2 -14  138.99    7.50
   2  14   2  136.69    7.00
  -2  14  -2  139.59    7.10
  -2  14  -2  132.69    7.50
  -2  -2  14  130.69    7.40
   2  -2 -14  142.69    7.40
   2  14  -2  131.29    7.10
   2  14  -2  131.39    7.30
   2   2 -14  137.39    7.30
  -2  14   2  135.09    7.00
  -2   2  14  129.79    7.50
  -2  -2 -14  146.09    7.60
  -2  -3  14   17.60    3.20
   2  -3 -14   23.60    3.50
  -3  14  -2   18.60    3.10
   3  14   2   22.70    3.00
  -2   3 -14   14.90    3.20
   2   3 -14   20.90    2.90
  -2  -3 -14   18.80    3.50
  -2   3  14   13.40    3.40
   3  14  -2   19.20    3.00
  -3  14   2   17.80    2.90
   2  -3  14   27.70    4.70
   3  14  -2   16.00    3.00
  -2  -4  14  356.16   17.90
   4  14   2  352.66   17.20
   2   4  14  406.06   18.80
  -4  14  -2  382.76   17.30
  -2   4 -14  378.46   18.10
  -2  -4 -14  369.76   18.20
 -14   2   4  412.06   17.80
  -2   4  14  358.66   17.90
   2  -4  14  403.56   18.70
  -4  14   2  346.07   17.20
   4  14  -2  363.36   18.10
   2   4 -14  361.76   18.00
   4  14  -2  362.66   17.20
  -5  14  -2   28.10    3.70
   5  14   2   36.70    3.40
  -2   5 -14   33.90    3.60
  -2  -5  14   39.40    3.70
  -2   5  14   29.70    3.90
   5  14  -2   27.60    3.70
   2  -5  14   38.20    5.10
   5  14  -2   40.50    3.30
  -2  -5 -14   32.50    4.30
  -5  14   2   32.70    3.50
 -14   2   5   29.00    3.90
   2   5 -14   35.60    3.40
   2   6  14  261.47   12.60
   6  14   2  221.78   11.50
  -6  14  -2  251.07   11.70
  -2  -6  14  242.48   12.00
  -2   6 -14  243.98   12.10
  -6  14   2  239.18   11.50
   6  14  -2  237.88   11.40
   2   6 -14  237.08   12.00
   2  -6  14  247.58   13.00
  -2  -6 -14  223.38   12.40
  -2   6  14  231.58   12.00
  -2   7 -14   52.59    4.10
  -7  14  -2   45.80    4.40
   2   7  14   59.49    5.40
  -2  -7  14   54.09    4.20
   7  14   2   46.30    4.00
   7  14  -2   55.99    3.90
  -7  14   2   48.10    4.20
   2  -7  14   50.19    5.80
   2   7 -14   49.70    4.00
 -14   2   7   58.09    4.40
  -2   7  14   48.60    4.40
   2   8  14   12.80    2.60
  -2  -8  14   16.30    3.20
  -2   8 -14   12.70    2.90
 -14  -2   8   15.50    3.20
   8  14   2   17.30    3.10
  -8  14  -2    9.30    1.80
   2  -8  14    9.90    2.70
   8  14  -2   18.00    3.10
   2   8 -14   13.80    2.90
   2   8 -14   11.40    2.50
  -8  14   2   12.00    1.90
  -2   8  14   10.60    2.00
 -14   2   8   16.80    3.40
  -2   9 -14   86.09    5.50
  -2  -9  14   87.29    5.80
   9  14   2   90.49    5.70
  -9  14  -2   94.09    6.00
   2   9  14   87.09    6.70
 -14  -2   9   93.89    5.60
   9  14  -2   88.89    5.60
 -14   2   9   95.29    5.80
  -2   9  14   84.09    5.80
   2   9 -14   88.89    5.50
   2   9 -14   79.59    5.00
   2  -9  14   94.69    7.20
  -2  10 -14    0.30    0.90
  10  14   2    1.70    1.50
   2  10  14   -2.70    2.30
  -2 -10  14    0.40    1.50
 -14  -2  10    0.80    1.60
  -2  10 -14   -0.70    1.00
  -2  10  14   -0.10    1.80
 -14   2  10    1.30    1.70
   2  10 -14   -1.20    1.10
  10  14  -2    1.20    1.50
   2  10 -14    0.10    0.80
   2 -10  14   -3.40    2.50
  11  14   2    5.70    1.90
  -2 -11  14    4.30    1.60
  -2  11 -14    3.10    1.00
 -14   2 -11    1.00    1.50
 -11  14  -2    1.80    2.10
  -2  11 -14    2.40    1.10
   2  11  14    1.50    2.70
  11  14  -2    5.20    1.90
  -2  11  14    4.50    2.10
   2 -11  14   -0.90    2.50
   2  11 -14    2.70    1.30
   2  11 -14    4.10    1.00
  -2  12 -14    1.10    1.20
  -2  12 -14   -0.20    0.90
 -14  -2  12    4.00    1.80
  -2 -12  14   -0.50    1.50
  12  14   2    3.80    2.10
 -14   2  12    3.50    1.90
  12  14  -2    4.20    2.10
  -2  12  14    2.00    2.10
   2  12 -14   -0.80    1.30
  -2  13 -14    0.60    1.00
  13  14   2    4.80    2.40
  -2  13 -14    0.70    1.40
  13  14  -2    5.50    2.90
 -14   2  13    5.20    2.00
   2  13 -14    1.70    0.90
  -2  13  14    1.80    2.50
   0  14   3  293.67   14.00
  -3   0 -14  318.47   14.90
   3   0 -14  301.67   14.70
  -3   0  14  285.97   14.60
   0  14  -3  302.97   14.00
   0  14  -3  299.07   14.60
  -1  14  -3   -0.80    1.20
  -1  14  -3   -0.40    0.80
  -3  -1 -14   -0.20    1.00
   1  14  -3    0.00    0.80
  -1  14   3   -0.30    1.10
   1  14  -3   -1.40    1.20
  -3   1  14   -0.30    1.50
  -3   2 -14  306.37   14.90
   3  -2 -14  306.07   14.80
  -3  -2  14  283.97   14.60
  -2  14  -3  311.27   14.10
   2  14   3  293.57   14.00
  -3  -2 -14  323.37   15.00
  -3   2  14  294.57   14.60
   2  14  -3  301.17   14.70
   3   2 -14  296.27   14.70
   2  14  -3  289.27   14.00
  -2  14   3  295.27   14.00
   3  14   3   33.50    3.30
  -3  14  -3   26.40    3.30
  -3  -3  14   24.70    3.40
  -3  14  -3   26.00    3.60
  -3   3 -14   24.20    3.50
   3  14  -3   28.80    3.10
   3  14  -3   27.20    3.20
  -3  14   3   25.60    3.00
   3   3 -14   28.20    3.10
  -3   3  14   28.80    3.40
  -3  -3 -14   28.40    4.00
  -3  -4  14   68.39    4.60
  -3   4 -14   65.39    4.80
  -4  14  -3   67.09    4.60
   4  14   3   65.19    4.50
  -3  -4 -14   68.69    5.20
   4  14  -3   67.89    4.40
 -14   3   4   72.89    4.90
  -3   4  14   66.59    4.80
  -4  14   3   63.79    4.20
   4  14  -3   64.49    4.60
   3   4 -14   68.79    4.50
  -3   5 -14   42.80    3.90
  -5  14  -3   38.00    3.90
   5  14   3   43.20    3.70
  -3  -5  14   48.20    3.90
  -5  14   3   44.80    3.60
   5  14  -3   40.00    3.80
  -3   5  14   41.20    4.00
 -14   3   5   44.30    4.00
   3  -5  14   52.29    6.70
   3   5 -14   44.80    3.70
  -3  -5 -14   33.50    4.70
   6  14   3   -0.70    1.20
   3   6  14    2.10    2.70
  -3  -6  14    1.70    1.40
  -3   6 -14   -0.40    0.90
   6  14  -3    2.10    1.10
  -6  14   3   -0.60    1.20
 -14   3   6   -1.30    1.50
   6  14  -3   -0.80    0.90
   3  -6  14    1.40    3.10
   3   6 -14   -0.90    0.90
   3   6 -14   -1.60    1.10
  -3   6  14   -0.50    1.60
  -7  14  -3    0.20    1.50
  -3   7 -14    2.80    1.00
  -3  -7  14    5.00    1.60
   3   7  14    6.60    2.80
   7  14   3    2.30    1.30
   3   7 -14    1.50    1.10
   3   7 -14    2.80    1.00
   3  -7  14    5.40    3.20
  -7  14   3    2.20    1.30
 -14   3   7    4.90    1.70
  -3   7  14    3.10    1.80
   8  14   3    1.00    1.30
  -8  14  -3   -2.30    1.50
  -3  -8  14    1.80    1.50
 -14  -3   8    2.00    1.50
   3   8  14    3.10    2.80
  -3   8 -14    0.70    1.00
   8  14  -3   -0.30    1.20
 -14   3   8    1.40    1.60
   3   8 -14    0.20    0.90
  -3   8  14    0.10    1.70
   3  -8  14    0.10    2.90
   3   8 -14   -0.90    1.10
 -14  -3   9    1.70    1.50
   3   9  14   -0.40    2.90
  -3  -9  14    0.10    1.40
   9  14   3    1.90    1.40
  -3   9 -14   -0.50    0.90
  -9  14  -3   -0.70    1.60
   3   9 -14   -1.30    1.20
   9  14  -3    1.20    1.40
   3   9 -14    0.30    0.90
 -14   3   9    0.60    1.60
   3  -9  14   -0.30    3.30
  -3   9  14    0.30    1.60
 -10  14  -3   49.10    4.90
  -3 -10  14   48.90    4.20
 -14  -3  10   56.99    4.40
  10  14   3   47.00    4.60
 -14   3 -10   40.00    5.30
  -3  10 -14   51.89    4.10
   3  10 -14   54.09    4.20
   3  10 -14   44.00    3.80
   3 -10  14   36.90    7.30
  -3  10  14   50.19    4.60
 -14   3  10   57.99    4.80
  10  14  -3   48.70    4.40
  -3 -11  14   23.50    3.30
  -3  11 -14   16.50    2.90
 -11  14  -3   16.50    2.50
  -3  11 -14   17.90    3.20
  11  14   3   27.40    4.40
 -14  -3  11   28.40    3.90
   3  11 -14   16.70    3.30
  -3  11  14   24.50    4.00
 -14   3  11   25.80    3.90
   3  11 -14   25.40    3.10
  11  14  -3   23.60    4.30
  -3 -12  14   -1.40    1.30
  12  14   3    1.30    1.80
  -3  12 -14   -0.70    0.80
 -14  -3  12   -0.10    1.80
  12  14  -3   -1.10    2.00
  -3  12  14   -2.00    1.90
   3  12 -14    0.20    0.90
 -14   3  12    1.90    1.90
  -3  13 -14    0.40    1.10
   3  13 -14    1.90    0.90
   0  14  -4   96.99    5.60
   4   0 -14  101.79    5.90
  -4   0  14   92.69    5.80
   0  14   4   97.39    5.50
   0  14  -4   97.29    5.50
  -4   0 -14   95.69    6.10
  -2  14  -4    6.40    1.40
  -4  -2  14    7.10    1.60
   4  -2 -14    6.60    1.40
   2  14   4   12.60    2.70
  -4   2  14    7.30    1.70
   2  14  -4    6.30    1.00
   2  14  -4    7.70    1.40
  -2  14   4    7.80    1.30
  -4  -2 -14    4.50    1.20
  -3  14  -4    1.30    1.20
  -4  -3  14    1.50    1.40
   3  14   4    3.10    1.30
  -3  14  -4    2.10    0.90
  -3  14   4    1.50    1.20
   3  14  -4    1.10    0.90
  -4   3  14    3.40    1.60
 -14   4   3    0.50    1.80
  -4  -3 -14    0.50    1.20
   3  14  -4    2.10    1.20
   4   3 -14    1.70    0.90
   4  14   4   75.79    4.90
  -4   4 -14   72.09    5.20
  -4  14  -4   79.49    4.90
  -4  -4  14   75.09    5.00
  -4  14   4   75.39    4.70
   4   4 -14   75.69    4.90
  -4  -4 -14   71.39    5.70
   4  -4  14   89.09   10.20
 -14   4   4   83.69    5.30
  -4   4  14   74.59    5.10
   4  14  -4   73.69    5.00
   4  14  -4   79.19    4.70
  -4   5 -14   17.10    3.20
  -4  -5  14   18.80    3.00
   5  14   4   17.80    3.00
   4  -5  14   14.10    4.90
  -5  14   4   14.40    2.90
   4   5 -14   17.00    3.00
   5  14  -4   16.50    3.10
  -4   5  14   16.00    3.20
  -4  -6  14  184.98    9.50
  -6  14  -4  193.88    9.40
  -4   6 -14  198.08    9.80
   6  14   4  176.98    9.40
  -4   6  14  180.98    9.60
   6  14  -4  183.48    9.10
 -14   4   6  210.88    9.70
   4  -6  14  170.08   13.80
  -6  14   4  191.68    9.20
   6  14  -4  175.78    9.70
   4   6 -14  182.48    9.60
  -4  -6 -14  169.68   10.20
  -4  -7  14   63.89    4.50
   7  14   4   63.49    4.60
  -4   7 -14   64.89    4.60
  -7  14  -4   59.59    4.70
  -4   7  14   63.69    4.70
   4   7 -14   65.79    4.50
   4   7 -14   53.19    4.20
   7  14  -4   52.79    4.60
   4  -7  14   49.99    9.70
   7  14  -4   70.19    4.20
 -14   4   7   68.89    4.80
  -8  14  -4   51.59    4.40
 -14  -4   8   54.99    4.30
  -4  -8  14   50.79    4.10
   8  14   4   55.39    4.30
  -4   8 -14   53.69    4.30
   4  -8  14   40.70    9.20
 -14   4   8   55.49    4.50
   8  14  -4   44.10    4.40
  -4   8  14   53.19    4.40
   4   8 -14   46.20    4.00
   4   8 -14   54.79    4.10
   8  14  -4   54.49    4.00
  -4  -9  14   32.90    3.50
  -4   9 -14   33.40    3.60
 -14  -4   9   36.50    3.90
   9  14   4   27.30    3.80
  -9  14  -4   28.70    4.10
   4   9 -14   32.00    3.50
   9  14  -4   32.40    3.70
 -14   4   9   37.60    4.10
  -4   9  14   34.10    3.90
   4   9 -14   23.50    3.50
  -4 -10  14    2.50    1.40
 -10  14  -4    2.30    1.90
 -14  -4  10    4.30    1.80
  10  14   4    4.80    1.80
   4  10 -14    1.80    1.50
 -14   4  10    3.70    1.90
  -4  10  14    5.70    1.80
  10  14  -4    4.20    1.70
  -4  11 -14    6.10    1.50
  -4  11 -14    6.60    1.30
  11  14   4    8.10    1.90
 -11  14  -4    5.70    2.20
 -14   4  11    8.30    2.10
  11  14  -4    6.50    2.00
   4  11 -14    4.00    1.60
   4  11 -14    4.60    1.00
  -4  11  14    8.50    2.00
 -14  -4  12    3.20    1.90
  12  14   4    2.70    1.70
 -12  14  -4   -1.80    2.30
  -4 -12  14    0.90    1.40
  -4  12 -14    0.30    1.20
  -4  12 -14   -1.00    0.90
 -14   4 -12   -1.10    1.50
  12  14  -4    1.40    2.20
  -4  12  14   -0.90    1.90
   4  12 -14    1.50    0.90
 -14   4  12    1.90    1.90
  -4  13 -14   -1.80    1.20
  -4 -13  14   -2.20    1.50
 -14  -4  13   -0.10    2.10
  13  14   4   -0.10    1.90
   4  13 -14   -0.40    0.90
 -14   4  13    1.50    1.90
  -4  13  14   -2.70    1.80
  -5   0 -14  487.95   22.20
   0  14  -5  451.55   20.80
   5   0 -14  452.35   22.00
   0  14   5  450.85   20.80
   0  14  -5  449.56   21.80
  -5   0  14  442.56   21.50
  -5  -1  14    3.60    1.60
   1  14   5    2.90    1.20
  -1  14  -5    3.50    1.30
   5  -1 -14    5.70    1.40
  -1  14  -5    3.30    1.00
   5   1 -14    3.50    1.00
   1  14  -5    3.50    1.30
   5  -1  14   16.10    9.00
  -5   1  14    3.70    1.50
  -5  -1 -14    1.90    1.30
  -1  14   5    4.70    1.30
   1  14  -5    2.60    0.90
  -5  -2  14  271.57   13.70
   5  -2 -14  284.87   14.90
  -2  14  -5  285.57   13.30
   2  14   5  276.77   13.30
  -2  14  -5  281.47   13.90
  -5   2 -14  299.07   14.20
   2  14  -5  274.67   13.20
  -5  -2 -14  301.27   14.40
  -2  14   5  277.07   13.20
   5   2 -14  273.57   14.00
   2  14  -5  283.87   13.90
  -5   2  14  274.77   13.80
  -3  14  -5    0.10    1.20
   3  14   5    0.90    1.30
  -3  14  -5    0.10    0.90
  -5  -3  14   -1.00    1.50
  -5   3 -14   -0.40    1.00
 -14   5   3   -0.80    1.80
  -3  14   5   -0.30    1.20
  -5  -3 -14   -0.60    1.20
  -5   3  14    1.60    1.50
   3  14  -5    0.70    0.90
   5   3 -14    0.50    0.90
   3  14  -5    1.30    1.20
  -5   4 -14   65.89    4.90
  -5  -4  14   59.69    4.50
  -4  14  -5   65.99    4.70
  -4  14  -5   66.89    4.50
   4  14   5   66.09    4.50
   5   4 -14   63.99    4.60
  -5  -4 -14   63.29    5.40
  -5   4  14   66.09    4.70
   4  14  -5   68.29    4.30
   5  -4  14   61.59   15.00
   4  14  -5   63.39    4.40
  -4  14   5   64.19    4.40
  -5   5 -14   -0.10    1.00
   5  14   5    0.10    1.30
  -5  -5  14   -1.40    1.50
  -5  14  -5   -1.20    1.20
   5  14  -5    1.50    1.10
 -14   5   5   -0.90    1.60
   5   5 -14    0.10    0.80
   5  -5  14   -1.70    7.40
  -5  14   5   -1.10    1.30
   5  14  -5   -0.60    0.90
  -5   5  14    0.40    1.50
   6  14   5    2.00    1.30
  -6  14  -5   -1.60    1.30
  -5   6 -14    0.20    0.90
  -5  -6  14   -0.50    1.30
  -6  14   5   -1.10    1.60
   5   6 -14   -0.20    0.80
 -14   5   6   -1.50    1.60
   6  14  -5   -0.60    0.90
  -5   6  14    1.00    1.60
   5  -6  14   -5.00    7.00
  -7  14  -5   -0.30    1.40
   7  14   5    2.50    1.40
  -5  -7  14    1.40    1.30
  -5   7 -14    0.70    1.00
 -14   5  -7   -0.60    1.30
 -14   5   7    0.40    1.70
  -5   7  14    3.00    1.70
   5   7 -14    1.60    0.90
  -5  -7 -14   -1.90    1.40
   7  14  -5   -0.20    0.90
   7  14  -5    2.20    1.20
   8  14   5    4.20    1.50
  -5  -8  14    2.30    1.30
  -8  14  -5    1.80    1.60
  -5   8 -14    0.90    1.00
 -14   5  -8    0.10    1.40
  -5   8  14    2.90    1.70
   8  14  -5    2.40    1.20
   5   8 -14    2.60    1.00
 -14   5   8    0.20    1.70
  -9  14  -5   -1.90    1.60
  -5   9 -14    0.70    1.10
   9  14   5    0.90    1.40
  -5  -9  14   -0.20    1.40
   5   9 -14    0.20    0.90
   9  14  -5   -0.60    1.50
 -14   5   9   -2.00    1.80
  -5   9  14    1.30    1.60
  -5 -10  14    0.50    1.50
  10  14   5    0.40    1.40
  -5  10 -14   -1.00    1.00
 -14  -5  10    3.30    1.70
 -10  14  -5   -2.20    1.60
 -14   5 -10   -1.80    1.60
   5  10 -14   -0.10    0.80
  -5  10  14   -0.80    1.60
 -14   5  10    0.20    1.80
  10  14  -5   -0.20    1.60
  -5 -11  14   -0.40    1.40
  11  14   5    1.10    1.50
  -5  11 -14   -0.50    1.10
 -14  -5  11    2.80    1.80
  11  14  -5    2.40    2.00
  -5  11  14   -1.10    1.70
   5  11 -14    0.60    0.90
 -14   5  11   -0.70    2.00
  12  14   5    0.50    1.80
  -5 -12  14   -1.10    1.30
 -14   5  12    0.20    1.80
   5  12 -14   -0.20    0.80
  -5  12  14   -2.40    1.90
  12  14  -5   -0.70    2.50
  13  14   5    1.60    1.90
  -5  13 -14   -1.00    1.20
  -5  13 -14   -1.30    1.30
 -14   5  13   -1.30    1.80
   5  13 -14    0.50    1.00
  -5  13  14   -2.30    1.90
 -13  14   5   -0.40    1.80
  -6   0 -14  216.18   10.90
   6   0 -14  198.18   11.10
   0  14   6  200.28    9.90
  -6   0  14  196.68   10.30
   0  14  -6  204.18    9.90
   0  14  -6  202.48   10.30
  -1  14  -6    2.60    1.20
  -6   1 -14    0.50    1.20
  -1  14  -6    2.80    0.90
  14   6   1   -7.10    6.80
   6  -1 -14    6.50    1.90
   1  14   6    3.60    1.30
  -6  -1  14    3.40    1.60
   6   1 -14    4.60    1.20
  14   6  -1  -10.50    8.90
  -1  14   6    3.90    1.30
  -6   1  14    4.00    1.50
   1  14  -6    2.10    0.90
  -6  -1 -14    0.50    1.20
   1  14  -6    3.10    1.20
   2  14   6  135.39    7.20
  -6  -2  14  133.79    7.30
  -2  14  -6  134.29    7.40
  -2  14  -6  136.89    7.10
  -6   2 -14  134.39    7.90
  -2  14   6  135.19    7.10
   2  14  -6  134.99    7.40
   6   2 -14  137.09    7.70
   2  14  -6  137.79    7.00
  -6  -2 -14  137.59    8.00
  -6   2  14  132.09    7.40
  -6   3 -14    1.80    1.20
  -6  -3  14    3.30    1.50
  -3  14  -6    2.20    1.00
  -3  14  -6    3.40    1.30
   3  14   6    3.20    1.40
   6   3 -14    4.00    1.10
   3  14  -6    4.40    1.20
   3  14  -6    2.80    0.90
  -6  -3 -14    1.10    1.30
  -3  14   6    3.70    1.30
  -6   3  14    4.50    1.70
  -4  14  -6   -0.20    1.30
  -6   4 -14    0.10    1.10
 -14   6  -4   -1.40    1.30
  -4  14  -6    0.30    0.90
  -6  -4  14    0.50    1.40
   4  14   6    1.60    1.40
  -6  -4 -14   -1.60    1.30
  -4  14   6    1.30    1.30
  -6   4  14    2.40    1.60
   6  -4  14   -7.20   10.50
   4  14  -6    1.30    0.90
   6   4 -14    1.70    1.00
 -14   6   4   -1.90    1.70
   5  14   6    0.70    1.30
  -5  14  -6   -0.20    1.00
  -5  14  -6   -1.20    1.30
  -6  -5  14    0.00    1.40
  -6   5 -14   -0.10    1.00
  -6   5  14    0.50    1.50
  -5  14   6   -0.20    1.40
   6  -5  14  -10.00   10.70
   5  14  -6   -0.90    0.80
   5  14  -6    2.00    1.10
   6   5 -14    0.30    0.90
 -14   6   5   -1.90    1.60
  -6  14  -6   60.59    4.50
   6  14   6   56.69    4.60
  -6  -6  14   60.79    4.30
  -6   6 -14   61.29    4.70
   6   6 -14   58.29    4.50
   6  14  -6   54.59    4.40
 -14   6   6   69.79    4.90
  -6   6  14   62.09    4.60
   6  14  -6   60.49    4.20
 -14   6  -7   -1.90    1.40
  -7  14  -6   -1.00    1.30
  -6  -7  14    0.70    1.40
   7  14   6    1.80    1.40
  -6   7 -14    0.30    1.00
   6   7 -14    0.60    0.90
  -6   7  14    2.40    1.60
   7  14  -6    0.30    0.90
   7  14  -6    0.30    1.10
 -14   6   7   -2.40    1.70
  -6   8 -14   84.49    5.50
   8  14   6   82.09    5.60
  -8  14  -6   85.79    5.40
  -6  -8  14   78.19    5.00
   8  14  -6   70.19    5.20
 -14   6   8   85.99    5.70
  -6   8  14   77.69    5.40
   6   8 -14   78.19    5.30
   8  14  -6   80.19    5.00
   9  14   6    0.10    1.40
  -6  -9  14    1.90    1.30
 -14   6  -9   -1.20    1.40
  -9  14  -6   -0.40    1.60
 -14   6   9    1.20    1.90
  -6   9  14    2.10    1.80
   9  14  -6    0.90    1.50
  -6 -10  14   12.20    2.80
  10  14   6   17.40    3.60
  -6  10 -14   14.90    3.60
  10  14  -6   11.40    2.20
  -6  10  14   14.40    3.50
 -14   6  10   10.30    2.30
   6  10 -14   15.60    3.10
  11  14   6    2.20    1.50
  -6 -11  14    0.10    1.30
 -11  14  -6   -2.70    1.70
 -14  -6  11    2.50    1.90
 -14   6  11   -0.80    1.90
  11  14  -6    1.10    2.20
   6  11 -14    0.10    0.90
  -6  11  14   -0.80    1.80
   6  12 -14   -0.50    0.90
 -14  -6  13    1.10    2.20
  13  14   6    0.50    2.00
   6  13 -14    2.20    1.10
  -7   0 -14  192.68   10.20
  -7   0  14  173.58    9.40
   7   0 -14  191.48   11.30
   0  14  -7  186.38    9.50
   0  14  -7  185.08    9.10
   0  14   7  177.78    9.20
   1  14   7   11.50    1.70
  -1  14  -7   12.30    2.90
  -1  14  -7   13.40    2.80
  -7  -1  14   15.80    3.10
  -1  14   7   14.00    3.00
  -7   1  14   16.10    3.10
   1  14  -7   18.50    2.90
   1  14  -7   16.80    2.90
 -14   7   1   21.00    4.50
  -7  -2  14   64.29    4.50
  -2  14  -7   65.49    4.60
  -2  14  -7   63.19    4.40
  -7   2 -14   63.59    5.20
   2  14   7   58.19    4.50
 -14   7   2   75.39    5.00
  -7  -2 -14   59.39    5.50
  -2  14   7   66.69    4.50
   2  14  -7   69.89    4.30
  -7   2  14   57.69    4.60
   2  14  -7   67.39    4.50
   7   2 -14   67.09    5.60
  -3  14  -7   44.10    4.00
  -3  14  -7   47.60    3.90
  -7   3 -14   48.20    4.70
   3  14   7   49.80    4.20
  -7  -3  14   49.30    4.00
  -3  14   7   50.59    4.10
   3  14  -7   53.49    3.70
  -7   3  14   50.29    4.10
   3  14  -7   54.59    4.00
   7   3 -14   51.19    4.80
 -14   7   3   56.19    4.40
  -7  -3 -14   43.10    4.90
  -4  14  -7   13.80    3.20
  -4  14  -7   12.90    2.90
  -7  -4  14   12.80    2.90
  -7   4 -14   18.50    3.70
   4  14   7   13.60    3.20
   4  14  -7   20.50    2.90
  -7   4  14   16.00    3.00
   4  14  -7   17.00    2.90
 -14   7   4   15.20    2.20
  -4  14   7   15.30    3.40
  -7  -5  14   18.60    3.00
  -7   5 -14   18.80    3.70
   5  14   7   22.00    3.40
  -5  14  -7   13.90    3.50
  -5  14  -7   19.50    3.20
   7   5 -14   21.40    3.50
   5  14  -7   22.20    2.90
   5  14  -7   16.40    3.00
 -14   7   5   16.80    3.70
  -7   5  14   18.90    3.20
  -6  14  -7    7.40    1.50
  -6  14  -7    6.40    1.30
  -7   6 -14    6.20    1.40
   7   6 -14    5.20    1.10
   6  14  -7    4.50    1.00
 -14   7   6    9.40    2.10
  -7  -6 -14    3.70    1.40
   6  14  -7    6.10    1.30
  -7  14  -7    4.40    1.50
   7  14   7    4.20    1.50
 -14   7  -7    1.00    1.50
  -7  -7  14    4.20    1.50
  -7   7 -14    2.40    1.30
  -7  -7 -14    0.60    1.50
 -14   7   7    2.50    1.80
   7  14  -7    2.30    1.20
  -7   7  14    5.10    1.80
   7   7 -14    2.30    1.00
   8  14   7    2.50    1.30
  -8  14  -7    1.10    1.40
 -14   7  -8   -0.70    1.60
  -7  -8  14    0.70    1.30
   8  14  -7    1.20    1.40
  -7   8  14    2.60    1.80
  -7  -8 -14   -0.30    1.70
 -14   7   8    1.00    2.00
  -7   9 -14    0.40    1.20
  -7  -9  14    2.10    1.30
   9  14   7    4.50    1.70
  -9  14  -7    0.90    1.50
 -14   7   9    0.60    2.00
   7   9 -14    1.70    0.90
   9  14  -7    1.80    1.70
  -7   9  14    1.90    1.70
   9  14  -7    1.00    1.00
  -7 -10  14    5.00    1.50
  -7  10 -14    3.10    1.30
  10  14   7    3.60    1.60
 -14   7 -10    1.70    1.80
 -10  14  -7    2.80    1.80
 -14   7  10    3.20    2.10
 -10  14   7    6.90    2.30
   7  10 -14    3.70    1.20
  -7  10  14    2.90    1.80
  10  14  -7    2.90    2.00
  -7  11 -14    3.60    1.50
 -11  14  -7    5.00    2.00
  11  14   7    5.30    1.80
 -14   7 -11    3.10    1.70
  -7  11  14    8.30    2.20
 -14   7  11    5.00    2.10
 -11  14   7    6.80    1.90
  12  14   7   -1.50    1.60
 -14   7 -12   -0.90    1.70
  -7  12 -14   -1.90    1.50
  -7 -12  14    0.40    1.20
 -14   7  12   -0.20    2.00
 -12  14   7   -1.40    1.70
   7  12 -14    1.90    1.00
 -14   7 -13   -0.80    1.90
  13  14   7    1.40    2.00
  -7  13 -14   -0.80    1.50
  -7  13 -14   -1.10    1.80
 -13  14  -7   -3.80    2.50
  -7 -13  14   -0.40    1.40
   7  13 -14    1.10    1.00
  -7  13  14   -1.80    1.90
 -13  14   7   -0.30    1.70
 -14   7  13   -0.70    2.10
   0  14  -8   71.59    4.70
   0  14  -8   77.59    4.60
  -8   0  14   73.49    4.90
   0  14   8   69.19    4.90
   8   0 -14   82.39    9.40
  -8   0 -14   65.29    5.80
  -8  -1  14    2.40    1.40
  14   8   1   -2.70    5.70
  -1  14  -8    0.60    1.20
  -1  14  -8    1.10    0.90
  -8   1 -14   -1.00    1.30
   1  14   8   -0.30    1.30
   8   1 -14    2.00    2.00
   1  14  -8    2.10    1.20
   1  14  -8    1.10    0.90
  -1  14   8    1.60    1.30
  -8  -1 -14   -1.70    1.40
  -8   1  14    0.70    1.40
 -14   8   1   -0.80    1.80
  14   8  -1   -9.20    7.30
   2  14   8   71.89    5.00
  -8  -2  14   75.89    4.90
  -2  14  -8   71.59    4.90
  -8   2 -14   78.69    5.80
  -2  14  -8   73.19    4.70
 -14   8   2   84.59    5.50
   8   2 -14   73.49    6.60
  -2  14   8   74.29    5.00
  -8   2  14   69.09    4.90
   2  14  -8   76.19    4.90
   2  14  -8   79.39    4.60
  -8  -2 -14   69.29    5.90
  -3  14  -8   60.39    4.20
  -8  -3  14   63.69    4.40
  -8   3 -14   60.59    5.30
   3  14   8   61.09    4.60
  -3  14  -8   56.79    4.40
  -8  -3 -14   49.30    5.30
 -14   8   3   66.69    4.90
   3  14  -8   64.29    4.10
  -3  14   8   60.79    4.70
   8   3 -14   58.19    5.60
  -8   3  14   59.19    4.40
   3  14  -8   60.39    4.30
  -8  -4  14    2.20    1.40
  -4  14  -8    0.50    1.00
   4  14   8    1.80    1.40
  -8   4 -14    0.70    1.20
  -4  14  -8    0.30    1.20
   4  14  -8    1.30    1.10
  -8   4  14    2.10    1.50
   8   4 -14    1.00    1.20
  -8  -4 -14   -0.70    1.40
 -14   8   4    0.00    1.70
   4  14  -8    1.50    0.90
  -5  14  -8   16.70    3.70
  -5  14  -8   19.90    3.20
   5  14   8   26.80    3.70
  -8   5 -14   15.50    3.80
   5  14  -8   19.20    3.00
   8   5 -14   18.90    4.00
   5  14  -8   23.20    3.00
 -14   8   5   17.60    3.60
  -8   5  14   23.90    3.30
  -6  14  -8   44.80    3.90
  -6  14  -8   37.00    4.60
  -8   6 -14   40.70    4.30
  -8  -6  14   42.60    3.70
   6  14   8   42.90    4.00
   8   6 -14   36.80    4.20
   6  14  -8   36.00    3.60
 -14   8   6   34.10    4.40
  -8  -6 -14   29.60    4.90
  -8   6  14   38.30    3.80
   6  14  -8   36.50    3.60
  -7  14  -8   19.10    3.40
   7  14   8   17.00    3.50
  -8  -7  14   21.00    3.00
  -8   7  14   19.40    3.50
   7  14  -8   14.60    3.20
 -14   8   7   11.80    2.30
   7  14  -8   15.80    3.00
  -8   8 -14   17.00    3.80
  -8  -8  14   14.40    2.80
   8  14   8   15.00    3.60
  -8  14  -8   14.90    3.50
   8  14  -8   13.10    3.00
  -8   8  14   15.30    3.40
 -14   8   8   13.40    2.40
   9  14   8    6.20    1.70
  -9  14  -8    4.70    1.60
  -8  -9  14    9.20    1.70
 -14   8   9    8.80    2.30
   9  14  -8    7.40    1.90
  -9  14   8   11.40    2.40
  -8   9  14    8.20    2.00
  10  14   8   -0.10    1.60
 -10  14  -8   -0.60    1.60
  -8 -10  14    0.10    1.20
 -14   8 -10   -1.50    1.70
  -8  10 -14   -0.90    1.40
  -8  10  14   -1.80    1.70
  10  14  -8    0.10    1.00
  10  14  -8   -0.50    2.30
   8  10 -14    1.20    1.00
 -10  14   8   -2.00    1.70
 -14   8  10   -1.90    2.00
  -8 -11  14    2.00    1.20
  -8  11 -14    0.50    1.50
  11  14   8    1.00    1.60
 -14   8 -11   -1.30    1.90
   8  11 -14    1.60    1.00
 -11  14   8    0.00    1.90
  -8  11  14   -0.40    1.90
 -14   8  11   -2.50    2.10
  -8 -12  14    2.40    1.50
  12  14   8    1.90    1.80
  -8  12 -14   -0.70    1.40
  -8  12 -14   -0.50    1.90
 -14   8 -12   -0.50    2.10
 -12  14   8    0.40    1.70
 -14   8  12   -0.80    2.20
  -8  12  14   -0.30    1.80
   0  14  -9   41.90    3.50
  -9   0  14   42.40    3.70
  -9   0 -14   42.20    5.00
   0  14   9   42.90    4.00
   0  14  -9   38.80    3.60
  14   9   1   -4.60    4.80
  -9   1 -14   -1.20    1.40
   1  14   9    1.00    1.40
  -1  14  -9    1.00    1.20
  -9  -1  14    1.60    1.40
  -1  14  -9    1.40    0.90
  -9   1  14   -0.40    1.40
  -1  14   9    1.40    1.50
   1  14  -9    2.30    1.20
   1  14  -9    0.40    0.90
  -9  -1 -14   -1.50    1.40
   9   1 -14    2.30    2.60
  14   9  -1   -2.70    5.30
   2  14   9    5.50    1.60
  -9  -2  14    6.60    1.60
  -9   2 -14    2.40    1.50
  -2  14  -9    2.80    1.00
  14   9   2   -0.90    4.20
  -2  14  -9    4.60    1.30
  -9   2  14    3.50    1.60
   9   2 -14    5.50    2.10
   2  14  -9    3.90    1.00
  -2  14   9    6.20    1.70
 -14   9   2    2.30    1.90
  14   9  -2    9.80    5.60
  -3  14  -9   35.80    3.80
  -9  -3  14   46.60    3.70
  -3  14  -9   40.50    3.60
  -9   3 -14   44.20    4.80
   3  14   9   37.10    4.40
   3  14   9   42.40    4.00
 -14   9   3   41.50    4.40
   9   3 -14   42.80    5.60
  -9   3  14   40.50    3.80
   3  14  -9   39.70    3.40
   3  14  -9   41.90    3.70
  -9  -3 -14   33.50    4.90
  -9   4 -14   -0.80    1.20
   4  14   9    1.40    1.40
  -4  14  -9    0.20    1.00
  -9  -4  14    2.30    1.40
  -4  14  -9    0.00    1.20
   9   4 -14    1.70    1.40
 -14   9   4   -0.70    1.80
   4  14  -9    0.30    1.20
  -9  -4 -14   -0.80    1.40
  -9   4  14    1.10    1.40
   4  14  -9    0.60    0.80
  -9  -5  14   61.29    4.20
  -5  14  -9   58.89    4.40
  -9   5 -14   68.09    5.40
   5  14   9   60.09    4.70
  -5  14  -9   53.59    5.00
 -14   9   5   63.59    4.90
  -9   5  14   61.29    4.60
   9   5 -14   53.49    5.50
   5  14  -9   56.19    4.10
   5  14  -9   56.29    4.40
  -9  -6  14   26.20    3.20
  -6  14  -9   28.50    3.40
   6  14   9   26.90    3.70
  -6  14  -9   23.70    4.40
   6  14  -9   21.20    3.20
  -6  14   9   25.80    3.90
  -9   6  14   24.90    3.60
 -14   9   6   21.10    4.10
   9   6 -14   23.90    4.40
  -9  -7  14    5.80    1.50
  -9   7 -14    3.10    1.30
   7  14   9    4.90    1.50
  -7  14   9    5.20    2.00
  -9   7  14    6.60    1.90
   9   7 -14    2.80    1.20
   7  14  -9    3.00    1.30
  -9  -7 -14    0.20    1.60
 -14   9   7    1.30    1.90
   7  14  -9    4.60    1.10
   8  14   9   20.60    3.40
  -9  -8  14   24.00    3.10
  -9   8 -14   28.30    4.30
  -8  14  -9   26.60    3.80
   8  14  -9   17.80    3.10
 -14   9   8   22.60    4.30
  -8  14   9   18.70    3.90
  -9   8  14   21.40    3.80
   9   8 -14   23.80    3.80
   8  14  -9   19.00    3.90
  -9  14  -9   -1.70    1.60
 -14   9  -9   -3.00    2.10
   9  14   9   -2.10    1.50
  -9   9 -14   -1.30    1.30
  -9  -9  14    0.30    1.30
   9   9 -14    0.30    1.10
 -14   9   9   -1.30    2.00
  -9  14   9   -2.00    1.80
   9  14  -9   -1.30    2.00
   9  14  -9   -0.50    0.80
 -14   9 -10    0.00    2.20
  -9  10 -14    2.50    1.60
   9  10 -14    2.80    1.10
  10  14  -9    3.30    1.10
 -10  14   9    5.40    2.30
 -14   9 -11    3.40    2.50
  -9  11 -14    8.60    2.00
  11  14   9    6.40    1.90
 -11  14  -9    5.10    1.80
 -11  14   9   10.70    2.20
  -9  11  14    7.70    2.10
   9  11 -14    6.40    1.20
 -14   9  11    8.70    2.60
  -9 -12  14   -1.50    1.40
  12  14   9   -2.60    2.10
 -12  14   9   -0.20    1.90
   9  12 -14   -0.10    1.10
   0  14  10   24.50    3.90
   0  14  10   17.70    3.50
   0  14 -10   23.70    3.30
   0  14 -10   23.60    3.00
 -10   0  14   27.40    3.20
   1  14  10    4.00    1.80
  -1  14 -10    3.20    1.10
  14  10   1   -0.10    3.70
 -10   1 -14    2.90    1.60
   1  14  10    4.30    1.50
  -1  14 -10    3.30    1.20
  -1  14  10    2.70    1.60
  14  10  -1    8.20    4.50
  -1  14  10    6.80    1.70
   1  14 -10    4.70    1.00
 -10  -1 -14    2.10    1.60
   1  14 -10    3.60    1.20
 -10   1  14    5.10    1.50
  14  10   2   -3.70    3.60
   2  14  10    0.90    1.40
  -2  14 -10   -0.30    0.90
   2  14  10   -1.20    1.80
  -2  14 -10    0.20    1.10
 -10   2 -14   -1.80    1.30
  10   2 -14   -0.50    2.70
 -14  10   2   -1.70    1.90
   2  14 -10    0.10    1.10
  14  10  -2    2.30    4.30
   2  14 -10    1.20    0.90
  -2  14  10   -0.90    1.50
 -10  -2 -14   -1.70    1.30
 -10   2  14    0.70    1.40
  14  10   3   -0.40    3.30
   3  14  10    1.30    2.20
  -3  14 -10    0.50    1.20
  -3  14 -10    0.80    1.00
   3  14  10    2.70    1.30
   3  14 -10    1.50    1.20
 -14  10   3    0.50    1.90
  10   3 -14    2.10    2.20
  -3  14  10    1.20    1.50
   3  14 -10    1.00    0.90
 -10   3  14    2.20    1.50
 -10  -3 -14   -0.80    1.40
  14  10   4   -3.20    3.10
   4  14  10    0.60    1.30
  -4  14 -10   -1.80    1.20
 -10  -4  14    1.20    1.40
  -4  14 -10   -0.60    1.00
 -14  10   4   -1.90    2.00
   4  14 -10   -1.00    1.10
  10   4 -14    2.80    1.90
  -4  14  10   -1.80    1.70
 -10   4  14   -0.30    1.60
 -10  -5  14   70.39    4.60
 -10   5 -14   73.29    5.80
  -5  14 -10   70.49    4.70
   5  14  10   65.99    4.90
   5  14 -10   62.89    4.60
 -10   5  14   63.69    4.90
 -14  10   5   69.39    5.40
  -5  14  10   64.59    5.10
   5  14 -10   62.79    4.60
  14  10   6   -1.80    2.70
   6  14  10    2.90    1.50
 -10   6 -14    1.20    1.30
  -6  14 -10    1.50    1.50
  -6  14 -10    3.50    1.50
 -10   6  14    3.30    1.60
  10   6 -14    2.30    1.40
  -6  14  10    2.00    1.90
 -10  -6 -14   -0.10    1.50
 -14  10   6    1.40    2.00
   6  14 -10    2.60    1.00
   6  14 -10    0.10    1.40
  -7  14 -10   22.80    3.50
 -10   7 -14   22.20    4.30
   7  14  10   17.50    3.60
 -10   7  14   19.80    3.70
  -7  14  10   17.00    3.90
  10   7 -14   20.50    4.40
 -14  10   7   17.00    2.70
   7  14 -10   17.20    3.60
   7  14 -10   20.50    3.10
  -8  14 -10    2.80    1.60
 -10  -8  14    3.50    1.40
   8  14  10    1.70    1.40
 -10   8 -14    1.60    1.40
  10   8 -14    2.30    1.30
 -14  10   8    3.90    2.20
   8  14 -10    1.30    0.90
   8  14 -10    2.20    1.80
 -10   8  14    2.60    1.90
  -8  14  10    1.90    1.80
 -10   9 -14   -0.40    1.60
 -10  -9 -14   -3.00    2.30
  10   9 -14    0.90    1.20
   9  14 -10    0.80    0.90
 -10  14 -10   -0.70    1.60
  10  14  10   -0.20    1.70
 -10 -10  14    2.40    1.40
 -10  10 -14   -0.60    2.00
 -10  14  10   -0.20    1.70
  10  14 -10    1.20    1.00
  10  10 -14    1.80    1.20
 -10  10  14   -0.80    1.70
 -14  10  10   -0.70    2.30
 -10 -11  14   -0.30    1.40
 -10  11 -14   -1.60    2.80
  10  11 -14    0.90    1.20
 -10 -12  14   11.30    2.10
 -12  14 -10    8.70    2.20
 -10  12 -14    9.00    1.90
 -14  10  12   12.60    2.80
 -10  12  14   10.60    2.30
 -12  14  10   11.60    2.50
   0  14 -11   27.70    3.10
  14  11   0   39.20    8.10
 -11   0 -14   26.40    4.90
   0  14  11   24.80    4.20
   0  14  11   23.70    3.90
   1  14  11   -0.70    1.50
  14  11   1   -0.40    2.90
  -1  14 -11   -0.40    1.10
 -11  -1  14    2.70    1.50
   1  14  11   -1.40    1.90
   1  14 -11   -0.20    1.10
  14  11  -1    5.40    3.50
  -1  14  11   -1.00    1.60
 -11   1  14    2.80    1.50
   2  14  11   -1.00    2.10
 -11   2 -14   -1.40    1.40
   2  14  11   -0.80    1.50
  14  11   2   -2.80    2.90
 -11  -2  14    3.10    1.40
  -2  14 -11    0.00    1.10
 -11  -2 -14   -0.60    1.50
   2  14 -11    0.50    0.80
 -11   2  14    0.40    1.50
   2  14 -11    0.30    1.10
  -2  14  11   -1.10    1.70
  14  11  -2    4.00    3.60
  14  11   3    0.10    3.10
   3  14  11   -0.80    1.40
 -11   3 -14   -1.50    1.40
  -3  14 -11   -0.80    1.10
  -3  14 -11    0.40    1.00
 -11   3  14    1.10    1.50
   3  14 -11    1.20    0.90
 -11  -3 -14   -1.80    1.40
   3  14 -11   -0.90    1.20
 -14  11   3   -0.10    1.90
  -3  14  11   -0.50    1.70
  14  11   4   18.40    3.60
  -4  14 -11   25.10    4.00
  -4  14 -11   27.90    3.30
   4  14  11   22.10    3.60
  -4  14  11   21.30    3.60
 -14  11   4   21.90    4.20
   4  14 -11   27.60    3.20
 -11   4  14   26.40    3.50
   4  14 -11   20.90    3.20
  -5  14 -11   46.70    4.90
  -5  14 -11   53.89    4.20
  14  11   5   41.80    6.90
 -11  -5  14   58.89    4.20
 -11   5 -14   54.89    5.50
   5  14  11   41.80    4.30
  -5  14  11   47.80    4.50
   5  14 -11   52.69    4.10
  11   5 -14   47.90    7.20
 -11   5  14   52.59    4.40
   5  14 -11   47.50    4.20
 -14  11   5   46.50    4.90
   6  14  11   11.30    1.90
  14  11   6    4.70    2.90
  -6  14 -11    6.40    1.60
 -14  11  -6    7.80    2.20
 -11   6 -14    9.70    1.80
  11   6 -14    8.00    2.00
  -6  14  11    9.60    2.10
 -14  11   6   10.60    2.20
   6  14 -11    6.80    1.70
 -11  -7  14   37.90    3.40
  -7  14 -11   34.40    4.10
   7  14  11   28.60    4.20
  -7  14 -11   32.90    6.10
 -11   7 -14   34.40    4.80
 -11   7  14   33.70    4.10
  11   7 -14   36.70    5.90
 -14  11   7   32.30    4.40
   7  14 -11   28.20    4.40
   7  14 -11   37.00    3.50
  -7  14  11   30.80    4.30
  -8  14 -11    3.60    1.80
 -14  11  -8    1.30    2.00
 -11   8 -14    3.10    1.70
   8  14  11    2.60    1.70
  -8  14  11    2.70    1.80
   8  14 -11    4.50    1.00
 -14  11   8    5.00    2.40
 -11   8  14    2.20    1.90
  11   8 -14    5.70    1.80
   9  14  11   -2.80    1.90
 -11  -9  14    0.30    1.40
  -9  14 -11   -2.40    1.60
 -11  -9 -14   -3.30    2.40
  11   9 -14    1.70    1.50
 -14  11   9   -1.30    2.20
   9  14 -11    0.10    0.90
 -11  10 -14   -3.60    2.50
 -11 -10  14    3.20    1.50
 -10  14 -11   -0.90    1.60
 -10  14  11    0.80    2.10
 -11  10  14   -1.50    1.80
  10  14 -11    0.90    1.00
 -14  11  10    1.50    2.40
 -11 -11  14   -2.10    1.70
 -11  11  14   -1.40    2.10
   0  14 -12   23.70    3.30
  14  12   0   36.20    7.20
 -12   0  14   22.90    3.50
   0  14 -12   21.50    3.00
   0  14  12   17.70    2.80
  -1  14 -12   13.40    2.70
  -1  14 -12   13.20    3.10
  14  12   1   13.10    3.30
 -12  -1  14   16.50    3.10
 -12   1  14   13.80    3.20
  -1  14  12   11.50    2.40
  -2  14 -12   -0.80    1.00
   2  14  12   -0.90    1.70
 -12  -2  14    0.90    1.40
  -2  14 -12   -0.60    1.00
  14  12   2   -2.40    2.50
  14  12  -2    4.60    3.00
 -12  -2 -14   -1.50    1.50
  -2  14  12   -2.20    1.70
   2  14 -12   -0.70    0.80
 -12   2  14   -0.20    1.60
   3  14  12    0.30    1.60
 -12  -3  14    2.00    1.50
  14  12   3    1.30    2.70
  -3  14 -12   -1.00    1.20
  -3  14 -12   -0.30    1.10
 -12   3  14    2.70    1.70
   3  14 -12    0.30    0.90
 -14  12   3   -2.20    1.90
 -12  -4  14   37.60    3.60
  -4  14 -12   33.50    4.30
  14  12   4   37.20    6.50
   4  14  12   30.20    4.10
  -4  14 -12   34.60    3.40
 -12  -4 -14   21.30    4.90
  -4  14  12   31.50    3.90
 -14  12   4   25.40    4.40
 -12   4  14   29.70    3.90
   4  14 -12   33.80    3.50
   4  14 -12   23.40    3.50
  -5  14 -12   -0.30    1.30
  14  12   5   -0.90    2.40
 -12  -5  14    1.00    1.60
  -5  14 -12   -1.50    1.30
  -5  14  12   -2.60    1.70
   5  14 -12    1.00    0.90
   5  14 -12   -0.70    1.40
 -14  12   5   -1.90    2.10
 -12   5  14   -0.20    1.70
  12   5 -14    1.10    2.60
  -6  14 -12    2.50    1.70
  12   6 -14    4.80    2.40
  -7  14 -12   -0.80    2.00
 -12  -7  14    0.20    1.50
   7  14 -12    0.80    0.90
  12   7 -14    2.00    2.10
 -12  -8  14    3.20    1.70
 -14  12  -8   -2.70    2.10
  -8  14 -12   -1.60    1.50
 -12   8 -14   -2.60    1.80
  -8  14  12   -0.80    1.90
 -12   8  14    0.20    1.80
   8  14 -12    0.30    0.90
 -14  12   8   -1.00    2.00
 -12  -9  14   -1.10    1.60
   9  14 -12   -0.60    1.10
 -14  12   9   -2.30    2.10
 -14  12 -10    1.60    2.10
 -10  14 -12    4.50    1.90
 -12  10  14    3.70    2.10
 -10  14  12    7.10    2.10
 -14  12  10    6.20    2.50
 -13   0  14   -0.30    1.60
   0  14 -13   -1.80    1.10
   0  14 -13   -0.70    0.90
  14  13   0    4.00    2.70
 -13  -1  14    2.50    1.80
   1  14  13    0.70    2.80
  14  13   1    4.50    2.50
  -1  14 -13    1.20    1.00
  -1  14 -13    0.90    1.30
  14  13  -1    4.80    2.80
   1  14 -13    0.10    1.00
 -13   1  14    2.10    1.70
   1  14 -13   -1.30    1.30
  -1  14  13    0.20    2.30
  -2  14 -13    2.10    1.10
  14  13   2    3.50    2.80
 -13  -2 -14   -0.80    1.50
  -2  14  13    0.10    2.30
   2  14 -13    1.60    0.90
  -3  14 -13   -0.50    1.10
   3  14 -13    0.50    0.90
 -13  -3 -14   -1.60    1.50
  14  13   4    1.60    2.60
  -4  14 -13   -0.40    1.20
  -4  14 -13    0.50    1.30
  -4  14  13   -1.40    2.00
   4  14 -13   -1.40    1.60
 -14  13   4    0.70    2.20
 -13   4  14    3.90    1.90
  -5  14 -13   -0.30    1.20
  14  13   5    1.20    2.40
  -5  14 -13    1.10    1.60
 -13   5 -14   -1.60    1.60
 -14  13   5   -0.60    2.00
   5  14 -13   -0.40    1.70
 -13   5  14   -0.40    1.70
  -6  14 -13    2.60    1.50
  -6  14 -13    0.30    1.90
 -13   6 -14    0.10    1.70
  14  13   6    2.30    2.40
 -14  13   6    2.80    2.00
 -13   6  14    1.70    1.80
  -6  14  13    0.80    2.10
  -7  14 -13   -1.00    2.60
  -7  14 -13    0.50    1.60
 -13   7 -14   -1.70    1.60
  14  13   7   -0.60    2.60
 -13  -7  14    3.90    2.00
 -14  13   7    1.80    2.20
 -13   7  14    1.20    2.00
  -7  14  13   -0.20    2.10
  -8  14 -13    2.40    1.80
 -14  13  -8   -0.40    2.50
 -13  -8  14    7.70    2.20
 -14  13   8    3.60    2.40
  -8  14  13    3.70    2.20
 -13   8  14    5.50    2.30
 -14   0  14    2.00    2.10
  14  14   0    1.60    2.60
 -14  -1  14    4.60    2.00
  14  14   1    6.00    2.50
  -1  14 -14    3.50    1.20
  -1  14  14    1.20    2.70
 -14   1  14    6.40    2.20
  14  14  -1    9.00    3.00
  -2  14 -14    2.70    1.30
  14  14   2    6.80    2.50
  -2  14 -14    2.30    1.40
  -2  14  14    5.10    2.70
   2  14 -14    4.20    1.10
 -14   2  14    6.80    2.10
  14  14   3    7.90    2.90
  -3  14 -14    2.50    1.30
  -3  14 -14    3.30    1.50
  -3  14  14    3.90    2.30
 -14  14   3    2.90    2.10
   3  14 -14    0.40    1.70
   3  14 -14    3.20    1.10
  -4  14 -14    0.80    1.40
  14  14   4    2.60    2.50
  -4  14 -14    0.30    1.20
  -4  14  14    1.90    2.10
 -14   4  14    4.30    2.00
   4  14 -14   -1.30    1.90
   4  14 -14    2.50    1.00
 -14  14   4    2.60    2.20
  -5  14 -14    5.10    1.50
 -14   5 -14    1.80    1.80
  -5  14 -14    4.90    2.10
  14  14   5    8.60    2.60
 -14  14   5    4.20    2.30
  -5  14  14    6.30    2.30
 -14  -6  14    4.90    2.50
  14  14   6    4.60    2.50
  -6  14  14    2.50    2.10
 -14  14   6    1.50    2.10
 -14   6  14    2.60    2.40
  14  14   7    2.70    2.80
 -14  14   7    1.40    2.20
  -7  14  14   -0.40    2.10
 -14   7  14    0.20    2.20
   0   0  15    3.40    1.80
   0  15   0    3.70    1.40
   0   1  15    3.70    2.00
   0   1 -15    2.60    1.00
   0  -1 -15    2.20    1.10
   0  -1  15    2.70    1.80
  -2  15   0   13.80    3.20
   0   2 -15   15.30    3.30
   2  15   0   19.70    3.00
   0   2  15   18.10    4.20
   0  -2  15   22.30    3.90
   0   3  15    2.30    1.90
   0  -3  15    4.70    1.90
   0  -3 -15    0.50    1.10
   0   3 -15    1.60    1.00
  -3  15   0    2.80    1.40
   0  -4  15   45.10    4.40
   0   4  15   40.20    4.70
   0   4 -15   35.90    3.80
  -4  15   0   37.60    3.80
   4  15   0   44.50    3.60
   0  -4 -15   28.80    4.60
   0   5  15    0.60    1.90
   0   5 -15   -0.10    0.90
   0  -5  15    4.20    1.90
   5  15   0    2.40    1.20
  -5  15   0   -0.20    1.40
   0   6 -15   64.99    4.60
  -6  15   0   64.89    4.80
   0  -6  15   67.69    5.10
   6  15   0   63.69    4.50
   0   6  15   64.89    5.30
   0  -7  15   -0.10    1.80
   0   7  15   -2.50    1.90
   0   7 -15   -0.20    0.90
   7  15   0   -0.50    1.20
 -15   0   8   45.90    4.60
  -8  15   0   40.60    4.60
   0   8  15   36.40    4.70
   0  -8  15   39.20    4.40
   0   8 -15   38.40    3.60
   8  15   0   40.90    3.80
  -9  15   0    0.50    1.90
   0   9 -15    0.90    1.00
   0  -9  15    3.80    1.90
 -15   0   9    3.20    2.00
   0   9  15    0.70    2.10
  10  15   0    6.20    1.60
   0  10  15    6.90    2.30
   0 -10  15    8.50    2.20
   0  10 -15    5.40    1.30
 -15   0  11    0.60    2.10
   0  11 -15   -0.70    0.80
  11  15   0    0.20    1.50
   0  12 -15   24.60    3.70
   0  12 -15   30.50    3.40
  13  15   0    2.80    2.20
 -15   0  13    0.10    2.20
  14  15   0    9.10    2.70
   1   0  15    4.20    2.00
  -1   0 -15    1.10    1.00
   0  15   1    3.20    1.20
   0  15  -1    2.30    1.30
  -1   0  15    2.90    1.80
   1  -1 -15   94.49    5.80
   1  15   1   96.49    5.50
  -1  -1  15   88.69    6.10
  -1   1 -15   98.39    5.90
   1   1  15  111.69    6.70
  -1  15  -1   99.29    5.70
  -1   1  15   89.79    6.10
  -1  15   1   96.59    5.60
   1  15  -1   92.89    5.60
   1   1 -15   94.09    5.90
   1  -1  15  104.39    6.60
   1  15  -1   81.69    5.90
  -1  -1 -15   95.69    6.00
   1   2  15   28.50    4.30
  -1  -2  15   18.70    3.70
  -1   2 -15   17.10    3.40
  -2  15  -1   22.30    3.40
   1  -2 -15   21.80    3.60
   2  15   1   27.30    3.20
  -1  -2 -15   15.10    3.60
   1   2 -15   18.30    3.30
   2  15  -1   22.90    3.00
  -2  15   1   20.90    3.30
  -3  15  -1  253.17   12.20
   1   3  15  270.67   13.10
  -1  -3  15  250.37   12.70
  -1   3 -15  257.67   12.80
   1  -3 -15  244.08   12.80
   3  15   1  250.37   12.10
   1   3 -15  252.37   12.70
  -1   3  15  241.08   12.80
  -3  15   1  246.18   12.10
   3  15  -1  251.37   12.10
  -1  -3 -15  249.48   12.80
   1  -3  15  265.87   13.20
   4  15   1   29.00    3.30
   1   4  15   33.90    5.00
  -1  -4  15   28.70    3.90
  -1   4 -15   25.30    3.60
   1   4 -15   21.80    3.30
   4  15  -1   31.30    3.20
   1  -4  15   32.10    4.70
   1   5  15  183.98   10.00
  -1   5 -15  178.78    9.30
   5  15   1  168.98    8.90
  -5  15  -1  170.88    9.10
  -1  -5  15  180.88    9.50
  -1  -5 -15  173.48   10.00
  -1   5  15  171.98    9.60
   1   5 -15  178.38    9.30
   5  15  -1  179.28    8.90
  -5  15   1  173.18    9.00
   1  -5  15  184.28   10.00
  -1   6 -15   31.10    3.40
   1   6  15   32.50    4.70
  -6  15  -1   24.60    3.70
   6  15   1   31.20    3.40
  -1  -6  15   36.40    3.90
   1  -6  15   33.70    4.60
   6  15  -1   37.70    3.30
  -1   6  15   26.70    4.10
   1   6 -15   30.20    3.40
  -6  15   1   27.40    3.80
  -1  -7  15   15.70    3.50
   1   7  15   17.60    2.80
   7  15   1   18.90    3.10
  -1   7 -15   18.40    3.00
  -7  15  -1   17.60    3.60
 -15   1   7   23.90    4.00
  -1   7  15   14.70    2.50
   1   7 -15   18.60    3.00
   1  -7  15   17.50    4.20
   7  15  -1   21.70    3.10
   1   8  15   34.00    5.10
  -8  15  -1   29.80    4.10
   8  15   1   38.30    3.70
  -1   8 -15   32.70    3.40
  -1  -8  15   38.60    4.00
  -1   8  15   28.80    4.20
   1   8 -15   29.10    3.10
  -8  15   1   25.90    4.30
   1  -8  15   38.30    4.70
   8  15  -1   35.80    3.60
 -15   1   8   38.00    4.30
   1   8 -15   32.90    3.50
  -1   9 -15   60.09    4.20
  -1  -9  15   69.59    5.20
   1   9  15   69.69    6.10
  -9  15  -1   65.29    5.70
 -15  -1   9   79.79    5.60
   9  15   1   70.49    5.00
 -15   1   9   82.09    5.50
   9  15  -1   71.99    4.90
   1   9 -15   63.99    4.30
  -1   9  15   65.69    5.40
   1  -9  15   71.79    6.00
   1  10  15    2.30    2.70
  -1  10 -15    2.30    1.10
  -1  10 -15    4.20    1.00
  -1 -10  15    4.90    1.70
 -10  15  -1    1.90    2.40
  10  15   1    6.30    1.70
   1  10 -15    2.50    1.20
  -1  10  15    3.60    2.10
   1 -10  15    5.70    2.40
   1  10 -15    4.10    0.90
 -15   1  10    6.80    2.00
  10  15  -1    5.10    1.60
  -1  11 -15   29.60    3.40
   1  11  15   26.10    3.60
  11  15   1   33.40    4.60
  -1  11 -15   25.20    3.00
  -1 -11  15   27.70    4.00
  11  15  -1   31.60    4.30
   1 -11  15   25.60    4.80
  -1  11  15   23.20    4.80
   1  11 -15   28.50    3.20
   1  11 -15   21.70    3.20
  -1  12 -15    0.00    1.00
   1  12 -15   -0.30    0.90
  -1  13 -15    6.30    1.30
  -1  13 -15    5.70    1.10
  -1  13  15    9.60    3.00
 -15  -1  14    4.30    2.80
  14  15   1    3.20    2.70
  14  15  -1    3.50    2.80
 -15   1  14    3.80    2.60
   0  15  -2   -0.20    1.00
  -2   0  15    0.40    1.70
   0  15   2    2.70    1.20
  -2   0 -15   -0.10    1.00
   0  15  -2    1.80    1.40
   2   0 -15    0.60    0.90
   1  15   2   76.19    4.70
  -2  -1  15   66.49    5.10
   2  -1 -15   73.19    5.00
  -1  15  -2   76.49    4.80
  -2   1 -15   74.99    5.10
  -2  -1 -15   76.09    5.30
   1  15  -2   64.59    5.00
  -1  15   2   70.69    4.60
   1  15  -2   73.79    4.70
  -2   1  15   67.39    5.20
   2   1 -15   75.49    4.80
  -2  15  -2   16.70    3.20
   2  15   2   21.30    3.00
   2  -2 -15   15.30    3.70
  -2  -2  15   15.70    3.50
   2  15  -2   16.70    3.00
   2   2 -15   18.30    3.10
  -2  15   2   13.30    3.00
   2  -3 -15   82.79    5.90
  -3  15  -2   83.19    5.30
  -2  -3  15   89.89    5.60
  -2   3 -15   83.39    5.40
   3  15   2   86.29    5.10
  -2   3  15   75.99    5.60
  -2  -3 -15   84.39    5.80
   3  15  -2   76.69    5.50
   3  15  -2   85.09    5.00
   2   3 -15   81.39    5.20
  -3  15   2   80.69    5.10
  -2   4 -15   53.29    4.40
  -2  -4  15   61.69    4.40
  -4  15  -2   48.60    4.20
   4  15   2   54.29    4.10
   2   4 -15   51.79    4.10
   4  15  -2   43.70    4.50
   4  15  -2   59.09    3.90
  -2  -4 -15   49.90    4.90
  -4  15   2   50.39    4.10
  -2   4  15   47.00    4.50
  -2  -5  15   37.40    3.70
  -2   5 -15   31.10    3.60
   5  15   2   26.70    3.30
  -5  15  -2   23.30    3.60
  -2  -5 -15   21.00    4.60
   5  15  -2   35.50    3.20
   2  -5  15   35.10    5.30
  -2   5  15   26.60    4.00
   2   5 -15   30.70    3.40
  -5  15   2   29.30    3.50
  -2  -6  15   57.19    4.30
  -6  15  -2   42.80    4.30
   6  15   2   43.40    3.90
   2   6  15   60.29    6.00
  -2   6 -15   54.69    4.10
  -2   6  15   45.90    4.40
   2   6 -15   40.50    3.50
   2  -6  15   56.89    5.80
  -6  15   2   46.10    4.20
   2   6 -15   51.19    4.00
 -15   2   6   50.09    4.90
   6  15  -2   55.39    3.80
  -2   7 -15   -0.60    0.90
  -2  -7  15    0.60    1.50
   7  15   2    0.60    1.20
   2   7  15    0.50    2.70
   2  -7  15   -0.70    2.30
   2   7 -15   -0.50    0.80
   2   7 -15   -0.90    1.10
   7  15  -2    1.10    1.20
  -7  15   2    0.10    1.50
 -15   2   7   -1.60    1.70
  -2   8 -15    0.20    0.80
   8  15   2    1.90    1.30
  -2  -8  15    2.40    1.60
   2   8  15    0.20    2.70
  -8  15  -2    0.20    1.60
  -2   8  15   -0.50    1.70
   2   8 -15    0.10    1.20
   2  -8  15   -1.20    2.60
   2   8 -15    0.40    0.90
   8  15  -2    1.50    1.40
 -15   2   8    2.30    1.90
   9  15   2    9.60    1.70
  -2  -9  15   14.70    3.40
  -9  15  -2    8.40    2.10
   9  15  -2   13.60    3.20
   2  -9  15   10.80    3.10
  -2   9  15    7.00    2.00
   2   9 -15    7.40    1.40
  10  15   2    1.90    1.60
 -15  -2  10    3.20    2.00
  -2 -10  15   -0.20    1.70
  -2  10 -15   -0.30    0.90
  -2  10  15   -1.50    1.80
 -15   2  10    2.00    2.00
   2 -10  15   -3.00    2.40
  10  15  -2    0.10    1.50
   2  10 -15    0.80    0.80
  -2 -11  15    2.60    1.80
  11  15   2    4.00    1.80
  -2  11 -15    0.30    1.10
 -15  -2  11    5.10    2.10
  -2  11 -15    1.60    0.90
   2 -11  15   -1.40    2.80
   2  11 -15    2.30    0.90
 -15   2  11    3.30    2.10
  -2  11  15    0.10    2.00
  11  15  -2    1.20    1.80
  -2  12 -15   -0.40    1.00
   2  12 -15    1.10    0.90
 -15  -2  13    3.90    2.60
  13  15   2    1.10    1.90
  13  15  -2    1.90    2.60
 -15   2  13    2.20    2.30
  -2  14 -15   -1.90    1.50
  14  15   2    0.90    2.30
 -15  -2  14    6.50    2.90
  -2  14  15   -2.30    3.00
   3   0 -15    0.30    1.00
   0  15  -3   -1.30    1.00
  -3   0  15   -2.00    1.60
   0  15  -3   -1.30    1.30
   0  15   3   -0.60    1.10
   1  15   3    4.00    1.30
  -3  -1  15    4.40    1.60
  -1  15  -3    3.30    1.10
   3  -1 -15    3.90    1.20
  -3   1 -15    1.50    1.20
  -1  15  -3    4.60    1.40
   1  15  -3    2.60    1.30
  -1  15   3    4.90    1.40
  -3  -1 -15    2.50    1.20
   1  15  -3    2.30    1.00
  -3   1  15    3.50    1.60
   3   1 -15    3.30    1.10
  -2  15  -3   -1.20    1.20
  -3  -2  15    0.80    1.50
   2  15   3    0.20    1.30
   3  -2 -15   -0.20    1.20
   2  15  -3   -0.60    1.00
  -3   2  15   -1.00    1.70
   3  -2  15    4.60    3.00
   3   2 -15   -0.10    0.90
   2  15  -3   -1.80    1.20
  -2  15   3   -1.50    1.20
  -3  15  -3   22.10    3.30
  -3   3 -15   19.70    3.50
   3  15   3   26.50    3.20
  -3  15   3   22.30    3.10
   3   3 -15   24.20    3.30
  -3   3  15   19.90    3.60
  -3  -3 -15   20.70    4.00
   3  15  -3   17.60    3.50
   3  15  -3   28.50    3.20
  -3   4 -15    4.00    1.10
   4  15   3    4.70    1.30
  -4  15  -3    5.40    1.50
  -3  -4 -15    2.70    1.40
   3   4 -15    4.70    1.00
  -4  15   3    5.00    1.30
  -3   4  15    5.20    1.80
   3  -4  15    9.90    3.30
  -5  15  -3   94.59    5.80
  -3   5 -15   98.79    5.90
   5  15   3   95.69    5.70
  -3  -5  15  102.69    5.90
   3  -5  15  111.89    8.70
   5  15  -3  101.29    5.50
   3   5 -15   85.29    5.30
   5  15  -3   84.39    6.00
  -3  -5 -15   89.19    6.80
  -5  15   3   95.19    5.60
   3   5 -15   94.29    5.80
  -3   5  15   88.29    6.00
  -3  -6  15   22.60    3.30
   6  15   3   16.50    3.00
  -3   6 -15   19.40    3.20
   3  -6  15   17.00    3.90
  -3   6  15   20.90    3.50
 -15   3   6   19.10    4.10
   3   6 -15   16.20    3.10
   7  15   3    6.50    1.40
  -3  -7  15    9.30    1.80
  -3   7 -15    5.80    1.10
   3   7  15   12.50    3.50
  -7  15  -3    6.10    1.70
   3   7 -15    6.30    1.40
  -3   7  15    6.30    1.90
   3   7 -15   11.40    2.80
   3  -7  15    8.80    3.50
 -15   3   7   10.40    2.20
  -7  15   3    7.00    1.70
  -3   8 -15   66.89    4.80
   8  15   3   70.39    4.90
  -3  -8  15   70.49    4.90
  -8  15  -3   72.39    5.30
   3  -8  15   79.19    8.10
 -15   3   8   74.59    5.60
   3   8 -15   66.99    4.70
  -3   8  15   65.59    5.10
   8  15  -3   65.39    4.70
   3   8 -15   58.49    4.60
  -9  15  -3   -0.40    1.70
  -3  -9  15    2.50    1.70
   9  15   3    1.90    1.40
   9  15  -3    1.10    1.40
 -15   3   9    2.00    2.00
  -3   9  15    1.40    1.90
   3  -9  15   -1.50    3.40
  -3 -10  15    9.20    1.90
  10  15   3    6.30    1.70
 -10  15  -3    5.60    2.10
  -3  10 -15    6.30    1.20
   3  10 -15    3.70    1.50
  10  15  -3    6.70    1.70
   3 -10  15    3.00    3.50
  -3  10  15    8.40    2.10
 -11  15  -3    5.70    2.50
  -3  11 -15    6.30    1.20
  -3  11 -15    8.70    1.40
   3  11 -15    6.90    1.80
  11  15  -3   10.40    2.00
  -3  11  15   12.20    2.40
  -3  12 -15   -0.80    1.00
   3  12 -15    1.50    0.90
  13  15   3    3.50    2.00
 -15  -3  13    5.70    2.90
  13  15  -3    5.20    2.90
   3  13 -15    1.70    0.90
 -15   3  13    5.80    2.40
  -3  13  15   -2.80    2.20
 -15  -3  14    1.30    3.10
  14  15   3   -0.10    2.40
 -14  15   3   -1.80    2.30
 -15   3  14    0.50    2.70
   0  15  -4    0.50    0.90
  -4   0  15    0.30    1.50
   4   0 -15    0.50    1.10
   0  15  -4   -0.40    1.30
   4   0  15    9.10    4.40
  -4   1 -15  294.57   14.00
  -1  15  -4  273.77   13.70
   1  15   4  269.67   13.10
  -1  15  -4  280.77   13.10
   4  -1 -15  270.27   14.00
  -4  -1  15  273.87   13.60
  -1  15   4  271.47   13.10
  -4   1  15  269.97   13.60
  -4  -1 -15  299.37   14.10
   4   1 -15  269.87   13.80
   1  15  -4  266.27   13.70
   1  15  -4  274.77   13.10
   4  -2 -15    1.70    1.50
   4   2  15    8.60    4.40
   2  15   4    1.40    1.30
  -4  -2  15    0.60    1.50
  -2  15  -4    1.30    1.40
  -2  15  -4    0.60    1.00
   2  15  -4    0.60    1.00
   2  15  -4    0.10    1.30
  -4  -2 -15   -1.00    1.20
  -2  15   4   -0.70    1.20
   4   2 -15    1.10    1.00
  -4   2  15   -0.40    1.50
  -4   3 -15  148.09    8.00
  -4  -3  15  140.99    7.70
  -3  15  -4  148.29    7.50
   3  15   4  139.89    7.50
   3  15  -4  142.79    7.30
   3  15  -4  132.59    7.80
  -4   3  15  136.39    7.80
  -4  -3 -15  146.19    8.40
   4   3 -15  133.39    7.70
  -3  15   4  138.29    7.30
  -4  -4  15    3.60    1.50
  -4   4 -15    1.20    1.10
   4  15   4    2.40    1.40
  -4  15  -4    1.10    1.40
  -4  15   4    1.70    1.30
  -4  -4 -15   -0.10    1.40
   4  -4  15    5.90    4.50
   4  15  -4    1.10    1.00
   4   4 -15    1.80    1.00
   4  15  -4    3.90    1.30
  -4   4  15    1.90    1.60
  -5  15  -4   10.60    1.80
   5  15   4   14.40    3.00
  -4   5 -15   17.10    3.20
  -5  15   4   11.50    1.70
   4   5 -15   14.90    3.10
  -4   5  15   12.20    2.00
 -15   4   5   15.50    2.30
   4  -5  15   13.80    5.20
  -4  -6  15    5.80    1.60
  -6  15  -4    3.00    1.60
   6  15   4    5.00    1.50
  -4   6 -15    2.70    1.10
  -6  15   4    3.00    1.60
 -15   4   6    3.10    2.00
  -4   6  15    4.10    1.80
   4   6 -15    2.70    0.90
   6  15  -4    5.20    1.20
   6  15  -4    1.40    1.00
   4  -6  15    9.10    4.90
  -4   7 -15    1.40    1.10
  -7  15  -4    0.40    1.50
  -4  -7  15    4.20    1.60
   7  15   4    1.20    1.30
   4   7 -15    1.20    0.90
   4  -7  15    1.00    4.80
  -4   7  15    0.40    1.70
   7  15  -4    2.30    1.20
 -15   4   7    2.80    2.10
   7  15  -4   -0.80    1.10
 -15   4  -8   -1.00    1.40
  -4  -8  15    0.00    1.50
  -8  15  -4   -1.50    1.50
  -4   8 -15   -0.30    1.00
   8  15   4    0.40    1.40
   8  15  -4   -0.60    1.20
   4   8 -15    0.30    1.00
 -15   4   8   -0.90    2.10
  -4   8  15   -0.10    1.70
   4  -8  15   -3.90    4.60
  -4   9 -15    0.90    1.10
 -15   4  -9   -1.30    1.30
   9  15   4    2.60    1.50
  -9  15  -4   -0.60    1.70
  -4  -9  15    2.70    1.50
  -4   9  15    0.70    1.70
 -15   4   9    0.70    2.10
   9  15  -4   -0.40    1.40
   4   9 -15    0.30    0.90
 -10  15  -4    3.50    2.00
  10  15   4    8.20    1.90
  -4 -10  15    4.50    1.50
  -4  10 -15    4.80    1.20
   4  10 -15    5.00    1.10
 -15   4  10    7.30    2.40
  10  15  -4    4.10    1.80
  -4  10  15    3.20    1.80
  -4  11 -15   -0.80    0.90
  -4 -11  15    0.60    1.30
  11  15   4    0.50    1.40
 -15   4  11    0.60    2.20
  11  15  -4    0.20    1.90
   4  11 -15   -0.30    0.90
  -4  12 -15    0.90    1.40
  -4  12 -15    0.50    1.10
  12  15   4    4.60    1.90
   4  12 -15    2.50    1.00
 -15   4  12    4.30    2.30
  12  15  -4    2.70    2.30
  -4 -13  15    9.10    1.80
  -4  13 -15   14.30    3.00
  -4  13 -15    7.70    1.60
  13  15   4    8.20    2.00
   4  13 -15   13.40    3.30
  -4  13  15   12.70    2.70
 -13  15   4    8.60    2.10
  14  15   4    1.60    2.30
 -14  15   4   -3.10    2.20
 -15   4  14    2.50    2.70
  -5   0  15    0.60    1.50
   5   0  15   12.30    7.40
   5   0 -15    0.50    1.20
   1  15   5  174.88    9.10
   5  -1 -15  179.08   10.30
  -5   1 -15  193.88    9.90
  -1  15  -5  184.28    9.10
  -1  15  -5  180.28    9.50
  -5  -1  15  181.68    9.50
  -1  15   5  177.58    9.10
  -5   1  15  176.58    9.50
  -5  -1 -15  194.38   10.10
   1  15  -5  176.98    9.00
   5   1 -15  179.18    9.70
   1  15  -5  179.68    9.50
   2  15   5    2.10    1.30
  -2  15  -5    3.00    1.10
  -5   2 -15    0.40    1.20
  -5  -2  15    5.50    1.70
  -2  15  -5    2.80    1.40
   2  15  -5    3.70    1.40
   5  -2  15   12.30    7.70
   5   2 -15    2.80    1.10
  -5   2  15    2.20    1.60
   2  15  -5    1.60    1.00
  -2  15   5    1.40    1.30
  -3  15  -5   22.60    4.40
  -3  15  -5   22.40    3.30
  -5   3 -15   17.90    3.60
  -5  -3  15   23.40    3.30
   3  15   5   24.30    3.30
   5   3 -15   20.60    3.40
  -3  15   5   21.70    3.40
   3  15  -5   28.30    3.00
   5  -3  15   37.40    8.40
   3  15  -5   19.00    3.30
  -5   3  15   17.60    3.40
  -4  15  -5    1.10    1.40
  -5   4 -15    0.60    1.10
   4  15   5    1.90    1.40
  -5  -4  15    2.00    1.50
  -5   4  15   -0.80    1.40
   5   4 -15    0.90    1.00
   4  15  -5    2.50    1.20
   4  15  -5    0.70    0.90
  -5  -4 -15   -1.40    1.40
   5  -4  15   -3.90    7.60
  -4  15   5    0.00    1.40
  -5  15  -5   29.60    3.60
   5  15   5   33.30    3.60
  -5  -5  15   32.90    3.40
  -5   5 -15   35.50    3.80
   5  15  -5   26.90    3.50
  -5  15   5   28.60    3.90
   5  15  -5   36.60    3.20
   5  -5  15   28.40    8.40
   5   5 -15   30.80    3.60
  -5   5  15   28.70    3.60
 -15   5   5   30.90    4.40
  -6  15  -5    3.40    1.60
  -5  -6  15    4.80    1.50
   6  15   5    4.40    1.40
  -5   6 -15    3.60    1.20
   5   6 -15    4.10    1.00
   5  -6  15    7.40    8.10
  -5  -6 -15    0.90    1.60
 -15   5   6    2.80    2.10
   6  15  -5    5.70    1.30
  -5   6  15    3.40    1.70
  -5   7 -15   28.40    3.80
   7  15   5   37.60    3.80
  -7  15  -5   31.80    4.10
  -5  -7  15   39.30    3.60
 -15   5   7   30.20    4.70
   7  15  -5   35.10    3.40
  -5   7  15   33.70    3.80
   7  15  -5   26.90    3.70
   5   7 -15   37.40    3.60
   8  15   5    0.50    1.40
  -5  -8  15   -0.10    1.30
  -8  15  -5   -0.10    1.60
 -15   5  -8   -0.50    1.50
  -5   8  15    0.00    1.70
 -15   5   8   -1.50    2.00
   8  15  -5   -0.20    1.30
  -5  -9  15   26.50    3.20
  -9  15  -5   23.90    4.30
   9  15   5   31.30    4.20
  -5   9 -15   27.40    3.70
 -15   5   9   29.20    5.00
   9  15  -5   17.60    3.80
   5   9 -15   25.70    3.50
  -5   9  15   22.40    3.80
  10  15   5    9.20    2.00
  -5 -10  15    7.80    1.60
 -10  15  -5    8.20    2.20
 -15   5  10   13.30    2.60
  -5  10  15    6.40    1.90
   5  10 -15   13.00    3.10
  10  15  -5    9.20    2.00
  -5  11 -15    0.00    1.10
   5  11 -15    0.10    0.90
  -5 -12  15    4.20    1.60
  12  15   5    6.30    1.80
  -5  12 -15    2.90    1.40
 -12  15  -5   -1.10    2.60
 -15   5  12    5.40    2.70
 -12  15   5    4.20    2.00
   5  12 -15    3.50    1.10
  12  15  -5    5.40    2.70
  -5  12  15    0.20    1.90
  -5  13 -15   -1.30    1.30
  13  15   5   -0.10    2.10
 -15   5  13    1.70    2.50
   5  13 -15    0.00    1.00
  -6   0  15    1.60    1.50
   6   0 -15    1.10    1.60
   0  15  -6    0.30    1.20
   0  15   6    0.50    1.30
   0  15  -6    0.00    0.90
  -6  -1  15  238.78   12.00
  -1  15  -6  242.18   12.20
  -1  15  -6  248.48   11.60
   1  15   6  234.58   11.70
  -6   1 -15  255.67   12.70
  -1  15   6  234.18   11.70
   6   1 -15  237.78   12.70
   1  15  -6  236.88   11.50
   1  15  -6  235.38   12.20
  -6  -1 -15  253.87   12.80
  -6   1  15  234.08   12.00
  -6  -2  15   18.10    3.20
  -2  15  -6   15.40    3.50
   2  15   6   14.60    3.20
  -2  15  -6   18.30    3.10
  -6   2 -15   14.90    3.80
   2  15  -6   19.80    2.80
  -2  15   6   17.10    3.10
   6   2 -15   19.20    4.00
  -6   2  15   16.20    3.30
   2  15  -6   20.70    3.20
   3  15   6   65.59    4.70
  -6  -3  15   64.49    4.60
  -3  15  -6   67.89    4.50
  -6   3 -15   68.49    5.10
  -3  15  -6   66.79    5.20
   6  -3  15   65.59   12.90
  -6   3  15   60.19    4.70
   6   3 -15   62.19    5.00
   3  15  -6   66.69    4.60
  -3  15   6   66.89    4.70
  -6  -3 -15   65.89    5.70
   3  15  -6   72.09    4.40
  -6   4 -15    5.80    1.30
  -6  -4  15    8.30    1.60
  -4  15  -6    9.40    1.70
   4  15   6    9.90    1.70
 -15   6   4   12.30    2.30
   6  -4  15   11.50   11.50
   4  15  -6   12.90    3.00
  -6   4  15    6.80    1.70
  -4  15   6    9.40    1.70
 -15   6  -5    4.90    1.60
   5  15  -6    5.30    1.00
   6   5 -15    7.20    1.30
   6  -5  15   -2.30   12.40
  -6  -5 -15    6.20    1.70
  -6  15  -6    3.00    1.60
  -6  -6  15    2.60    1.40
   6  15   6    4.20    1.50
 -15   6  -6    0.40    1.50
  -6   6 -15    1.60    1.20
   6   6 -15    3.40    1.20
   6  15  -6    1.50    1.00
  -6   6  15    2.30    1.70
  -6  -6 -15   -0.90    1.60
 -15   6   6    0.10    2.10
   6  15  -6    3.10    1.20
  -7  15  -6    6.50    1.60
 -15   6  -7    1.80    1.70
   7  15   6    8.10    1.70
  -6   7  15    8.20    2.00
  -6  -7 -15    1.70    1.90
 -15   6   7    5.80    2.20
   7  15  -6    5.50    1.40
   6   7 -15    5.00    1.30
   7  15  -6    3.60    1.10
  -6  -8  15   -0.80    1.30
  -6   8 -15   -0.80    1.20
  -8  15  -6   -0.50    1.50
   8  15   6    2.00    1.50
   8  15  -6   -0.90    1.30
   8  15  -6   -1.00    1.00
   6   8 -15   -0.10    0.90
 -15   6   8   -0.70    2.10
  -6   8  15   -0.10    1.60
  -6  -9  15    4.90    1.50
  -9  15  -6    5.00    1.80
  -6   9 -15    5.80    1.30
   9  15   6    7.00    1.80
   9  15  -6    4.00    1.70
 -15   6   9    9.50    2.50
   6   9 -15    4.80    1.20
 -10  15  -6    4.10    2.00
  10  15   6    6.50    1.80
  -6  10 -15    2.50    1.20
  -6 -10  15    4.30    1.30
 -15   6 -10    1.40    1.70
  -6  10  15    7.40    2.10
  10  15  -6    7.60    2.00
   6  10 -15    4.90    1.10
 -15   6  10    7.10    2.50
  -6 -11  15   -0.50    1.20
  -6  11 -15   -1.40    1.20
  11  15   6    2.00    1.70
   6  11 -15   -1.40    1.00
 -11  15   6   -0.20    1.80
 -15   6  11   -0.90    2.50
  11  15  -6   -0.30    2.30
  -6  12 -15   -1.70    1.50
  12  15   6    3.30    1.90
  -6  12 -15   -1.20    1.30
  -6 -12  15   -0.60    1.30
 -12  15   6   -1.00    1.80
   6  12 -15    1.70    1.00
 -15   6  12   -1.20    2.40
  -6  13 -15    0.60    1.50
  13  15   6    5.90    2.10
  -6 -13  15    3.00    1.70
 -15   6  13    4.20    2.70
 -13  15   6    1.90    2.10
  -7   0  15    1.20    1.50
   0  15  -7    2.60    1.30
   0  15   7    1.50    1.40
   0  15  -7    0.70    1.00
  -7   0 -15   -1.20    1.30
  -7  -1  15  163.48    8.70
  -7   1 -15  171.28    9.40
   1  15   7  164.38    8.60
  -1  15  -7  164.98    8.30
  -1  15  -7  164.78    8.80
  -7  -1 -15  169.88    9.60
   1  15  -7  165.68    8.30
   7   1 -15  163.98   10.10
   1  15  -7  158.48    8.70
  -1  15   7  159.08    8.60
  -7   1  15  159.38    8.70
  -2  15  -7    6.90    1.30
  -2  15  -7    6.40    1.40
   2  15   7    9.40    1.70
  -7   2 -15    7.00    1.50
  -2  15   7    7.70    1.60
  -7   2  15    8.30    1.70
   7   2 -15    7.10    1.70
  -7  -3  15   38.70    3.60
  -3  15  -7   34.30    4.30
  -7   3 -15   43.50    4.40
   3  15   7   38.30    3.90
  -3  15  -7   37.10    3.60
   7   3 -15   35.90    4.80
  -7   3  15   30.30    3.70
   3  15  -7   38.80    3.40
   3  15  -7   41.40    3.60
  -3  15   7   38.10    4.10
  -7  -3 -15   31.70    4.90
  -4  15  -7   35.90    3.60
  -7   4 -15   38.70    4.30
   4  15   7   37.40    3.90
  -7  -4  15   36.30    3.60
  -4  15  -7   32.20    4.60
   7   4 -15   34.70    4.50
   4  15  -7   36.90    3.30
   4  15  -7   31.80    3.60
  -7   4  15   31.10    3.70
  -4  15   7   35.30    4.90
 -15   7   4   33.00    4.70
   5  15   7    2.70    1.40
 -15   7  -5   -1.60    1.60
  -5  15  -7    1.80    1.30
  -7  -5  15    2.40    1.40
  -7   5 -15    0.20    1.10
   7   5 -15    1.80    1.20
   5  15  -7    0.30    0.90
  -7  -5 -15   -2.10    1.50
   5  15  -7    0.80    1.20
 -15   7   5    0.60    2.10
  -7   5  15    1.10    1.50
  -6  15  -7    3.60    1.40
  -7  -6  15    4.40    1.50
   6  15   7    4.40    1.50
 -15   7  -6   -0.30    1.60
  -7   6  15    3.20    1.60
 -15   7   6    2.50    2.10
   7   6 -15    2.20    1.10
   6  15  -7    3.20    1.20
   6  15  -7    1.90    1.00
  -7  -6 -15   -0.60    1.60
  -7  15  -7   76.79    5.10
   7  15   7   76.89    5.30
  -7   7 -15   75.69    5.30
  -7  -7  15   78.79    4.90
   7   7 -15   64.19    5.20
  -7   7  15   62.89    5.00
 -15   7   7   71.99    5.90
   7  15  -7   64.49    4.70
   7  15  -7   63.59    5.00
  -8  15  -7    4.30    1.70
  -7   8 -15    1.20    1.10
 -15   7  -8    0.40    1.80
   7   8 -15    2.30    1.10
   8  15  -7    2.40    1.00
   8  15  -7    5.10    1.50
  -7   8  15    5.30    1.90
 -15   7   8    4.80    2.40
  -9  15  -7   18.00    3.90
   9  15   7   23.70    3.80
  -7  -9  15   18.90    3.00
   7   9 -15   22.30    3.60
   9  15  -7   13.50    2.10
 -15   7   9   13.80    2.70
  -7   9  15   18.60    3.60
   7  10 -15    0.30    1.00
 -15   7 -11   -1.90    2.00
  11  15   7   -1.00    1.60
  -7 -11  15   -0.40    1.20
   7  11 -15    1.70    1.00
 -15   7  11   -3.00    2.60
  12  15   7   -0.30    1.80
  -7 -12  15   -1.70    1.40
 -15   7  12   -1.80    2.50
   7  12 -15    1.00    1.10
  13  15   7    1.40    2.20
   0  15   8    0.30    1.40
  -8   0  15    1.60    1.40
   0  15  -8    0.20    0.90
  15   8   0  -12.80    8.50
   0  15  -8    0.70    1.20
  -8   0 -15   -0.80    1.40
  -8   1 -15   76.49    6.00
  -1  15  -8   76.79    4.90
  -1  15  -8   72.39    5.30
  -8  -1  15   80.89    5.10
   1  15   8   76.49    5.30
   1  15  -8   78.69    4.70
  -8  -1 -15   76.29    6.20
  -1  15   8   72.29    5.20
   1  15  -8   76.09    5.10
   8   1 -15   79.39    8.20
  -8   1  15   72.59    5.10
  -8  -2  15    5.60    1.50
  -2  15  -8    3.70    1.20
  -8   2 -15    2.20    1.40
  -2  15  -8    4.20    1.30
   2  15   8    4.40    1.50
  -8   2  15    6.30    1.70
   8   2 -15    4.40    1.80
  -8  -2 -15    0.50    1.50
   2  15  -8    2.80    1.00
  -2  15   8    3.00    1.60
  -3  15  -8   12.50    3.00
  -8   3 -15    8.00    1.60
  -3  15  -8    8.40    1.40
  -8   3  15    6.50    1.70
   8   3 -15    7.30    1.70
 -15   8   3   11.50    2.50
   4  15   8   44.00    4.10
  -4  15  -8   38.20    3.70
  -4  15  -8   36.00    4.80
  -8  -4  15   43.80    3.70
  -8   4 -15   36.90    4.60
   8   4 -15   33.70    5.10
   4  15  -8   41.10    3.70
   4  15  -8   36.80    3.50
  -8   4  15   32.30    3.80
 -15   8   4   34.90    5.00
   5  15   8    2.50    1.40
  -5  15  -8    1.50    1.30
  -8  -5  15    4.00    1.60
   5  15  -8    1.70    1.30
 -15   8   5    0.40    2.20
  -8   5  15    1.90    1.50
   8   5 -15    0.60    1.30
  -8  -6  15   25.10    3.20
  -8   6 -15   21.10    4.00
  -6  15  -8   26.70    3.50
   6  15   8   23.50    3.60
 -15   8   6   27.30    4.60
  -8   6  15   24.20    3.50
   6  15  -8   20.90    3.20
   6  15  -8   21.90    3.10
   8   6 -15   22.50    4.10
  -7  15  -8   34.40    3.90
  -8  -7  15   37.80    3.50
   7  15   8   35.50    4.00
  -8   7 -15   39.40    4.40
  -8   7  15   27.40    3.80
 -15   8   7   32.70    4.90
   8   7 -15   29.00    4.30
   7  15  -8   25.70    3.60
   7  15  -8   28.50    3.50
 -15   8  -8   -2.80    2.10
   8  15   8    1.40    1.40
  -8  -8  15    1.30    1.50
  -8  15  -8    0.20    1.60
   8   8 -15    0.50    1.20
  -8   8  15   -1.10    1.80
   8  15  -8   -0.40    1.00
   8  15  -8    0.20    1.50
 -15   8   8   -2.80    2.30
  -8   9 -15    7.20    1.60
   9  15  -8    7.10    1.40
  -8 -10  15   19.80    2.80
  10  15   8   15.10    2.30
  -8  10 -15   19.60    4.60
  -8  10  15   16.20    3.80
 -10  15   8   15.20    3.70
 -15   8  10   16.70    3.00
   8  10 -15   21.10    3.80
  -8 -11  15    1.90    1.20
  11  15   8    1.00    1.80
 -15   8 -11   -2.20    2.30
 -15   8  11   -2.50    2.70
   8  11 -15    1.20    1.10
  -8  11  15   -0.10    2.00
 -11  15   8   -2.00    1.80
  -8 -12  15   -1.80    1.30
  12  15   8   -1.00    1.80
 -12  15   8   -2.50    1.90
 -15   8  12   -3.00    3.00
   0  15   9    2.00    1.60
   0  15  -9    0.30    0.90
   0  15  -9    1.80    1.30
  15   9   0   -3.90    6.50
  -9   0  15    2.20    1.40
  -9   0 -15   -0.10    1.50
  -1  15  -9   67.19    4.50
   1  15   9   65.89    5.10
  -1  15  -9   60.99    4.80
  -9  -1  15   67.79    4.60
   1  15  -9   64.99    4.30
  -9  -1 -15   57.39    6.10
  -9   1  15   64.39    4.60
   1  15  -9   63.59    4.70
  -1  15   9   66.59    5.30
  -2  15  -9    0.00    1.10
   2  15   9    0.70    1.40
  -9  -2  15    2.10    1.50
  -2  15  -9   -0.20    1.20
  -2  15   9    1.10    1.80
   2  15  -9    0.20    1.10
   9   2 -15    0.40    2.20
   2  15  -9    1.00    0.90
  -9   2  15    0.20    1.40
  -3  15  -9    0.90    1.20
  -9  -3  15    2.00    1.50
   3  15   9    1.30    1.40
  -3  15  -9   -1.20    1.30
   9   3 -15    0.70    1.90
   3  15  -9   -0.90    1.10
  -4  15  -9    4.00    1.40
  -9  -4  15    6.10    1.60
  -4  15  -9    3.90    1.40
   4  15   9    6.80    1.50
  -9   4 -15    2.60    1.30
   4  15  -9    4.80    1.30
 -15   9   4    3.90    2.30
   4  15  -9    4.60    1.20
  -9   4  15    4.10    1.70
  -9   5 -15    4.80    1.50
  -5  15  -9    5.90    1.40
   5  15  -9    4.50    1.10
 -15   9   5    4.30    2.40
  -9   5  15    5.30    1.60
   5  15  -9    3.00    1.30
  -9  -5 -15    1.80    1.60
   9   5 -15    5.30    1.60
   6  15   9   67.79    5.00
  -9   6 -15   68.19    5.60
  -6  15  -9   70.09    4.80
  -9  -6  15   68.79    4.60
  -6  15   9   69.09    5.30
   6  15  -9   56.19    4.60
  -9   6  15   61.29    4.90
   9   6 -15   57.89    5.90
 -15   9   6   63.09    5.80
   6  15  -9   57.79    4.50
   7  15   9   37.10    4.10
  -9   7 -15   35.30    4.60
  -7  15  -9   35.60    3.90
  -9  -7  15   39.20    3.50
   9   7 -15   30.10    4.80
   7  15  -9   25.60    4.00
   7  15  -9   32.00    3.50
  -9   7  15   36.20    3.90
 -15   9   7   35.20    5.10
  -7  15   9   32.40    4.30
  -9   8 -15    4.90    1.40
   8  15  -9    3.70    1.10
  -9  -8 -15   -0.80    2.50
   9   8 -15    6.60    1.60
   9  15   9    3.10    1.70
  -9  15  -9    1.20    1.70
  -9   9 -15    1.50    1.70
  -9  -9  15    4.10    1.40
   9  15  -9    2.40    2.20
   9  15  -9    3.00    1.10
  -9   9  15    2.50    1.90
 -15   9   9    1.80    2.70
   9   9 -15    2.70    1.40
  -9  15   9    3.00    2.00
  10  15   9   -1.40    1.50
  -9 -10  15    0.10    1.30
   9  10 -15   -0.60    1.10
  -9 -11  15   -1.10    1.30
   0  15  10    2.30    1.70
   0  15  10   -2.30    1.60
  15  10   0   -0.20    5.00
   0  15 -10    0.20    1.00
 -10   0  15   -0.20    1.40
   0  15 -10   -1.50    1.10
  15  10   1   -6.40    4.70
   1  15  10   -2.30    1.80
 -10   1 -15   -0.80    1.40
  -1  15 -10   -0.30    1.10
 -10  -1  15    2.90    1.50
   1  15  10    1.40    1.60
  -1  15  10    3.00    1.90
  -1  15  10   -2.00    1.70
  15  10  -1   -2.90    5.30
   1  15 -10    0.90    1.00
   1  15 -10    0.90    1.20
 -10   1  15    1.10    1.40
   2  15  10    7.30    2.40
 -10   2 -15    4.20    1.60
  -2  15 -10    5.40    1.30
  15  10   2   -3.20    4.70
  -2  15 -10    5.50    1.30
 -15  10   2    8.00    2.80
  -2  15  10    6.10    1.90
   2  15 -10    4.60    1.00
   2  15 -10    7.60    1.50
 -10   2  15    7.60    1.60
  15  10   3    1.00    4.50
  -3  15 -10    8.00    1.50
  -3  15 -10   12.40    2.90
 -10   3 -15    8.00    1.80
  -3  15  10   11.80    2.10
 -15  10   3    8.30    2.50
   3  15 -10   10.00    1.50
 -10   3  15   13.70    3.10
 -10   4 -15    2.70    1.40
  -4  15 -10    2.60    1.40
  -4  15 -10    3.20    1.30
 -15  10   4    3.80    2.30
  -4  15  10    3.10    1.70
  10   4 -15    4.00    2.20
   4  15 -10    4.50    1.10
 -10   4  15    5.60    1.80
   4  15 -10    3.10    1.30
  -5  15 -10   35.50    5.60
  -5  15 -10   42.70    3.80
 -10   5 -15   38.20    4.80
   5  15  10   36.90    3.90
  -5  15  10   38.40    4.30
 -15  10   5   36.20    5.00
   5  15 -10   29.00    3.60
   5  15 -10   37.50    3.70
 -10   5  15   38.10    4.00
  10   5 -15   39.20    6.40
   6  15  10   35.70    3.90
  -6  15 -10   43.70    3.90
 -10   6 -15   40.30    4.80
  -6  15  10   37.10    4.30
   6  15 -10   38.20    3.60
   6  15 -10   32.40    3.90
 -10  -6 -15   24.90    5.90
 -10   6  15   39.90    4.00
 -15  10   6   32.00    5.20
  10   6 -15   34.50    6.00
 -10   7 -15    1.40    1.30
  10   7 -15    3.30    1.70
 -10  -7 -15   -0.70    1.90
   7  15 -10    3.10    1.00
 -10   8 -15   -1.70    1.40
   8  15  10   -0.50    1.50
 -10  -8  15    0.50    1.30
   8  15 -10   -0.50    1.00
  10   8 -15    0.70    1.50
 -10   8  15   -1.40    1.50
   8  15 -10   -0.90    1.90
 -15  10   8   -1.90    2.40
   9  15  10    1.70    1.70
 -10  -9  15    3.50    1.40
  -9  15  10    1.10    1.80
  10   9 -15    1.10    1.50
   9  15 -10    1.80    1.10
 -10 -10  15    0.00    1.50
 -10  15  10   -1.20    1.80
  15  11   0   -0.80    4.20
   0  15  11   -1.40    1.90
   0  15 -11   -0.80    1.00
 -11   0 -15   -2.00    1.50
 -11   0  15    0.60    1.60
 -11  -1  15    1.80    1.50
  -1  15 -11    0.60    1.20
  -1  15 -11    0.60    1.10
   1  15  11   -0.60    1.70
   1  15  11   -1.70    2.20
  15  11   1   -1.60    3.80
  -1  15  11   -0.50    1.80
   1  15 -11    0.30    0.90
   1  15 -11    1.00    1.30
  15  11  -1    0.00    4.90
 -11   1  15    1.10    1.50
  -2  15 -11    8.50    1.50
   2  15  11    7.60    1.80
   2  15  11    7.00    2.70
  15  11   2    6.10    4.20
  -2  15 -11   15.10    3.80
 -11   2  15   11.50    1.90
   2  15 -11    7.90    1.50
 -11  -2 -15    4.30    1.80
 -15  11   2    9.70    2.70
   2  15 -11   12.70    3.00
  -2  15  11    6.70    1.90
  -3  15 -11   -0.30    1.30
   3  15  11   -0.10    1.50
  -3  15 -11   -1.60    1.10
  15  11   3   -3.40    3.50
 -11  -3  15    2.20    1.40
 -11   3  15   -1.70    1.50
  -3  15  11   -2.20    1.60
   3  15 -11   -0.90    0.90
 -15  11   3   -3.30    2.30
  -4  15 -11   -0.40    1.20
   4  15  11   -1.00    1.40
 -11  -4  15    1.20    1.50
  -4  15 -11   -0.20    1.40
 -11   4 -15   -1.00    1.50
   4  15 -11    1.40    0.90
 -11   4  15   -2.10    1.50
 -15  11   4   -2.10    2.20
  -5  15 -11   39.00    5.90
 -11   5 -15   39.00    5.10
  11   5 -15   51.19    8.00
   5  15 -11   40.80    3.80
  -6  15 -11   -1.80    1.30
   6  15  11    0.60    1.50
 -11  -6  15    3.10    1.60
 -11   6  15   -1.20    1.50
   6  15 -11   -1.50    1.50
   6  15 -11    0.60    0.90
 -11  -6 -15   -2.50    1.80
  -6  15  11   -1.80    1.70
  11   6 -15    0.20    2.20
 -11   7 -15    7.90    1.90
   7  15  11    9.70    2.00
  -7  15 -11    6.00    1.60
   7  15 -11    5.40    1.00
 -15  11   7   10.60    2.70
  -7  15  11    7.70    2.00
  11   7 -15    7.10    2.10
 -11   7  15    8.60    1.90
 -11  -7 -15    2.30    2.30
   7  15 -11    8.00    2.10
 -11  -8  15    1.20    1.60
 -11   8 -15   -1.60    1.50
 -15  11   8   -2.20    2.50
  11   8 -15   -0.40    1.90
   8  15 -11   -0.60    0.90
  -8  15  11   -2.20    1.70
 -11  -9  15    0.20    1.50
  15  12   0   -0.30    4.10
   0  15 -12    0.70    1.10
   1  15  12   -1.00    2.30
  -1  15 -12    0.80    1.20
  15  12   1   -1.70    3.70
   1  15 -12    0.90    1.00
  -2  15 -12    1.30    1.30
   2  15 -12    0.00    1.00
  -3  15 -12    3.50    1.50
  -3  15 -12    1.20    1.40
 -12  -3 -15   -1.60    1.50
  -3  15  12    1.30    2.30
   3  15 -12    1.30    0.90
  -4  15 -12    6.20    1.40
  -4  15 -12    6.20    1.70
  15  12   4    3.40    3.30
   4  15  12    6.90    2.10
   4  15 -12    5.50    1.60
 -15  12   4    6.50    2.50
  -4  15  12    9.40    2.20
   5  15  12    4.40    2.10
  15  12   5    1.30    3.30
  -5  15 -12    5.70    1.60
  -5  15 -12    3.60    2.00
 -12   5 -15    1.80    1.60
  -5  15  12    2.50    1.80
 -12   5  15    6.50    1.80
 -15  12   5    5.70    2.60
   5  15 -12    3.50    1.80
 -12   6 -15    3.00    1.70
   6  15  12    6.30    2.20
  -6  15 -12    5.10    1.50
   6  15 -12    6.70    2.00
 -12   6  15    7.90    1.90
 -15  12   6    5.30    2.70
 -12  -6 -15    3.50    2.00
  12   6 -15    6.40    3.00
  -6  15  12    8.20    2.10
   7  15  12    4.10    2.20
  -7  15 -12    2.60    1.60
 -12   7 -15    1.70    2.00
 -12   7  15    2.70    1.90
   7  15 -12    3.60    1.10
 -15  12   7    1.20    2.50
  -7  15  12    3.50    2.00
 -12  -8  15    6.40    2.00
 -12   8  15    4.40    2.10
 -15  12   8    7.40    2.90
 -13   0  15    0.40    1.70
   0  15 -13   -0.10    1.10
  15  13   0   -2.70    3.60
  15  13   1   -0.80    3.40
 -13  -1  15    1.10    1.80
  -1  15 -13   -1.70    1.20
  -1  15 -13   -0.40    1.20
   1  15 -13    0.10    1.00
 -13   1  15   -0.40    1.70
  -1  15  13   -3.00    2.50
  -2  15 -13    6.70    1.50
  -2  15 -13    9.00    1.60
  15  13   2    8.10    3.30
  -2  15  13    6.90    2.60
   2  15 -13    8.40    1.30
  -3  15 -13    0.60    1.40
  -3  15 -13    3.50    1.50
 -13  -3  15    5.30    1.90
  15  13   3   -0.30    3.00
  -3  15  13   -1.00    2.10
 -13   3  15    4.30    1.80
 -15  13   3   -2.70    2.70
   3  15 -13    1.80    1.00
  15  13   4    1.50    3.20
  -4  15 -13    0.30    1.90
  -4  15 -13   -0.80    1.30
 -13  -4  15    4.50    2.10
   4  15 -13   -1.60    1.60
 -15  13   4   -3.30    2.50
   4  15 -13    2.00    1.00
  -4  15  13   -1.80    2.00
 -13   4  15    2.10    1.80
  15  13   5   25.10    4.20
  -5  15 -13   28.40    3.50
 -15  13   5   27.40    5.10
  -5  15  13   21.50    4.30
  -6  15 -13    1.20    1.60
 -15  13   6   -0.50    2.60
 -13   6  15    2.10    2.00
  -6  15  13    1.20    2.10
  -7  15 -13   -0.90    1.50
 -13   7  15    6.80    2.30
  -7  15  13    2.00    2.10
 -15  13   7    3.30    2.90
  15  14   0   -0.60    3.60
 -14   0  15   -1.10    2.00
  15  14   1    2.20    3.40
 -14  -1  15    6.20    2.30
 -14   1  15    6.00    2.20
  -1  15  14   -1.10    3.10
  15  14   2   -1.70    3.00
 -14  -2  15    1.50    2.20
 -14   2  15    0.20    2.10
  -2  15  14   -3.40    2.70
 -14  -3  15    2.10    2.40
  15  14   3    1.00    3.00
 -15  14   3   -4.50    3.00
 -14   3  15    0.00    2.00
  -3  15  14   -0.40    2.60
  15  14   4    8.30    3.30
  -4  15  14   11.00    2.80
 -14   4  15    9.10    2.20
   0   0  16  109.39    7.00
   0   0 -16  104.99    6.60
   0  16   0  105.49    6.10
   0   1  16    4.90    2.10
   0   1 -16    1.60    1.10
  -1  16   0    2.90    1.40
   0  -1 -16    0.80    1.10
   0  -1  16    5.90    2.10
   0   2 -16   81.59    5.50
   0   2  16   82.59    6.10
   0  -2 -16   74.29    5.80
  -2  16   0   79.89    5.30
   2  16   0   85.59    5.20
   0  -2  16   91.59    6.20
   0   3  16    4.40    2.20
  -3  16   0    2.00    1.40
   0   4 -16   74.89    5.10
  -4  16   0   67.69    5.10
   0  -4  16   79.49    5.70
   0   4  16   73.99    6.00
   4  16   0   74.89    4.80
   0   5 -16    2.30    1.00
  -5  16   0    1.10    1.50
   0   5  16    5.60    2.30
   0  -6  16    0.80    1.80
  -6  16   0   -1.20    1.50
   0   6 -16    1.40    0.90
   0   6  16   -2.70    2.20
   6  16   0    0.70    1.20
  -7  16   0   -2.40    1.60
   0   7 -16    0.40    0.90
   0   7  16   -2.30    2.20
   7  16   0    0.90    1.20
   0  -7  16    1.40    1.90
   8  16   0   82.89    5.30
   0   8 -16   76.49    4.90
  -8  16   0   81.39    6.10
   0   8 -16   84.59    5.40
   0   8  16   86.69    6.80
   0  -8  16   92.19    6.20
   9  16   0   -0.30    1.40
   0   9  16   -2.00    2.50
   0  -9  16   -0.40    1.80
   0  10 -16    4.50    1.40
  10  16   0    5.90    1.70
   0  10  16    4.80    2.70
   0 -10  16    6.90    2.20
   0  10 -16    4.80    1.10
   0  12  16   42.80    7.40
  12  16   0   53.19    6.00
   0  12 -16   51.39    4.10
   0  12 -16   38.30    4.20
  13  16   0    3.10    2.20
   0  16  -1   15.90    3.00
  -1   0  16   18.60    4.00
   0  16   1   17.50    3.10
  -1  -1  16    3.60    1.90
   1  16   1    4.20    1.40
  -1  16  -1    3.20    1.40
  -1  16   1    1.30    1.20
   1  -1  16    5.30    2.10
   1  16  -1    3.90    1.30
  -1   1  16    3.40    2.00
  -1   2 -16    2.50    1.20
   1   2  16    8.60    2.40
  -1  -2  16    5.90    1.80
  -2  16  -1    4.70    1.50
   1  -2 -16    2.30    1.30
   1  -2  16    9.60    2.40
  -1   2  16    5.80    2.10
  -2  16   1    3.60    1.50
  -1   3 -16    3.20    1.10
   1  -3 -16    1.90    1.40
  -3  16  -1    4.60    1.50
  -1  -3 -16    0.50    1.30
   1   3 -16    2.50    1.10
  -1   3  16    5.90    2.20
  -3  16   1    3.10    1.50
  -1  -4  16    4.10    1.80
   1   4  16    4.10    2.40
  -4  16  -1    1.70    1.60
  -4  16   1    1.20    1.40
  -1   4  16    2.50    2.10
   1  -4  16    6.90    2.30
  -1  -5  16   43.10    4.10
  -5  16  -1   30.70    4.00
   5  16   1   32.20    3.50
   1   5  16   42.30    5.60
  -1   5 -16   34.00    3.80
   5  16  -1   39.50    3.50
   1   5 -16   30.90    3.60
  -1   5  16   27.90    4.70
   1  -5  16   41.60    4.80
  -6  16  -1    1.60    1.70
   1   6  16    4.80    2.60
  -1  -6  16    2.10    1.60
  -1   6 -16    0.90    0.90
   6  16   1    1.70    1.30
  -1   6  16    0.30    1.90
  -6  16   1   -0.90    1.60
   6  16  -1    3.10    1.30
   1  -6  16    2.70    2.10
   1   6 -16    1.00    1.00
  -7  16  -1   35.10    4.50
   7  16   1   37.00    3.70
   1   7  16   38.20    6.00
  -1  -7  16   38.30    4.30
   1   7 -16   36.80    3.80
  -7  16   1   34.90    4.50
  -1   7  16   29.70    4.80
   7  16  -1   35.40    3.60
   1  -7  16   38.30    5.00
  -8  16  -1    5.80    2.00
   8  16   1    7.80    1.60
  -1   8 -16    4.90    1.10
   1   8  16    8.30    2.90
   1   8 -16    4.70    1.10
   1  -8  16    9.40    2.60
  -8  16   1    4.70    2.10
  -1   8  16    5.40    2.30
   1   8 -16    3.70    1.30
   8  16  -1    5.40    1.40
   1   9  16    1.70    2.90
  -1   9 -16   -0.20    1.00
   9  16   1    2.50    1.40
  -1   9 -16    0.50    0.90
  -9  16  -1   -0.30    2.20
  -1  -9  16    2.50    1.70
  -1   9  16    2.00    2.20
   9  16  -1    2.90    1.50
   1   9 -16    0.70    1.30
   1   9 -16    1.40    0.90
   1  -9  16    2.80    2.10
  -1  10 -16   -0.60    0.80
  -1 -10  16   -0.20    1.60
  -1  10 -16   -1.60    1.20
  10  16   1    0.70    1.50
   1  10  16   -3.10    3.10
   1  10 -16   -0.20    0.90
  10  16  -1   -0.20    1.50
   1 -10  16   -2.10    2.20
  -1  10  16   -3.30    2.30
  -1 -11  16    0.80    1.70
  -1  11 -16   -0.80    0.90
   1 -11  16   -0.40    2.80
   1  11 -16   -0.80    0.80
  12  16   1    1.40    2.10
  -1 -12  16   -0.20    1.90
  12  16  -1    3.50    2.40
   1  12 -16    1.50    0.90
  13  16   1    6.60    2.20
  13  16  -1    7.10    2.40
  -1  13  16   -3.70    3.40
   0  16  -2    1.80    1.40
   0  16   2    1.30    1.20
  -2   0  16    3.70    1.90
   2   0 -16   -0.10    1.10
  -2   0 -16   -0.30    1.10
  -2  -1  16    2.30    1.60
   2  -1 -16    0.20    1.20
   1  16   2    2.20    1.20
  -2   1 -16   -1.10    1.00
  -1  16  -2    2.00    1.40
   2   1 -16   -0.30    1.00
  -2   1  16    1.50    1.80
  -2  -1 -16   -0.50    1.20
  -1  16   2    0.80    1.30
   1  16  -2   -0.50    1.30
   2  16   2   19.60    3.10
  -2  -2  16   17.50    3.70
   2   2  16   25.90    5.60
  -2  16  -2   17.40    3.40
   2  -2  16   26.70    5.20
   2  16  -2   19.00    3.10
  -2  -3  16    5.10    1.70
   2   3  16    7.80    2.80
   3  16   2    2.70    1.30
  -3  16  -2    2.80    1.50
  -3  16   2    0.90    1.40
   3  16  -2    3.10    1.30
  -2   3  16    2.20    1.90
   2   3 -16    0.90    1.00
  -2  -4  16   63.29    4.70
  -4  16  -2   60.09    4.60
   2   4  16   73.39    6.80
  -2   4 -16   59.49    4.70
   4  16   2   57.39    4.30
  -2  -4 -16   52.39    5.60
   2   4 -16   52.19    4.40
   4  16  -2   62.59    4.20
  -4  16   2   52.99    4.40
  -2   4  16   54.49    5.00
  -2   5 -16   17.40    3.40
   2   5  16   29.30    6.20
   5  16   2   15.40    3.10
  -2  -5  16   19.80    3.50
   5  16  -2   21.00    3.00
  -6  16  -2    6.60    1.70
   6  16   2    6.70    1.50
  -2   6 -16    4.20    1.10
   2   6  16   10.50    3.20
   2  -6  16    9.70    2.90
   2   6 -16    6.30    1.40
   2   6 -16    5.30    1.10
  -6  16   2    5.00    1.60
   6  16  -2    5.30    1.30
  -2   6  16    7.40    2.20
  -7  16  -2   31.80    4.40
  -2  -7  16   38.40    4.00
   7  16   2   39.90    3.70
  -7  16   2   31.70    4.40
  -2   7  16   33.60    4.40
   2  -7  16   43.20    5.80
   7  16  -2   39.50    3.60
   2   7 -16   30.20    3.60
   8  16   2   35.40    3.70
  -2  -8  16   38.40    4.00
  -8  16  -2   29.50    4.70
  -2   8 -16   35.90    3.60
   2   8  16   39.50    7.20
   2   8 -16   30.10    3.60
   2  -8  16   34.90    6.00
  -2   8  16   31.20    4.50
   8  16  -2   36.90    3.80
   2   8 -16   35.70    3.60
  -2  -9  16    0.50    1.50
   9  16   2    2.50    1.40
  -2   9 -16    0.10    0.90
  -9  16  -2   -2.60    2.00
  -2   9  16   -1.00    2.00
   2  -9  16    0.10    2.90
   9  16  -2    1.10    1.40
   2   9 -16    0.50    0.90
 -10  16  -2   36.70    6.30
  10  16   2   56.09    4.80
  -2  10 -16   54.39    4.10
  -2  10 -16   43.90    3.70
  -2 -10  16   51.79    4.40
   2 -10  16   50.89    6.60
  -2  10  16   48.20    5.10
   2  10 -16   50.59    4.10
   2  10 -16   40.40    4.40
  10  16  -2   50.09    4.60
  11  16   2    6.70    2.00
  -2  11 -16    5.80    1.20
  -2  11 -16    4.70    1.40
   2  11 -16    4.70    1.00
  11  16  -2    6.30    2.10
  -2  11  16    5.50    2.50
   2  11 -16    3.50    1.80
  -2  12 -16    4.60    1.50
  12  16   2    8.40    2.10
  -2 -12  16    7.20    2.10
  -2  12  16    3.80    2.70
  12  16  -2    4.60    2.30
   2  12 -16    4.60    1.20
  13  16   2    4.00    2.20
  13  16  -2    3.50    2.90
 -16   2  13    3.50    3.50
   0  16  -3   72.89    4.70
   0  16   3   66.09    4.70
  -3   0 -16   66.89    5.30
  -3   0  16   72.39    5.10
   3   0 -16   63.99    5.30
   3   1  16    6.40    3.20
   3  -1 -16    1.40    1.30
  -1  16  -3    2.00    1.30
   1  16   3    1.80    1.40
  -3  -1  16    2.50    1.70
  -1  16   3    0.30    1.30
   3  -1  16    7.80    3.40
   1  16  -3    0.50    1.20
  -3   1  16    1.50    1.70
   3   1 -16    0.40    1.10
  -3   2 -16   69.19    5.00
  -2  16  -3   72.59    4.80
  -3  -2  16   68.49    5.00
   2  16   3   69.99    4.70
  -3  -2 -16   64.89    5.60
  -3   2  16   70.29    5.20
   3   2 -16   68.49    4.90
  -2  16   3   67.19    4.60
   2  16  -3   67.79    4.60
   2  16  -3   59.09    5.20
  -3  -3  16    3.40    1.60
  -3  16  -3    2.50    1.50
   3  16   3    2.70    1.30
   3   3 -16    1.30    1.00
   3  16  -3    2.60    1.20
  -3  -3 -16    0.50    1.40
  -3  16   3    0.90    1.30
  -3   3  16    1.90    1.70
  -3   4 -16   29.10    3.80
   4  16   3   32.60    3.40
  -4  16  -3   32.90    3.70
  -3  -4  16   34.00    3.80
  -3   4  16   25.70    4.00
  -4  16   3   27.50    3.50
   3  -4  16   38.30    7.20
  -3  -4 -16   28.30    5.00
   4  16  -3   34.60    3.50
   3   4 -16   25.50    3.60
  -5  16  -3    5.70    1.70
   5  16   3    5.40    1.40
   3   5  16   12.60    4.00
  -3   5 -16    4.20    1.10
  -3  -5  16    8.10    1.90
  -5  16   3    6.30    1.60
   3  -5  16    9.90    3.60
   3   5 -16    4.50    1.10
  -3  -5 -16    3.90    1.70
  -3   5  16    2.10    1.70
  -3  -6  16    6.00    1.70
   6  16   3    4.30    1.40
  -3   6 -16    3.80    1.20
  -6  16  -3    1.80    1.50
  -3   6  16    4.60    1.90
   6  16  -3    4.70    1.20
  -6  16   3    4.40    1.70
   3  -6  16    4.90    3.40
   3   6 -16    3.00    1.10
   7  16   3    1.10    1.30
  -7  16  -3   -1.80    1.60
  -3  -7  16    2.60    1.50
   3  -7  16    1.70    3.50
   7  16  -3    1.40    1.40
  -3   7  16   -0.70    1.70
  -3  -8  16    0.90    1.50
  -3   8 -16    0.30    1.00
   8  16   3    0.20    1.40
   8  16  -3    0.30    1.30
   3  -8  16   -0.30    3.50
   3   8 -16   -0.20    0.90
  -3   8  16   -0.20    1.70
   9  16   3    0.80    1.40
  -3  -9  16    0.60    1.50
  -3   9 -16    0.90    1.10
  -9  16  -3   -3.00    1.90
   3   9 -16   -0.20    0.90
   3  -9  16   -5.10    3.50
  -3   9  16   -0.30    1.90
   9  16  -3   -1.10    1.30
 -10  16  -3   -1.10    2.30
  -3 -10  16    3.80    1.80
  -3  10 -16    1.40    1.00
  -3  10 -16    0.10    1.10
 -16   3 -10   -0.70    1.50
  10  16   3    3.80    1.70
  -3  10  16   -0.30    2.00
 -16   3  10    3.40    2.70
   3  10 -16    1.90    1.00
  10  16  -3    3.00    1.60
  -3  11 -16    1.10    1.20
  11  16   3    5.20    1.90
  -3  11 -16    1.60    1.00
  -3 -11  16    2.80    1.80
 -16   3  11    6.20    2.90
   3  11 -16    0.60    0.90
  11  16  -3    2.70    2.00
  -3  11  16    0.90    2.00
  12  16   3    3.50    1.80
  -3 -12  16   -1.20    1.60
  -3  12 -16    0.10    1.40
  12  16  -3    3.50    2.30
  -3  12  16   -1.60    2.20
   3  12 -16    1.00    1.10
 -16   3  12    3.00    3.00
  13  16   3    3.20    2.20
 -16   3  13    2.50    3.50
  13  16  -3    1.90    3.20
  -4   0 -16  118.59    7.20
   0  16   4  112.99    6.50
   0  16  -4  120.09    6.40
  -4   0  16  117.49    6.80
   4   0 -16  108.09    7.20
   0  16  -4  110.69    7.00
  -1  16  -4    0.30    1.30
   4   1  16    6.60    4.50
   1  16   4    0.10    1.30
   4  -1 -16    0.40    1.40
  -4  -1  16    1.20    1.50
  -4  -1 -16   -0.60    1.20
  -1  16   4   -0.30    1.20
   1  16  -4    0.30    1.20
   4   1 -16   -0.30    1.10
  -4   1  16    0.20    1.70
   1  16  -4   -1.10    1.20
  -4   2 -16   28.10    4.00
  -4  -2  16   32.90    3.70
  -2  16  -4   35.50    3.50
   2  16   4   32.40    3.50
  -2  16   4   30.30    3.70
   2  16  -4   25.60    4.10
   4   2 -16   27.70    4.00
  -4  -2 -16   24.70    4.60
  -4   2  16   30.50    3.90
   2  16  -4   33.50    3.40
  -4   3 -16   -0.30    1.10
  -3  16  -4    2.20    1.40
   3  16   4    0.80    1.20
  -4  -3  16    3.60    1.60
   4   3 -16    1.10    1.10
  -4   3  16    2.40    1.80
  -4  -3 -16   -0.30    1.40
   3  16  -4    1.10    1.20
  -3  16   4    0.80    1.50
   3  16  -4   -1.10    1.10
   4  -3  16    6.90    5.00
   4  16   4    0.70    1.20
  -4  -4  16    0.20    1.50
  -4   4 -16   -1.00    1.10
  -4  16  -4   -0.30    1.30
  -4  16   4   -2.30    1.50
   4  -4  16    1.60    4.60
   4   4 -16   -0.20    1.00
   4  16  -4    0.60    1.10
  -4  -5  16    0.30    1.60
  -4   5 -16   -1.40    1.00
  -5  16  -4   -1.40    1.40
   5  16   4   -0.30    1.20
  -5  16   4   -0.80    1.60
   4  -5  16   -1.10    4.60
   5  16  -4    0.20    1.10
   4   5 -16   -0.60    1.00
  -4  -6  16    6.30    1.70
  -6  16  -4    3.30    1.60
   6  16  -4    3.80    1.30
   4   6 -16    1.70    1.10
  -4   6  16    3.30    1.80
   4  -6  16   10.00    5.30
  -7  16  -4    7.80    1.90
  -4   7 -16    6.20    1.20
   4   7 -16   12.60    3.00
  -4   7  16   10.20    2.10
   7  16  -4    6.70    1.40
   4  -7  16    7.10    5.20
   8  16   4    8.60    1.80
  -4  -8  16    6.90    1.70
  -4   8 -16    6.80    1.30
  -8  16  -4    6.70    1.90
   8  16  -4    6.50    1.60
  -4   8  16    9.10    2.00
   4  -8  16    2.80    5.10
  -4  -9  16    4.50    1.50
  -9  16  -4    4.20    2.10
 -16   4  -9    1.80    1.50
  -4   9 -16    3.30    1.20
   9  16   4    7.60    1.90
  -4   9  16    2.10    2.10
 -16   4   9    7.20    2.80
   4   9 -16    3.50    1.10
   4  -9  16   -1.70    5.50
   9  16  -4    4.60    1.60
   4  10 -16    6.40    1.20
 -11  16  -4   -1.70    2.70
 -16   4 -11   -1.50    1.70
  -4  11 -16    1.40    1.10
  -4  11 -16    1.60    1.20
  11  16  -4    5.10    2.10
  -4  11  16    4.80    2.10
   4  11 -16    1.90    0.90
 -16   4  11    7.60    3.20
  -4  12 -16    2.20    1.40
  -4 -12  16    2.90    1.60
  12  16   4    5.30    1.70
  12  16  -4    5.90    2.60
   4  12 -16    3.60    1.20
 -16   4  12    9.90    3.40
  -4  12  16    1.30    2.10
  -4 -13  16    3.60    1.80
  -4  13 -16    4.00    1.60
  13  16   4    4.90    2.10
 -13  16   4    3.00    2.00
  -4  13  16    0.50    2.30
 -16   4  13    7.60    3.60
   5   0 -16  147.59    9.20
   0  16  -5  150.58    8.70
  -5   0  16  155.78    8.50
   0  16  -5  161.18    8.10
  -5   0 -16  167.78    9.00
   0  16   5  155.78    8.20
  -5  -1  16    4.00    2.10
  -1  16  -5    2.60    1.30
   1  16   5   -0.10    1.40
  -5   1 -16   -1.10    1.20
  -1  16   5    0.80    1.40
  -5   1  16    1.80    1.50
   1  16  -5    2.00    1.30
   1  16  -5    2.00    1.20
  -5  -1 -16   -1.10    1.30
   5   1 -16    0.90    1.30
  -5  -2  16  121.49    6.90
  -5   2 -16  123.49    7.30
   2  16   5  120.99    6.80
  -2  16  -5  120.99    6.60
  -5   2  16  117.09    7.00
   2  16  -5  122.49    6.50
   5   2 -16  112.19    7.30
  -2  16   5  113.79    6.70
   2  16  -5  112.99    7.10
  -5  -2 -16  121.99    7.80
  -5   3 -16    0.80    1.10
   3  16   5    2.90    1.40
  -5  -3  16    4.00    1.70
  -3  16  -5    4.70    1.50
  -3  16   5    2.50    1.50
   5   3 -16    2.30    1.10
   3  16  -5    1.40    1.10
  -5   3  16    1.00    1.60
   5  -3  16    2.90    7.50
   3  16  -5    3.30    1.30
  -5  -3 -16    0.10    1.50
   4  16   5   21.70    3.40
  -5  -4  16   23.00    3.40
  -5   4 -16   23.30    3.70
  -4  16  -5   24.40    3.40
   5   4 -16   20.70    3.70
  -4  16   5   20.20    3.90
   4  16  -5   21.80    2.90
  -5   4  16   15.70    3.50
   5  -4  16   32.20    8.50
  -5  -5  16    1.50    1.40
   5  16   5    2.90    1.50
  -5  16  -5    0.10    1.40
  -5   5 -16    0.10    1.10
   5   5 -16    1.40    1.10
   5  16  -5    1.60    1.20
  -5  -5 -16   -1.40    1.70
   5  -5  16    4.50    7.70
  -5   5  16   -0.40    1.60
  -5  16   5    1.80    1.80
   5  16  -5   -0.50    1.10
   6  16   5   14.80    3.30
  -6  16  -5   10.00    1.90
   5  -6  16   10.90    8.30
  -5   6  16    7.60    1.80
   6  16  -5   13.30    2.80
   7  16   5    0.90    1.40
  -5  -7  16    1.20    1.50
 -16   5  -7    0.50    1.60
  -5   7 -16    0.60    1.10
  -7  16  -5   -1.00    1.50
  -5   7  16   -0.20    1.60
   5   7 -16    0.00    1.00
   7  16  -5    0.30    1.30
   8  16   5    5.10    1.70
  -5   8 -16    2.60    1.20
  -8  16  -5    1.50    1.70
  -5  -8  16    4.80    1.70
 -16   5  -8    0.30    1.70
   8  16  -5    2.00    1.50
  -5   8  16    3.70    1.90
   5   8 -16    2.30    1.10
 -16   5   8    3.60    2.90
  -9  16  -5   -1.70    1.90
  -5  -9  16    1.70    1.50
 -16   5  -9   -1.90    1.60
  -5   9 -16    0.40    1.20
   9  16   5    3.70    1.80
   5   9 -16    0.10    1.00
   9  16  -5   -1.50    1.60
  -5   9  16   -1.40    1.80
 -16   5   9   -1.90    2.90
  -5  10 -16    0.00    1.10
  10  16   5    1.10    1.50
  -5 -10  16    0.30    1.30
 -16   5  10   -1.10    3.00
   5  10 -16    0.30    0.90
  10  16  -5   -1.70    1.70
  -5 -11  16    7.00    1.60
 -11  16  -5    0.70    2.70
  -5  11 -16    3.10    1.40
  -5  11  16    5.30    2.10
 -16   5  11    9.40    3.30
   5  11 -16    4.50    1.10
  11  16  -5    6.20    2.30
  -5  12 -16    5.40    1.60
  -5 -12  16    3.10    1.60
 -12  16   5    3.60    1.80
  -5  12  16    2.60    2.00
 -16   5  12    6.30    3.40
   0  16   6  229.98   11.50
   0  16  -6  224.48   12.00
  -6   0  16  228.08   11.80
   0  16  -6  224.68   11.20
  -6   0 -16  254.77   12.50
  -1  16  -6    3.10    1.30
  -6   1 -16    1.80    1.30
  -6  -1  16    6.00    1.80
  -1  16  -6    4.50    1.30
   1  16   6    3.50    1.40
   1  16  -6    5.10    1.40
  -1  16   6    5.10    1.60
  -6   1  16    3.60    1.60
   1  16  -6    3.40    1.20
   6   1 -16    4.60    1.70
  -2  16  -6  102.59    5.70
  -6  -2  16   94.19    5.90
   2  16   6   96.79    5.90
  -6   2 -16   99.89    6.50
  -2  16   6   98.19    6.10
  -6  -2 -16   90.49    7.00
   2  16  -6  100.59    5.60
   6   2 -16   90.69    6.90
   2  16  -6   93.29    6.10
  -6   2  16   90.59    6.00
  -6   3 -16    5.70    1.30
  -6   3  16    7.50    1.80
  -3  16   6    9.50    1.80
  -6  -3 -16    4.70    1.70
   3  16  -6    7.30    1.30
   6   3 -16    7.50    1.50
  -6  -4  16    3.40    1.50
   4  16   6    4.70    1.60
  -4  16  -6    3.80    1.50
  -6   4  16   -0.40    1.60
  -4  16   6    4.00    1.80
  -6  -4 -16    0.40    1.70
   4  16  -6    1.80    1.20
   6   4 -16    2.00    1.30
   4  16  -6    1.10    1.10
  -6   5 -16    5.00    1.30
  -5  16  -6    6.70    1.70
  -6   5  16    5.30    1.80
  -6  -5 -16    2.30    1.80
  -6   6 -16    5.70    1.30
   6  16   6    6.70    1.70
  -6  16  -6    7.80    1.70
   6   6 -16    4.60    1.30
   6  16  -6    8.20    1.50
   6  -6  16  -12.70   12.90
  -6   6  16    7.30    1.90
  -7  16  -6    3.40    1.60
   7  16   6    5.60    1.80
  -6   7 -16    0.90    1.10
  -6   7  16    5.10    1.90
   7  16  -6    3.40    1.40
   6   7 -16    2.00    1.10
  -8  16  -6   43.90    4.60
  -6   8 -16   41.20    4.50
   8  16   6   48.20    4.60
  -6  -8  16   39.10    3.80
 -16   6   8   41.30    6.40
  -6   8  16   40.80    4.30
   6   8 -16   41.20    4.30
  -6   9 -16   -0.30    1.10
   6   9 -16    1.40    1.00
  -6  10 -16   -0.20    1.20
  -6 -10  16    0.90    1.20
 -16   6 -10   -1.80    1.90
 -10  16  -6   -1.70    2.00
  10  16   6    2.60    1.40
   6  10 -16    1.10    1.10
 -16   6  10   -0.10    3.10
  10  16  -6    0.70    2.00
  -6  10  16   -0.30    1.80
  -6  11 -16    0.50    1.40
  11  16   6    4.60    1.50
  -6  11 -16    1.80    1.40
 -11  16  -6   -2.50    2.50
  -6 -11  16    2.70    1.30
 -16   6  11    2.00    3.30
   6  11 -16    2.10    1.20
  -6  11  16   -0.50    1.70
 -11  16   6    2.40    1.70
  11  16  -6    4.90    2.60
  12  16   6    0.60    1.70
 -16   6  12   -1.70    3.60
   0  16   7  108.09    6.50
   0  16  -7  104.49    6.00
  -7   0  16  102.59    6.30
  -7   0 -16  107.29    7.20
   0  16  -7  103.49    6.70
  -1  16  -7    4.60    1.40
  -7   1 -16    1.90    1.40
  -1  16  -7    2.00    1.30
  -7  -1  16    5.20    1.70
   1  16   7    3.20    1.60
   1  16  -7    2.60    1.20
   1  16  -7    3.00    1.20
  -1  16   7    2.80    1.70
  -7   1  16    2.60    1.60
  -2  16  -7   58.99    5.40
   2  16   7   67.19    4.80
  -7  -2  16   60.89    4.60
  -2  16  -7   65.49    4.40
   2  16  -7   59.99    4.80
  -7   2  16   58.49    4.60
   7   2 -16   58.29    6.40
  -2  16   7   64.79    5.20
   2  16  -7   63.59    4.30
  -7  -2 -16   54.49    5.80
   3  16   7    4.30    1.50
  -3  16  -7    3.50    1.40
  -7  -3  16    5.10    1.70
  -3  16   7    3.40    1.90
   7   3 -16    3.00    1.60
  -7   3  16    3.90    1.80
   3  16  -7    2.60    1.10
   3  16  -7    4.10    1.30
  -7   4 -16    6.80    1.50
   4  16  -7    9.20    1.50
  -7   4  16    5.70    1.70
  -7   5 -16    7.10    1.40
   5  16  -7   14.00    2.90
  -7   5  16   12.00    2.00
   7   5 -16    9.60    1.60
  -7  -5 -16    6.40    2.00
  -6  16  -7    3.50    1.60
   6  16   7    5.70    1.70
  -7  -6  16    6.00    1.70
  -7   6 -16    3.50    1.20
   7   6 -16    1.60    1.30
   6  16  -7    2.10    1.30
  -7   6  16    3.90    1.70
  -7  -6 -16   -0.70    2.10
  -7   7 -16   -0.70    1.20
  -7  16  -7   -0.60    1.50
  -7  -7  16    0.50    1.40
   7  16   7    2.80    1.50
   7  16  -7   -0.30    1.00
   7   7 -16   -1.20    1.10
 -16   7   7   -2.50    2.90
   7  16  -7   -1.10    1.40
  -7   7  16    0.20    1.60
 -16   7   8   10.70    3.50
   8  16  -7    8.10    1.40
   7   8 -16    7.80    1.50
  -7  -9  16   19.20    3.00
  -7   9 -16   23.90    4.20
  -7   9  16   19.70    3.60
 -16   7   9   19.60    3.70
   7   9 -16   18.60    3.90
 -16   7 -10   -3.10    2.30
 -10  16  -7   -0.10    2.20
  10  16   7    2.60    1.40
 -10  16   7   -0.80    1.80
 -16   7  10   -0.60    3.40
  10  16  -7   -1.00    2.10
  -7  10  16   -1.70    1.80
   7  10 -16    1.10    1.20
 -11  16  -7    0.20    2.50
  -7  11 -16   -0.80    1.40
  11  16   7    3.20    1.70
 -11  16   7    1.40    1.80
 -16   7  11   -3.40    3.40
  -7  11  16   -2.50    2.00
   0  16  -8  169.78    8.60
  -8   0  16  166.88    9.00
   0  16  -8  164.48    9.40
  -8   0 -16  180.98   10.10
   0  16   8  172.38    9.30
   1  16   8    5.30    1.70
  -1  16  -8    3.80    1.40
  -8  -1  16    5.60    1.60
  -1  16  -8    5.70    1.40
  -8   1 -16    3.10    1.40
  -8   1  16    5.40    1.70
  -1  16   8    4.50    1.80
   1  16  -8    4.90    1.30
   2  16   8   58.29    4.90
  -8  -2  16   56.79    4.30
  -8   2 -16   56.29    5.20
  -2  16  -8   53.19    4.10
  -8  -2 -16   46.80    5.60
  -2  16   8   60.19    5.50
  -8   2  16   48.00    4.40
   2  16  -8   51.39    4.00
  -3  16  -8    4.10    1.40
  -8  -3  16    6.00    1.60
   3  16   8    5.20    1.60
  -8   3  16    1.90    1.50
   3  16  -8    4.70    1.40
   3  16  -8    5.20    1.20
  -8   4 -16    1.40    1.30
  -4  16  -8    1.30    1.30
   8   4 -16    1.30    1.70
   4  16  -8    1.50    1.20
  -8  -4 -16   -1.70    1.70
  -8   4  16    0.10    1.70
   4  16  -8    2.50    1.10
  -8   5 -16    8.50    1.60
  -8   5  16    9.50    2.10
   5  16  -8    8.00    1.40
   8   5 -16    6.50    1.80
   5  16  -8    6.90    1.20
   6  16   8   41.30    4.10
  -8   6 -16   43.20    4.60
  -6  16  -8   43.10    4.10
   6  16  -8   32.50    3.90
  -8   6  16   32.70    3.90
   8   6 -16   36.40    5.10
   6  16  -8   30.30    3.60
  -8   7 -16   28.70    4.30
   7  16  -8   24.10    3.60
  -8   7  16   30.40    4.10
 -16   8   7   24.30    6.10
   8   7 -16   29.50    4.80
  -8   8 -16   23.50    4.40
  -8  -8  16   30.70    3.20
  -8  16  -8   23.30    4.10
   8  16  -8   17.50    3.70
   8  16  -8   18.90    4.10
  -8  16   8   28.60    4.10
  -8   8  16   27.20    3.70
   8   8 -16   23.50    4.50
 -16   8   8   19.30    3.70
  -8   9 -16   -0.40    1.50
  -9  16  -8   -1.90    1.70
   9  16   8    0.40    1.40
  -8  -9  16    1.50    1.40
   8   9 -16   -0.20    1.30
 -16   8   9   -4.60    3.20
  -9  16   8   -2.30    1.70
   9  16  -8   -1.20    2.10
  -8   9  16    0.10    1.50
 -10  16  -8    5.90    2.20
  10  16   8    7.30    1.90
  -8  10 -16    4.00    1.90
 -10  16   8    6.20    1.80
   8  10 -16    5.30    1.50
  -8  10  16    6.50    1.90
 -16   8  10   10.40    3.80
  11  16   8   -0.10    1.70
  -8 -11  16   -0.80    1.20
  -9   0  16   14.30    3.20
   0  16  -9   12.60    2.90
   0  16   9   21.80    4.50
  -1  16  -9    5.40    1.40
   1  16   9    8.00    1.90
  -1  16  -9    6.50    1.40
   1  16  -9    5.70    1.30
  -9   1  16    9.50    1.90
  -1  16   9   10.20    2.10
  -9  -2  16    3.50    1.50
  -2  16  -9    0.00    1.20
   2  16   9   -1.50    2.10
  -2  16  -9    1.40    1.40
  -9   2 -16    1.30    1.50
   2  16   9    3.90    1.60
   2  16  -9    3.10    1.10
  -9   2  16    3.60    1.60
   2  16  -9    1.80    1.20
   3  16   9   29.30    3.90
  -3  16  -9   23.50    3.40
  -3  16  -9   25.90    5.30
  -9   3 -16   21.20    4.40
  -9  -3  16   31.30    3.40
  -9   3  16   19.10    3.50
   3  16  -9   22.40    3.20
   3  16  -9   28.80    3.60
  -4  16  -9   14.90    3.20
   4  16   9   21.90    3.70
  -9   4  16   15.90    2.30
   9   4 -16   10.30    2.30
   4  16  -9   12.50    2.90
   4  16  -9   18.40    3.40
  -9   5 -16    0.80    1.30
   5  16   9    3.50    1.50
  -5  16  -9    2.60    1.40
  -9  -5  16    4.10    1.60
  -5  16   9    1.00    1.80
  -9  -5 -16   -1.50    1.90
   9   5 -16    1.60    1.80
  -9   5  16    3.60    1.70
   5  16  -9    0.90    1.30
  -9   6 -16   19.10    4.30
   9   6 -16   21.60    5.40
   6  16  -9   17.00    3.30
  -7  16  -9   -1.70    1.50
  -9  -7  16    2.90    1.50
   7  16   9   -0.40    1.30
   7  16  -9   -2.00    1.60
  -9   7  16    0.00    1.50
   9   7 -16   -0.90    1.60
  -8  16  -9   -1.10    1.60
  -9  -8  16    4.30    1.50
   8  16   9    1.70    1.40
   9   8 -16    2.20    1.70
 -16   9   8   -2.80    3.10
   8  16  -9   -0.10    1.00
  -9   8  16    1.90    1.70
  -8  16   9    2.10    1.90
   8  16  -9    1.30    1.90
   9  16   9   -2.10    1.50
  -9  -9  16    0.60    1.40
   9   9 -16   -1.20    1.60
  -9   9  16    0.70    1.60
   9  16  -9   -1.20    1.20
  -9  16   9   -2.20    1.80
  10  16   9    5.10    2.00
 -10  16  -9   -0.70    2.20
  -9  10  16    1.60    1.80
 -16   9  10   -4.60    3.70
 -10  16   9    1.70    2.00
   0  16  10    3.60    2.00
   0  16  10   -0.80    1.90
 -10   0  16    1.50    1.60
   0  16 -10    0.70    1.20
   0  16 -10   -1.40    1.20
  -1  16 -10   -0.10    1.30
   1  16  10   -2.80    2.00
 -10  -1  16    0.80    1.50
  -1  16 -10    1.70    1.40
   1  16  10    2.70    1.80
 -10   1  16    0.30    1.50
  -1  16  10   -1.90    1.90
   1  16 -10    0.60    1.20
   1  16 -10   -0.60    1.10
  -2  16 -10    2.20    1.40
   2  16  10   -1.30    2.50
   2  16  10    6.10    1.80
  -2  16 -10    3.80    1.50
 -10  -2  16    4.40    1.50
   2  16 -10    3.00    1.10
   2  16 -10    0.80    1.20
 -10   2  16    4.00    1.60
  -3  16 -10    4.40    1.70
  -3  16 -10    3.10    1.30
   3  16  10    5.40    1.70
 -10  -3  16    7.40    1.80
 -10   3  16    5.00    1.70
  -3  16  10    1.70    1.80
   3  16 -10    3.60    1.30
   3  16 -10    5.40    1.20
   4  16 -10    0.20    1.00
   5  16  10   -0.60    1.30
 -10  -5  16    1.10    1.60
  -5  16 -10   -0.10    1.40
 -10   5  16   -2.10    1.50
  10   5 -16    0.30    2.30
   5  16 -10    1.30    1.10
   6  16  10   57.49    4.80
 -10   6 -16   63.79    5.70
  -6  16 -10   58.79    4.70
   6  16 -10   50.29    4.50
  10   6 -16   50.69    7.50
 -10   6  16   58.19    4.60
   6  16 -10   46.60    4.40
  -6  16  10   56.69    4.90
   7  16  10   -1.10    1.40
 -10   7 -16   -0.70    1.40
  -7  16  10   -2.00    1.80
   7  16 -10   -0.30    1.80
 -16  10   7   -4.60    3.20
  10   7 -16   -0.50    2.00
   7  16 -10   -0.80    1.10
 -10   7  16   -2.00    1.50
 -10   8 -16   25.70    6.20
   8  16  10   33.30    4.50
  -8  16 -10   33.20    4.30
 -10   8  16   39.20    4.20
 -16  10   8   35.00    4.50
  -8  16  10   38.50    4.40
   8  16 -10   33.10    4.30
 -10  -9  16    7.80    1.70
  -9  16 -10    0.50    2.00
   9  16  10    4.40    1.90
 -10   9  16    5.60    2.10
  -9  16  10    3.80    1.80
 -16  10   9   -1.00    3.80
   0  16 -11    2.30    1.30
  -1  16 -11   -0.10    1.40
  -1  16 -11    1.20    1.30
   1  16 -11    0.70    1.10
  -2  16 -11   -1.30    1.30
   2  16  11    0.00    1.90
 -11  -2  16    0.80    1.60
  -2  16 -11    0.20    1.50
 -11   2  16   -2.10    1.50
   2  16 -11   -0.30    1.10
  -2  16  11   -2.20    2.00
 -11   3 -16   -2.30    1.60
   3  16  11   -0.10    1.70
  -3  16 -11    0.20    1.20
 -11  -3  16    3.00    1.60
  -3  16 -11    1.90    1.80
 -11   3  16    2.60    1.60
   3  16 -11   -1.40    1.30
  -3  16  11   -1.20    1.90
   4  16  11   -2.40    1.70
 -11  -4  16    2.50    1.70
  -4  16 -11   -0.90    1.30
 -11   4  16    0.20    1.50
   4  16 -11    1.30    1.10
  -4  16  11   -2.20    1.60
   5  16  11   14.80    2.30
 -11   5 -16   10.00    2.10
   5  16 -11   10.10    1.80
  -5  16  11   17.80    3.70
 -11  -5 -16    6.90    2.40
  -6  16 -11    5.90    1.70
   6  16  11    7.80    2.00
  -6  16  11    7.20    2.10
   6  16 -11    5.10    1.80
 -11   6  16    5.60    2.00
   7  16  11    3.20    1.80
  -7  16 -11    4.40    1.80
   7  16 -11    4.40    2.50
 -16  11   7    1.40    3.70
  -7  16  11    6.90    2.10
 -11   7  16    6.60    2.00
   8  16  11   11.50    2.40
  -8  16 -11    7.30    2.00
  -8  16  11   10.50    2.20
 -16  11   8    8.50    3.70
 -11   8  16   10.70    2.30
   0  16 -12   -1.70    1.20
   0  16  12   -2.80    2.80
 -12   0  16    1.70    1.70
 -12  -1  16    1.40    1.60
  -1  16 -12   -1.10    1.30
  -1  16 -12    0.10    1.50
 -12   1  16    1.40    1.70
  -1  16  12   -3.30    2.40
   1  16 -12   -0.40    1.20
  -2  16 -12    0.40    1.30
 -12  -2  16    3.70    1.70
   2  16  12   -1.40    2.50
  -2  16 -12    2.30    1.70
  16  12   2   -6.20    4.90
   2  16 -12    2.20    1.20
  -2  16  12   -0.60    2.30
 -12   2  16    2.10    1.60
  -3  16 -12    3.20    2.00
  -3  16 -12    1.20    1.30
 -12  -3  16    6.60    1.90
   3  16  12    2.20    2.30
   3  16 -12    3.50    1.30
  -3  16  12    0.30    2.10
 -12   3  16    6.00    1.90
   4  16  12   14.10    2.70
   4  16 -12   13.80    2.00
  -4  16  12   12.30    2.40
  -5  16 -12   -1.40    1.40
  -5  16  12   -2.80    1.90
 -12   5  16    0.20    1.70
  -6  16 -12   47.80    4.50
  -6  16  12   45.20    4.90
 -12   6  16   54.19    4.60
   6  16 -12   34.90    6.00
 -13   0  16    0.50    1.80
 -13  -1  16    0.40    1.90
 -13   1  16   -1.10    1.80
  -1  16  13   -4.50    3.10
  16  13   2   -5.60    4.50
 -13  -2  16    0.70    1.90
 -13   2  16   -1.60    1.80
  -3  16 -13   -0.90    1.40
  16  13   3   -6.00    4.30
  -3  16  13   -2.10    2.60
 -13   3  16    1.90    2.00
   3  16 -13   -2.30    1.60
 -13  -4  16    3.80    2.10
 -13   4  16    2.20    1.90
   0   0  17    2.60    2.00
   0   0 -17    0.00    1.20
   0  17   0    1.00    1.20
   0  -1  17    2.40    2.10
   0  -1 -17   -0.70    1.30
   0   1  17    2.90    2.10
   0   1 -17   -1.00    1.20
  -1  17   0    0.90    1.30
   1  17   0    1.40    1.30
  -2  17   0    1.30    1.30
   0   2  17    4.90    2.30
   0  -2  17    2.30    2.10
   0  -2 -17   -1.20    1.40
   3  17   0    2.30    1.20
  -3  17   0   -0.70    1.40
   0   3  17    2.00    2.30
   0  -3  17    0.70    1.90
   4  17   0    2.80    1.30
   0   4  17    3.10    2.50
  -4  17   0    0.00    1.50
   0  -4  17    2.30    2.10
   0  -5  17    1.30    1.80
   5  17   0    0.70    1.20
   0   5  17    0.90    2.50
  -5  17   0   -1.50    1.50
  -6  17   0    2.80    1.80
   6  17   0    3.90    1.50
   0   6  17    5.60    2.60
   0   6 -17    2.90    1.10
   0  -7  17    1.80    1.90
   7  17   0    0.60    1.30
   0   7  17    0.70    2.70
   0   7 -17   -0.40    1.00
  -7  17   0   -2.20    1.90
   8  17   0   -0.40    1.30
   0  -8  17   -0.20    2.00
   0   8 -17   -0.80    0.90
   0  10  17    7.90    3.50
   0  10 -17    6.30    1.70
   0  10 -17    5.80    1.20
   0 -10  17    6.70    2.10
   0 -11  17   -1.80    2.10
  11  17   0   -0.70    1.90
  12  17   0    0.40    2.20
   0  17   1    1.90    1.30
   0  17  -1    0.30    1.20
  -1   0  17    1.30    1.80
   1   0  17    4.60    2.50
   1  -1 -17    4.20    1.40
  -1  -1  17    9.90    2.20
  -1   1 -17    5.50    1.40
  -1  17  -1    7.40    1.60
  -1   1  17    9.10    2.10
   1   1 -17    3.90    1.30
  -1  17   1    7.10    1.60
   1  17  -1    6.30    1.40
   1  -2 -17   -0.40    1.50
  -2  17  -1    1.00    1.30
   1   2  17    5.30    2.60
   2  17   1    3.90    1.30
  -1  -2  17    2.00    1.90
  -2  17   1   -0.60    1.30
  -1   2  17    2.30    2.00
   1  -2  17    3.70    2.20
   2  17  -1    2.10    1.20
   1   2 -17    0.60    1.10
  -3  17  -1    6.80    1.70
  -3  17   1    6.30    1.60
  -1   3  17    9.50    2.30
  -4  17  -1    0.30    1.40
   1   4  17    4.60    2.80
   4  17   1    2.90    1.20
  -1  -4  17    3.30    2.00
   1  -4  17    4.60    2.30
  -4  17   1    1.30    1.40
  -1   4  17    4.30    2.30
   4  17  -1    3.20    1.30
  -1  -5  17    2.70    1.80
   5  17   1    1.50    1.40
   1   5  17    2.30    2.80
  -5  17  -1   -1.40    1.50
  -1   5  17   -1.10    2.20
   1  -5  17    1.10    2.30
   5  17  -1    2.00    1.30
  -5  17   1   -0.30    1.60
   1   6  17    5.70    3.10
  -6  17  -1   -0.80    1.60
   6  17   1    1.50    1.20
  -1   6 -17    1.20    1.00
  -1  -6  17    3.00    1.90
   1  -6  17    1.70    2.20
  -1   6  17    1.60    2.30
  -6  17   1   -0.40    1.60
   1   6 -17    0.10    1.00
   6  17  -1    1.80    1.30
  -1   7 -17   39.30    3.80
  -1  -7  17   42.60    4.40
   1   7  17   48.20    6.90
  -7  17  -1   31.30    4.90
   7  17   1   39.60    3.90
   1  -7  17   39.50    5.20
  -7  17   1   36.50    4.90
   1   7 -17   35.40    3.90
   7  17  -1   41.40    3.80
  -1   7  17   26.90    5.50
   1   8  17    1.20    3.40
   8  17   1    1.10    1.30
  -1   8 -17   -0.60    0.90
  -1  -8  17    0.80    1.60
  -1   8 -17   -1.50    1.20
   1   8 -17   -1.80    1.50
  -1   8  17   -1.30    2.40
   1  -8  17    1.00    2.30
   1   8 -17   -0.70    1.00
   8  17  -1   -0.70    1.40
  -1   9 -17   29.40    3.40
   1   9 -17   27.80    3.60
  -1  10 -17    0.40    0.90
  -1  10 -17    1.10    1.50
  -1  10  17    2.90    2.90
   1  10 -17    1.80    0.90
   1 -10  17    0.10    2.20
  10  17  -1    4.40    1.70
   1  10 -17   -1.10    1.70
  -1 -11  17   29.70    4.20
  -1  11 -17   27.20    3.70
  -1  11 -17   22.40    3.80
   1  11 -17   29.40    3.60
   1 -11  17   38.50    5.80
   1  11 -17   19.60    4.60
  11  17  -1   36.70    4.80
  -1  11  17   28.60    3.90
  12  17   1    1.30    2.10
  -1  12  17   -5.70    4.10
  12  17  -1    0.20    2.50
   0  17   2    1.40    1.40
   2   0  17    5.30    3.00
  -2   0  17    2.00    1.90
   0  17  -2    2.10    1.30
   2  -1 -17    0.50    1.40
  -2  -1  17    2.60    1.90
   2   1  17    6.30    2.90
  -1  17  -2    3.20    1.50
   1  17   2    3.60    1.30
   2  -1  17    5.50    2.90
  -2   1  17    2.90    2.00
   1  17  -2    2.90    1.30
  -1  17   2    0.90    1.30
  -2  -2  17    3.80    1.80
   2   2  17    6.50    3.00
   2  17   2    2.30    1.30
  -2  17  -2    2.10    1.30
  -2   2  17    2.90    2.10
  -2  17   2    1.20    1.40
   2  -2  17    4.70    2.80
   2  17  -2    3.00    1.30
   3  17   2    4.00    1.40
   2   3  17    8.10    3.10
  -3  17  -2    3.20    1.50
  -2  -3  17    6.00    2.00
   2  -3  17    8.70    2.90
  -2   3  17    6.70    2.10
  -2  -3 -17    0.40    1.60
  -3  17   2    2.30    1.50
   3  17  -2    3.80    1.30
  -4  17  -2    0.50    1.50
  -2  -4  17    1.30    1.70
   2   4  17    3.50    3.30
   4  17   2    0.80    1.20
  -2   4 -17    0.60    1.30
  -4  17   2   -1.20    1.50
   4  17  -2    2.30    1.30
  -2   4  17   -0.90    2.00
   2   4 -17    0.30    1.00
   2  -4  17    0.60    2.80
   2   5  17    9.10    3.60
  -5  17  -2    3.40    1.70
   5  17   2    2.60    1.40
  -2   5 -17    2.60    1.20
  -2  -5  17    5.50    1.90
   5  17  -2    4.60    1.30
  -5  17   2    1.80    1.70
   2  -5  17    5.50    2.60
  -2   5  17    4.70    2.10
  -6  17  -2    1.60    1.70
  -2   6 -17    2.50    1.10
   2   6  17    8.90    3.70
  -2  -6  17    4.70    1.70
   6  17   2    2.60    1.30
  -2   6  17    0.50    2.10
   2  -6  17    4.40    3.00
  -6  17   2    2.30    1.80
   6  17  -2    5.10    1.40
  -2   7 -17   22.60    3.40
  -7  17  -2   21.60    4.60
  -2  -7  17   25.00    3.80
   7  17   2   26.80    3.60
   7  17  -2   25.60    3.30
   2   7 -17   21.00    3.50
  -2   7  17   19.90    4.60
   2  -7  17   26.50    6.20
   8  17   2    3.00    1.60
  -2  -8  17    3.50    1.90
  -8  17  -2   -1.00    2.10
  -2   8 -17    1.60    1.00
   8  17  -2    2.10    1.40
  -2   8  17   -0.80    2.30
   2  -8  17    4.50    3.10
   2   8 -17    0.10    1.00
  -2   9 -17   -0.60    0.90
  -2  10 -17   -0.10    1.00
  -2 -10  17   -0.50    1.40
  10  17   2   -1.50    1.60
   2  10 -17   -0.80    0.80
   2 -10  17   -2.40    3.20
  10  17  -2   -1.60    1.50
  11  17   2   -2.20    1.70
  -2 -11  17   -1.50    1.60
   2  11 -17   -1.40    1.00
  11  17  -2   -2.60    1.80
  12  17   2    2.30    1.90
  -2  12  17   -3.50    3.10
  12  17  -2   -0.50    2.70
  -3   0 -17   -1.20    1.20
   3   0  17    4.20    3.60
  -3   0  17    1.00    1.70
   0  17  -3    0.80    1.20
   3   0 -17   -1.60    1.40
   0  17   3   -0.30    1.30
   1  17   3   30.80    3.60
  -3   1 -17   25.30    4.30
  -3  -1  17   28.30    3.90
  -1  17  -3   30.50    3.40
  -3   1  17   30.00    4.00
  -3  -1 -17   25.20    4.70
   1  17  -3   27.40    3.30
   3   1 -17   18.90    4.20
  -1  17   3   24.90    3.70
  -3   2 -17   -0.80    1.20
  -3  -2  17    1.00    1.70
   2  17   3    1.50    1.40
  -2  17  -3    3.00    1.50
   3   2  17    6.80    3.70
   2  17  -3    1.50    1.20
  -3   2  17    2.50    1.90
  -2  17   3   -0.20    1.40
  -3   3 -17   -1.40    1.00
  -3  17  -3    1.10    1.50
  -3  -3  17    0.30    1.70
   3  17   3    0.50    1.20
   3   3  17    6.00    4.00
   3   3 -17   -1.10    1.10
   3  -3  17    3.80    3.60
  -3  -3 -17   -1.90    1.50
  -3   3  17   -0.80    1.90
   3  17  -3    0.30    1.20
  -3  -4  17    1.90    1.60
   4  17   3    0.80    1.30
  -4  17  -3    0.00    1.50
   4  17  -3    0.30    1.20
  -3   4  17    0.10    1.80
   3  -4  17    2.80    3.30
  -4  17   3   -0.60    1.60
  -3  -4 -17   -1.40    1.80
  -5  17  -3    1.60    1.70
  -3   5 -17    1.40    1.00
   5  17   3    3.60    1.50
  -3  -5  17    4.70    1.80
   3   5 -17    1.20    1.10
  -5  17   3    0.80    1.80
   3  -5  17    2.00    3.60
  -3   5  17    0.60    1.90
   5  17  -3    2.80    1.20
  -3  -6  17    3.30    1.60
   6  17   3    2.10    1.40
   6  17  -3    2.70    1.30
  -6  17   3    1.50    2.00
   3  -6  17    4.50    3.90
  -3   6  17   -0.10    1.80
   3   6 -17    0.50    1.10
  -3   7 -17    4.60    1.20
  -7  17  -3    2.70    1.80
   7  17   3    7.50    1.70
   3   7 -17    2.00    1.10
   3  -7  17    9.30    3.80
  -3   7  17    3.30    2.00
 -17   3  -8   -1.00    1.50
  -3   8 -17    0.30    1.00
  -3  -8  17    1.20    1.60
   8  17   3    0.80    1.30
   8  17  -3    0.40    1.30
   3  -8  17   -2.50    3.70
  -3   8  17   -1.00    2.00
   3   8 -17   -1.20    0.90
  -3   9 -17   43.20    3.90
   3   9 -17   40.10    4.00
  -3   9  17   33.80    5.30
  -3 -10  17    6.60    1.60
  -3  10  17    8.30    2.50
  10  17  -3    5.10    1.90
  -3  11 -17    4.30    1.30
  -3  11 -17    6.90    1.60
  11  17  -3    5.60    2.10
   3  11 -17    3.80    1.20
  -3  11  17    9.00    2.80
  -3  12 -17   14.00    2.00
  -3 -12  17   19.40    3.70
  -3  12  17   16.20    3.20
  12  17  -3   20.00    3.20
   1  17   4   34.30    3.70
  -1  17  -4   39.60    3.80
  -4   1 -17   35.50    4.60
  -4  -1  17   38.70    4.00
   1  17  -4   35.10    3.50
  -4  -1 -17   31.30    4.90
  -4   1  17   35.00    4.10
   4   1 -17   25.20    4.90
  -1  17   4   35.30    4.00
  -2  17  -4   -0.80    1.30
  -4  -2  17    1.50    1.60
  -4   2 -17   -1.40    1.20
   2  17   4   -0.70    1.20
  -4   2  17    2.10    1.80
   4  -2  17    1.90    4.90
   2  17  -4   -0.50    1.20
  -2  17   4   -1.90    1.50
   3  17   4   22.70    3.50
  -4  -3  17   26.30    3.70
  -3  17  -4   23.30    3.50
   4   3 -17   16.20    4.00
   4  -3  17   38.50    9.40
  -4   3  17   20.40    4.00
   3  17  -4   20.80    3.10
  -3  17   4   18.50    4.00
  -4  17  -4    0.40    1.40
   4  17   4    0.10    1.40
  -4  -4  17    0.50    1.50
  -4   4 -17   -1.60    1.10
  -4   4  17   -1.00    1.90
  -4  -4 -17   -2.10    1.80
  -4  17   4   -1.40    1.70
   4  17  -4    0.00    1.20
   4  -4  17   -0.90    4.80
  -4   5 -17    3.30    1.30
   5  17   4    3.40    1.50
  -5  17  -4    3.80    1.50
  -4  -5  17    5.80    1.90
   4  -5  17    7.90    5.30
   5  17  -4    4.40    1.40
  -5  17   4    3.20    2.00
   4   5 -17    1.80    1.20
  -4   5  17    2.30    1.90
   6  17   4    3.70    1.50
  -4   6 -17    3.00    1.10
  -6  17  -4    2.60    1.70
   4  -6  17    4.70    5.10
  -4   6  17    2.10    1.90
   6  17  -4    4.90    1.40
   4   6 -17    2.60    1.20
   7  17   4    2.20    1.50
  -4  -7  17    2.60    1.60
  -7  17  -4   -1.00    1.80
  -4   7 -17    1.70    1.10
 -17   4  -7   -0.20    1.50
   4  -7  17   -0.30    5.20
  -4   7  17    1.50    2.00
   7  17  -4    1.10    1.30
   4   7 -17    1.90    1.00
  -4   8 -17    4.30    1.20
 -17   4  -8    1.90    1.60
  -8  17  -4    3.60    2.30
   4   8 -17    4.00    1.20
   8  17  -4    6.20    1.90
   4  -8  17    4.40    6.40
   9  17   4    3.70    1.80
 -17   4  -9   -1.40    1.70
  -9  17  -4   -0.30    2.20
  -4  -9  17    2.80    1.60
  -4   9 -17    1.70    1.10
   9  17  -4    0.90    1.60
  -4   9  17   -0.60    1.90
   4   9 -17   -0.80    1.00
  -4  10 -17    3.50    1.50
  -4 -10  17    5.30    1.50
  -4  10 -17    2.60    1.20
 -17   4 -10    0.00    1.80
 -10  17  -4    0.60    2.70
  -4  10  17    5.90    2.20
   4  10 -17    3.50    1.20
  10  17  -4    4.10    2.00
  11  17   4    3.30    1.70
  -4 -11  17    0.40    1.40
  11  17  -4   -1.30    2.20
  -4  11  17   -1.80    2.00
   0  17  -5    2.60    1.30
  -5   0  17    2.50    1.70
   0  17   5    0.50    1.50
   1  17   5  114.39    6.50
  -5  -1  17  113.39    6.60
  -1  17  -5  111.69    6.20
   5   1 -17   96.39    7.60
  -1  17   5  108.09    6.50
   1  17  -5  104.79    6.10
  -5   1  17  112.39    6.80
  -2  17  -5    6.30    1.60
   2  17   5    6.40    1.60
  -5   2 -17    4.60    1.50
   2  17  -5    3.00    1.60
  -2  17   5    4.70    1.70
  -5   2  17    5.80    1.80
   2  17  -5    5.90    1.50
   5   2 -17    4.60    1.50
  -5  -3  17   19.00    3.40
  -5   3 -17   17.70    3.70
   3  17   5   19.80    3.40
  -3  17  -5   20.40    3.40
  -5   3  17   13.80    2.40
   3  17  -5   15.60    3.00
   4  17   5    7.70    1.60
  -5   4 -17    4.90    1.30
  -4  17  -5    5.70    1.50
   5   4 -17    5.20    1.40
   5  -4  17   12.70    8.20
  -5   4  17    6.90    1.90
  -4  17   5    5.30    2.00
   4  17  -5    5.80    1.20
 -17   5  -5   -2.00    1.70
  -5  -5  17    0.10    1.50
  -5  17  -5   -0.70    1.40
   5  17   5    0.60    1.40
   5  -5  17   -2.80    7.50
  -5  -5 -17   -2.40    2.20
   5   5 -17   -1.00    1.20
  -5   5  17   -1.20    1.60
   5  17  -5    0.20    1.10
   6  17   5    1.70    1.40
 -17   5  -6    0.10    1.70
  -5   6 -17    1.00    1.20
  -6  17  -5   -1.30    1.60
   5   6 -17   -0.20    1.20
   5  -6  17  -10.00    7.80
  -5   6  17    0.10    1.60
 -17   5  -7    1.20    1.80
  -5  -7  17    7.40    1.70
   7  17   5    7.30    1.80
  -7  17  -5    4.00    1.80
  -5   7  17    5.70    1.90
   7  17  -5    4.80    1.40
   5  -7  17   -5.80    8.20
   5   7 -17    3.00    1.30
 -17   5  -8   -1.60    1.80
  -5   8 -17   -0.90    1.00
   5   8 -17    0.20    1.10
  -5  -9  17    0.50    1.40
  -9  17  -5   -3.20    2.10
 -17   5  -9   -2.20    1.90
   9  17   5    3.90    1.80
  -5   9 -17   -1.20    1.10
  -5   9  17   -1.00    1.90
   5   9 -17    0.20    1.10
   9  17  -5   -1.20    1.60
  -5  10 -17   -1.00    1.10
 -17   5 -10   -2.40    1.90
  -5 -10  17    2.70    1.50
  10  17  -5   -0.60    1.90
  -5  10  17   -1.50    1.90
   5  10 -17   -0.60    1.20
  -5 -11  17    2.20    1.60
  -5  11 -17    0.10    1.50
  11  17  -5    1.70    2.50
  -5  11  17   -1.40    2.00
   0  17  -6   -0.60    1.30
   0  17   6   -0.90    1.50
  -6   0  17    1.40    1.60
  -1  17  -6   48.60    4.00
  -6   1 -17   47.80    5.00
   1  17   6   50.09    4.40
  -6  -1  17   50.49    4.40
  -6  -1 -17   44.70    5.40
  -6   1  17   51.19    4.40
  -1  17   6   45.80    4.70
   1  17  -6   41.70    5.50
   1  17  -6   49.50    4.00
   2  17   6    2.60    1.50
  -2  17  -6    1.90    1.30
  -6  -2  17    3.70    1.70
  -6  -2 -17   -0.80    1.40
  -6   2  17    1.60    1.50
   2  17  -6    0.30    1.20
  -2  17   6    0.10    1.70
  -6   3 -17    9.60    1.60
  -6  -3  17   15.30    3.40
   6   3 -17    6.80    1.80
   3  17  -6   14.10    2.90
  -6  -3 -17    7.50    2.00
  -3  17   6   11.00    2.10
  -6   3  17   14.80    3.50
   3  17  -6    9.50    1.70
  -6   4 -17    1.00    1.20
  -6  -4  17    1.00    1.50
   4  17   6    3.80    1.60
  -4  17  -6    1.50    1.50
   4  17  -6    1.90    1.30
  -6  -4 -17   -1.30    1.90
   6   4 -17    0.50    1.50
   4  17  -6    0.90    1.30
  -6   4  17    0.60    1.60
  -6   5 -17    6.20    1.40
   5  17   6    9.10    1.90
   6   5 -17    6.00    1.60
  -6  -5 -17    2.20    2.30
  -6   5  17    4.70    1.80
  -6   6 -17   -0.80    1.10
  -6  -6  17    2.90    1.60
  -6  17  -6    1.50    1.50
   6  17   6    3.90    1.70
   6  17  -6   -0.70    1.30
   6  17  -6    0.20    1.20
   6   6 -17    0.70    1.40
  -6   6  17   -0.40    1.60
  -6   7 -17    0.00    1.20
   6   7 -17   -0.50    1.40
  -8  17  -6    1.70    2.00
  -6   8 -17    2.60    1.30
  -6   8  17    3.90    1.70
   6   8 -17    1.70    1.30
   8  17  -6    1.50    1.80
  -6  -9  17    2.10    1.50
  -9  17  -6   -0.20    2.00
  -6   9  17    1.90    1.90
   9  17  -6   -1.30    1.80
 -10  17  -6    4.40    2.60
  10  17  -6    6.60    2.30
  -6  10  17    7.30    2.10
   0  17   7    1.50    1.70
   0  17  -7    1.70    1.30
  -7   0  17    1.70    1.60
  -7   1 -17  152.68    8.80
  -7  -1  17  141.29    8.00
  -1  17  -7  145.99    7.70
   1  17   7  149.88    8.30
   1  17  -7  133.79    8.70
   1  17  -7  147.19    7.60
  -7  -1 -17  147.89    9.10
  -1  17   7  147.49    8.50
  -7   1  17  139.39    8.00
   2  17   7   24.90    4.00
  -2  17  -7   20.70    3.20
  -7  -2  17   24.50    3.50
   2  17  -7   19.20    2.90
  -7   2  17   18.30    3.50
   2  17  -7   23.70    4.60
  -2  17   7   23.70    4.90
  -7   3 -17    8.60    1.60
   7   3 -17    5.90    2.00
  -7   3  17    8.60    1.90
   3  17  -7    7.90    1.60
   3  17  -7   12.80    2.80
  -7  -3 -17    5.40    2.00
  -7   4 -17    7.50    1.50
   4  17  -7   13.20    2.80
   7   4 -17    5.80    1.80
  -7   4  17    9.30    2.10
   4  17  -7    7.10    1.60
  -5  17  -7    7.20    1.60
  -7   5 -17    5.20    1.30
   5  17  -7    7.50    1.40
   5  17  -7    5.50    1.30
  -7   5  17    7.90    2.00
   7   5 -17    4.90    1.70
  -7  -5 -17    2.10    2.40
  -7   6 -17    3.40    1.40
   7   6 -17    0.90    1.60
   6  17  -7    3.10    1.40
   7  17   7   28.80    4.10
  -7  -7  17   24.50    3.20
  -7   7 -17   20.90    4.10
  -7  17  -7   19.60    4.10
  -7   7  17   24.00    3.70
   7  17  -7   16.90    3.60
  -7   8 -17    0.60    1.20
  -8  17  -7    0.80    1.80
   7   8 -17    0.60    1.50
   8  17  -7   -1.10    1.70
  -7  -9  17   26.50    3.20
  -7   9 -17   22.30    4.40
  -7   9  17   22.70    3.90
  -9  17   7   29.70    4.10
 -10  17  -7   -3.50    2.40
  10  17   7    2.00    1.40
  -7 -10  17   -0.10    1.40
  10  17  -7   -1.70    2.40
   0  17  -8   -1.60    1.20
  -8   0  17   -0.80    1.60
   0  17  -8    1.50    1.60
   0  17   8    0.60    1.90
  -8  -1  17   18.00    3.30
  -1  17  -8   12.80    2.90
   1  17   8   21.00    4.20
   1  17  -8   12.50    2.90
  -8   1  17   13.60    3.30
   1  17  -8   19.30    4.80
  -8   2 -17    6.50    1.50
  -8   2  17    9.00    1.80
   2  17  -8    8.70    1.60
   3  17   8    3.40    1.80
  -8   3 -17   -0.40    1.20
  -3  17  -8    0.20    1.30
  -8  -3  17    2.90    1.60
   3  17  -8    2.20    1.40
   3  17  -8    0.30    1.20
  -8   3  17    1.20    1.70
  -8   4 -17    8.80    1.70
   8   4 -17    9.80    2.30
  -8   5 -17    0.60    1.20
   8   5 -17    3.90    1.90
   5  17  -8    1.50    1.40
  -8   6 -17    1.90    1.40
  -6  17  -8    3.80    1.70
   8   6 -17    5.10    1.90
   6  17  -8    2.20    1.20
   6  17  -8    2.10    1.50
  -8   6  17    4.50    1.70
   7  17   8    7.00    1.80
  -7  17  -8    2.00    1.60
  -8   7  17    7.80    2.00
   7  17  -8    4.10    1.70
   8   7 -17    4.30    1.80
  -8  -8  17    3.90    1.50
  -8  17   8    2.90    1.90
  -8   8  17    1.60    1.60
   9  17   8    3.30    1.60
  -8  -9  17    2.50    1.30
  -9  17  -8   -0.60    2.00
   9  17  -8   -0.20    2.40
  -8   9  17    3.50    1.70
  -9  17   8    2.30    1.90
   0  17  -9    0.30    1.50
   0  17   9    1.00    2.20
  -9   1 -17    4.80    1.70
   1  17  -9    6.90    1.60
  -9  -1 -17    3.90    1.90
   2  17  -9    0.60    1.30
  -3  17  -9    2.60    1.50
  -9   3  17    2.70    1.70
   3  17  -9    0.30    1.30
   3  17  -9    3.00    1.40
  -4  17  -9    3.40    1.50
  -9   4 -17    3.20    1.60
  -4  17   9    5.10    2.10
   4  17  -9    4.20    1.40
  -9   4  17    6.20    1.70
   4  17  -9    6.00    1.40
   5  17   9    5.10    1.60
  -5  17  -9    2.20    1.50
  -9   5 -17    0.80    1.40
   9   5 -17    3.70    2.40
  -9   5  17    6.10    1.80
  -5  17   9    3.00    2.00
   5  17  -9    3.20    1.40
   5  17  -9    1.80    1.40
   6  17   9    4.60    1.80
  -6  17  -9    0.70    1.60
  -9   6  17    1.90    1.70
  -6  17   9    0.20    1.90
   6  17  -9    0.50    1.20
   9   6 -17    0.60    2.20
   6  17  -9   -0.60    1.50
   7  17   9   82.39    5.80
  -9  -7  17   90.39    5.50
  -7  17  -9   96.79    6.10
  -9   7 -17   86.09    6.90
  -9   7  17  100.69    6.10
  -7  17   9   94.29    6.30
   7  17  -9   80.09    6.10
  -8  17  -9    2.70    1.80
   8  17   9    5.80    1.70
   8  17  -9    5.40    2.50
  -9   8  17    6.70    1.80
  -8  17   9    6.70    2.20
 -10   0  17   -0.60    1.50
   0  17 -10   -0.50    1.60
  -1  17 -10    0.80    1.90
 -10  -1  17   -0.60    1.50
   1  17  10    0.90    2.20
 -10   1  17    0.00    1.60
   1  17 -10   -0.50    1.50
 -10  -2  17   -0.20    1.60
   2  17  10    2.20    2.00
   2  17 -10    0.30    1.40
 -10   2  17   -1.80    1.60
   3  17  10    2.30    1.80
 -10  -3  17    1.20    1.50
  -3  17 -10   -1.40    1.20
   3  17 -10    0.60    1.30
 -10   3  17    0.60    1.60
  -4  17 -10    2.10    1.50
 -10  -4  17    5.00    1.70
   4  17  10    1.60    1.50
   4  17 -10    2.60    1.40
  -4  17  10    1.30    1.90
 -10   4  17    4.50    1.70
  -5  17 -10   -1.40    1.40
 -10  -5  17    3.10    1.60
   5  17  10   -0.40    1.50
 -10   5  17   -0.30    1.50
   5  17 -10    1.80    1.30
  -6  17 -10    3.70    1.60
   6  17  10    4.80    1.90
   6  17 -10    3.00    1.80
  -6  17  10    3.30    2.10
   7  17  10    7.10    1.90
  -7  17 -10    8.50    2.00
  -7  17  10   10.30    2.40
   7  17 -10   10.50    2.30
 -11   0  17   -1.80    1.60
   0  17 -11   -1.50    1.80
 -11  -1  17   -0.20    1.60
  -1  17 -11    1.30    2.10
   1  17 -11    1.80    1.70
  -1  17  11   -3.10    2.40
 -11   1  17    1.10    1.50
   2  17  11   -3.00    2.30
 -11  -2  17   -1.00    1.50
   2  17 -11    0.00    1.60
 -11   2  17   -0.30    1.50
   3  17  11    6.20    2.30
  -3  17 -11    5.50    1.50
 -11  -3  17    9.10    1.90
  -3  17  11    7.70    2.40
   4  17  11    1.40    2.10
 -11  -4  17   -0.40    1.70
  -4  17 -11   -2.00    1.40
  -4  17  11   -2.00    1.80
 -11   4  17    2.10    1.80
   5  17  11   31.10    5.00
  -5  17 -11   28.20    3.80
  -5  17  11   24.50    4.30
   5  17 -11   18.40    4.10
 -12   0  17   -1.20    1.70
 -12  -1  17   -1.50    1.70
 -12   1  17   -0.60    1.70
 -12  -2  17    1.20    1.90
  -2  17 -12   -1.30    1.30
 -12   2  17    4.10    1.80
   3  17  12   -4.80    3.20
 -12  -3  17   -0.10    1.80
 -12   3  17   -1.00    1.90
   0   0  18    2.40    2.30
   0  18   0    2.30    1.40
   1  18   0    1.10    1.30
   0  -1  18    1.40    2.20
   0   1  18    1.90    2.40
  -1  18   0   -0.90    1.30
   0   2  18    2.00    2.60
   2  18   0    1.70    1.30
  -2  18   0    0.10    1.30
   0  -2  18    3.20    2.30
   0   3 -18   -1.40    1.20
   0   3  18    2.10    2.50
   3  18   0    0.90    1.30
  -3  18   0    0.20    1.40
   0  -3  18    2.80    2.30
   0   4  18    4.90    2.70
  -4  18   0   -0.70    1.60
   4  18   0    2.20    1.40
   0  -4  18    0.60    2.10
   0  -5  18   -0.30    2.00
   5  18   0    0.10    1.30
  -5  18   0    0.20    1.70
   0   5  18   -0.40    2.80
  -6  18   0   12.10    2.20
   0   6  18   17.40    3.40
   0   8  18   44.10    7.90
   0   8 -18   40.10    4.10
   8  18   0   46.80    4.20
   0  -8  18   49.30    5.20
   0   8 -18   38.10    4.40
   0  -9  18    0.10    2.00
   9  18   0    0.20    1.60
  10  18   0   26.10    4.30
   0 -10  18   31.00    4.90
  -1   0  18    0.30    2.00
   0  18  -1   -0.80    1.20
   0  18   1    1.80    1.40
   1   0  18    3.00    2.80
   1   1  18    3.20    2.70
   1  18   1    0.80    1.30
  -1  -1  18    1.90    2.10
  -1  18  -1    2.60    1.40
   1  -1  18    2.70    2.70
   1  18  -1    0.60    1.30
  -1  18   1    2.80    1.50
  -1   1  18    2.80    2.20
  -1  -2  18   -0.10    2.00
   1   2  18    3.20    2.80
  -2  18  -1   -0.50    1.30
   2  18   1    0.80    1.30
   1  -2  18    3.40    2.60
  -2  18   1   -0.50    1.40
   1   2 -18   -1.20    1.20
   2  18  -1    0.10    1.30
  -1   2  18   -0.20    2.20
   1   3  18   10.80    3.20
  -3  18  -1    5.30    1.60
   3  18   1    4.40    1.40
  -1  -3  18    8.30    2.40
  -3  18   1    6.30    1.80
   3  18  -1    7.20    1.50
  -1   3  18   11.00    2.50
  -1  -4  18    3.90    2.00
  -4  18  -1    0.40    1.60
   4  18   1   -0.40    1.20
  -1   4 -18   -1.30    1.20
   1   4  18    5.60    3.10
  -4  18   1   -1.70    1.50
  -1   4  18    0.20    2.40
   1  -4  18    2.50    2.30
   4  18  -1    0.80    1.20
  -1  -5  18    9.90    2.20
   5  18   1    7.60    1.60
  -5  18  -1    4.70    1.80
  -1   5  18    8.70    2.70
   1  -5  18   10.50    2.80
  -5  18   1    4.50    1.90
   5  18  -1    7.50    1.60
   6  18   1    3.40    1.40
   1   6  18    8.30    3.70
  -6  18  -1    1.20    2.00
  -1  -6  18    3.60    2.00
  -1   6  18    3.90    2.70
   1  -6  18    1.40    2.40
   6  18  -1    2.60    1.40
  -6  18   1    1.90    2.10
  -1   7 -18    1.40    1.00
   1   7 -18    1.30    1.20
   8  18   1    1.20    1.50
  -8  18  -1   -3.10    2.50
  -1  -8  18   -0.30    1.80
   1  -8  18    0.50    2.50
  -1   8  18   -2.60    3.00
   8  18  -1    0.10    1.40
  -1   9 -18    4.00    1.70
   9  18   1    8.00    1.80
  -1  -9  18    5.80    2.00
   9  18  -1    4.40    1.60
   1  -9  18    6.20    2.60
  -1   9  18    5.40    3.40
  -1 -10  18    1.10    1.80
  10  18   1   -2.40    1.70
  10  18  -1    0.30    1.80
   1 -10  18   -0.90    2.80
  -1  10  18   -2.40    3.80
   0  18   2    0.00    1.30
   0  18  -2    1.90    1.40
   2   0  18    4.40    3.20
  -2   0  18    1.40    2.00
   1  18   2    0.10    1.40
  -2  -1  18    2.20    2.00
  -1  18  -2    0.00    1.30
   2   1  18    5.80    3.40
   2  -1  18    3.30    3.20
  -1  18   2    0.00    1.40
   1  18  -2   -0.50    1.20
  -2   1  18    1.50    2.00
  -2  -2  18    0.50    1.90
  -2   2 -18   -1.80    1.30
   2   2  18    3.90    3.30
  -2  18  -2    1.80    1.50
   2  18   2    0.60    1.30
  -2  18   2   -1.10    1.40
  -2   2  18    0.60    2.00
   2   2 -18   -1.10    1.30
   2  18  -2   -0.80    1.20
   2  -2  18    6.50    3.10
   2   3  18    8.40    3.80
  -2  -3  18    3.80    1.90
   3  18   2    3.10    1.40
  -3  18  -2    2.30    1.50
  -2   3  18    5.00    2.30
   2  -3  18    5.60    2.90
  -3  18   2    1.90    1.70
   3  18  -2    3.60    1.40
   4  18   2    0.10    1.30
  -2  -4  18    2.20    1.80
   2   4  18    6.60    3.70
  -4  18  -2   -1.30    1.60
   4  18  -2    0.90    1.20
  -4  18   2   -0.40    1.60
   2  -4  18    1.90    2.80
  -2   4  18    1.00    2.10
  -5  18  -2   -1.30    1.60
  -2  -5  18    3.90    1.90
   5  18   2    1.60    1.40
  -2   5  18    1.10    2.30
   5  18  -2    3.10    1.40
  -5  18   2    0.80    1.80
   2  -5  18    3.30    2.90
  -2   6 -18    4.50    1.10
  -6  18  -2    6.60    2.10
   2   6 -18    3.80    1.30
  -2   6  18    6.50    2.50
   2  -6  18   10.30    3.40
  -2   7 -18   -0.50    1.00
   2   7 -18   -0.80    1.00
  -2   8 -18   12.90    1.90
  -8  18  -2   13.90    2.90
  -2   8 -18   16.40    3.40
  -2   8  18   16.50    3.00
   2   8 -18   11.10    1.60
   2  -8  18   16.70    3.50
  -2   9 -18    1.70    1.00
  -2  -9  18    5.40    1.80
 -18   2  -9   -0.50    1.50
   9  18   2    4.50    1.70
  -2   9 -18    1.60    1.40
   2   9 -18    2.70    1.20
   9  18  -2    3.90    1.70
   2  -9  18    5.80    3.50
  -2   9  18    3.30    2.80
  -2  10 -18   25.20    4.00
  10  18   2   33.80    4.50
  10  18  -2   24.30    4.70
  -2  10  18   22.50    3.60
   3   0  18    7.50    3.90
  -3   0  18    1.30    1.90
   0  18   3   -0.60    1.40
   0  18  -3   -0.40    1.20
   1  18   3   -0.20    1.30
  -3  -1  18    1.40    1.90
  -1  18  -3    0.50    1.40
   3   1  18    6.20    4.00
  -3   1  18    1.90    2.00
  -1  18   3    0.50    1.60
   3  -1  18    7.80    3.90
   1  18  -3    1.30    1.20
  -3  -2  18    0.00    1.80
   2  18   3   -0.90    1.40
  -2  18  -3    1.00    1.30
  -2  18   3   -0.70    1.50
  -3   2  18    2.50    1.90
   2  18  -3   -1.40    1.10
   3  -2  18    4.00    3.60
   3   2 -18   -1.10    1.50
  -3  -3  18    3.80    1.80
  -3  18  -3    2.90    1.50
   3  18   3    3.50    1.40
   3  -3  18    7.40    3.80
  -3  -3 -18    0.00    2.10
  -3   3  18    4.10    2.10
   3  18  -3    2.20    1.30
  -3  18   3    2.60    1.80
   4  18   3    5.30    1.50
  -4  18  -3    2.80    1.50
  -3  -4  18    4.90    1.80
   3   4 -18    1.10    1.40
  -3   4  18    4.70    2.00
   4  18  -3    3.40    1.20
   3  -4  18    2.80    3.80
  -4  18   3    2.40    1.90
  -3   5 -18    0.30    1.10
   5  18   3    1.90    1.40
  -5  18  -3    1.10    1.70
  -3   5  18    2.10    2.10
   5  18  -3    1.60    1.30
  -5  18   3    0.90    2.20
   3  -5  18    0.20    3.90
  -6  18  -3    7.00    2.20
  -3   6 -18    6.50    1.40
   6  18  -3   10.10    1.90
   3  -6  18   15.40    4.80
  -7  18  -3   -2.10    2.10
  -3  -7  18    1.70    1.80
   7  18   3   -0.80    1.50
  -3   7 -18   -0.70    1.00
   7  18  -3   -1.40    1.30
   3  -7  18   -0.70    4.10
  -3   7  18   -0.10    2.30
   8  18   3    1.60    1.70
 -18   3  -8   -2.20    1.80
  -3  -8  18    1.80    1.50
  -3   8 -18    0.00    1.10
  -8  18  -3   -1.40    2.40
   3  -8  18   -4.60    3.90
   3   8 -18   -0.30    1.00
   8  18  -3    0.00    1.30
   9  18   3    2.20    1.80
  -9  18  -3   -4.00    2.90
 -18   3  -9   -1.60    1.70
  -3  -9  18    2.20    1.60
   3  -9  18   -4.60    4.70
   3   9 -18   -1.30    1.10
   9  18  -3   -1.70    1.50
  10  18   3   -1.30    1.90
  -3 -10  18   -0.20    1.70
   0  18   4   42.50    4.20
  -4   0  18   49.40    4.40
   0  18  -4   42.90    3.90
  -4   0 -18   36.50    5.30
  -4  -1  18    3.00    1.90
   1  18   4    0.30    1.50
  -1  18  -4    0.90    1.40
  -4  -1 -18   -0.90    1.50
  -4   1  18    1.00    1.80
  -1  18   4    0.50    1.60
   1  18  -4    0.50    1.20
  -2  18  -4   23.40    3.30
   2  18   4   16.10    3.60
  -4  -2  18   19.30    3.70
   2  18  -4   17.10    3.00
  -4   2  18   25.60    4.20
  -2  18   4   19.20    4.10
  -3  18  -4    4.30    1.60
   3  18   4    4.50    1.70
  -4  -3  18    3.30    1.70
   3  18  -4    2.20    1.30
   4  -3  18    5.70    5.20
   4   3 -18    0.10    1.40
  -4  -3 -18    0.30    2.00
  -4   3  18    5.00    2.10
  -3  18   4    2.80    1.80
  -4  -4  18    0.80    1.70
   4  18   4   -1.20    1.40
  -4  18  -4   -0.30    1.60
  -4   4  18    0.60    1.80
   4  -4  18   -1.00    5.20
   4   4 -18   -1.00    1.40
  -4  18   4   -0.50    2.00
   4  18  -4   -0.50    1.10
  -4  -5  18    4.10    1.70
   5  18   4    2.20    1.50
  -5  18  -4   -1.40    1.50
  -4   5 -18   -0.10    1.20
   4   5 -18   -1.10    1.30
   5  18  -4    1.40    1.10
  -4   5  18    0.60    1.90
   4  -5  18    3.90    5.30
 -18   4  -6   -1.60    1.80
  -4   6 -18   -0.40    1.10
   4   6 -18    0.60    1.40
  -7  18  -4   -2.70    2.00
 -18   4  -7    0.60    1.90
  -4  -7  18    3.20    1.70
  -4   7 -18   -1.00    1.10
   7  18   4    3.40    1.60
   7  18  -4   -0.20    1.40
   4   7 -18   -0.70    1.20
  -4   7  18   -0.50    2.20
   4  -7  18   -5.10    5.50
  -8  18  -4    9.20    2.50
   4  -8  18    6.90    6.40
   8  18  -4    7.90    1.70
   4   8 -18    6.40    1.50
  -4   8  18    6.70    2.30
  -4  -9  18    2.30    1.40
  -9  18  -4    0.00    3.00
   9  18   4    2.70    1.80
  -4   9 -18   -0.90    1.10
  -4   9  18    0.60    2.20
   9  18  -4    0.10    1.70
  -4 -10  18    3.30    1.40
  -4  10 -18    0.50    1.60
  -4  10  18   -3.70    2.40
  10  18  -4   -0.80    2.10
  -5   0 -18    1.50    1.60
  -5   0  18    7.20    1.80
   0  18   5    5.50    1.80
   0  18  -5    3.70    1.40
  -1  18  -5   -0.30    1.30
  -5  -1  18    1.30    1.70
   1  18   5   -0.40    1.60
  -1  18   5    0.70    1.70
   1  18  -5   -1.70    1.30
  -5   1  18    0.40    1.70
  -5  -2  18    2.40    1.70
  -2  18  -5    2.30    1.40
   2  18   5    2.80    1.60
  -2  18   5    3.90    2.00
   2  18  -5    2.10    1.30
  -5   2  18    3.60    2.00
   3  18   5    0.90    1.40
  -5  -3  18    1.40    1.80
  -3  18  -5   -0.10    1.40
  -5   3  18   -0.60    1.70
   3  18  -5   -0.80    1.10
  -3  18   5    2.60    2.10
   5   3 -18   -1.70    1.70
  -5  -4  18    2.60    1.80
  -5   4 -18   -0.50    1.30
  -4  18  -5   -0.40    1.50
   4  18   5    3.50    1.70
   5   4 -18   -0.80    1.50
   4  18  -5    1.20    1.20
  -5   4  18    2.60    1.90
  -5   5 -18    1.90    1.30
   5   5 -18   -0.20    1.60
   6  18   5    1.80    1.70
  -5   6 -18    0.40    1.20
  -6  18  -5   -1.40    1.60
  -5  -6  18    2.70    1.60
   6  18  -5    0.20    1.20
  -5   6  18    1.20    1.90
   5   6 -18   -0.40    1.60
   7  18   5    8.20    2.00
  -7  18  -5    2.40    2.00
  -5   7  18    5.50    2.20
  -5   8 -18   -1.50    1.20
   8  18   5    1.60    1.70
  -8  18  -5   -2.90    2.10
  -5  -8  18    1.20    1.40
   5   8 -18   -1.40    1.30
  -9  18  -5   -2.40    2.70
   9  18  -5    1.80    1.80
  -5   9  18    2.70    2.00
  -6   0 -18  104.39    7.50
  -6   0  18   97.69    6.30
   0  18   6  101.69    6.60
   0  18  -6   97.59    5.80
  -6  -1  18    5.40    1.80
  -1  18  -6    4.10    1.40
  -6   1 -18   -0.30    1.50
   1  18   6    4.80    1.90
   1  18  -6    1.90    1.20
  -1  18   6    4.20    2.00
  -6   1  18    4.50    1.80
  -6  -2  18   52.69    4.60
  -2  18  -6   47.10    4.10
  -6   2 -18   52.99    5.30
   2  18   6   50.09    4.70
  -2  18   6   50.59    5.70
  -6   2  18   46.90    4.50
   2  18  -6   42.30    3.80
   6   3 -18   15.00    2.60
  -6  -4 -18   -1.90    2.50
   6   4 -18   -1.50    1.90
  -6   5 -18    0.30    1.30
  -5  18  -6    0.80    1.60
   5  18   6    3.20    1.70
  -6  -5  18    4.00    1.60
  -6   5  18    1.30    1.80
   5  18  -6    0.80    1.30
   6   5 -18    2.20    1.80
  -6   6  18   18.60    4.10
  -7  18  -6   -1.40    1.80
  -6  -7  18    1.90    1.50
  -6   7 -18   -1.00    1.30
   7  18  -6   -2.00    1.50
   6   7 -18   -1.40    1.70
  -6   7  18    1.00    2.00
  -6  -8  18    6.50    1.70
  -6   8  18    3.10    1.90
  -6  -9  18    2.30    1.40
  -9  18  -6   -2.60    2.60
  -6   9  18    0.00    1.80
   9  18  -6   -1.50    1.90
  -7   0 -18    2.50    1.70
  -7  -2  18    1.80    1.70
  -3  18  -7    2.50    1.40
  -7  -3  18    6.90    1.80
  -7   3 -18    2.10    1.20
   3  18  -7    4.00    1.30
  -7   3  18    4.00    1.70
   4  18   7    3.20    1.70
  -7  -4  18    1.20    1.70
  -4  18  -7    0.20    1.40
   4  18  -7   -0.60    1.70
  -7  -4 -18   -3.70    2.60
  -7   4  18    0.00    1.60
  -5  18  -7   -1.60    1.40
   5  18   7    1.90    1.80
   5  18  -7    0.10    1.80
   7   5 -18   -1.60    2.10
  -7   5  18   -0.60    1.60
   6  18   7    2.80    1.70
  -7  -6  18    3.00    1.60
  -6  18  -7   -1.40    1.70
  -7   6 -18   -1.60    1.40
   7   6 -18   -0.30    2.10
   6  18  -7   -1.60    1.30
   7  18   7   19.10    3.80
  -7  -7  18   15.10    3.20
  -7   7  18   10.60    2.30
  -7   8  18    5.90    2.10
   0  18  -8   35.60    3.60
   0  18   8   46.30    6.00
  -8   0  18   38.60    3.90
   1  18   8    1.10    2.10
  -8  -1  18    0.60    1.60
  -8   1  18   -0.60    1.60
   1  18  -8   -1.00    1.00
  -1  18   8    3.40    2.60
  -8  -2  18   13.40    3.20
  -2  18  -8    7.00    1.60
   2  18   8    9.00    2.10
   2  18  -8    8.20    1.50
  -8  -3  18    5.80    1.80
  -3  18  -8    1.40    1.40
  -8   3  18    2.30    1.70
   3  18  -8   -0.10    1.10
   3  18  -8    2.60    2.10
   4  18   8    2.00    1.60
  -8   4 -18   -1.20    1.20
  -4  18  -8   -2.00    1.30
  -8  -4  18    0.20    1.50
   4  18  -8   -1.30    1.10
  -8   4  18    1.40    1.80
   4  18  -8   -0.10    1.80
  -8   5  18   10.80    2.30
   6  18   8   31.30    4.50
  -8  -6  18   31.20    3.50
  -8   6  18   33.40    4.10
   7  18   8   17.50    4.00
  -9   0  18    0.60    1.50
   0  18   9    6.20    2.90
   1  18   9    3.80    2.30
  -9  -1  18    0.30    1.60
  -9   1  18   -0.60    1.60
  -9  -2  18   -0.90    1.60
   2  18   9    1.00    2.20
  -9   2  18   -0.70    1.60
  -9  -3  18   -1.40    1.60
   3  18   9    1.60    1.90
   3  18  -9    1.00    2.30
   4  18   9    1.80    1.70
  -9  -4  18   -0.30    1.70
  -9   4  18   -0.10    1.60
   5  18   9    4.90    2.00
  -9  -5  18    3.50    1.60
  -9   5  18    2.70    1.80
  -9  -6  18    1.20    1.50
   6  18   9   -0.40    1.60
  -9   6  18    2.50    1.80
   0  18  10   -3.90    2.80
 -10   0  18    3.10    1.70
 -10  -1  18    1.10    1.60
 -10   1  18    1.50    1.70
 -10  -2  18   -1.10    1.60
   2  18  10   -1.70    2.20
 -10   2  18    0.60    1.70
   3  18  10    0.00    2.00
 -10  -3  18    1.60    1.80
 -10   3  18    3.30    1.90
  -4  18 -10    3.80    1.60
   4  18 -10    2.80    1.50
  -4  18  10    0.20    2.00
   0   0  19   -1.20    2.50
   0   0 -19   -1.70    1.80
   0  19   0   -0.20    1.40
   0  -1  19    0.00    2.50
   0   1  19   -1.80    2.60
   0   1 -19   -2.30    1.60
  -1  19   0    0.20    1.40
   1  19   0   -1.10    1.30
   2  19   0   18.30    3.40
  -2  19   0   20.90    3.70
   0   2  19   27.10    6.10
   0  -2  19   27.30    5.40
   0   4 -19   33.00    4.90
   0   5  19    1.50    3.30
   5  19   0    1.80    1.40
  -5  19   0   -1.30    1.90
   0  -5  19    0.30    2.50
   6  19   0   40.40    4.00
  -6  19   0   36.00    6.10
   0   6  19   49.60    7.90
   0  -6  19   44.50    5.50
   0  -7  19   -0.30    2.30
   7  19   0    0.20    1.50
   0  -8  19    0.70    2.40
   8  19   0   -1.80    1.50
   0  -9  19    1.70    2.40
   0  19  -1   -1.10    1.30
   1   0  19   -0.20    2.80
  -1   0  19   -2.20    2.40
   1  19   1   -2.00    1.30
  -1  -1  19   -1.60    2.30
  -1  19  -1   -0.90    1.40
   1   1  19    2.50    3.20
   1   1 -19   -1.50    1.80
   1  19  -1   -0.10    1.40
  -1  19   1    0.00    1.50
  -1   1  19   -0.20    2.30
   1  -1  19   -0.50    2.80
   1   2  19    1.10    3.20
  -2  19  -1   -0.40    1.50
   2  19   1    0.00    1.50
  -1   2 -19   -1.70    1.40
  -1  -2  19    0.50    2.30
   2  19  -1   -0.60    1.30
  -1   2  19   -0.60    2.40
   1  -2  19    5.30    3.00
  -2  19   1   -1.80    1.60
   1   3 -19   -2.10    1.50
   4  19   1    0.00    1.60
  -1  -4  19    2.40    2.30
   5  19   1    1.90    1.40
  -1  -5  19    2.80    2.20
  -5  19  -1    0.20    1.90
  -5  19   1    1.30    2.20
   5  19  -1    1.20    1.30
  -1   5  19    3.80    3.00
   1  -5  19    1.60    2.70
   6  19   1    1.00    1.30
  -1  -6  19    1.60    2.00
  -6  19  -1   -2.30    2.00
   1  -6  19   -0.60    2.60
  -1   6  19   -3.30    3.10
  -6  19   1    1.30    2.50
   6  19  -1    0.50    1.40
  -1  -7  19   30.30    4.50
   7  19   1   30.20    3.90
   1  -7  19   32.70    5.90
   7  19  -1   29.40    3.70
  -1   7  19   22.40    4.00
   8  19   1   -0.30    1.70
  -1  -8  19    1.20    2.10
   1  -8  19   -0.70    2.90
  -1   8  19   -0.30    3.60
   9  19  -1   12.70    2.10
   1  -9  19   11.50    3.20
   0  19   2   -1.70    1.50
   2   0  19    0.20    3.50
  -2   0  19   -1.90    2.00
   2   1  19    5.30    3.70
  -2  -1  19    1.60    2.30
  -1  19  -2    0.30    1.30
   1  19   2    0.00    1.40
  -1  19   2    0.50    1.70
  -2  -1 -19   -1.50    2.00
   2  -1  19    9.00    3.60
   1  19  -2   -0.50    1.30
  -2   1  19    2.10    2.20
   2  19  -2    6.70    1.60
  -2  19   2    8.10    2.10
  -4  19  -2   25.00    4.40
  -2  -4  19   34.20    4.50
   4  19   2   23.80    3.70
   4  19  -2   25.70    3.40
  -4  19   2   26.90    5.50
  -2   4  19   30.50    5.50
   2  -4  19   32.60    6.90
  -5  19  -2   -0.20    1.90
  -2  -5  19    2.70    1.80
   5  19   2    3.30    1.50
   5  19  -2    0.70    1.30
  -2   5  19    0.00    2.60
  -5  19   2    0.40    2.50
   2  -5  19    0.90    3.40
   2   5 -19   -1.70    1.60
   6  19   2   13.60    2.10
  -6  19  -2   10.40    2.50
   6  19  -2   15.60    3.20
   2  -6  19   16.20    4.00
  -2   6  19   10.40    3.00
  -7  19  -2   -3.40    2.40
  -2  -7  19    1.20    1.70
   7  19   2   -1.20    1.50
   2  -7  19    0.20    3.40
   7  19  -2   -0.90    1.40
  -2  -8  19    0.80    1.80
   8  19   2    0.90    1.60
   8  19  -2   -0.40    1.40
  -2   8  19   -2.50    3.40
   3   2 -19   -2.20    1.90
  -3  19  -3   -1.10    1.70
   3  19   3    1.00    1.70
  -3  -3  19   -1.80    2.00
  -3   3  19   -0.70    2.10
   3  19  -3    0.30    1.40
   4  19   3    2.00    1.50
  -4  19  -3   -0.30    1.70
  -3   4  19    3.80    2.40
   3  -4  19    4.30    4.30
  -4  19   3    2.00    2.30
   4  19  -3    2.20    1.40
   5  19   3    0.40    1.50
  -3  -5  19    2.70    1.60
  -3   5  19   -1.10    2.30
   5  19  -3    1.50    1.40
   3  -5  19    4.50    4.60
  -3   6 -19   -1.50    1.20
  -3  -6  19    3.00    1.80
   6  19   3   -0.50    1.70
   3   6 -19   -1.10    1.40
   6  19  -3   -0.20    1.30
   3  -6  19    3.50    4.50
  -3   6  19   -1.90    2.30
  -3  -7  19    7.20    1.90
   7  19   3    4.60    1.80
   7  19  -3    3.30    1.50
  -3   7  19    3.20    3.00
   3   7 -19    0.50    1.80
   3  -7  19   -1.40    4.50
  -3  -8  19    2.90    1.60
   8  19   3    0.80    1.80
   8  19  -3    1.10    1.60
  -3   8  19   -3.50    3.00
   3  -8  19   -2.20    4.80
  -4  -1  19    4.30    2.20
  -4  -2  19    0.00    1.90
  -2  19  -4   -2.10    1.40
   2  19   4    1.00    1.60
  -2  19   4    0.00    2.10
  -4   2  19    0.90    2.00
  -4  -3  19   -1.50    1.80
   3  19   4   -0.50    1.50
  -4   3  19   -0.80    1.90
  -3  19   4    0.10    2.30
   4  19   4    2.20    1.60
  -4  -4  19    3.30    1.80
  -4  19  -4   -1.70    1.70
   4  19  -4    2.20    1.20
   4   4 -19   -2.00    1.90
  -4   4  19    0.20    2.00
  -4  -5  19    2.60    1.60
   5  19   4    1.10    1.60
  -4   5  19    0.80    2.10
   5  19  -4    0.30    1.30
  -4  -6  19    0.30    1.70
   6  19   4    0.30    1.60
  -4   6  19   -2.90    2.20
   6  19  -4   -0.90    1.40
  -4  -7  19    2.60    1.60
   7  19   4    0.40    1.80
   7  19  -4   -2.20    1.40
  -4   7  19   -2.60    2.40
   8  19   4    0.50    1.80
  -4  -8  19    1.70    1.60
  -5   0  19   -0.90    1.70
   0  19   5    0.00    1.80
   1  19   5   22.80    4.20
  -5  -1  19   24.90    4.10
  -1  19   5   23.90    5.00
   1  19  -5   17.80    3.10
  -5   1  19   23.40    3.90
  -2  19  -5    4.30    1.50
   2  19   5    7.90    1.90
  -5  -2  19    5.40    1.90
  -5   2  19    5.00    1.90
   2  19  -5    3.80    1.40
  -2  19   5    6.00    2.30
  -3  19  -5    2.20    1.60
   3  19   5    3.70    1.80
  -5  -3  19    5.10    1.80
  -5   3  19    4.20    2.00
  -3  19   5    4.70    2.70
  -4  19  -5   -0.20    1.50
   4  19   5    5.20    1.80
  -5  -4  19    4.10    1.80
   4  19  -5    0.30    1.30
  -5   4  19    1.40    2.00
   5   4 -19   -0.40    2.30
   5  19   5    1.10    1.80
  -5  -5  19    4.70    1.80
  -5   5  19    1.30    2.00
   5  19  -5   -1.20    1.30
   5   5 -19   -2.50    2.10
   6  19   5    0.80    1.90
  -6  19  -5   -2.50    2.00
  -5  -6  19    1.20    1.50
   6  19  -5   -1.70    1.50
  -5   6  19    1.80    2.00
   7  19   5    1.20    2.00
  -7  19  -5   -2.80    2.30
  -5  -7  19    0.30    1.60
  -5   7  19   -0.40    2.30
   0  19   6   -1.50    2.10
   1  19   6    1.40    2.00
  -6  -1  19   -0.50    1.70
  -1  19   6    0.00    2.40
  -6   1  19   -1.90    1.70
  -6  -2  19   -2.00    1.70
   2  19   6    3.40    2.00
  -2  19   6    1.30    2.80
  -6   2  19   -0.10    1.70
  -6  -3  19    2.30    1.80
   3  19   6    5.70    1.90
  -3  19  -6    0.50    1.40
  -6   3  19    5.00    2.00
  -6  -4  19    0.90    1.70
   4  19   6    0.60    1.80
  -6   4  19   -1.10    1.90
   5  19   6    8.10    2.10
  -6   5  19   10.10    2.30
   6  19   6    4.20    2.10
  -6  -6  19    2.60    1.70
  -6   6  19    5.20    2.10
   0  19   7    2.90    2.60
  -7   0  19    1.10    1.70
  -1  19  -7   15.10    3.00
  -7   1 -19   13.70    2.20
   1  19  -7   17.00    3.00
  -7  -1 -19    8.90    2.70
  -7  -2  19    2.20    1.80
   2  19   7    7.20    2.40
  -7   2  19    0.80    1.70
   2  19  -7   -0.30    1.30
  -3  19  -7    2.10    1.50
  -7  -3  19    6.20    1.80
   3  19  -7    3.00    1.20
   4  19   7    5.50    2.00
  -7  -4  19    1.70    1.60
  -7   4  19    1.70    1.90
  -7  -5  19    5.80    1.80
   5  19   7    5.10    1.90
  -7   5  19    5.10    2.00
   0  19   8    4.90    2.90
  -8   0  19    1.40    1.70
   1  19   8    9.50    2.70
  -8  -1  19    7.80    1.90
  -8   1  19    5.40    1.80
  -8  -2  19    1.30    1.70
  -2  19  -8   -1.60    1.40
   2  19   8    2.50    2.20
  -8   2  19    0.90    1.70
   3  19   8    5.90    2.20
  -8  -3  19    1.90    1.60
  -8   3  19    2.80    1.70
  -8  -4  19    2.20    1.70
   4  19   8    4.00    2.10
  -8   4  19   -0.10    1.70
  -9   0  19   -0.20    1.70
  -9  -1  19    2.60    1.70
  -1  19   9   -2.50    2.80
  -9   1  19    2.30    1.80
   0   0  20    4.30    3.10
   0  20   0    5.20    1.70
   0  -1  20    2.50    2.90
   0   1  20   -1.00    3.30
  -1  20   0   -0.80    1.60
   2  20   0    2.90    1.60
   0  -2  20    8.80    3.00
   0   2  20    4.70    3.40
   0   2 -20    0.80    2.20
  -2  20   0    4.40    1.90
   0  -3  20    0.60    2.60
   0   3  20    1.00    3.40
   3  20   0   -0.50    1.50
   0   3 -20   -2.90    2.00
  -3  20   0    1.40    1.80
   0  -4  20   -0.60    2.60
   4  20   0   -0.10    1.50
  -4  20   0    1.40    2.20
   0   4  20    2.90    3.80
   0  -5  20    0.40    2.60
  -5  20   0    0.90    2.50
   6  20   0    8.00    1.70
   0  -6  20    8.00    2.90
  -1   0  20    0.10    2.70
   0  20  -1   -0.20    1.40
   0  20   1   -0.60    1.70
   1   0  20    7.20    3.60
  -1  -1  20    5.00    2.90
   1  20   1    2.50    1.60
  -1  20  -1    5.80    1.60
   1   1  20    5.50    3.70
  -1  20   1    4.80    1.90
   1  20  -1    3.30    1.60
   1  -1  20    9.20    3.40
  -1   1  20    3.80    3.10
   2  20   1    0.30    1.50
  -2  20  -1    2.30    1.60
  -1  -2  20    2.80    2.50
   2  20  -1    0.00    1.50
   1  -2  20    2.60    3.10
  -1   2  20    0.80    2.80
  -2  20   1    0.20    1.90
   3  20   1   50.49    4.60
  -3  20  -1   56.79    5.30
  -1  -3  20   54.79    5.90
   1  -3  20   55.69    7.10
  -1   3  20   60.29    7.20
   3  20  -1   48.90    4.40
  -3  20   1   55.79    6.00
   4  20   1    1.40    1.40
  -1  -4  20    0.40    2.30
  -4  20  -1    0.80    2.10
  -1   4  20    0.60    3.20
   1  -4  20    0.90    3.20
  -4  20   1   -0.30    2.40
   4  20  -1    1.40    1.50
  -1  -5  20   51.49    5.60
  -5  20  -1   44.10    6.00
   5  20   1   57.49    4.50
  -1   5  20   59.19    7.90
   1  -5  20   59.29    7.20
   5  20  -1   54.09    4.30
  -5  20   1   49.10    7.50
  -6  20  -1   -2.20    2.80
   6  20   1   -2.40    1.60
  -1  -6  20   -0.40    2.50
   1  -6  20   -1.40    3.40
  -1   6  20   -0.10    3.70
   0  20  -2   -0.30    1.40
  -2   0  20   -2.50    2.50
   0  20   2    1.10    1.70
   1  20   2   -1.70    1.50
  -1  20  -2   -0.60    1.60
  -2  -1  20   -1.80    2.20
   1  20  -2   -1.20    1.40
  -1  20   2   -2.70    1.80
  -2   1  20   -1.70    2.50
  -2  -2  20   -1.00    2.40
   2  20   2    0.30    1.50
  -2   2 -20   -2.80    2.00
  -2  20  -2   -2.30    1.50
   2  -2  20    1.90    4.10
  -2   2  20    2.70    2.70
  -2  20   2   -0.40    1.90
   2  20  -2   -1.90    1.30
  -2  -3  20    0.40    2.30
   3  20   2    0.60    1.50
   3  20  -2   -1.60    1.30
   2  -3  20    2.00    4.00
  -2   3  20    0.90    2.60
  -3  20   2   -0.40    2.20
  -2  -4  20    0.30    2.10
   4  20   2    1.10    1.60
  -2   4  20   -0.60    2.80
   2  -4  20   -0.40    4.10
  -4  20   2   -3.70    2.60
   4  20  -2   -1.60    1.40
  -2  -5  20   -0.70    2.10
   5  20   2   -0.90    1.60
  -2   5  20   -1.90    2.90
   5  20  -2   -0.90    1.30
   2  -5  20    2.10    4.30
  -6  20  -2   -1.70    2.60
   6  20   2    2.30    1.70
  -2  -6  20    2.40    1.90
  -2   6  20    1.80    3.40
   2  -6  20    6.80    4.40
   6  20  -2    2.00    1.50
  -3   0 -20    4.00    2.80
  -3   0  20    9.60    2.50
   0  20  -3    9.10    1.80
   0  20   3    8.00    2.00
  -3  -1  20    0.00    2.30
   1  20   3   -0.10    1.70
  -1  20  -3   -1.30    1.40
  -3   1  20    1.10    2.40
  -1  20   3    0.20    2.00
   1  20  -3   -0.90    1.40
  -2  20  -3    0.80    1.50
  -3  -2  20    1.30    2.30
   2  20   3    3.00    1.80
   2  20  -3    2.30    1.30
  -3   2  20    2.00    2.40
  -2  20   3    3.80    2.30
  -3  20  -3    8.10    1.90
   3  20   3    8.40    2.00
  -3  20   3   11.90    2.90
  -3   3  20    9.30    2.70
   3  20  -3    5.80    1.50
   4  20   3    0.60    1.70
  -3  -4  20    0.90    1.90
  -3   4  20   -0.30    2.50
   5  20   3    6.60    2.10
  -5  20  -3    0.70    2.10
   5  20  -3    4.10    1.50
  -3   5  20    5.50    2.80
   0  20   4    3.50    2.20
  -4   0  20   -0.50    2.00
  -1  20  -4   -1.80    1.40
  -4  -1  20   -1.60    2.00
   1  20   4   -0.70    1.90
  -4   1  20   -0.30    2.30
  -1  20   4    0.20    2.30
   2  20   4    1.30    1.90
  -2  20   4    3.40    2.70
  -4   2  20   -0.30    2.10
   3  20   4    2.50    1.80
  -4  -3  20    3.90    2.10
  -3  20   4    6.30    3.50
  -4   3  20    0.90    2.10
  -4  -4  20    0.10    1.90
   4  20   4    2.30    1.90
  -4   4  20   -0.80    2.20
  -4  -5  20    0.10    1.70
   5  20   4    1.50    1.90
  -4   5  20   -2.80    2.30
  -5   0  20   13.60    2.50
   0  20   5   11.80    2.80
   1  20   5   -0.70    2.20
  -1  20   5    0.40    2.50
  -5   1  20    0.00    1.90
  -2  20  -5    4.90    1.70
  -5  -2  20    5.70    2.00
  -2  20   5    9.60    3.20
   2  20  -5    2.90    1.30
   3  20   5    0.70    2.00
  -5   3  20    0.70    2.10
  -5  -4  20    3.60    1.80
   4  20   5    2.10    1.90
  -5   4  20    3.00    2.20
   0  20   6   10.60    3.10
  -6   0  20   12.70    2.30
  -6  -1  20   -1.50    1.80
   1  20   6   -0.70    2.60
  -1  20   6    1.30    3.10
  -6   1  20    0.90    1.80
  -6  -2  20    7.20    2.10
   2  20   6    5.10    2.40
  -6   2  20    7.40    2.20
   0   0  21    9.20    3.80
   1  21   0   -1.40    1.60
  -1  21   0   -0.20    1.80
   0   1  21    1.10    4.00
   0  -1  21    4.00    3.30
   0  21  -1   -2.70    1.70
   0  21   1   -0.40    1.80
  -1   0  21   -1.10    3.50
   1  21   1    9.90    1.90
  -1  21  -1   11.60    2.20
  -1  21   1   11.10    2.30
  -1   1  21   15.90    3.70
   1  21  -1   10.70    1.90

_computing_structure_solution     'SHELXT 2014/4 (Sheldrick, 2014)'
;
_shelx_hkl_checksum              37533
_shelx_fab_file
;
    1    1    1   -403.58      0.00
    0    0    2    -94.16      0.00
    1    0    2   -265.99      0.00
    1    1    2    127.87      0.00
    0    2    2    -49.65      0.00
    1    2    2    106.42      0.00
    2    2    2      6.39      0.00
    0    2    3     40.91      0.00
    1    1    3     30.12      0.00
    1    2    3     13.42      0.00
    2    1    3   -107.12      0.00
    2    2    3     48.05      0.00
    1    3    3     26.65      0.00
    2    3    3    -25.36      0.00
    3    3    3      0.46      0.00
    0    0    4    139.77      0.00
    0    2    4     76.46      0.00
    1    0    4    -47.60      0.00
    1    1    4      7.43      0.00
    1    2    4     37.18      0.00
    1    3    4    -18.52      0.00
    2    0    4    -12.51      0.00
    2    1    4    -15.54      0.00
    2    2    4     10.28      0.00
    2    3    4     30.48      0.00
    3    0    4     46.99      0.00
    3    1    4    -31.10      0.00
    3    2    4      2.52      0.00
    3    3    4    -38.89      0.00
    0    4    4      1.26      0.00
    1    4    4    -17.24      0.00
    2    4    4    -38.61      0.00
    3    4    4    -14.87      0.00
    4    4    4     24.67      0.00
    0    2    5     -4.43      0.00
    0    4    5      6.39      0.00
    1    1    5    -28.36      0.00
    1    2    5     38.49      0.00
    1    3    5     20.86      0.00
    1    4    5     12.28      0.00
    2    1    5     49.09      0.00
    2    2    5      4.79      0.00
    2    3    5      5.79      0.00
    2    4    5     -4.07      0.00
    3    1    5      4.49      0.00
    3    2    5    -38.06      0.00
    3    3    5     -1.42      0.00
    3    4    5     15.00      0.00
    4    1    5     -0.48      0.00
    4    2    5    -18.67      0.00
    4    3    5      5.43      0.00
    4    4    5      0.21      0.00
    1    5    5    -15.43      0.00
    2    5    5      4.35      0.00
    3    5    5      2.86      0.00
    4    5    5      1.87      0.00
    5    5    5    -20.33      0.00
    0    0    6    -66.17      0.00
    0    2    6     -7.69      0.00
    0    4    6    -19.02      0.00
    1    0    6    -23.56      0.00
    1    1    6     16.09      0.00
    1    2    6     11.48      0.00
    1    3    6     -9.95      0.00
    1    4    6    -10.87      0.00
    1    5    6     -8.38      0.00
    2    0    6    -20.30      0.00
    2    1    6     -5.63      0.00
    2    2    6      9.09      0.00
    2    3    6      6.53      0.00
    2    4    6      0.04      0.00
    2    5    6     -2.32      0.00
    3    0    6     16.25      0.00
    3    1    6     -7.01      0.00
    3    2    6      2.49      0.00
    3    3    6      1.97      0.00
    3    4    6     16.80      0.00
    3    5    6     13.12      0.00
    4    0    6      2.56      0.00
    4    1    6      9.15      0.00
    4    2    6      2.56      0.00
    4    3    6     -3.81      0.00
    4    4    6     -0.93      0.00
    4    5    6     -3.10      0.00
    5    0    6     -9.66      0.00
    5    1    6     13.71      0.00
    5    2    6     10.70      0.00
    5    3    6     -3.52      0.00
    5    4    6     -6.46      0.00
    5    5    6      5.38      0.00
    0    6    6     -3.28      0.00
    1    6    6     -1.36      0.00
    2    6    6      9.77      0.00
    3    6    6      0.83      0.00
    4    6    6      1.46      0.00
    5    6    6     -0.71      0.00
    6    6    6      0.60      0.00
    0    2    7      5.81      0.00
    0    4    7     12.19      0.00
    0    6    7     -3.04      0.00
    1    1    7      6.19      0.00
    1    2    7      3.02      0.00
    1    3    7     -4.22      0.00
    1    4    7    -13.45      0.00
    1    5    7     -6.01      0.00
    1    6    7     -0.10      0.00
    2    1    7    -10.87      0.00
    2    2    7     -1.71      0.00
    2    3    7     -8.78      0.00
    2    4    7     -2.79      0.00
    2    5    7      0.99      0.00
    2    6    7     -0.59      0.00
    3    1    7     -1.67      0.00
    3    2    7     -5.57      0.00
    3    3    7     -1.80      0.00
    3    4    7      1.81      0.00
    3    5    7      3.26      0.00
    3    6    7      0.31      0.00
    4    1    7     -6.16      0.00
    4    2    7      6.79      0.00
    4    3    7     -6.40      0.00
    4    4    7      5.00      0.00
    4    5    7      9.24      0.00
    4    6    7      0.75      0.00
    5    1    7      8.41      0.00
    5    2    7      6.56      0.00
    5    3    7      4.88      0.00
    5    4    7      0.68      0.00
    5    5    7      0.93      0.00
    5    6    7      0.77      0.00
    6    1    7     -0.21      0.00
    6    2    7      2.85      0.00
    6    3    7      3.62      0.00
    6    4    7      0.58      0.00
    6    5    7     -0.81      0.00
    6    6    7      2.32      0.00
    1    7    7      6.71      0.00
    2    7    7      1.96      0.00
    3    7    7     -1.58      0.00
    4    7    7      0.77      0.00
    5    7    7     -2.54      0.00
    6    7    7     -4.51      0.00
    7    7    7     -0.43      0.00
    0    0    8     -8.13      0.00
    0    2    8     10.95      0.00
    0    4    8     -3.03      0.00
    0    6    8     -1.86      0.00
    1    0    8     -3.10      0.00
    1    1    8     -6.74      0.00
    1    2    8      2.95      0.00
    1    3    8      3.04      0.00
    1    4    8     -2.26      0.00
    1    5    8      5.62      0.00
    1    6    8      3.41      0.00
    1    7    8      2.60      0.00
    2    0    8      6.95      0.00
    2    1    8    -10.29      0.00
    2    2    8      0.23      0.00
    2    3    8      1.17      0.00
    2    4    8     -7.09      0.00
    2    5    8      1.33      0.00
    2    6    8      1.12      0.00
    2    7    8     -2.76      0.00
    3    0    8      1.08      0.00
    3    1    8     -9.32      0.00
    3    2    8    -11.05      0.00
    3    3    8     -4.26      0.00
    3    4    8      4.46      0.00
    3    5    8     -2.68      0.00
    3    6    8     -5.12      0.00
    3    7    8     -5.10      0.00
    4    0    8     -2.33      0.00
    4    1    8      1.45      0.00
    4    2    8     -3.63      0.00
    4    3    8      0.83      0.00
    4    4    8      3.23      0.00
    4    5    8      1.07      0.00
    4    6    8     -1.20      0.00
    4    7    8     -4.85      0.00
    5    0    8     -2.94      0.00
    5    1    8      2.08      0.00
    5    2    8      0.04      0.00
    5    3    8      2.27      0.00
    5    4    8     -1.57      0.00
    5    5    8      0.42      0.00
    5    6    8     -1.89      0.00
    5    7    8     -0.96      0.00
    6    0    8      1.09      0.00
    6    1    8     -4.07      0.00
    6    2    8      1.53      0.00
    6    3    8      5.92      0.00
    6    4    8      1.39      0.00
    6    5    8     -6.00      0.00
    6    6    8      1.82      0.00
    6    7    8      1.15      0.00
    7    0    8      3.99      0.00
    7    1    8     -4.48      0.00
    7    2    8     -5.22      0.00
    7    3    8      4.70      0.00
    7    4    8     -1.81      0.00
    7    5    8     -3.93      0.00
    7    6    8     -0.40      0.00
    7    7    8     -3.68      0.00
    0    8    8    -11.77      0.00
    1    8    8     -2.20      0.00
    2    8    8     -1.75      0.00
    3    8    8     -3.01      0.00
    4    8    8     -0.06      0.00
    5    8    8      0.86      0.00
    6    8    8     -2.70      0.00
    7    8    8      2.17      0.00
    8    8    8      4.15      0.00
    0    2    9      2.08      0.00
    0    4    9      0.30      0.00
    0    6    9     -3.84      0.00
    0    8    9      3.21      0.00
    1    1    9      1.36      0.00
    1    2    9      0.68      0.00
    1    3    9      2.25      0.00
    1    4    9      0.64      0.00
    1    5    9      1.39      0.00
    1    6    9      4.36      0.00
    1    7    9      3.65      0.00
    1    8    9     -3.59      0.00
    2    1    9     -2.11      0.00
    2    2    9     -4.09      0.00
    2    3    9     -0.19      0.00
    2    4    9      1.02      0.00
    2    5    9     -0.41      0.00
    2    6    9      0.46      0.00
    2    7    9     -1.21      0.00
    2    8    9     -0.42      0.00
    3    1    9     -5.15      0.00
    3    2    9     -0.92      0.00
    3    3    9      4.61      0.00
    3    4    9      2.81      0.00
    3    5    9      0.59      0.00
    3    6    9     -2.27      0.00
    3    7    9     -0.08      0.00
    3    8    9     -2.39      0.00
    4    1    9      0.86      0.00
    4    2    9      0.94      0.00
    4    3    9     -1.61      0.00
    4    4    9      2.22      0.00
    4    5    9     -1.91      0.00
    4    6    9     -4.55      0.00
    4    7    9     -3.78      0.00
    4    8    9     -0.42      0.00
    5    1    9     -0.19      0.00
    5    2    9      2.23      0.00
    5    3    9      0.46      0.00
    5    4    9     -1.36      0.00
    5    5    9     -4.40      0.00
    5    6    9      1.64      0.00
    5    7    9      0.71      0.00
    5    8    9     -1.23      0.00
    6    1    9     -1.89      0.00
    6    2    9      0.92      0.00
    6    3    9     -1.78      0.00
    6    4    9     -1.88      0.00
    6    5    9     -2.48      0.00
    6    6    9     -0.48      0.00
    6    7    9      1.24      0.00
    6    8    9      1.76      0.00
    7    1    9      2.39      0.00
    7    2    9     -0.84      0.00
    7    3    9      0.94      0.00
    7    4    9      0.66      0.00
    7    5    9     -0.10      0.00
    7    6    9     -1.53      0.00
    7    7    9      2.09      0.00
    7    8    9      2.60      0.00
    8    1    9      1.86      0.00
    8    2    9      0.23      0.00
    8    3    9      0.03      0.00
    8    4    9     -1.47      0.00
    8    5    9      1.58      0.00
    8    6    9      1.62      0.00
    8    7    9      1.69      0.00
    8    8    9     -1.38      0.00
    1    9    9      0.58      0.00
    2    9    9      0.30      0.00
    3    9    9     -0.25      0.00
    4    9    9      0.12      0.00
    5    9    9      0.13      0.00
    6    9    9      2.00      0.00
    7    9    9      1.14      0.00
    8    9    9     -0.91      0.00
    9    9    9      0.73      0.00
    0    0   10      1.56      0.00
    0    2   10      2.61      0.00
    0    4   10      2.81      0.00
    0    6   10      1.87      0.00
    0    8   10     -0.62      0.00
    1    0   10      3.05      0.00
    1    1   10      1.48      0.00
    1    2   10     -2.67      0.00
    1    3   10      2.17      0.00
    1    4   10     -1.61      0.00
    1    5   10     -1.85      0.00
    1    6   10      2.85      0.00
    1    7   10     -0.23      0.00
    1    8   10     -1.07      0.00
    1    9   10     -0.58      0.00
    2    0   10      2.43      0.00
    2    1   10     -0.72      0.00
    2    2   10      4.55      0.00
    2    3   10      1.07      0.00
    2    4   10      2.53      0.00
    2    5   10      0.62      0.00
    2    6   10      5.16      0.00
    2    7   10      0.44      0.00
    2    8   10     -1.02      0.00
    2    9   10     -0.31      0.00
    3    0   10      2.89      0.00
    3    1   10      2.65      0.00
    3    2   10     -1.68      0.00
    3    3   10      1.38      0.00
    3    4   10      2.33      0.00
    3    5   10      1.52      0.00
    3    6   10     -2.12      0.00
    3    7   10     -0.29      0.00
    3    8   10      1.20      0.00
    3    9   10      2.71      0.00
    4    0   10      2.87      0.00
    4    1   10      4.60      0.00
    4    2   10      2.19      0.00
    4    3   10      0.49      0.00
    4    4   10     -2.21      0.00
    4    5   10      0.76      0.00
    4    6   10     -0.23      0.00
    4    7   10      0.26      0.00
    4    8   10      0.50      0.00
    4    9   10      2.55      0.00
    5    0   10      3.04      0.00
    5    1   10      3.48      0.00
    5    2   10      5.25      0.00
    5    3   10     -2.09      0.00
    5    4   10     -4.52      0.00
    5    5   10      2.12      0.00
    5    6   10      0.96      0.00
    5    7   10      1.89      0.00
    5    8   10     -0.98      0.00
    5    9   10     -0.24      0.00
    6    0   10     -1.07      0.00
    6    1   10     -2.85      0.00
    6    2   10      0.50      0.00
    6    3   10     -1.69      0.00
    6    4   10     -1.16      0.00
    6    5   10     -3.33      0.00
    6    6   10     -0.12      0.00
    6    7   10      0.17      0.00
    6    8   10      1.15      0.00
    6    9   10      1.79      0.00
    7    0   10      1.19      0.00
    7    1   10     -0.75      0.00
    7    2   10      0.93      0.00
    7    3   10     -2.39      0.00
    7    4   10     -0.36      0.00
    7    5   10      1.15      0.00
    7    6   10      2.98      0.00
    7    7   10      2.17      0.00
    7    8   10      2.01      0.00
    7    9   10     -0.71      0.00
    8    0   10     -3.09      0.00
    8    1   10      1.94      0.00
    8    2   10    -10.52      0.00
    8    3   10      0.82      0.00
    8    4   10     -0.61      0.00
    8    5   10      3.14      0.00
    8    6   10      2.15      0.00
    8    7   10      1.63      0.00
    8    8   10     -2.86      0.00
    8    9   10     -1.58      0.00
    9    0   10     -1.37      0.00
    9    1   10      2.27      0.00
    9    2   10      2.06      0.00
    9    3   10     -0.36      0.00
    9    4   10      1.68      0.00
    9    5   10      1.21      0.00
    9    6   10      1.54      0.00
    9    7   10      1.50      0.00
    9    8   10     -1.39      0.00
    9    9   10     -1.84      0.00
    0   10   10     -0.67      0.00
    1   10   10      0.58      0.00
    2   10   10      1.66      0.00
    3   10   10      0.82      0.00
    4   10   10      0.60      0.00
    5   10   10      0.36      0.00
    6   10   10     -0.95      0.00
    7   10   10     -2.33      0.00
    8   10   10      0.88      0.00
    9   10   10     -1.29      0.00
   10   10   10     -2.62      0.00
    0    2   11     -0.31      0.00
    0    4   11      0.87      0.00
    0    6   11     -1.71      0.00
    0    8   11      1.06      0.00
    0   10   11     -0.30      0.00
    1    1   11      2.64      0.00
    1    2   11      0.54      0.00
    1    3   11     -0.77      0.00
    1    4   11     -2.54      0.00
    1    5   11      0.47      0.00
    1    6   11      0.62      0.00
    1    7   11     -0.26      0.00
    1    8   11     -3.42      0.00
    1    9   11      0.15      0.00
    1   10   11     -0.05      0.00
    2    1   11      1.31      0.00
    2    2   11     -0.75      0.00
    2    3   11      1.59      0.00
    2    4   11      0.29      0.00
    2    5   11      1.04      0.00
    2    6   11     -2.59      0.00
    2    7   11      1.37      0.00
    2    8   11     -0.09      0.00
    2    9   11      0.64      0.00
    2   10   11     -1.14      0.00
    3    1   11     -2.13      0.00
    3    2   11      0.59      0.00
    3    3   11     -2.42      0.00
    3    4   11      0.83      0.00
    3    5   11     -1.20      0.00
    3    6   11     -1.29      0.00
    3    7   11     -0.66      0.00
    3    8   11      4.03      0.00
    3    9   11     -0.46      0.00
    3   10   11      1.19      0.00
    4    1   11      5.79      0.00
    4    2   11     -0.09      0.00
    4    3   11     -0.71      0.00
    4    4   11      0.22      0.00
    4    5   11      1.76      0.00
    4    6   11     -2.71      0.00
    4    7   11      0.47      0.00
    4    8   11      1.42      0.00
    4    9   11     -0.61      0.00
    4   10   11     -0.87      0.00
    5    1   11     -1.47      0.00
    5    2   11      1.14      0.00
    5    3   11     -2.21      0.00
    5    4   11     -0.56      0.00
    5    5   11     -1.95      0.00
    5    6   11      2.38      0.00
    5    7   11      1.40      0.00
    5    8   11      1.17      0.00
    5    9   11      0.87      0.00
    5   10   11      0.05      0.00
    6    1   11     -0.21      0.00
    6    2   11     -1.85      0.00
    6    3   11      5.52      0.00
    6    4   11     -0.50      0.00
    6    5   11      1.76      0.00
    6    6   11     -3.03      0.00
    6    7   11      1.70      0.00
    6    8   11      0.90      0.00
    6    9   11     -0.95      0.00
    6   10   11     -0.48      0.00
    7    1   11      1.46      0.00
    7    2   11     -1.67      0.00
    7    3   11     -1.11      0.00
    7    4   11      1.32      0.00
    7    5   11     -2.60      0.00
    7    6   11      1.76      0.00
    7    7   11      0.88      0.00
    7    8   11      3.16      0.00
    7    9   11     -3.22      0.00
    7   10   11     -0.48      0.00
    8    1   11     -0.19      0.00
    8    2   11     -0.07      0.00
    8    3   11     -1.72      0.00
    8    4   11      0.90      0.00
    8    5   11      0.76      0.00
    8    6   11      1.17      0.00
    8    7   11      0.17      0.00
    8    8   11     -2.65      0.00
    8    9   11      2.22      0.00
    8   10   11      2.30      0.00
    9    1   11      3.08      0.00
    9    2   11     -1.45      0.00
    9    3   11      3.32      0.00
    9    4   11     -0.52      0.00
    9    5   11      0.37      0.00
    9    6   11      1.30      0.00
    9    7   11      0.60      0.00
    9    8   11     -1.13      0.00
    9    9   11     -1.64      0.00
    9   10   11     -3.92      0.00
   10    1   11     -0.27      0.00
   10    2   11     -1.46      0.00
   10    3   11     -0.13      0.00
   10    4   11     -0.76      0.00
   10    5   11     -1.80      0.00
   10    6   11     -1.21      0.00
   10    7   11     -2.45      0.00
   10    8   11     -1.07      0.00
   10    9   11     -1.82      0.00
   10   10   11      1.88      0.00
    1   11   11      0.24      0.00
    2   11   11      0.31      0.00
    3   11   11     -0.32      0.00
    4   11   11      1.51      0.00
    5   11   11     -3.22      0.00
    6   11   11     -1.28      0.00
    7   11   11      1.24      0.00
    8   11   11      1.39      0.00
    9   11   11      0.66      0.00
   10   11   11      2.50      0.00
   11   11   11     -1.25      0.00
    0    0   12     -1.59      0.00
    0    2   12     -2.77      0.00
    0    4   12     -4.10      0.00
    0    6   12     -3.26      0.00
    0    8   12     -0.50      0.00
    0   10   12     -1.67      0.00
    1    0   12      1.70      0.00
    1    1   12     -2.46      0.00
    1    2   12      1.24      0.00
    1    3   12     -0.29      0.00
    1    4   12      1.38      0.00
    1    5   12      0.02      0.00
    1    6   12      2.92      0.00
    1    7   12     -1.13      0.00
    1    8   12      1.20      0.00
    1    9   12     -0.36      0.00
    1   10   12     -0.84      0.00
    1   11   12     -1.14      0.00
    2    0   12     -2.02      0.00
    2    1   12     -1.96      0.00
    2    2   12     -2.47      0.00
    2    3   12     -1.67      0.00
    2    4   12     -2.02      0.00
    2    5   12     -1.05      0.00
    2    6   12     -2.34      0.00
    2    7   12     -0.16      0.00
    2    8   12      0.38      0.00
    2    9   12      1.13      0.00
    2   10   12     -1.19      0.00
    2   11   12      3.81      0.00
    3    0   12      4.56      0.00
    3    1   12      0.03      0.00
    3    2   12      0.17      0.00
    3    3   12     -0.27      0.00
    3    4   12      2.16      0.00
    3    5   12     -0.51      0.00
    3    6   12     -0.77      0.00
    3    7   12      6.95      0.00
    3    8   12      0.90      0.00
    3    9   12     -0.36      0.00
    3   10   12     -0.73      0.00
    3   11   12     -1.50      0.00
    4    0   12     -1.55      0.00
    4    1   12      0.00      0.00
    4    2   12     -2.12      0.00
    4    3   12     -0.94      0.00
    4    4   12     -2.26      0.00
    4    5   12      1.38      0.00
    4    6   12      0.93      0.00
    4    7   12      0.69      0.00
    4    8   12     -0.65      0.00
    4    9   12      1.35      0.00
    4   10   12      0.52      0.00
    4   11   12     -4.07      0.00
    5    0   12     -0.36      0.00
    5    1   12     -3.97      0.00
    5    2   12     -0.55      0.00
    5    3   12      0.22      0.00
    5    4   12      0.60      0.00
    5    5   12     -0.79      0.00
    5    6   12      2.01      0.00
    5    7   12      0.10      0.00
    5    8   12     -2.30      0.00
    5    9   12      0.97      0.00
    5   10   12     -0.14      0.00
    5   11   12      0.84      0.00
    6    0   12      0.25      0.00
    6    1   12     -1.72      0.00
    6    2   12      0.71      0.00
    6    3   12     -0.25      0.00
    6    4   12     -2.56      0.00
    6    5   12     -5.43      0.00
    6    6   12      2.44      0.00
    6    7   12      0.55      0.00
    6    8   12      0.15      0.00
    6    9   12     -7.55      0.00
    6   10   12     -3.02      0.00
    6   11   12      1.71      0.00
    7    0   12     -0.15      0.00
    7    1   12     -0.06      0.00
    7    2   12     -3.88      0.00
    7    3   12      2.74      0.00
    7    4   12      1.65      0.00
    7    5   12      0.17      0.00
    7    6   12      2.29      0.00
    7    7   12      2.08      0.00
    7    8   12     -1.96      0.00
    7    9   12     -0.70      0.00
    7   10   12      2.27      0.00
    7   11   12     -0.07      0.00
    8    0   12      2.18      0.00
    8    1   12     -1.03      0.00
    8    2   12     -1.67      0.00
    8    3   12     -1.42      0.00
    8    4   12      0.48      0.00
    8    5   12      0.31      0.00
    8    6   12      0.19      0.00
    8    7   12     -1.27      0.00
    8    8   12     -1.03      0.00
    8    9   12     -1.61      0.00
    8   10   12      1.15      0.00
    8   11   12      0.57      0.00
    9    0   12      0.41      0.00
    9    1   12      0.66      0.00
    9    2   12      2.81      0.00
    9    3   12      0.33      0.00
    9    4   12      0.47      0.00
    9    5   12      0.52      0.00
    9    6   12     -1.86      0.00
    9    7   12     -0.72      0.00
    9    8   12     -3.32      0.00
    9    9   12     -0.49      0.00
    9   10   12     -0.07      0.00
    9   11   12      0.82      0.00
   10    0   12      2.45      0.00
   10    1   12     -1.30      0.00
   10    2   12     -0.01      0.00
   10    3   12      1.70      0.00
   10    4   12      0.26      0.00
   10    5   12     -2.19      0.00
   10    6   12      3.74      0.00
   10    7   12      0.15      0.00
   10    8   12      0.13      0.00
   10    9   12     -0.05      0.00
   10   10   12      0.20      0.00
   10   11   12      2.13      0.00
   11    0   12      0.36      0.00
   11    1   12     -0.48      0.00
   11    2   12     -0.05      0.00
   11    3   12      3.02      0.00
   11    4   12     -1.38      0.00
   11    5   12      0.33      0.00
   11    6   12     -0.78      0.00
   11    7   12      0.32      0.00
   11    8   12      1.40      0.00
   11    9   12      3.70      0.00
   11   10   12     -0.71      0.00
   11   11   12      1.38      0.00
    0   12   12      1.11      0.00
    1   12   12      1.15      0.00
    2   12   12      0.45      0.00
    3   12   12      0.65      0.00
    4   12   12      0.48      0.00
    5   12   12      2.17      0.00
    6   12   12      0.60      0.00
    7   12   12     -0.27      0.00
    8   12   12      0.80      0.00
    9   12   12      0.30      0.00
   10   12   12      0.22      0.00
   11   12   12      0.53      0.00
   12   12   12      0.94      0.00
    0    2   13     -2.84      0.00
    0    4   13     -3.48      0.00
    0    6   13      0.71      0.00
    0    8   13     -0.48      0.00
    0   10   13     -3.23      0.00
    0   12   13      0.93      0.00
    1    1   13     -2.78      0.00
    1    2   13      2.80      0.00
    1    3   13     -2.44      0.00
    1    4   13      2.36      0.00
    1    5   13     -0.68      0.00
    1    6   13      0.78      0.00
    1    7   13     -0.83      0.00
    1    8   13     -3.36      0.00
    1    9   13      1.10      0.00
    1   10   13     -0.36      0.00
    1   11   13      2.01      0.00
    1   12   13     -1.04      0.00
    2    1   13     -2.93      0.00
    2    2   13     -0.34      0.00
    2    3   13      1.27      0.00
    2    4   13      0.50      0.00
    2    5   13     -1.55      0.00
    2    6   13     -0.66      0.00
    2    7   13      1.82      0.00
    2    8   13      2.20      0.00
    2    9   13      0.96      0.00
    2   10   13      0.21      0.00
    2   11   13     -3.13      0.00
    2   12   13      0.25      0.00
    3    1   13      1.38      0.00
    3    2   13     -2.34      0.00
    3    3   13      0.22      0.00
    3    4   13     -0.95      0.00
    3    5   13      0.77      0.00
    3    6   13     -0.28      0.00
    3    7   13      0.06      0.00
    3    8   13      0.36      0.00
    3    9   13     -0.60      0.00
    3   10   13     -2.20      0.00
    3   11   13      0.80      0.00
    3   12   13     -1.84      0.00
    4    1   13      0.34      0.00
    4    2   13     -0.08      0.00
    4    3   13     -1.58      0.00
    4    4   13     -2.16      0.00
    4    5   13     -1.52      0.00
    4    6   13     -2.79      0.00
    4    7   13     -1.24      0.00
    4    8   13     -1.43      0.00
    4    9   13     -1.74      0.00
    4   10   13     -1.70      0.00
    4   11   13     -0.55      0.00
    4   12   13      1.96      0.00
    5    1   13     -0.21      0.00
    5    2   13     -0.28      0.00
    5    3   13      7.52      0.00
    5    4   13     -1.90      0.00
    5    5   13      1.66      0.00
    5    6   13      0.78      0.00
    5    7   13      0.36      0.00
    5    8   13      0.30      0.00
    5    9   13      0.51      0.00
    5   10   13      0.73      0.00
    5   11   13      0.14      0.00
    5   12   13      0.33      0.00
    6    1   13     -3.52      0.00
    6    2   13      0.44      0.00
    6    3   13     -2.34      0.00
    6    4   13      1.87      0.00
    6    5   13      1.15      0.00
    6    6   13      2.83      0.00
    6    7   13      0.60      0.00
    6    8   13     -0.90      0.00
    6    9   13     -0.30      0.00
    6   10   13      0.20      0.00
    6   11   13     -1.35      0.00
    6   12   13      1.90      0.00
    7    1   13      0.76      0.00
    7    2   13      3.28      0.00
    7    3   13      2.22      0.00
    7    4   13      2.76      0.00
    7    5   13      1.36      0.00
    7    6   13      2.19      0.00
    7    7   13      0.31      0.00
    7    8   13      0.61      0.00
    7    9   13     -0.85      0.00
    7   10   13      1.51      0.00
    7   11   13     -1.15      0.00
    7   12   13      1.47      0.00
    8    1   13     -2.83      0.00
    8    2   13     -0.76      0.00
    8    3   13     -1.57      0.00
    8    4   13     -0.94      0.00
    8    5   13     -2.48      0.00
    8    6   13     -1.26      0.00
    8    7   13     -4.78      0.00
    8    8   13      0.24      0.00
    8    9   13     -2.01      0.00
    8   10   13      0.28      0.00
    8   11   13     -0.92      0.00
    8   12   13      0.01      0.00
    9    1   13      0.33      0.00
    9    2   13      0.00      0.00
    9    3   13      6.55      0.00
    9    4   13     -1.19      0.00
    9    5   13     -1.95      0.00
    9    6   13     -0.38      0.00
    9    7   13     -0.94      0.00
    9    8   13     -1.25      0.00
    9    9   13      1.74      0.00
    9   10   13      1.55      0.00
    9   11   13      2.12      0.00
    9   12   13      1.72      0.00
   10    1   13     -0.51      0.00
   10    2   13     -0.16      0.00
   10    3   13      0.68      0.00
   10    4   13     -0.20      0.00
   10    5   13     -3.45      0.00
   10    6   13     -0.18      0.00
   10    7   13      3.24      0.00
   10    8   13      2.36      0.00
   10    9   13      1.62      0.00
   10   10   13      2.44      0.00
   10   11   13      0.34      0.00
   10   12   13     -2.13      0.00
   11    1   13     -1.04      0.00
   11    2   13      1.78      0.00
   11    3   13     -0.44      0.00
   11    4   13     -0.82      0.00
   11    5   13      0.44      0.00
   11    6   13      0.40      0.00
   11    7   13     -1.06      0.00
   11    8   13      3.15      0.00
   11    9   13      0.53      0.00
   11   10   13     -0.50      0.00
   11   11   13     -1.14      0.00
   11   12   13     -0.71      0.00
   12    1   13      1.42      0.00
   12    2   13      0.49      0.00
   12    3   13     -1.36      0.00
   12    4   13      1.91      0.00
   12    5   13      1.71      0.00
   12    6   13     -2.38      0.00
   12    7   13      2.62      0.00
   12    8   13     -2.96      0.00
   12    9   13      0.30      0.00
   12   10   13     -2.12      0.00
   12   11   13     -2.52      0.00
    1   13   13     -3.06      0.00
    2   13   13      1.67      0.00
    3   13   13     -1.14      0.00
    4   13   13      2.28      0.00
    5   13   13     -3.01      0.00
    6   13   13     -1.30      0.00
    7   13   13      2.67      0.00
    8   13   13     -0.41      0.00
    9   13   13     -1.61      0.00
   10   13   13     -1.91      0.00
    0    0   14     -2.66      0.00
    0    2   14      1.51      0.00
    0    4   14      1.40      0.00
    0    6   14      2.07      0.00
    0    8   14      0.36      0.00
    0   10   14      2.64      0.00
    0   12   14     -4.88      0.00
    1    0   14      1.02      0.00
    1    1   14      0.81      0.00
    1    2   14     -1.85      0.00
    1    3   14      1.90      0.00
    1    4   14      0.11      0.00
    1    5   14      0.36      0.00
    1    6   14     -1.25      0.00
    1    7   14      0.33      0.00
    1    8   14      0.90      0.00
    1    9   14      0.98      0.00
    1   10   14     -1.50      0.00
    1   11   14     -0.41      0.00
    1   12   14     -0.95      0.00
    1   13   14      0.04      0.00
    2    0   14      0.81      0.00
    2    1   14     -0.24      0.00
    2    2   14     -0.40      0.00
    2    3   14      2.40      0.00
    2    4   14      2.03      0.00
    2    5   14     -0.17      0.00
    2    6   14      1.31      0.00
    2    7   14     -0.43      0.00
    2    8   14     -1.53      0.00
    2    9   14     -0.79      0.00
    2   10   14      0.01      0.00
    2   11   14     -1.74      0.00
    2   12   14      0.81      0.00
    2   13   14     -0.19      0.00
    3    0   14     -3.03      0.00
    3    1   14      1.64      0.00
    3    2   14     -2.82      0.00
    3    3   14      0.46      0.00
    3    4   14     -0.49      0.00
    3    5   14      1.18      0.00
    3    6   14     -2.21      0.00
    3    7   14     -0.46      0.00
    3    8   14      1.45      0.00
    3    9   14      0.43      0.00
    3   10   14     -2.17      0.00
    3   11   14     -1.27      0.00
    3   12   14     -0.08      0.00
    3   13   14     -0.81      0.00
    4    0   14     -0.02      0.00
    4    2   14      2.28      0.00
    4    3   14     -1.93      0.00
    4    4   14      1.45      0.00
    4    5   14     -0.81      0.00
    4    6   14      0.13      0.00
    4    7   14      0.68      0.00
    4    8   14      0.16      0.00
    4    9   14      0.24      0.00
    4   10   14      0.24      0.00
    4   11   14     -0.36      0.00
    4   12   14     -0.80      0.00
    4   13   14     -2.28      0.00
    5    0   14     -1.33      0.00
    5    1   14      0.86      0.00
    5    2   14     -0.53      0.00
    5    3   14      3.62      0.00
    5    4   14     -0.50      0.00
    5    5   14     -1.48      0.00
    5    6   14     -0.41      0.00
    5    7   14      1.85      0.00
    5    8   14      1.67      0.00
    5    9   14     -3.63      0.00
    5   10   14     -0.40      0.00
    5   11   14      1.05      0.00
    5   12   14      1.72      0.00
    5   13   14     -1.05      0.00
    6    0   14     -0.75      0.00
    6    1   14      2.27      0.00
    6    2   14     -0.09      0.00
    6    3   14      1.15      0.00
    6    4   14     -0.21      0.00
    6    5   14      1.80      0.00
    6    6   14     -0.82      0.00
    6    7   14     -0.53      0.00
    6    8   14      1.25      0.00
    6    9   14     -4.42      0.00
    6   10   14      1.30      0.00
    6   11   14      0.56      0.00
    6   12   14      0.51      0.00
    6   13   14      1.94      0.00
    7    0   14     -0.33      0.00
    7    1   14      0.05      0.00
    7    2   14     -1.58      0.00
    7    3   14     -2.09      0.00
    7    4   14     -0.01      0.00
    7    5   14     -1.22      0.00
    7    6   14     -2.22      0.00
    7    7   14      1.51      0.00
    7    8   14     -0.56      0.00
    7    9   14     -3.21      0.00
    7   10   14      0.73      0.00
    7   11   14      1.20      0.00
    7   12   14      0.87      0.00
    7   13   14     -1.96      0.00
    8    0   14      0.80      0.00
    8    1   14      2.84      0.00
    8    2   14     -1.56      0.00
    8    3   14     -2.35      0.00
    8    4   14      3.78      0.00
    8    5   14     -0.84      0.00
    8    6   14      0.90      0.00
    8    7   14     -1.91      0.00
    8    8   14      0.17      0.00
    8    9   14      1.09      0.00
    8   10   14     -1.73      0.00
    8   11   14      1.86      0.00
    8   12   14      2.03      0.00
    9    0   14      2.60      0.00
    9    1   14      0.53      0.00
    9    2   14      0.87      0.00
    9    3   14     -0.07      0.00
    9    4   14      3.22      0.00
    9    5   14     -1.68      0.00
    9    6   14      1.75      0.00
    9    7   14      0.77      0.00
    9    8   14      3.88      0.00
    9    9   14     -0.10      0.00
    9   10   14      1.05      0.00
    9   11   14     -0.90      0.00
    9   12   14     -2.63      0.00
   10    0   14     -0.56      0.00
   10    1   14     -0.20      0.00
   10    2   14     -2.64      0.00
   10    3   14      1.26      0.00
   10    4   14     -0.89      0.00
   10    5   14     -1.92      0.00
   10    6   14     -3.53      0.00
   10    7   14     -0.52      0.00
   10    8   14     -1.90      0.00
   10    9   14      0.06      0.00
   10   10   14      2.80      0.00
   10   11   14      0.23      0.00
   10   12   14     -0.25      0.00
   11    0   14     -0.04      0.00
   11    1   14     -3.25      0.00
   11    2   14      1.44      0.00
   11    3   14     -1.24      0.00
   11    4   14      1.08      0.00
   11    5   14     -2.19      0.00
   11    6   14     -0.53      0.00
   11    7   14     -2.14      0.00
   11    8   14      1.26      0.00
   11    9   14      0.28      0.00
   11   10   14     -2.33      0.00
   11   11   14     -2.79      0.00
   12    0   14     -3.30      0.00
   12    1   14     -0.21      0.00
   12    2   14      1.64      0.00
   12    3   14     -0.70      0.00
   12    4   14      0.34      0.00
   12    5   14     -0.75      0.00
   12    6   14     -0.85      0.00
   12    7   14      0.84      0.00
   12    8   14      2.47      0.00
   12    9   14     -0.31      0.00
   12   10   14      1.84      0.00
   13    0   14      0.12      0.00
   13    1   14     -1.05      0.00
   13    2   14      1.38      0.00
   13    3   14      2.60      0.00
   13    4   14     -1.78      0.00
   13    5   14      4.24      0.00
   13    6   14     -0.31      0.00
   13    7   14      2.09      0.00
   13    8   14     -1.19      0.00
    0   14   14      4.46      0.00
    1   14   14      0.77      0.00
    2   14   14      0.10      0.00
    3   14   14     -1.20      0.00
    4   14   14      0.11      0.00
    5   14   14     -1.87      0.00
    6   14   14     -0.53      0.00
    7   14   14     -1.37      0.00
    0    2   15      4.61      0.00
    0    4   15      1.15      0.00
    0    6   15      0.43      0.00
    0    8   15      1.29      0.00
    0   10   15      0.12      0.00
    0   12   15     -0.01      0.00
    0   14   15     -1.50      0.00
    1    1   15      2.02      0.00
    1    2   15     -4.46      0.00
    1    3   15      0.89      0.00
    1    4   15      6.16      0.00
    1    5   15      3.18      0.00
    1    6   15     -0.27      0.00
    1    7   15      0.96      0.00
    1    8   15     -0.05      0.00
    1    9   15     -0.66      0.00
    1   10   15      1.46      0.00
    1   11   15     -0.26      0.00
    1   12   15     -1.14      0.00
    1   13   15      1.25      0.00
    1   14   15      1.57      0.00
    2    1   15     -1.82      0.00
    2    2   15      2.66      0.00
    2    3   15     -1.07      0.00
    2    4   15      2.49      0.00
    2    5   15     -0.35      0.00
    2    6   15      1.08      0.00
    2    7   15     -0.02      0.00
    2    8   15     -0.86      0.00
    2    9   15      0.22      0.00
    2   10   15      5.84      0.00
    2   11   15     -1.08      0.00
    2   12   15     -2.18      0.00
    2   13   15      2.97      0.00
    2   14   15      1.73      0.00
    3    1   15      0.73      0.00
    3    2   15      0.68      0.00
    3    3   15      0.82      0.00
    3    4   15     -3.46      0.00
    3    5   15     -0.02      0.00
    3    6   15     -1.12      0.00
    3    7   15     -0.89      0.00
    3    8   15      1.33      0.00
    3    9   15     -0.57      0.00
    3   10   15      0.39      0.00
    3   11   15      1.09      0.00
    3   12   15     -0.72      0.00
    3   13   15     -0.87      0.00
    3   14   15      2.72      0.00
    4    1   15     -0.06      0.00
    4    2   15      1.08      0.00
    4    3   15      0.09      0.00
    4    4   15      0.04      0.00
    4    5   15      0.18      0.00
    4    6   15     -1.70      0.00
    4    7   15     -1.76      0.00
    4    8   15     -0.88      0.00
    4    9   15      1.39      0.00
    4   10   15      0.48      0.00
    4   11   15      1.25      0.00
    4   12   15      0.95      0.00
    4   13   15     -0.71      0.00
    4   14   15      1.16      0.00
    5    1   15     -0.63      0.00
    5    2   15      0.28      0.00
    5    3   15      0.83      0.00
    5    4   15      3.16      0.00
    5    5   15     -0.14      0.00
    5    6   15     -2.43      0.00
    5    7   15     -1.01      0.00
    5    8   15     -0.68      0.00
    5    9   15      1.70      0.00
    5   10   15      2.78      0.00
    5   11   15      0.92      0.00
    5   12   15     -0.56      0.00
    5   13   15      1.18      0.00
    6    1   15      1.53      0.00
    6    2   15     -0.55      0.00
    6    3   15      0.79      0.00
    6    4   15      0.25      0.00
    6    5   15     -2.90      0.00
    6    6   15      1.11      0.00
    6    7   15      0.25      0.00
    6    8   15     -1.06      0.00
    6    9   15      0.74      0.00
    6   10   15      0.62      0.00
    6   11   15      1.52      0.00
    6   12   15     -0.81      0.00
    6   13   15     -0.15      0.00
    7    1   15     -0.78      0.00
    7    2   15      0.84      0.00
    7    3   15     -1.78      0.00
    7    4   15     -1.50      0.00
    7    5   15     -1.92      0.00
    7    6   15      1.34      0.00
    7    7   15     -0.84      0.00
    7    8   15      1.85      0.00
    7    9   15      1.11      0.00
    7   10   15     -1.05      0.00
    7   11   15     -0.15      0.00
    7   12   15     -2.82      0.00
    7   13   15      1.31      0.00
    8    1   15      2.01      0.00
    8    2   15      1.98      0.00
    8    3   15     -1.39      0.00
    8    4   15     -2.04      0.00
    8    5   15      1.43      0.00
    8    6   15     -1.35      0.00
    8    7   15      2.21      0.00
    8    8   15     -2.90      0.00
    8    9   15      1.98      0.00
    8   10   15      3.70      0.00
    8   11   15     -0.70      0.00
    8   12   15     -2.38      0.00
    9    1   15     -1.08      0.00
    9    2   15     -1.09      0.00
    9    3   15     -2.74      0.00
    9    4   15     -0.48      0.00
    9    5   15     -3.03      0.00
    9    6   15     -2.00      0.00
    9    7   15      1.67      0.00
    9    8   15      1.97      0.00
    9    9   15     -1.82      0.00
    9   10   15     -1.05      0.00
    9   11   15     -1.51      0.00
   10    1   15      1.02      0.00
   10    2   15      3.22      0.00
   10    3   15     -0.56      0.00
   10    4   15      1.73      0.00
   10    5   15      0.81      0.00
   10    6   15     -1.27      0.00
   10    7   15     -1.93      0.00
   10    8   15      2.28      0.00
   10    9   15      0.83      0.00
   10   10   15     -2.31      0.00
   11    1   15      0.48      0.00
   11    2   15      0.22      0.00
   11    3   15     -1.01      0.00
   11    4   15      0.99      0.00
   11    5   15      2.37      0.00
   11    6   15      1.82      0.00
   11    7   15     -1.36      0.00
   11    8   15     -1.49      0.00
   11    9   15     -1.56      0.00
   12    1   15     -1.91      0.00
   12    2   15     -1.72      0.00
   12    3   15      0.85      0.00
   12    4   15     -0.27      0.00
   12    5   15     -2.32      0.00
   12    6   15     -0.15      0.00
   12    7   15     -1.71      0.00
   12    8   15     -0.94      0.00
   13    1   15      1.58      0.00
   13    2   15     -2.22      0.00
   13    3   15     -0.74      0.00
   13    4   15     -2.24      0.00
   13    5   15      2.98      0.00
   13    6   15     -1.29      0.00
   13    7   15     -3.72      0.00
   14    1   15     -0.02      0.00
   14    2   15     -1.99      0.00
   14    3   15      1.15      0.00
   14    4   15     -2.88      0.00
    0    0   16      2.23      0.00
    0    2   16      1.60      0.00
    0    4   16      0.91      0.00
    0    6   16     -0.60      0.00
    0    8   16     -0.90      0.00
    0   10   16      3.61      0.00
    0   12   16     -2.68      0.00
    1    0   16      1.98      0.00
    1    1   16     -5.26      0.00
    1    2   16      0.25      0.00
    1    3   16     -1.02      0.00
    1    4   16      1.59      0.00
    1    5   16      0.62      0.00
    1    6   16     -2.61      0.00
    1    7   16      0.28      0.00
    1    8   16     -0.86      0.00
    1    9   16     -7.05      0.00
    1   10   16      2.62      0.00
    1   11   16      3.90      0.00
    1   12   16      0.61      0.00
    1   13   16     -0.24      0.00
    2    0   16      3.36      0.00
    2    1   16      2.13      0.00
    2    2   16      2.62      0.00
    2    3   16      3.74      0.00
    2    4   16      0.00      0.00
    2    5   16      1.97      0.00
    2    6   16     -0.30      0.00
    2    7   16      0.09      0.00
    2    8   16      0.07      0.00
    2    9   16      2.20      0.00
    2   10   16     -1.86      0.00
    2   11   16     -0.18      0.00
    2   12   16      0.85      0.00
    2   13   16      2.26      0.00
    3    0   16      0.13      0.00
    3    1   16      0.24      0.00
    3    2   16      0.82      0.00
    3    3   16     -7.95      0.00
    3    4   16      0.62      0.00
    3    5   16     -0.98      0.00
    3    6   16     -0.40      0.00
    3    7   16      2.29      0.00
    3    8   16     -0.90      0.00
    3    9   16      0.26      0.00
    3   10   16     -0.05      0.00
    3   11   16      0.41      0.00
    3   12   16     -1.77      0.00
    3   13   16     -2.66      0.00
    4    0   16     -1.03      0.00
    4    1   16      2.56      0.00
    4    2   16     -0.24      0.00
    4    3   16      1.30      0.00
    4    4   16     -2.64      0.00
    4    5   16     -0.70      0.00
    4    6   16     -0.35      0.00
    4    7   16     -0.99      0.00
    4    8   16     -1.05      0.00
    4    9   16      1.78      0.00
    4   10   16      1.50      0.00
    4   11   16     -0.18      0.00
    4   12   16     -0.76      0.00
    4   13   16     -1.10      0.00
    5    0   16      0.96      0.00
    5    1   16     -0.02      0.00
    5    2   16      2.47      0.00
    5    3   16      2.27      0.00
    5    4   16      2.62      0.00
    5    5   16     -0.01      0.00
    5    6   16      1.66      0.00
    5    7   16      0.81      0.00
    5    8   16      1.83      0.00
    5    9   16      0.14      0.00
    5   10   16      0.89      0.00
    5   11   16      0.54      0.00
    5   12   16     -0.54      0.00
    6    0   16     -0.22      0.00
    6    1   16     -1.24      0.00
    6    2   16     -0.73      0.00
    6    3   16      1.74      0.00
    6    4   16      1.05      0.00
    6    5   16      0.47      0.00
    6    6   16     -3.56      0.00
    6    7   16      0.65      0.00
    6    8   16      1.19      0.00
    6    9   16     -0.83      0.00
    6   10   16     -2.24      0.00
    6   11   16      0.30      0.00
    6   12   16     -0.37      0.00
    7    0   16      3.41      0.00
    7    1   16     -1.08      0.00
    7    2   16      1.45      0.00
    7    3   16     -1.28      0.00
    7    4   16      0.78      0.00
    7    5   16      1.61      0.00
    7    6   16     -0.25      0.00
    7    7   16      1.50      0.00
    7    8   16      0.14      0.00
    7    9   16      3.50      0.00
    7   10   16     -1.14      0.00
    7   11   16     -1.90      0.00
    8    0   16     -1.56      0.00
    8    1   16     -1.64      0.00
    8    2   16     -1.36      0.00
    8    3   16     -0.81      0.00
    8    4   16     -3.76      0.00
    8    5   16      0.91      0.00
    8    6   16      0.20      0.00
    8    7   16     -1.73      0.00
    8    8   16      0.60      0.00
    8    9   16      0.37      0.00
    8   10   16     -1.90      0.00
    8   11   16     -0.04      0.00
    9    0   16      1.36      0.00
    9    1   16      0.18      0.00
    9    2   16     -0.48      0.00
    9    3   16     -1.99      0.00
    9    4   16      1.65      0.00
    9    5   16      2.70      0.00
    9    6   16      1.44      0.00
    9    7   16      1.14      0.00
    9    8   16     -0.65      0.00
    9    9   16     -0.82      0.00
    9   10   16     -2.45      0.00
   10    0   16      0.48      0.00
   10    1   16      1.48      0.00
   10    2   16      0.32      0.00
   10    3   16     -0.38      0.00
   10    4   16     -1.96      0.00
   10    5   16      0.69      0.00
   10    6   16      3.26      0.00
   10    7   16      2.50      0.00
   10    8   16      1.31      0.00
   10    9   16      0.60      0.00
   11    0   16      0.75      0.00
   11    1   16     -5.22      0.00
   11    2   16     -2.53      0.00
   11    3   16      0.82      0.00
   11    4   16      0.96      0.00
   11    5   16      1.11      0.00
   11    6   16     -0.58      0.00
   11    7   16      0.97      0.00
   11    8   16     -0.31      0.00
   12    0   16      1.47      0.00
   12    1   16     -1.88      0.00
   12    2   16     -1.52      0.00
   12    3   16     -1.09      0.00
   12    4   16     -0.54      0.00
   12    5   16      0.35      0.00
   12    6   16      2.90      0.00
   13    0   16      1.95      0.00
   13    1   16      1.96      0.00
   13    2   16     -0.96      0.00
   13    3   16      1.99      0.00
   13    4   16      1.60      0.00
    0    2   17     -2.61      0.00
    0    4   17     -1.48      0.00
    0    6   17     -3.92      0.00
    0    8   17     -0.66      0.00
    0   10   17      0.47      0.00
    0   12   17      0.21      0.00
    1    1   17     -2.81      0.00
    1    2   17     -2.47      0.00
    1    3   17     -1.57      0.00
    1    4   17     -3.87      0.00
    1    5   17     -2.87      0.00
    1    6   17      0.65      0.00
    1    7   17     -1.19      0.00
    1    8   17     -2.29      0.00
    1    9   17      0.45      0.00
    1   10   17     -2.39      0.00
    1   11   17      0.33      0.00
    1   12   17     -1.38      0.00
    2    1   17      0.66      0.00
    2    2   17      0.79      0.00
    2    3   17      0.09      0.00
    2    4   17     -2.44      0.00
    2    5   17      1.35      0.00
    2    6   17     -1.37      0.00
    2    7   17      1.14      0.00
    2    8   17     -0.21      0.00
    2    9   17      1.76      0.00
    2   10   17      0.32      0.00
    2   11   17     -0.09      0.00
    2   12   17     -0.55      0.00
    3    1   17     -1.38      0.00
    3    2   17     -2.24      0.00
    3    3   17     -3.94      0.00
    3    4   17     -0.17      0.00
    3    5   17     -0.73      0.00
    3    6   17      0.27      0.00
    3    7   17      2.17      0.00
    3    8   17     -0.21      0.00
    3    9   17     -2.46      0.00
    3   10   17      1.32      0.00
    3   11   17      0.60      0.00
    3   12   17      1.65      0.00
    4    1   17      0.76      0.00
    4    2   17      0.31      0.00
    4    3   17      2.54      0.00
    4    4   17     -0.17      0.00
    4    5   17      0.39      0.00
    4    6   17      0.05      0.00
    4    7   17     -1.49      0.00
    4    8   17     -0.18      0.00
    4    9   17     -0.20      0.00
    4   10   17     -0.39      0.00
    4   11   17     -0.08      0.00
    5    1   17     -0.15      0.00
    5    2   17     -1.30      0.00
    5    3   17     -0.46      0.00
    5    4   17     -0.47      0.00
    5    5   17     -0.63      0.00
    5    6   17      1.20      0.00
    5    7   17     -2.03      0.00
    5    8   17     -1.76      0.00
    5    9   17     -0.90      0.00
    5   10   17     -0.63      0.00
    5   11   17      1.68      0.00
    6    1   17      1.71      0.00
    6    2   17     -0.38      0.00
    6    3   17      1.39      0.00
    6    4   17     -0.50      0.00
    6    5   17     -1.20      0.00
    6    6   17      0.07      0.00
    6    7   17      0.21      0.00
    6    8   17      0.23      0.00
    6    9   17     -3.13      0.00
    6   10   17     -0.52      0.00
    7    1   17     -1.19      0.00
    7    2   17     -4.20      0.00
    7    3   17      1.52      0.00
    7    4   17     -0.50      0.00
    7    5   17     -3.86      0.00
    7    6   17      1.04      0.00
    7    7   17      1.01      0.00
    7    8   17      5.57      0.00
    7    9   17      2.31      0.00
    7   10   17      1.20      0.00
    8    1   17     -0.15      0.00
    8    2   17     -0.46      0.00
    8    3   17      0.00      0.00
    8    4   17      1.83      0.00
    8    5   17     -0.27      0.00
    8    6   17     -3.77      0.00
    8    7   17     -0.45      0.00
    8    8   17     -3.13      0.00
    8    9   17     -0.64      0.00
    9    1   17      3.60      0.00
    9    2   17      3.86      0.00
    9    3   17      7.19      0.00
    9    4   17      0.35      0.00
    9    5   17     -1.45      0.00
    9    6   17      2.54      0.00
    9    7   17      4.00      0.00
    9    8   17      0.34      0.00
   10    1   17     -2.48      0.00
   10    2   17      1.20      0.00
   10    3   17     -0.27      0.00
   10    4   17      1.36      0.00
   10    5   17     -2.43      0.00
   10    6   17      3.16      0.00
   10    7   17     -0.57      0.00
   11    1   17     -0.61      0.00
   11    2   17     -0.15      0.00
   11    3   17      0.32      0.00
   11    4   17     -0.40      0.00
   11    5   17      0.21      0.00
   12    1   17     -0.96      0.00
   12    2   17      2.05      0.00
   12    3   17     -0.72      0.00
    0    0   18      1.48      0.00
    0    2   18     -1.41      0.00
    0    4   18      2.04      0.00
    0    6   18      1.16      0.00
    0    8   18     -1.84      0.00
    0   10   18     -1.05      0.00
    1    0   18      2.51      0.00
    1    1   18      0.91      0.00
    1    2   18      2.12      0.00
    1    3   18      3.01      0.00
    1    4   18      1.46      0.00
    1    5   18      2.41      0.00
    1    6   18      0.66      0.00
    1    7   18      3.04      0.00
    1    8   18     -1.44      0.00
    1    9   18      0.85      0.00
    1   10   18     -1.70      0.00
    2    0   18     -0.42      0.00
    2    1   18     -0.38      0.00
    2    2   18     -1.00      0.00
    2    3   18     -1.84      0.00
    2    4   18     -1.96      0.00
    2    5   18     -0.59      0.00
    2    6   18      1.74      0.00
    2    7   18     -1.13      0.00
    2    8   18      1.89      0.00
    2    9   18     -0.26      0.00
    2   10   18     -1.16      0.00
    3    0   18      2.26      0.00
    3    1   18     -0.04      0.00
    3    2   18      0.24      0.00
    3    3   18      1.38      0.00
    3    4   18      0.15      0.00
    3    5   18      0.24      0.00
    3    6   18      0.25      0.00
    3    7   18     -1.15      0.00
    3    8   18      3.08      0.00
    3    9   18     -0.48      0.00
    3   10   18      0.61      0.00
    4    0   18      0.37      0.00
    4    1   18     -1.25      0.00
    4    2   18     -0.86      0.00
    4    3   18     -1.28      0.00
    4    4   18      0.33      0.00
    4    5   18      0.11      0.00
    4    6   18      2.96      0.00
    4    7   18      1.49      0.00
    4    8   18     -0.43      0.00
    4    9   18     -1.54      0.00
    4   10   18      2.68      0.00
    5    0   18     -1.26      0.00
    5    1   18     -1.95      0.00
    5    2   18     -4.52      0.00
    5    3   18      0.04      0.00
    5    4   18     -0.77      0.00
    5    5   18      1.29      0.00
    5    6   18      0.04      0.00
    5    7   18     -0.21      0.00
    5    8   18      1.18      0.00
    5    9   18     -2.34      0.00
    6    0   18     -0.98      0.00
    6    1   18     -0.72      0.00
    6    2   18     -1.10      0.00
    6    3   18     -0.16      0.00
    6    4   18      2.03      0.00
    6    5   18     -0.43      0.00
    6    6   18      4.42      0.00
    6    7   18     -1.32      0.00
    6    8   18      0.04      0.00
    6    9   18      1.55      0.00
    7    0   18     -3.82      0.00
    7    2   18     -4.69      0.00
    7    3   18      0.70      0.00
    7    4   18      0.89      0.00
    7    5   18     -1.29      0.00
    7    6   18      0.72      0.00
    7    7   18      3.95      0.00
    7    8   18      0.81      0.00
    8    0   18     -0.16      0.00
    8    1   18     -1.13      0.00
    8    2   18      0.99      0.00
    8    3   18      1.01      0.00
    8    4   18      2.61      0.00
    8    5   18     -1.41      0.00
    8    6   18      3.65      0.00
    8    7   18     -5.76      0.00
    9    0   18     -2.16      0.00
    9    1   18     -1.74      0.00
    9    2   18      1.28      0.00
    9    3   18      0.35      0.00
    9    4   18     -1.28      0.00
    9    5   18     -1.47      0.00
    9    6   18     -0.13      0.00
   10    0   18      0.06      0.00
   10    1   18     -0.50      0.00
   10    2   18     -0.27      0.00
   10    3   18      0.35      0.00
   10    4   18     -3.18      0.00
    0    2   19      0.18      0.00
    0    4   19      3.58      0.00
    0    6   19     -1.29      0.00
    0    8   19     -0.49      0.00
    1    1   19     -0.46      0.00
    1    2   19     -0.16      0.00
    1    3   19     -0.59      0.00
    1    4   19      1.70      0.00
    1    5   19      0.84      0.00
    1    6   19      1.08      0.00
    1    7   19     -2.13      0.00
    1    8   19      0.54      0.00
    1    9   19      0.89      0.00
    2    1   19     -1.88      0.00
    2    2   19      1.66      0.00
    2    4   19     -1.58      0.00
    2    5   19     -3.25      0.00
    2    6   19     -0.54      0.00
    2    7   19     -0.63      0.00
    2    8   19      0.11      0.00
    3    2   19      3.56      0.00
    3    3   19      3.00      0.00
    3    4   19      0.05      0.00
    3    5   19      0.57      0.00
    3    6   19     -0.03      0.00
    3    7   19      0.86      0.00
    3    8   19      0.22      0.00
    4    1   19     -1.47      0.00
    4    2   19      0.85      0.00
    4    3   19      0.15      0.00
    4    4   19      1.12      0.00
    4    5   19     -0.31      0.00
    4    6   19     -1.13      0.00
    4    7   19     -0.95      0.00
    4    8   19      0.83      0.00
    5    1   19      0.79      0.00
    5    2   19     -0.85      0.00
    5    3   19     -0.30      0.00
    5    4   19      2.38      0.00
    5    5   19     -0.17      0.00
    5    6   19     -0.54      0.00
    5    7   19     -0.91      0.00
    6    1   19      0.94      0.00
    6    2   19     -0.78      0.00
    6    3   19      0.21      0.00
    6    4   19      0.10      0.00
    6    5   19     -3.35      0.00
    6    6   19      1.66      0.00
    7    1   19      3.60      0.00
    7    2   19      0.96      0.00
    7    3   19      0.36      0.00
    7    4   19     -0.40      0.00
    7    5   19      1.60      0.00
    8    1   19     -0.68      0.00
    8    2   19      0.75      0.00
    8    3   19     -0.85      0.00
    8    4   19     -0.98      0.00
    9    1   19      0.09      0.00
    0    0   20      0.56      0.00
    0    2   20      1.19      0.00
    0    4   20     -0.20      0.00
    0    6   20     -1.94      0.00
    1    0   20     -0.40      0.00
    1    1   20      0.08      0.00
    1    2   20     -2.07      0.00
    1    3   20     -3.61      0.00
    1    4   20     -1.14      0.00
    1    5   20     -2.54      0.00
    1    6   20      0.94      0.00
    2    0   20      0.17      0.00
    2    1   20      0.12      0.00
    2    2   20      0.05      0.00
    2    3   20     -0.82      0.00
    2    4   20      0.15      0.00
    2    5   20     -0.49      0.00
    2    6   20      0.39      0.00
    3    0   20     -1.26      0.00
    3    1   20      2.97      0.00
    3    2   20      0.40      0.00
    3    3   20     -0.29      0.00
    3    4   20     -0.07      0.00
    3    5   20      2.39      0.00
    4    0   20      3.65      0.00
    4    1   20      2.61      0.00
    4    2   20      1.23      0.00
    4    3   20     -1.15      0.00
    4    4   20      0.88      0.00
    4    5   20      0.57      0.00
    5    0   20     -1.66      0.00
    5    1   20     -0.16      0.00
    5    2   20      0.81      0.00
    5    3   20     -2.13      0.00
    5    4   20      0.27      0.00
    6    0   20     -0.32      0.00
    6    1   20      0.48      0.00
    6    2   20     -0.59      0.00
    1    1   21      0.62      0.00
   12   12   13     -1.06      0.00
   11   13   13     -1.22      0.00
   12   13   13     -0.53      0.00
   13   13   13      0.26      0.00
    4    1   14      0.90      0.00
   13    9   14      0.03      0.00
   13   10   14     -0.28      0.00
   12   11   14     -0.92      0.00
   13   11   14      0.34      0.00
   11   12   14     -0.32      0.00
   12   12   14     -0.62      0.00
   13   12   14      1.76      0.00
    8   13   14     -1.24      0.00
    9   13   14      0.74      0.00
   10   13   14     -0.99      0.00
   11   13   14     -0.32      0.00
   12   13   14      1.64      0.00
   13   13   14      0.30      0.00
    8   14   14     -1.54      0.00
    9   14   14      0.83      0.00
   10   14   14     -0.65      0.00
   11   14   14      0.44      0.00
   12   14   14     -0.38      0.00
   13   14   14      0.46      0.00
   14   14   14      0.42      0.00
   14    5   15      1.14      0.00
   14    6   15     -0.49      0.00
   14    7   15      0.47      0.00
   13    8   15      0.72      0.00
   14    8   15      0.14      0.00
   12    9   15      0.77      0.00
   13    9   15     -0.90      0.00
   14    9   15      0.22      0.00
   11   10   15     -0.97      0.00
   12   10   15     -0.51      0.00
   13   10   15      0.06      0.00
   14   10   15      0.23      0.00
   10   11   15      1.38      0.00
   11   11   15     -1.35      0.00
   12   11   15      0.93      0.00
   13   11   15      0.53      0.00
   14   11   15     -0.28      0.00
    9   12   15     -1.19      0.00
   10   12   15     -0.32      0.00
   11   12   15      0.51      0.00
   12   12   15      0.90      0.00
   13   12   15     -0.20      0.00
   14   12   15      0.35      0.00
    8   13   15      1.23      0.00
    9   13   15     -1.72      0.00
   10   13   15      1.08      0.00
   11   13   15      1.09      0.00
   12   13   15      0.08      0.00
   13   13   15      0.05      0.00
   14   13   15      1.17      0.00
    5   14   15      0.68      0.00
    6   14   15      0.83      0.00
    7   14   15     -0.06      0.00
    8   14   15      0.27      0.00
    9   14   15     -0.79      0.00
   10   14   15      0.10      0.00
   11   14   15     -0.04      0.00
   12   14   15      0.58      0.00
   13   14   15      0.95      0.00
   14   14   15     -0.58      0.00
    1   15   15      0.52      0.00
    2   15   15      1.32      0.00
    3   15   15      0.37      0.00
    4   15   15      0.91      0.00
    5   15   15      0.25      0.00
    6   15   15      0.30      0.00
    7   15   15      0.67      0.00
    8   15   15      0.17      0.00
    9   15   15     -0.22      0.00
   10   15   15      0.20      0.00
   11   15   15      1.11      0.00
   12   15   15      0.42      0.00
   13   15   15     -0.41      0.00
   14   15   15     -0.83      0.00
   15   15   15     -1.03      0.00
   14    0   16     -0.42      0.00
   15    0   16     -0.61      0.00
   14    1   16     -0.59      0.00
   15    1   16      0.25      0.00
   14    2   16      1.08      0.00
   15    2   16     -0.36      0.00
   14    3   16      0.41      0.00
   15    3   16      0.49      0.00
   14    4   16      1.50      0.00
   15    4   16      0.14      0.00
   13    5   16     -0.80      0.00
   14    5   16      1.67      0.00
   15    5   16     -1.37      0.00
   13    6   16      0.59      0.00
   14    6   16      0.62      0.00
   15    6   16      0.03      0.00
   12    7   16      0.04      0.00
   13    7   16     -0.15      0.00
   14    7   16      0.36      0.00
   15    7   16      0.29      0.00
   12    8   16     -0.08      0.00
   13    8   16     -0.04      0.00
   14    8   16     -0.52      0.00
   15    8   16     -0.24      0.00
   11    9   16     -0.08      0.00
   12    9   16     -1.31      0.00
   13    9   16      0.28      0.00
   14    9   16      0.34      0.00
   15    9   16      0.27      0.00
   10   10   16     -0.35      0.00
   11   10   16     -0.09      0.00
   12   10   16      0.74      0.00
   13   10   16      0.13      0.00
   14   10   16      0.26      0.00
   15   10   16     -0.02      0.00
    9   11   16      1.17      0.00
   10   11   16     -1.25      0.00
   11   11   16      1.10      0.00
   12   11   16      0.57      0.00
   13   11   16      0.29      0.00
   14   11   16      0.47      0.00
   15   11   16      0.23      0.00
    7   12   16      0.62      0.00
    8   12   16     -0.54      0.00
    9   12   16      0.02      0.00
   10   12   16      0.53      0.00
   11   12   16      0.23      0.00
   12   12   16     -0.16      0.00
   13   12   16      0.75      0.00
   14   12   16      0.73      0.00
   15   12   16      0.02      0.00
    5   13   16      0.61      0.00
    6   13   16      0.34      0.00
    7   13   16      0.35      0.00
    8   13   16      0.08      0.00
    9   13   16      0.41      0.00
   10   13   16     -0.05      0.00
   11   13   16     -0.01      0.00
   12   13   16      0.59      0.00
   13   13   16      0.32      0.00
   14   13   16     -0.50      0.00
   15   13   16     -0.44      0.00
    0   14   16     -0.07      0.00
    1   14   16      0.02      0.00
    2   14   16     -0.73      0.00
    3   14   16     -0.21      0.00
    4   14   16     -0.34      0.00
    5   14   16      0.42      0.00
    6   14   16     -0.62      0.00
    7   14   16      0.42      0.00
    8   14   16     -0.23      0.00
    9   14   16      0.29      0.00
   10   14   16      1.00      0.00
   11   14   16      0.26      0.00
   12   14   16      0.86      0.00
   13   14   16     -0.61      0.00
   14   14   16     -0.74      0.00
   15   14   16     -0.39      0.00
    1   15   16     -0.05      0.00
    2   15   16     -0.38      0.00
    3   15   16     -0.35      0.00
    4   15   16      0.17      0.00
    5   15   16     -0.57      0.00
    6   15   16      0.00      0.00
    7   15   16     -0.72      0.00
    8   15   16     -0.06      0.00
    9   15   16      0.46      0.00
   10   15   16      0.36      0.00
   11   15   16      0.22      0.00
   12   15   16     -0.15      0.00
   13   15   16     -0.50      0.00
   14   15   16     -0.52      0.00
   15   15   16     -0.66      0.00
    0   16   16      0.24      0.00
    1   16   16      0.32      0.00
    2   16   16     -0.05      0.00
    3   16   16      0.72      0.00
    4   16   16     -0.79      0.00
    5   16   16      0.25      0.00
    6   16   16      0.37      0.00
    7   16   16     -0.32      0.00
    8   16   16      0.37      0.00
    9   16   16     -0.43      0.00
   10   16   16      0.48      0.00
   11   16   16      0.02      0.00
   12   16   16      0.35      0.00
   13   16   16     -0.58      0.00
   14   16   16     -0.09      0.00
   15   16   16     -0.07      0.00
   16   16   16      0.03      0.00
   13    1   17      0.91      0.00
   14    1   17     -0.10      0.00
   15    1   17     -1.22      0.00
   16    1   17      0.67      0.00
   13    2   17      0.38      0.00
   14    2   17     -1.25      0.00
   15    2   17      0.61      0.00
   16    2   17      0.79      0.00
   13    3   17      0.62      0.00
   14    3   17     -0.26      0.00
   15    3   17     -0.02      0.00
   16    3   17     -0.33      0.00
   12    4   17     -1.68      0.00
   13    4   17      0.87      0.00
   14    4   17     -1.09      0.00
   15    4   17      0.21      0.00
   16    4   17      0.11      0.00
   12    5   17      0.26      0.00
   13    5   17     -0.15      0.00
   14    5   17     -0.62      0.00
   15    5   17     -0.17      0.00
   16    5   17     -0.08      0.00
   11    6   17      0.42      0.00
   12    6   17     -0.23      0.00
   13    6   17      0.82      0.00
   14    6   17      0.38      0.00
   15    6   17      0.01      0.00
   16    6   17     -0.12      0.00
   11    7   17     -0.88      0.00
   12    7   17      0.00      0.00
   13    7   17     -0.40      0.00
   14    7   17     -0.43      0.00
   15    7   17      0.49      0.00
   16    7   17      0.65      0.00
   10    8   17      0.00      0.00
   11    8   17     -1.28      0.00
   12    8   17     -0.74      0.00
   13    8   17     -0.68      0.00
   14    8   17      0.20      0.00
   15    8   17      0.21      0.00
   16    8   17      0.12      0.00
    9    9   17     -0.51      0.00
   10    9   17     -0.06      0.00
   11    9   17      0.17      0.00
   12    9   17      0.00      0.00
   13    9   17     -0.30      0.00
   14    9   17      0.04      0.00
   15    9   17      0.01      0.00
   16    9   17      0.03      0.00
    8   10   17      0.85      0.00
    9   10   17     -0.95      0.00
   10   10   17      0.01      0.00
   11   10   17      0.50      0.00
   12   10   17      0.19      0.00
   13   10   17     -0.20      0.00
   14   10   17      0.38      0.00
   15   10   17     -0.10      0.00
   16   10   17     -0.03      0.00
    6   11   17     -0.32      0.00
    7   11   17      0.00      0.00
    8   11   17      0.37      0.00
    9   11   17      0.75      0.00
   10   11   17      0.42      0.00
   11   11   17      0.32      0.00
   12   11   17     -0.54      0.00
   13   11   17      1.05      0.00
   14   11   17      0.03      0.00
   15   11   17      0.01      0.00
   16   11   17      0.10      0.00
    4   12   17      0.36      0.00
    5   12   17      0.83      0.00
    6   12   17     -0.07      0.00
    7   12   17      0.05      0.00
    8   12   17      0.07      0.00
    9   12   17      0.76      0.00
   10   12   17      0.70      0.00
   11   12   17      0.12      0.00
   12   12   17      1.28      0.00
   13   12   17      0.28      0.00
   14   12   17     -0.17      0.00
   15   12   17     -0.12      0.00
   16   12   17     -0.30      0.00
    1   13   17     -0.07      0.00
    2   13   17     -0.75      0.00
    3   13   17     -1.79      0.00
    4   13   17     -0.12      0.00
    5   13   17     -0.78      0.00
    6   13   17      0.06      0.00
    7   13   17     -0.42      0.00
    8   13   17     -0.52      0.00
    9   13   17     -0.06      0.00
   10   13   17     -0.71      0.00
   11   13   17      1.30      0.00
   12   13   17     -0.40      0.00
   13   13   17     -0.41      0.00
   14   13   17     -0.07      0.00
   15   13   17     -0.26      0.00
   16   13   17     -0.23      0.00
    0   14   17     -0.28      0.00
    1   14   17     -0.14      0.00
    2   14   17     -0.69      0.00
    3   14   17      0.07      0.00
    4   14   17     -0.34      0.00
    5   14   17     -0.29      0.00
    6   14   17     -0.10      0.00
    7   14   17      0.27      0.00
    8   14   17      0.01      0.00
    9   14   17      0.17      0.00
   10   14   17      0.21      0.00
   11   14   17     -0.26      0.00
   12   14   17     -0.60      0.00
   13   14   17     -0.01      0.00
   14   14   17     -0.87      0.00
   15   14   17     -0.22      0.00
   16   14   17     -0.23      0.00
    1   15   17     -0.16      0.00
    2   15   17      0.20      0.00
    3   15   17     -0.09      0.00
    4   15   17     -0.47      0.00
    5   15   17      0.38      0.00
    6   15   17     -0.39      0.00
    7   15   17     -0.01      0.00
    8   15   17      0.56      0.00
    9   15   17      0.16      0.00
   10   15   17     -0.11      0.00
   11   15   17      0.11      0.00
   12   15   17     -0.15      0.00
   13   15   17     -0.19      0.00
   14   15   17     -0.09      0.00
   15   15   17     -0.05      0.00
   16   15   17      0.12      0.00
    0   16   17      0.55      0.00
    1   16   17     -0.15      0.00
    2   16   17      0.51      0.00
    3   16   17     -0.37      0.00
    4   16   17      0.43      0.00
    5   16   17     -0.07      0.00
    6   16   17     -0.73      0.00
    7   16   17      0.48      0.00
    8   16   17      0.23      0.00
    9   16   17      0.14      0.00
   10   16   17      0.41      0.00
   11   16   17     -0.15      0.00
   12   16   17     -0.33      0.00
   13   16   17     -0.10      0.00
   14   16   17     -0.01      0.00
   15   16   17     -0.03      0.00
    1   17   17      0.11      0.00
    2   17   17     -0.57      0.00
    3   17   17      0.08      0.00
    4   17   17     -0.27      0.00
    5   17   17     -0.46      0.00
    6   17   17     -0.12      0.00
    7   17   17      0.10      0.00
    8   17   17      0.00      0.00
    9   17   17      0.24      0.00
   10   17   17     -0.40      0.00
   11   17   17     -0.41      0.00
   12   17   17     -0.06      0.00
   13   17   17      0.28      0.00
   14   17   17      0.14      0.00
   11    0   18      0.24      0.00
   12    0   18     -0.39      0.00
   13    0   18      0.20      0.00
   14    0   18     -0.80      0.00
   15    0   18      0.21      0.00
   16    0   18     -0.62      0.00
   17    0   18     -0.20      0.00
    7    1   18      0.54      0.00
   11    1   18     -0.69      0.00
   12    1   18      0.96      0.00
   13    1   18      0.47      0.00
   14    1   18     -0.01      0.00
   15    1   18      0.48      0.00
   16    1   18     -0.05      0.00
   17    1   18      0.24      0.00
   11    2   18      0.04      0.00
   12    2   18      0.15      0.00
   13    2   18     -0.03      0.00
   14    2   18     -0.20      0.00
   15    2   18      0.25      0.00
   16    2   18     -0.60      0.00
   17    2   18     -0.20      0.00
   11    3   18     -0.99      0.00
   12    3   18     -0.76      0.00
   13    3   18     -0.09      0.00
   14    3   18      0.12      0.00
   15    3   18     -0.22      0.00
   16    3   18     -0.23      0.00
   17    3   18      0.25      0.00
   11    4   18      0.44      0.00
   12    4   18      0.75      0.00
   13    4   18      0.16      0.00
   14    4   18     -1.72      0.00
   15    4   18      0.14      0.00
   16    4   18     -0.92      0.00
   17    4   18     -0.28      0.00
   10    5   18      0.03      0.00
   11    5   18     -0.97      0.00
   12    5   18      0.34      0.00
   13    5   18     -0.44      0.00
   14    5   18      0.59      0.00
   15    5   18     -0.15      0.00
   16    5   18     -0.85      0.00
   17    5   18      0.37      0.00
   10    6   18     -0.50      0.00
   11    6   18     -0.03      0.00
   12    6   18     -0.53      0.00
   13    6   18     -0.31      0.00
   14    6   18     -0.28      0.00
   15    6   18     -0.36      0.00
   16    6   18      0.03      0.00
   17    6   18      0.08      0.00
    9    7   18      0.31      0.00
   10    7   18     -0.23      0.00
   11    7   18      0.27      0.00
   12    7   18     -0.45      0.00
   13    7   18     -0.13      0.00
   14    7   18     -0.41      0.00
   15    7   18      0.65      0.00
   16    7   18      0.16      0.00
   17    7   18      0.10      0.00
    8    8   18     -1.95      0.00
    9    8   18     -1.43      0.00
   10    8   18     -1.19      0.00
   11    8   18     -0.18      0.00
   12    8   18     -0.07      0.00
   13    8   18      0.38      0.00
   14    8   18     -0.07      0.00
   15    8   18      0.16      0.00
   16    8   18      0.42      0.00
   17    8   18      0.25      0.00
    7    9   18      0.06      0.00
    8    9   18     -1.44      0.00
    9    9   18     -0.84      0.00
   10    9   18      0.22      0.00
   11    9   18     -0.17      0.00
   12    9   18     -0.18      0.00
   13    9   18     -0.68      0.00
   14    9   18      0.19      0.00
   15    9   18      0.28      0.00
   16    9   18      0.25      0.00
   17    9   18     -0.15      0.00
    5   10   18     -0.66      0.00
    6   10   18     -0.53      0.00
    7   10   18      0.23      0.00
    8   10   18     -0.21      0.00
    9   10   18      0.41      0.00
   10   10   18      0.71      0.00
   11   10   18     -0.13      0.00
   12   10   18      0.09      0.00
   13   10   18      0.31      0.00
   14   10   18     -0.17      0.00
   15   10   18     -0.07      0.00
   16   10   18     -0.23      0.00
   17   10   18      0.15      0.00
    1   11   18     -0.55      0.00
    2   11   18      0.68      0.00
    3   11   18      0.83      0.00
    4   11   18     -0.23      0.00
    5   11   18      0.15      0.00
    6   11   18     -0.51      0.00
    7   11   18     -0.05      0.00
    8   11   18      0.04      0.00
    9   11   18      0.36      0.00
   10   11   18      0.29      0.00
   11   11   18      0.06      0.00
   12   11   18      0.85      0.00
   13   11   18      0.02      0.00
   14   11   18     -0.13      0.00
   15   11   18     -0.17      0.00
   16   11   18     -0.21      0.00
   17   11   18     -0.30      0.00
    0   12   18      0.67      0.00
    1   12   18     -0.15      0.00
    2   12   18     -0.17      0.00
    3   12   18     -0.30      0.00
    4   12   18     -0.37      0.00
    5   12   18     -0.06      0.00
    6   12   18     -0.54      0.00
    7   12   18     -0.07      0.00
    8   12   18      0.59      0.00
    9   12   18     -0.48      0.00
   10   12   18      0.21      0.00
   11   12   18      0.16      0.00
   12   12   18     -0.26      0.00
   13   12   18     -0.76      0.00
   14   12   18     -0.19      0.00
   15   12   18     -0.50      0.00
   16   12   18     -0.40      0.00
   17   12   18     -0.23      0.00
    1   13   18     -0.73      0.00
    2   13   18     -0.51      0.00
    3   13   18     -0.34      0.00
    4   13   18     -0.36      0.00
    5   13   18     -0.33      0.00
    6   13   18      0.01      0.00
    7   13   18     -0.04      0.00
    8   13   18      0.39      0.00
    9   13   18      0.29      0.00
   10   13   18      0.42      0.00
   11   13   18      0.01      0.00
   12   13   18     -0.36      0.00
   13   13   18     -0.01      0.00
   14   13   18     -0.29      0.00
   15   13   18      0.12      0.00
   16   13   18      0.11      0.00
   17   13   18      0.13      0.00
    0   14   18      0.40      0.00
    1   14   18     -0.19      0.00
    2   14   18     -0.09      0.00
    3   14   18     -0.28      0.00
    4   14   18     -0.45      0.00
    5   14   18     -0.17      0.00
    6   14   18      0.21      0.00
    7   14   18     -0.61      0.00
    8   14   18     -0.30      0.00
    9   14   18      0.10      0.00
   10   14   18     -0.52      0.00
   11   14   18     -0.07      0.00
   12   14   18     -0.24      0.00
   13   14   18     -0.42      0.00
   14   14   18     -0.31      0.00
   15   14   18      0.16      0.00
   16   14   18      0.18      0.00
    1   15   18      0.22      0.00
    2   15   18     -0.30      0.00
    3   15   18      0.03      0.00
    4   15   18     -0.23      0.00
    5   15   18      0.25      0.00
    6   15   18     -0.20      0.00
    7   15   18     -0.14      0.00
    8   15   18     -0.05      0.00
    9   15   18     -0.30      0.00
   10   15   18      0.05      0.00
   11   15   18     -0.34      0.00
   12   15   18     -0.51      0.00
   13   15   18     -0.22      0.00
   14   15   18      0.16      0.00
   15   15   18     -0.27      0.00
    0   16   18     -0.31      0.00
    1   16   18     -0.37      0.00
    2   16   18      0.32      0.00
    3   16   18      0.00      0.00
    4   16   18      0.81      0.00
    5   16   18     -0.47      0.00
    6   16   18      0.74      0.00
    7   16   18      0.16      0.00
    8   16   18      0.06      0.00
    9   16   18     -0.05      0.00
   10   16   18     -0.60      0.00
   11   16   18     -0.17      0.00
   12   16   18     -0.18      0.00
   13   16   18      0.12      0.00
   14   16   18      0.01      0.00
    1   17   18      0.47      0.00
    2   17   18      0.14      0.00
    3   17   18      0.11      0.00
    4   17   18     -0.29      0.00
    5   17   18      0.38      0.00
    6   17   18      0.14      0.00
    7   17   18      0.40      0.00
    8   17   18      0.37      0.00
    9   17   18      0.16      0.00
   10   17   18     -0.31      0.00
   11   17   18      0.10      0.00
   12   17   18      0.25      0.00
   13   17   18      0.20      0.00
    0   18   18      0.08      0.00
    1   18   18     -0.25      0.00
    2   18   18      0.65      0.00
    3   18   18     -0.47      0.00
    4   18   18      0.21      0.00
    5   18   18     -0.22      0.00
    6   18   18     -0.38      0.00
    7   18   18      0.03      0.00
    8   18   18     -0.50      0.00
    9   18   18     -0.20      0.00
   10   18   18     -0.12      0.00
   11   18   18      0.04      0.00
    3    1   19      0.72      0.00
   10    1   19      1.34      0.00
   11    1   19     -1.53      0.00
   12    1   19      0.70      0.00
   13    1   19     -0.40      0.00
   14    1   19      0.55      0.00
   15    1   19     -0.44      0.00
   16    1   19     -0.16      0.00
   17    1   19      0.16      0.00
   18    1   19     -0.97      0.00
    9    2   19     -0.82      0.00
   10    2   19     -0.33      0.00
   11    2   19      0.65      0.00
   12    2   19      0.99      0.00
   13    2   19     -0.08      0.00
   14    2   19      0.83      0.00
   15    2   19     -0.37      0.00
   16    2   19      0.31      0.00
   17    2   19     -0.95      0.00
   18    2   19      0.25      0.00
    2    3   19     -0.36      0.00
    9    3   19     -0.58      0.00
   10    3   19      0.16      0.00
   11    3   19      1.01      0.00
   12    3   19      0.64      0.00
   13    3   19     -0.44      0.00
   14    3   19      0.03      0.00
   15    3   19     -0.32      0.00
   16    3   19     -0.51      0.00
   17    3   19     -0.19      0.00
   18    3   19     -0.41      0.00
    9    4   19      0.59      0.00
   10    4   19     -0.59      0.00
   11    4   19     -0.34      0.00
   12    4   19     -0.29      0.00
   13    4   19     -0.34      0.00
   14    4   19      0.22      0.00
   15    4   19      0.04      0.00
   16    4   19     -0.20      0.00
   17    4   19     -0.18      0.00
   18    4   19     -0.08      0.00
    8    5   19      0.25      0.00
    9    5   19     -0.22      0.00
   10    5   19      0.79      0.00
   11    5   19      0.31      0.00
   12    5   19      0.32      0.00
   13    5   19     -0.14      0.00
   14    5   19      0.07      0.00
   15    5   19     -1.12      0.00
   16    5   19      0.06      0.00
   17    5   19     -0.09      0.00
   18    5   19      0.06      0.00
    7    6   19     -0.64      0.00
    8    6   19     -1.37      0.00
    9    6   19      0.43      0.00
   10    6   19      0.24      0.00
   11    6   19     -1.07      0.00
   12    6   19     -0.22      0.00
   13    6   19     -0.35      0.00
   14    6   19      0.28      0.00
   15    6   19     -0.07      0.00
   16    6   19      0.32      0.00
   17    6   19      0.00      0.00
   18    6   19      0.20      0.00
    6    7   19      0.57      0.00
    7    7   19     -1.28      0.00
    8    7   19     -0.05      0.00
    9    7   19     -1.23      0.00
   10    7   19     -0.22      0.00
   11    7   19     -0.68      0.00
   12    7   19      0.09      0.00
   13    7   19     -0.10      0.00
   14    7   19     -0.10      0.00
   15    7   19      0.03      0.00
   16    7   19      0.01      0.00
   17    7   19     -0.14      0.00
   18    7   19     -0.37      0.00
    5    8   19     -0.45      0.00
    6    8   19     -0.85      0.00
    7    8   19     -0.84      0.00
    8    8   19     -0.99      0.00
    9    8   19     -0.26      0.00
   10    8   19      1.01      0.00
   11    8   19      0.23      0.00
   12    8   19     -0.20      0.00
   13    8   19     -0.07      0.00
   14    8   19     -0.22      0.00
   15    8   19      0.20      0.00
   16    8   19      0.14      0.00
   17    8   19     -0.10      0.00
   18    8   19      0.05      0.00
    2    9   19     -0.75      0.00
    3    9   19     -0.14      0.00
    4    9   19     -0.48      0.00
    5    9   19     -0.92      0.00
    6    9   19     -0.11      0.00
    7    9   19     -1.25      0.00
    8    9   19     -0.38      0.00
    9    9   19      0.28      0.00
   10    9   19      0.18      0.00
   11    9   19      0.15      0.00
   12    9   19      0.87      0.00
   13    9   19      0.21      0.00
   14    9   19      0.16      0.00
   15    9   19      0.30      0.00
   16    9   19     -0.31      0.00
   17    9   19      0.09      0.00
   18    9   19     -0.17      0.00
    0   10   19     -0.63      0.00
    1   10   19      0.31      0.00
    2   10   19      0.07      0.00
    3   10   19     -0.08      0.00
    4   10   19      0.21      0.00
    5   10   19     -0.39      0.00
    6   10   19      0.35      0.00
    7   10   19     -1.65      0.00
    8   10   19      0.20      0.00
    9   10   19      0.29      0.00
   10   10   19     -0.51      0.00
   11   10   19      0.62      0.00
   12   10   19     -0.02      0.00
   13   10   19      0.26      0.00
   14   10   19     -0.43      0.00
   15   10   19      0.47      0.00
   16   10   19     -0.36      0.00
   17   10   19     -0.06      0.00
   18   10   19     -0.24      0.00
    1   11   19      0.34      0.00
    2   11   19      0.05      0.00
    3   11   19      0.38      0.00
    4   11   19      0.08      0.00
    5   11   19     -0.02      0.00
    6   11   19     -0.23      0.00
    7   11   19      0.13      0.00
    8   11   19     -0.01      0.00
    9   11   19      0.54      0.00
   10   11   19      0.50      0.00
   11   11   19     -0.05      0.00
   12   11   19     -0.14      0.00
   13   11   19     -0.64      0.00
   14   11   19     -0.20      0.00
   15   11   19     -0.77      0.00
   16   11   19     -0.31      0.00
   17   11   19     -0.17      0.00
    0   12   19      0.08      0.00
    1   12   19     -0.58      0.00
    2   12   19     -0.23      0.00
    3   12   19     -0.48      0.00
    4   12   19      0.11      0.00
    5   12   19     -0.44      0.00
    6   12   19      0.36      0.00
    7   12   19     -0.11      0.00
    8   12   19     -0.14      0.00
    9   12   19      0.12      0.00
   10   12   19     -0.02      0.00
   11   12   19     -0.20      0.00
   12   12   19     -0.02      0.00
   13   12   19     -0.19      0.00
   14   12   19     -0.09      0.00
   15   12   19     -0.11      0.00
   16   12   19      0.14      0.00
    1   13   19      1.05      0.00
    2   13   19      0.25      0.00
    3   13   19     -0.33      0.00
    4   13   19     -0.03      0.00
    5   13   19      0.41      0.00
    6   13   19      0.33      0.00
    7   13   19      0.31      0.00
    8   13   19      0.03      0.00
    9   13   19     -0.48      0.00
   10   13   19     -0.21      0.00
   11   13   19     -0.53      0.00
   12   13   19      0.16      0.00
   13   13   19     -0.85      0.00
   14   13   19     -0.02      0.00
   15   13   19     -0.04      0.00
    0   14   19      0.33      0.00
    1   14   19      0.03      0.00
    2   14   19     -0.52      0.00
    3   14   19     -0.55      0.00
    4   14   19      0.03      0.00
    5   14   19     -0.16      0.00
    6   14   19     -0.13      0.00
    7   14   19      0.21      0.00
    8   14   19     -0.01      0.00
    9   14   19      0.03      0.00
   10   14   19     -0.57      0.00
   11   14   19     -0.02      0.00
   12   14   19     -0.64      0.00
   13   14   19      0.11      0.00
   14   14   19      0.08      0.00
   15   14   19      0.07      0.00
    1   15   19     -0.31      0.00
    2   15   19      0.32      0.00
    3   15   19      0.38      0.00
    4   15   19     -0.06      0.00
    5   15   19      0.18      0.00
    6   15   19     -0.03      0.00
    7   15   19      0.16      0.00
    8   15   19     -0.03      0.00
    9   15   19     -0.26      0.00
   10   15   19      0.22      0.00
   11   15   19     -0.88      0.00
   12   15   19      0.01      0.00
   13   15   19     -0.19      0.00
   14   15   19      0.19      0.00
    0   16   19      0.44      0.00
    1   16   19     -0.17      0.00
    2   16   19      0.32      0.00
    3   16   19      0.11      0.00
    4   16   19      0.41      0.00
    5   16   19      0.04      0.00
    6   16   19      0.31      0.00
    7   16   19     -0.36      0.00
    8   16   19      0.20      0.00
    9   16   19     -0.21      0.00
   10   16   19     -0.45      0.00
   11   16   19     -0.02      0.00
   12   16   19      0.13      0.00
    1   17   19      0.20      0.00
    2   17   19      0.02      0.00
    3   17   19      0.79      0.00
    4   17   19      0.03      0.00
    5   17   19      0.51      0.00
    6   17   19      0.03      0.00
    7   17   19     -0.06      0.00
    8   17   19     -0.19      0.00
    9   17   19     -0.02      0.00
   10   17   19     -0.04      0.00
   11   17   19      0.06      0.00
    0   18   19     -0.06      0.00
    1   18   19     -0.06      0.00
    2   18   19      0.01      0.00
    3   18   19      0.09      0.00
    4   18   19      0.08      0.00
    5   18   19      0.26      0.00
    6   18   19      0.03      0.00
    7   18   19     -0.16      0.00
    8   18   19      0.31      0.00
    9   18   19     -0.40      0.00
   10   18   19      0.25      0.00
    1   19   19      0.05      0.00
    2   19   19      0.14      0.00
    3   19   19     -0.01      0.00
    4   19   19      0.35      0.00
    5   19   19     -0.07      0.00
    6   19   19      0.28      0.00
    7   19   19     -0.38      0.00
    7    0   20      1.53      0.00
    8    0   20     -1.16      0.00
    9    0   20      1.89      0.00
   10    0   20     -1.58      0.00
   11    0   20      0.44      0.00
   12    0   20     -0.40      0.00
   13    0   20      0.97      0.00
   14    0   20      0.37      0.00
   15    0   20      0.16      0.00
   16    0   20      0.33      0.00
   17    0   20     -0.13      0.00
   18    0   20     -0.92      0.00
   19    0   20     -0.49      0.00
    7    1   20      0.89      0.00
    8    1   20     -0.37      0.00
    9    1   20      0.65      0.00
   10    1   20      0.04      0.00
   11    1   20     -0.37      0.00
   12    1   20      0.51      0.00
   13    1   20      0.62      0.00
   14    1   20     -0.36      0.00
   15    1   20      0.15      0.00
   16    1   20      0.23      0.00
   17    1   20     -0.09      0.00
   18    1   20     -0.37      0.00
   19    1   20      0.22      0.00
    7    2   20      0.43      0.00
    8    2   20     -2.06      0.00
    9    2   20      1.22      0.00
   10    2   20     -1.03      0.00
   11    2   20      0.57      0.00
   12    2   20      0.38      0.00
   13    2   20     -0.16      0.00
   14    2   20      0.42      0.00
   15    2   20     -0.26      0.00
   16    2   20      0.47      0.00
   17    2   20     -0.56      0.00
   18    2   20      0.22      0.00
   19    2   20     -0.34      0.00
    6    3   20      1.05      0.00
    7    3   20      0.36      0.00
    8    3   20      0.15      0.00
    9    3   20      0.53      0.00
   10    3   20     -0.04      0.00
   11    3   20      0.34      0.00
   12    3   20     -0.11      0.00
   13    3   20      0.08      0.00
   14    3   20      0.07      0.00
   15    3   20     -0.04      0.00
   16    3   20      0.15      0.00
   17    3   20     -0.53      0.00
   18    3   20     -0.07      0.00
   19    3   20     -0.14      0.00
    6    4   20     -0.34      0.00
    7    4   20      0.31      0.00
    8    4   20     -1.01      0.00
    9    4   20     -0.23      0.00
   10    4   20     -0.35      0.00
   11    4   20      1.50      0.00
   12    4   20      0.21      0.00
   13    4   20     -0.03      0.00
   14    4   20      0.07      0.00
   15    4   20     -0.22      0.00
   16    4   20     -0.02      0.00
   17    4   20     -0.11      0.00
   18    4   20      0.52      0.00
   19    4   20     -0.27      0.00
    5    5   20     -1.27      0.00
    6    5   20     -0.03      0.00
    7    5   20      0.35      0.00
    8    5   20      1.26      0.00
    9    5   20     -0.60      0.00
   10    5   20     -0.20      0.00
   11    5   20      0.01      0.00
   12    5   20     -1.05      0.00
   13    5   20      0.53      0.00
   14    5   20      0.15      0.00
   15    5   20      0.20      0.00
   16    5   20     -0.12      0.00
   17    5   20      0.06      0.00
   18    5   20      0.02      0.00
    3    6   20     -0.03      0.00
    4    6   20     -0.30      0.00
    5    6   20      0.14      0.00
    6    6   20     -1.09      0.00
    7    6   20      0.36      0.00
    8    6   20      0.14      0.00
    9    6   20      0.33      0.00
   10    6   20     -0.62      0.00
   11    6   20      0.26      0.00
   12    6   20     -0.17      0.00
   13    6   20     -0.09      0.00
   14    6   20      0.28      0.00
   15    6   20      0.47      0.00
   16    6   20      0.08      0.00
   17    6   20     -0.27      0.00
   18    6   20     -0.45      0.00
    1    7   20      1.05      0.00
    2    7   20      0.18      0.00
    3    7   20      0.71      0.00
    4    7   20      0.61      0.00
    5    7   20     -0.46      0.00
    6    7   20     -0.44      0.00
    7    7   20     -0.12      0.00
    8    7   20     -0.48      0.00
    9    7   20     -0.15      0.00
   10    7   20      0.60      0.00
   11    7   20      0.37      0.00
   12    7   20     -0.52      0.00
   13    7   20      0.11      0.00
   14    7   20     -0.06      0.00
   15    7   20      0.12      0.00
   16    7   20      0.28      0.00
   17    7   20      0.23      0.00
   18    7   20      0.23      0.00
    0    8   20      1.29      0.00
    1    8   20     -0.63      0.00
    2    8   20      0.17      0.00
    3    8   20     -0.71      0.00
    4    8   20     -0.62      0.00
    5    8   20     -0.59      0.00
    6    8   20      0.31      0.00
    7    8   20      0.66      0.00
    8    8   20     -0.77      0.00
    9    8   20      0.84      0.00
   10    8   20     -0.47      0.00
   11    8   20      0.27      0.00
   12    8   20      0.34      0.00
   13    8   20      0.53      0.00
   14    8   20      0.35      0.00
   15    8   20     -0.36      0.00
   16    8   20      0.46      0.00
   17    8   20     -0.13      0.00
    1    9   20     -0.07      0.00
    2    9   20      0.06      0.00
    3    9   20     -0.58      0.00
    4    9   20     -0.22      0.00
    5    9   20      0.27      0.00
    6    9   20     -0.21      0.00
    7    9   20     -0.10      0.00
    8    9   20      0.67      0.00
    9    9   20     -0.41      0.00
   10    9   20      0.79      0.00
   11    9   20      0.33      0.00
   12    9   20      0.17      0.00
   13    9   20     -0.28      0.00
   14    9   20      0.30      0.00
   15    9   20     -0.35      0.00
   16    9   20      0.08      0.00
   17    9   20     -0.23      0.00
    0   10   20     -0.38      0.00
    1   10   20      0.31      0.00
    2   10   20     -0.01      0.00
    3   10   20     -0.65      0.00
    4   10   20     -0.14      0.00
    5   10   20     -0.36      0.00
    6   10   20     -0.42      0.00
    7   10   20      0.53      0.00
    8   10   20      0.19      0.00
    9   10   20      0.46      0.00
   10   10   20      0.70      0.00
   11   10   20      0.09      0.00
   12   10   20     -0.21      0.00
   13   10   20      0.24      0.00
   14   10   20     -0.30      0.00
   15   10   20     -0.68      0.00
   16   10   20     -0.10      0.00
    1   11   20      0.49      0.00
    2   11   20     -0.41      0.00
    3   11   20      0.38      0.00
    4   11   20     -0.21      0.00
    5   11   20     -0.27      0.00
    6   11   20      0.01      0.00
    7   11   20      0.40      0.00
    8   11   20     -0.12      0.00
    9   11   20      0.11      0.00
   10   11   20      0.05      0.00
   11   11   20     -0.30      0.00
   12   11   20     -0.19      0.00
   13   11   20      0.22      0.00
   14   11   20     -0.35      0.00
   15   11   20     -0.25      0.00
   16   11   20     -0.03      0.00
    0   12   20      0.68      0.00
    1   12   20      0.48      0.00
    2   12   20      0.65      0.00
    3   12   20      0.53      0.00
    4   12   20      0.01      0.00
    5   12   20      0.54      0.00
    6   12   20      0.55      0.00
    7   12   20      0.05      0.00
    8   12   20      0.36      0.00
    9   12   20      0.21      0.00
   10   12   20     -0.29      0.00
   11   12   20      0.09      0.00
   12   12   20     -0.11      0.00
   13   12   20      0.03      0.00
   14   12   20     -0.15      0.00
   15   12   20      0.15      0.00
    1   13   20      0.17      0.00
    2   13   20     -0.32      0.00
    3   13   20      0.21      0.00
    4   13   20      0.19      0.00
    5   13   20      0.13      0.00
    6   13   20     -0.09      0.00
    7   13   20      0.13      0.00
    8   13   20     -0.11      0.00
    9   13   20     -0.37      0.00
   10   13   20     -0.13      0.00
   11   13   20     -0.48      0.00
   12   13   20     -0.22      0.00
   13   13   20      0.04      0.00
   14   13   20     -0.24      0.00
    0   14   20      0.28      0.00
    1   14   20      0.09      0.00
    2   14   20     -0.21      0.00
    3   14   20      0.23      0.00
    4   14   20     -0.16      0.00
    5   14   20      0.41      0.00
    6   14   20      0.31      0.00
    7   14   20      0.28      0.00
    8   14   20     -0.46      0.00
    9   14   20      0.36      0.00
   10   14   20     -0.35      0.00
   11   14   20     -0.03      0.00
   12   14   20      0.17      0.00
   13   14   20      0.18      0.00
    1   15   20      0.03      0.00
    2   15   20     -0.12      0.00
    3   15   20     -0.02      0.00
    4   15   20      0.32      0.00
    5   15   20     -0.02      0.00
    6   15   20      0.16      0.00
    7   15   20     -0.08      0.00
    8   15   20     -0.22      0.00
    9   15   20     -0.45      0.00
   10   15   20     -0.06      0.00
   11   15   20     -0.19      0.00
   12   15   20      0.24      0.00
    0   16   20      0.00      0.00
    1   16   20     -0.01      0.00
    2   16   20     -0.40      0.00
    3   16   20      0.40      0.00
    4   16   20     -0.07      0.00
    5   16   20      0.27      0.00
    6   16   20      0.14      0.00
    7   16   20     -0.12      0.00
    8   16   20      0.13      0.00
    9   16   20     -0.03      0.00
   10   16   20      0.15      0.00
   11   16   20     -0.10      0.00
    1   17   20      0.19      0.00
    2   17   20      0.46      0.00
    3   17   20      0.33      0.00
    4   17   20     -0.06      0.00
    5   17   20      0.08      0.00
    6   17   20      0.00      0.00
    7   17   20      0.24      0.00
    8   17   20     -0.11      0.00
    9   17   20      0.23      0.00
    0   18   20      0.12      0.00
    1   18   20      0.05      0.00
    2   18   20      0.29      0.00
    3   18   20      0.52      0.00
    4   18   20      0.28      0.00
    5   18   20      0.12      0.00
    6   18   20     -0.22      0.00
    7   18   20      0.20      0.00
    1   19   20     -0.07      0.00
    2   19   20     -0.23      0.00
    3   19   20      0.06      0.00
    4   19   20     -0.17      0.00
    2    1   21      0.47      0.00
    3    1   21      0.29      0.00
    4    1   21     -0.22      0.00
    5    1   21     -1.42      0.00
    6    1   21      0.91      0.00
    7    1   21     -0.80      0.00
    8    1   21      1.23      0.00
    9    1   21     -0.60      0.00
   10    1   21     -0.01      0.00
   11    1   21      0.09      0.00
   12    1   21     -0.43      0.00
   13    1   21      1.03      0.00
   14    1   21     -0.11      0.00
   15    1   21      0.54      0.00
   16    1   21     -0.20      0.00
   17    1   21      0.29      0.00
   18    1   21      0.30      0.00
    0    2   21      0.14      0.00
    1    2   21     -0.54      0.00
    2    2   21      0.10      0.00
    3    2   21     -0.01      0.00
    4    2   21     -0.19      0.00
    5    2   21      0.01      0.00
    6    2   21      0.68      0.00
    7    2   21     -0.21      0.00
    8    2   21      0.78      0.00
    9    2   21     -0.42      0.00
   10    2   21     -0.10      0.00
   11    2   21     -0.28      0.00
   12    2   21      0.00      0.00
   13    2   21      0.09      0.00
   14    2   21     -0.28      0.00
   15    2   21      0.18      0.00
   16    2   21     -0.39      0.00
   17    2   21      0.25      0.00
   18    2   21     -0.66      0.00
    1    3   21      0.96      0.00
    2    3   21     -0.04      0.00
    3    3   21     -0.27      0.00
    4    3   21     -0.31      0.00
    5    3   21     -0.39      0.00
    6    3   21      0.50      0.00
    7    3   21     -1.58      0.00
    8    3   21      0.16      0.00
    9    3   21     -0.30      0.00
   10    3   21      0.13      0.00
   11    3   21      0.08      0.00
   12    3   21      0.22      0.00
   13    3   21      0.42      0.00
   14    3   21     -0.64      0.00
   15    3   21      1.07      0.00
   16    3   21      0.32      0.00
   17    3   21      0.40      0.00
   18    3   21      0.38      0.00
    0    4   21      1.13      0.00
    1    4   21     -0.56      0.00
    2    4   21      0.81      0.00
    3    4   21      0.10      0.00
    4    4   21     -0.68      0.00
    5    4   21     -0.06      0.00
    6    4   21      0.43      0.00
    7    4   21      0.24      0.00
    8    4   21     -0.22      0.00
    9    4   21      0.34      0.00
   10    4   21     -0.53      0.00
   11    4   21      0.21      0.00
   12    4   21      0.26      0.00
   13    4   21     -0.12      0.00
   14    4   21     -0.10      0.00
   15    4   21      0.32      0.00
   16    4   21     -0.13      0.00
   17    4   21      0.61      0.00
   18    4   21     -0.06      0.00
    1    5   21      0.57      0.00
    2    5   21     -0.09      0.00
    3    5   21     -0.58      0.00
    4    5   21      0.76      0.00
    5    5   21     -0.21      0.00
    6    5   21      0.13      0.00
    7    5   21     -0.72      0.00
    8    5   21      0.67      0.00
    9    5   21     -0.69      0.00
   10    5   21     -0.15      0.00
   11    5   21     -0.19      0.00
   12    5   21     -0.38      0.00
   13    5   21      0.22      0.00
   14    5   21     -0.07      0.00
   15    5   21      0.31      0.00
   16    5   21      0.24      0.00
   17    5   21     -0.11      0.00
    0    6   21      1.80      0.00
    1    6   21      0.11      0.00
    2    6   21      0.67      0.00
    3    6   21     -0.21      0.00
    4    6   21      0.25      0.00
    5    6   21      0.18      0.00
    6    6   21     -0.38      0.00
    7    6   21      0.55      0.00
    8    6   21     -0.03      0.00
    9    6   21      0.48      0.00
   10    6   21      0.67      0.00
   11    6   21     -0.25      0.00
   12    6   21      0.05      0.00
   13    6   21     -0.33      0.00
   14    6   21      0.38      0.00
   15    6   21      0.22      0.00
   16    6   21     -0.12      0.00
   17    6   21     -0.34      0.00
    1    7   21      0.82      0.00
    2    7   21      0.76      0.00
    3    7   21     -0.02      0.00
    4    7   21     -0.01      0.00
    5    7   21     -0.49      0.00
    6    7   21      0.55      0.00
    7    7   21      0.21      0.00
    8    7   21      0.42      0.00
    9    7   21      0.04      0.00
   10    7   21     -0.01      0.00
   11    7   21      0.37      0.00
   12    7   21      0.34      0.00
   13    7   21      0.43      0.00
   14    7   21      0.20      0.00
   15    7   21      0.49      0.00
   16    7   21      0.21      0.00
   17    7   21      0.29      0.00
    0    8   21     -0.49      0.00
    1    8   21     -0.26      0.00
    2    8   21     -0.11      0.00
    3    8   21      0.23      0.00
    4    8   21      0.08      0.00
    5    8   21      0.51      0.00
    6    8   21      0.12      0.00
    7    8   21      0.50      0.00
    8    8   21      0.12      0.00
    9    8   21      0.26      0.00
   10    8   21      0.16      0.00
   11    8   21      0.70      0.00
   12    8   21     -0.02      0.00
   13    8   21     -0.13      0.00
   14    8   21      0.27      0.00
   15    8   21      0.35      0.00
   16    8   21     -0.05      0.00
    1    9   21     -0.16      0.00
    2    9   21     -0.06      0.00
    3    9   21     -0.54      0.00
    4    9   21     -0.33      0.00
    5    9   21     -0.10      0.00
    6    9   21     -0.13      0.00
    7    9   21      0.35      0.00
    8    9   21      0.25      0.00
    9    9   21      0.12      0.00
   10    9   21     -0.06      0.00
   11    9   21      0.06      0.00
   12    9   21     -0.01      0.00
   13    9   21      0.18      0.00
   14    9   21     -0.10      0.00
   15    9   21     -0.06      0.00
   16    9   21     -0.25      0.00
    0   10   21     -0.08      0.00
    1   10   21      0.03      0.00
    2   10   21     -0.20      0.00
    3   10   21      0.19      0.00
    4   10   21     -0.09      0.00
    5   10   21      0.44      0.00
    6   10   21      0.44      0.00
    7   10   21      0.44      0.00
    8   10   21      0.00      0.00
    9   10   21      0.49      0.00
   10   10   21     -0.52      0.00
   11   10   21      0.07      0.00
   12   10   21     -0.20      0.00
   13   10   21     -0.18      0.00
   14   10   21     -0.13      0.00
   15   10   21     -0.05      0.00
    1   11   21     -0.47      0.00
    2   11   21      0.04      0.00
    3   11   21     -0.20      0.00
    4   11   21      0.31      0.00
    5   11   21      0.62      0.00
    6   11   21      0.25      0.00
    7   11   21      0.54      0.00
    8   11   21      0.30      0.00
    9   11   21     -0.32      0.00
   10   11   21      0.21      0.00
   11   11   21     -0.03      0.00
   12   11   21     -0.34      0.00
   13   11   21      0.13      0.00
   14   11   21     -0.21      0.00
    0   12   21      0.64      0.00
    1   12   21      0.09      0.00
    2   12   21      0.53      0.00
    3   12   21      0.04      0.00
    4   12   21      0.20      0.00
    5   12   21      0.32      0.00
    6   12   21      0.31      0.00
    7   12   21      0.56      0.00
    8   12   21      0.12      0.00
    9   12   21     -0.29      0.00
   10   12   21     -0.02      0.00
   11   12   21     -0.56      0.00
   12   12   21      0.32      0.00
   13   12   21     -0.52      0.00
   14   12   21      0.08      0.00
    1   13   21      0.23      0.00
    2   13   21      0.20      0.00
    3   13   21     -0.35      0.00
    4   13   21     -0.02      0.00
    5   13   21     -0.03      0.00
    6   13   21      0.62      0.00
    7   13   21      0.20      0.00
    8   13   21      0.19      0.00
    9   13   21     -0.14      0.00
   10   13   21     -0.16      0.00
   11   13   21      0.44      0.00
   12   13   21      0.36      0.00
   13   13   21      0.61      0.00
    0   14   21     -0.29      0.00
    1   14   21      0.53      0.00
    2   14   21      0.18      0.00
    3   14   21      0.20      0.00
    4   14   21     -0.18      0.00
    5   14   21      0.07      0.00
    6   14   21     -0.27      0.00
    7   14   21     -0.15      0.00
    8   14   21      0.05      0.00
    9   14   21     -0.08      0.00
   10   14   21     -0.34      0.00
   11   14   21      0.34      0.00
   12   14   21      0.11      0.00
    1   15   21     -0.71      0.00
    2   15   21     -0.32      0.00
    3   15   21     -0.28      0.00
    4   15   21      0.28      0.00
    5   15   21     -0.54      0.00
    6   15   21     -0.16      0.00
    7   15   21     -0.16      0.00
    8   15   21     -0.03      0.00
    9   15   21      0.11      0.00
   10   15   21      0.24      0.00
    0   16   21     -0.37      0.00
    1   16   21      0.05      0.00
    2   16   21      0.05      0.00
    3   16   21      0.04      0.00
    4   16   21      0.11      0.00
    5   16   21      0.18      0.00
    6   16   21     -0.38      0.00
    7   16   21      0.16      0.00
    8   16   21     -0.06      0.00
    9   16   21      0.10      0.00
    1   17   21      0.15      0.00
    2   17   21      0.01      0.00
    3   17   21      0.05      0.00
    4   17   21      0.57      0.00
    5   17   21     -0.54      0.00
    6   17   21      0.09      0.00
    7   17   21      0.11      0.00
    0   18   21      0.01      0.00
    1   18   21      0.01      0.00
    2   18   21      0.08      0.00
    3   18   21      0.04      0.00
    4   18   21     -0.02      0.00
    0    0    0      0.00      0.00
# SQUEEZE RESULTS
# Note: Data are Listed for all Voids in the P1 Unit Cell
# i.e. Centre of Gravity, Solvent Accessible Volume,
# Recovered number of Electrons in the Void and
# Details about the Squeezed Material
loop_
  _platon_squeeze_void_nr
  _platon_squeeze_void_average_x
  _platon_squeeze_void_average_y
  _platon_squeeze_void_average_z
  _platon_squeeze_void_volume
  _platon_squeeze_void_count_electrons
  _platon_squeeze_void_content
   1 -0.028 -0.004  0.299      7048      2535 ' '
_platon_squeeze_details
(replace by semicolon in column 1 when used as .sqf)
TITL MOF-950 in Pa-3
CELL   21.2832   21.2832   21.2832     90.00     90.00     90.00
SPGR Pa-3
# Solvent Accessible Volume =    7045.8
# Electrons Found in S.A.V. =    2526.9
# Note: Atoms in Void as Cxxx and Qxxx all others
C101 1.000 0.780 0.719 !       0.85 eA-3
C102 0.406 0.482 0.755 !       0.85 eA-3
C103 0.757 0.470 0.748 !       0.81 eA-3
C104 0.245 0.846 0.029 !       0.79 eA-3
C105 0.389 0.549 0.728 !       0.78 eA-3
C106 0.020 0.270 0.765 !       0.78 eA-3
C107 0.224 0.169 0.489 !       0.77 eA-3
C108 0.940 0.452 0.055 !       0.76 eA-3
C109 0.247 0.950 0.768 !       0.75 eA-3
C110 0.526 0.784 0.839 !       0.75 eA-3
C111 0.574 0.732 0.403 !       0.69 eA-3
C112 0.261 0.546 0.549 !       0.69 eA-3
C113 0.106 0.936 0.488 !       0.69 eA-3
C114 0.934 0.505 0.055 !       0.69 eA-3
C115 0.105 0.562 0.979 !       0.69 eA-3
C116 0.429 0.416 0.494 !       0.68 eA-3
Q117 0.707 0.929 0.495 !       0.67 eA-3
C118 0.800 0.518 0.975 !       0.66 eA-3
C119 0.574 0.202 0.708 !       0.66 eA-3
C120 0.763 0.293 0.930 !       0.66 eA-3
C121 0.539 0.537 0.535 !       0.66 eA-3
C122 0.075 0.205 0.802 !       0.66 eA-3
C123 0.245 0.602 0.562 !       0.64 eA-3
C124 0.718 0.693 0.927 !       0.63 eA-3
C125 0.143 0.699 0.081 !       0.62 eA-3
C126 0.589 0.183 0.764 !       0.62 eA-3
C127 0.178 0.738 0.569 !       0.61 eA-3
C128 0.121 0.984 0.469 !       0.61 eA-3
C129 0.242 0.607 0.339 !       0.60 eA-3
C130 0.313 0.468 0.543 !       0.59 eA-3
C131 0.935 0.670 0.897 !       0.59 eA-3
C132 1.000 0.458 0.966 !       0.59 eA-3
C133 0.623 0.055 0.196 !       0.58 eA-3
C134 0.128 0.904 0.531 !       0.58 eA-3
C135 0.540 0.337 0.420 !       0.58 eA-3
C136 0.825 0.390 0.937 !       0.58 eA-3
C137 0.369 0.872 0.635 !       0.58 eA-3
C138 0.585 0.130 0.736 !       0.58 eA-3
C139 0.690 0.078 0.195 !       0.57 eA-3
C140 0.919 0.719 0.920 !       0.57 eA-3
C141 0.158 0.072 0.353 !       0.57 eA-3
C142 0.326 0.754 0.801 !       0.57 eA-3
C143 0.735 0.748 0.313 !       0.57 eA-3
C144 0.124 0.081 0.304 !       0.57 eA-3
C145 0.060 0.365 0.137 !       0.57 eA-3
C146 0.845 0.845 0.845 !       0.57 eA-3
C147 0.387 0.715 0.098 !       0.57 eA-3
C148 0.645 0.786 0.874 !       0.57 eA-3
C149 0.201 0.234 0.750 !       0.56 eA-3
C150 0.665 0.557 0.467 !       0.56 eA-3
C151 0.829 0.687 0.748 !       0.56 eA-3
C152 0.608 0.195 0.723 !       0.56 eA-3
C153 0.789 0.563 0.167 !       0.56 eA-3
C154 0.220 0.894 0.769 !       0.55 eA-3
C155 0.594 0.251 0.859 !       0.55 eA-3
C156 0.720 0.421 0.885 !       0.55 eA-3
C157 0.480 0.852 0.760 !       0.55 eA-3
C158 0.066 0.349 0.728 !       0.55 eA-3
C159 0.291 0.765 0.555 !       0.54 eA-3
C160 0.346 0.925 0.774 !       0.54 eA-3
C161 0.742 0.953 0.906 !       0.54 eA-3
C162 0.220 0.936 0.623 !       0.54 eA-3
C163 0.722 0.938 0.872 !       0.54 eA-3
C164 0.281 0.835 0.155 !       0.54 eA-3
Q165 0.380 0.676 0.095 !       0.54 eA-3
C166 0.073 0.300 0.732 !       0.54 eA-3
C167 0.672 0.451 0.568 !       0.53 eA-3
C168 0.563 0.325 0.763 !       0.53 eA-3
C169 0.859 0.737 0.925 !       0.53 eA-3
C170 0.304 0.214 0.123 !       0.53 eA-3
C171 0.829 0.833 0.312 !       0.53 eA-3
C172 0.812 0.681 0.390 !       0.53 eA-3
C173 0.625 0.040 0.952 !       0.52 eA-3
C174 0.705 0.283 0.297 !       0.52 eA-3
C175 0.591 0.248 0.939 !       0.52 eA-3
C176 0.846 0.708 0.373 !       0.52 eA-3
C177 0.034 0.062 0.357 !       0.51 eA-3
C178 0.682 0.097 0.965 !       0.51 eA-3
C179 0.706 1.004 0.890 !       0.51 eA-3
C180 0.419 0.383 0.740 !       0.51 eA-3
C181 0.400 0.722 0.163 !       0.50 eA-3
(replace by semicolon in column 1 when used as .sqf)
;
_shelx_fab_checksum              69167
loop_
_space_group_symop_operation_xyz
'x, y, z'
'-x+1/2, -y, z+1/2'
'-x, y+1/2, -z+1/2'
'x+1/2, -y+1/2, -z'
'z, x, y'
'z+1/2, -x+1/2, -y'
'-z+1/2, -x, y+1/2'
'-z, x+1/2, -y+1/2'
'y, z, x'
'-y, z+1/2, -x+1/2'
'y+1/2, -z+1/2, -x'
'-y+1/2, -z, x+1/2'
'-x, -y, -z'
'x-1/2, y, -z-1/2'
'x, -y-1/2, z-1/2'
'-x-1/2, y-1/2, z'
'-z, -x, -y'
'-z-1/2, x-1/2, y'
'z-1/2, x, -y-1/2'
'z, -x-1/2, y-1/2'
'-y, -z, -x'
'y, -z-1/2, x-1/2'
'-y-1/2, z-1/2, x'
'y-1/2, z, -x-1/2'
loop_
_atom_site_label
_atom_site_type_symbol
_atom_site_fract_x
_atom_site_fract_y
_atom_site_fract_z
_atom_site_U_iso_or_equiv
_atom_site_adp_type
_atom_site_occupancy
_atom_site_site_symmetry_order
_atom_site_calc_flag
_atom_site_refinement_flags_posn
_atom_site_refinement_flags_adp
_atom_site_refinement_flags_occupancy
_atom_site_disorder_assembly
_atom_site_disorder_group
Zn1 Zn 0.44414(6) 0.55586(6) 0.05586(6) 0.0888(8) Uani 0.5 3 d S T P . .
Zn2 Zn 0.53505(6) 0.49751(7) 0.08183(6) 0.0985(8) Uani 0.5 1 d D . P . .
O1 O 0.5000 0.5000 0.0000 0.078(2) Uani 1 6 d S T P . .
O2 O 0.4888(4) 0.6227(4) 0.0946(4) 0.122(3) Uani 0.5 1 d . . P A 2
O2' O 0.5486(7) 0.5806(5) 0.1153(5) 0.180(5) Uani 0.5 1 d . . P A 1
O3 O 0.5882(5) 0.6141(6) 0.0517(7) 0.153(5) Uani 0.5 1 d . . P . 2
O3' O 0.5519(7) 0.6332(6) 0.0240(6) 0.162(5) Uani 0.5 1 d . . P . 1
C1 C 0.5503(5) 0.6355(4) 0.0837(4) 0.157(3) Uani 1 1 d . U . . .
C2 C 0.5711(4) 0.6907(4) 0.1215(4) 0.177(4) Uani 1 1 d . U . . .
H2 H 0.5498 0.7006 0.1594 0.212 Uiso 1 1 calc R U . . .
C3 C 0.6158(4) 0.7240(4) 0.1044(4) 0.167(3) Uani 1 1 d . U . . .
H3 H 0.6366 0.7117 0.0669 0.200 Uiso 1 1 calc R U . . .
C4 C 0.6406(3) 0.7822(3) 0.1371(3) 0.144(3) Uani 1 1 d . U . . .
C5 C 0.6133(3) 0.8072(3) 0.1902(3) 0.155(3) Uani 1 1 d . U . . .
H5 H 0.5773 0.7875 0.2077 0.186 Uiso 1 1 calc R U . . .
loop_
_atom_site_aniso_label
_atom_site_aniso_U_11
_atom_site_aniso_U_22
_atom_site_aniso_U_33
_atom_site_aniso_U_23
_atom_site_aniso_U_13
_atom_site_aniso_U_12
Zn1 0.0888(8) 0.0888(8) 0.0888(8) 0.0042(7) -0.0042(7) -0.0042(7)
Zn2 0.1086(12) 0.1005(11) 0.0862(11) -0.0011(7) -0.0074(7) -0.0024(8)
O1 0.078(2) 0.078(2) 0.078(2) 0.019(2) -0.019(2) -0.019(2)
O2 0.122(6) 0.105(6) 0.140(7) -0.030(5) -0.006(5) -0.033(5)
O2' 0.271(15) 0.120(8) 0.149(9) -0.045(7) 0.004(9) -0.030(9)
O3 0.118(8) 0.219(13) 0.122(9) -0.094(9) 0.014(7) -0.059(7)
O3' 0.192(13) 0.146(9) 0.147(11) -0.061(8) 0.005(8) -0.112(9)
C1 0.196(9) 0.143(7) 0.133(7) -0.033(5) 0.019(7) -0.082(6)
C2 0.181(7) 0.188(7) 0.161(6) -0.069(5) 0.050(5) -0.079(6)
C3 0.152(6) 0.174(6) 0.174(6) -0.069(5) 0.065(5) -0.077(5)
C4 0.139(5) 0.148(5) 0.145(5) -0.066(4) 0.054(4) -0.061(4)
C5 0.156(6) 0.155(6) 0.154(6) -0.072(5) 0.070(5) -0.074(5)
loop_
_atom_type_symbol
_atom_type_description
_atom_type_scat_dispersion_real
_atom_type_scat_dispersion_imag
_atom_type_scat_source
C C 0.0181 0.0091 'International Tables Vol C Tables 4.2.6.8 and 6.1.1.4'
H H 0.0000 0.0000 'International Tables Vol C Tables 4.2.6.8 and 6.1.1.4'
O O 0.0492 0.0322 'International Tables Vol C Tables 4.2.6.8 and 6.1.1.4'
Zn Zn -1.5491 0.6778 'International Tables Vol C Tables 4.2.6.8 and 6.1.1.4'
loop_
_geom_angle_atom_site_label_1
_geom_angle_atom_site_label_2
_geom_angle_atom_site_label_3
_geom_angle
_geom_angle_site_symmetry_1
_geom_angle_site_symmetry_3
O2 Zn1 O2 105.5(3) 10_655 7_564
O2 Zn1 O2 105.5(3) 10_655 .
O2 Zn1 O2 105.5(3) 7_564 .
O2 Zn1 O1 113.2(3) 10_655 .
O2 Zn1 O1 113.2(3) 7_564 .
O2 Zn1 O1 113.2(3) . .
O2 Zn1 Zn2 163.3(3) 10_655 .
O2 Zn1 Zn2 85.2(3) 7_564 .
O2 Zn1 Zn2 83.3(3) . .
O1 Zn1 Zn2 50.15(5) . .
O2 Zn1 Zn2 85.2(3) 10_655 7_564
O2 Zn1 Zn2 83.2(3) 7_564 7_564
O2 Zn1 Zn2 163.3(3) . 7_564
O1 Zn1 Zn2 50.16(5) . 7_564
Zn2 Zn1 Zn2 83.35(8) . 7_564
O2 Zn1 Zn2 83.2(3) 10_655 10_655
O2 Zn1 Zn2 163.3(3) 7_564 10_655
O2 Zn1 Zn2 85.2(3) . 10_655
O1 Zn1 Zn2 50.16(5) . 10_655
Zn2 Zn1 Zn2 83.35(8) . 10_655
Zn2 Zn1 Zn2 83.35(8) 7_564 10_655
O1 Zn2 O2' 111.9(4) . .
O1 Zn2 O3' 105.9(4) . 7_564
O2' Zn2 O3' 112.3(6) . 7_564
O1 Zn2 O3 114.3(3) . 22_565
O1 Zn2 Zn2 56.054(19) . 22_565
O2' Zn2 Zn2 164.1(4) . 22_565
O3' Zn2 Zn2 66.1(5) 7_564 22_565
O3 Zn2 Zn2 86.1(4) 22_565 22_565
O1 Zn2 Zn2 56.054(19) . 19_656
O2' Zn2 Zn2 83.0(4) . 19_656
O3' Zn2 Zn2 160.8(5) 7_564 19_656
O3 Zn2 Zn2 81.7(4) 22_565 19_656
Zn2 Zn2 Zn2 95.94(9) 22_565 19_656
O1 Zn2 O3' 96.4(3) . 22_565
O2' Zn2 O3' 98.8(6) . 22_565
O3' Zn2 O3' 130.3(5) 7_564 22_565
Zn2 Zn2 O3' 93.2(4) 22_565 22_565
Zn2 Zn2 O3' 53.8(3) 19_656 22_565
O1 Zn2 Zn1 56.53(6) . .
O2' Zn2 Zn1 74.2(4) . .
O3' Zn2 Zn1 83.6(4) 7_564 .
O3 Zn2 Zn1 170.4(3) 22_565 .
Zn2 Zn2 Zn1 90.01(5) 22_565 .
Zn2 Zn2 Zn1 90.01(5) 19_656 .
O3' Zn2 Zn1 143.8(3) 22_565 .
O1 Zn2 Zn2 33.948(19) . 7_564
O2' Zn2 Zn2 122.1(4) . 7_564
O3' Zn2 Zn2 72.2(4) 7_564 7_564
O3 Zn2 Zn2 126.4(4) 22_565 7_564
Zn2 Zn2 Zn2 42.03(4) 22_565 7_564
Zn2 Zn2 Zn2 90.001(1) 19_656 7_564
O3' Zn2 Zn2 122.2(3) 22_565 7_564
Zn1 Zn2 Zn2 48.32(4) . 7_564
O1 Zn2 Zn2 33.946(19) . 10_655
O2' Zn2 Zn2 78.6(4) . 10_655
O3' Zn2 Zn2 127.1(4) 7_564 10_655
O3 Zn2 Zn2 122.8(4) 22_565 10_655
Zn2 Zn2 Zn2 90.0 22_565 10_655
Zn2 Zn2 Zn2 42.03(4) 19_656 10_655
O3' Zn2 Zn2 95.6(3) 22_565 10_655
Zn1 Zn2 Zn2 48.32(4) . 10_655
Zn2 Zn2 Zn2 60.0 7_564 10_655
Zn2 O1 Zn2 67.89(4) 19_656 .
Zn2 O1 Zn2 112.11(4) 19_656 22_565
Zn2 O1 Zn2 67.89(4) . 22_565
Zn2 O1 Zn2 180.0 19_656 7_564
Zn2 O1 Zn2 112.11(4) . 7_564
Zn2 O1 Zn2 67.89(4) 22_565 7_564
Zn2 O1 Zn2 112.11(4) 19_656 13_665
Zn2 O1 Zn2 180.00(8) . 13_665
Zn2 O1 Zn2 112.11(4) 22_565 13_665
Zn2 O1 Zn2 67.89(4) 7_564 13_665
Zn2 O1 Zn2 67.89(4) 19_656 10_655
Zn2 O1 Zn2 112.11(4) . 10_655
Zn2 O1 Zn2 180.0 22_565 10_655
Zn2 O1 Zn2 112.11(4) 7_564 10_655
Zn2 O1 Zn2 67.89(4) 13_665 10_655
Zn2 O1 Zn1 73.31(4) 19_656 19_656
Zn2 O1 Zn1 106.69(4) . 19_656
Zn2 O1 Zn1 73.31(4) 22_565 19_656
Zn2 O1 Zn1 106.69(4) 7_564 19_656
Zn2 O1 Zn1 73.31(4) 13_665 19_656
Zn2 O1 Zn1 106.69(4) 10_655 19_656
Zn2 O1 Zn1 106.69(4) 19_656 .
Zn2 O1 Zn1 73.31(4) . .
Zn2 O1 Zn1 106.69(4) 22_565 .
Zn2 O1 Zn1 73.31(4) 7_564 .
Zn2 O1 Zn1 106.69(4) 13_665 .
Zn2 O1 Zn1 73.31(4) 10_655 .
Zn1 O1 Zn1 180.0 19_656 .
C1 O2 Zn1 124.0(6) . .
C1 O2' Zn2 127.8(8) . .
C1 O3 Zn2 126.8(8) . 19_656
C1 O3' Zn2 130.1(9) . 10_655
C1 O3' Zn2 104.4(11) . 19_656
Zn2 O3' Zn2 60.2(3) 10_655 19_656
O3 C1 O2 134.4(9) . .
O3' C1 O2' 117.8(10) . .
O3 C1 C2 115.0(10) . .
O3' C1 C2 124.1(9) . .
O2 C1 C2 110.6(8) . .
O2' C1 C2 114.9(9) . .
C3 C2 C1 121.3(7) . .
C3 C2 H2 119.3 . .
C1 C2 H2 119.3 . .
C2 C3 C4 126.9(7) . .
C2 C3 H3 116.6 . .
C4 C3 H3 116.6 . .
C5 C4 C5 119.0(6) 12_664 .
C5 C4 C3 118.0(6) 12_664 .
C5 C4 C3 123.0(6) . .
C4 C5 C4 121.0(6) 6_566 .
C4 C5 H5 119.5 6_566 .
C4 C5 H5 119.5 . .
loop_
_geom_bond_atom_site_label_1
_geom_bond_atom_site_label_2
_geom_bond_distance
_geom_bond_site_symmetry_2
Zn1 O2 1.900(7) 10_655
Zn1 O2 1.900(7) 7_564
Zn1 O2 1.900(7) .
Zn1 O1 2.059(2) .
Zn1 Zn2 2.365(2) .
Zn1 Zn2 2.365(2) 7_564
Zn1 Zn2 2.365(2) 10_655
Zn2 O1 1.8954(13) .
Zn2 O2' 1.928(8) .
Zn2 O3' 1.969(8) 7_564
Zn2 O3 1.986(10) 22_565
Zn2 Zn2 2.1168(18) 22_565
Zn2 Zn2 2.1168(18) 19_656
Zn2 O3' 2.231(14) 22_565
Zn2 Zn2 3.145(2) 7_564
Zn2 Zn2 3.145(2) 10_655
O1 Zn2 1.8954(13) 19_656
O1 Zn2 1.8954(13) 22_565
O1 Zn2 1.8955(13) 7_564
O1 Zn2 1.8955(13) 13_665
O1 Zn2 1.8955(13) 10_655
O1 Zn1 2.059(2) 19_656
O2 C1 1.356(12) .
O2' C1 1.350(13) .
O3 C1 1.150(13) .
O3 Zn2 1.986(10) 19_656
O3' C1 1.272(14) .
O3' Zn2 1.969(8) 10_655
O3' Zn2 2.231(14) 19_656
C1 C2 1.493(10) .
C2 C3 1.240(9) .
C2 H2 0.9500 .
C3 C4 1.514(8) .
C3 H3 0.9500 .
C4 C5 1.356(8) 12_664
C4 C5 1.378(7) .
C5 C4 1.356(8) 6_566
C5 H5 0.9500 .
