#------------------------------------------------------------------------------
#$Date: 2019-11-25 10:02:50 +0200 (Mon, 25 Nov 2019) $
#$Revision: 240645 $
#$URL: file:///home/coder/svn-repositories/cod/cif/4/13/00/4130053.cif $
#------------------------------------------------------------------------------
#
# This file is available in the Crystallography Open Database (COD),
# http://www.crystallography.net/
#
# All data on this site have been placed in the public domain by the
# contributors.
#
data_4130053
loop_
_publ_author_name
'Thacker, Nathan C.'
'Lin, Zekai'
'Zhang, Teng'
'Gilhula, James C.'
'Abney, Carter W.'
'Lin, Wenbin'
_publ_section_title
;
 Robust and Porous \b-Diketiminate-Functionalized Metal-Organic Frameworks
 for Earth-Abundant-Metal-Catalyzed C-H Amination and Hydrogenation.
;
_journal_issue                   10
_journal_name_full               'Journal of the American Chemical Society'
_journal_page_first              3501
_journal_page_last               3509
_journal_paper_doi               10.1021/jacs.5b13394
_journal_volume                  138
_journal_year                    2016
_chemical_formula_moiety         'C17 H18 Cl2 Co N2'
_chemical_formula_sum            'C17 H18 Cl2 Co N2'
_chemical_formula_weight         380.16
_space_group_crystal_system      orthorhombic
_space_group_IT_number           33
_space_group_name_Hall           'P 2c -2n'
_space_group_name_H-M_alt        'P n a 21'
_atom_sites_solution_hydrogens   geom
_audit_creation_date             2015-09-29
_audit_creation_method
;
Olex2 1.2
(compiled 2015.09.21 svn.r3230 for OlexSys, GUI svn.r5100)
;
_cell_angle_alpha                90
_cell_angle_beta                 90
_cell_angle_gamma                90
_cell_formula_units_Z            4
_cell_length_a                   10.305(2)
_cell_length_b                   22.491(4)
_cell_length_c                   7.4571(15)
_cell_measurement_reflns_used    2662
_cell_measurement_temperature    100(2)
_cell_measurement_theta_max      15.1075
_cell_measurement_theta_min      2.3577
_cell_volume                     1728.3(6)
_computing_molecular_graphics    'Olex2 (Dolomanov et al., 2009)'
_computing_publication_material  'Olex2 (Dolomanov et al., 2009)'
_computing_structure_refinement  'XL (Sheldrick, 2008)'
_diffrn_ambient_temperature      100.15
_diffrn_measured_fraction_theta_full 0.774
_diffrn_measured_fraction_theta_max 0.754
_diffrn_measurement_device_type  'synchrotron, beamline 15-ID, APEX2 detector'
_diffrn_measurement_method       'phi scans'
_diffrn_radiation_type           'synchrotron radiation'
_diffrn_radiation_wavelength     0.41328
_diffrn_reflns_av_R_equivalents  0.0860
_diffrn_reflns_av_unetI/netI     0.1002
_diffrn_reflns_Laue_measured_fraction_full 0.774
_diffrn_reflns_Laue_measured_fraction_max 0.754
_diffrn_reflns_limit_h_max       11
_diffrn_reflns_limit_h_min       -7
_diffrn_reflns_limit_k_max       23
_diffrn_reflns_limit_k_min       -25
_diffrn_reflns_limit_l_max       4
_diffrn_reflns_limit_l_min       -9
_diffrn_reflns_number            3785
_diffrn_reflns_point_group_measured_fraction_full 0.561
_diffrn_reflns_point_group_measured_fraction_max 0.528
_diffrn_reflns_theta_full        14.357
_diffrn_reflns_theta_max         15.141
_diffrn_reflns_theta_min         1.559
_exptl_absorpt_coefficient_mu    0.257
_exptl_crystal_density_diffrn    1.461
_exptl_crystal_description       needle
_exptl_crystal_F_000             780
_refine_diff_density_max         0.474
_refine_diff_density_min         -0.494
_refine_diff_density_rms         0.090
_refine_ls_abs_structure_details
;
 Flack x determined using 333 quotients [(I+)-(I-)]/[(I+)+(I-)]
 (Parsons, Flack and Wagner, Acta Cryst. B69 (2013) 249-259).
;
_refine_ls_abs_structure_Flack   0.02(10)
_refine_ls_extinction_method     none
_refine_ls_goodness_of_fit_ref   1.028
_refine_ls_hydrogen_treatment    constr
_refine_ls_matrix_type           full
_refine_ls_number_parameters     201
_refine_ls_number_reflns         1926
_refine_ls_number_restraints     79
_refine_ls_restrained_S_all      1.018
_refine_ls_R_factor_all          0.0806
_refine_ls_R_factor_gt           0.0516
_refine_ls_shift/su_max          0.000
_refine_ls_shift/su_mean         0.000
_refine_ls_structure_factor_coef Fsqd
_refine_ls_weighting_details
'w=1/[\s^2^(Fo^2^)+(0.0472P)^2^] where P=(Fo^2^+2Fc^2^)/3'
_refine_ls_weighting_scheme      calc
_refine_ls_wR_factor_gt          0.1033
_refine_ls_wR_factor_ref         0.1135
_reflns_Friedel_coverage         0.298
_reflns_Friedel_fraction_full    0.309
_reflns_Friedel_fraction_max     0.263
_reflns_number_gt                1468
_reflns_number_total             1926
_reflns_threshold_expression     'I > 2\s(I)'
_cod_data_source_file            ja5b13394_si_002.cif
_cod_data_source_block           conacnac2_solve_a
_cod_database_code               4130053
_shelx_space_group_comment
;
The symmetry employed for this shelxl refinement is uniquely defined
by the following loop, which should always be used as a source of
symmetry information in preference to the above space-group names.
They are only intended as comments.
;
_olex2_refinement_description
;
1. Fixed Uiso
 At 1.2 times of:
  All C(H) groups, All C(H,H) groups
 At 1.5 times of:
  All C(H,H,H) groups
2. Uiso/Uaniso restraints and constraints
Uanis(C12) \\sim Ueq: with sigma of 0.005 and sigma for terminal atoms of 0.01
3. Rigid body (RIGU) restrains
 C12, C13, C14, C15, C16, C17
 with sigma for 1-2 distances of 0.005 and sigma for 1-3 distances of 0.005
 C6, C7, C8, C9, C10, C11
 with sigma for 1-2 distances of 0.005 and sigma for 1-3 distances of 0.005
4.a Secondary CH2 refined with riding coordinates:
 C3(H3A,H3B)
4.b Aromatic/amide H refined with riding coordinates:
 C7(H7), C8(H8), C9(H9), C10(H10), C11(H11), C13(H13), C14(H14), C15(H15),
 C16(H16), C17(H17)
4.c Idealised Me refined as rotating group:
 C1(H1A,H1B,H1C), C5(H5A,H5B,H5C)
;
_shelx_res_file
;
    conacnac2_solve_a.res created by SHELXL-2014/7

TITL CoNacNac2_solve_a.res in Pna2(1)
CELL 0.41328 10.3046 22.4915 7.4571 90 90 90
ZERR 4 0.0021 0.0044 0.0015 0 0 0
LATT -1
SYMM -X,-Y,0.5+Z
SYMM 0.5+X,0.5-Y,+Z
SYMM 0.5-X,0.5+Y,0.5+Z
SFAC C H Cl Co N
DISP C -0 0.001 1.09
DISP Cl 0.055 0.053 123.31
DISP Co 0.216 0.355 828.13
DISP N 0.001 0.001 2.27
UNIT 68 72 8 4 8
RIGU 0.005 0.005 C12 C13 C14 C15 C16 C17
RIGU 0.005 0.005 C6 C7 C8 C9 C10 C11
ISOR 0.005 0.01 C12

L.S. 10
PLAN  10
TEMP -173
BOND $H
CONF
MORE -1
fmap 2
acta
REM <olex2.extras>
REM <HklSrc "%.\\CoNacNac2_solve_a.hkl">
REM </olex2.extras>

WGHT    0.047200
FVAR       0.76459
CO1   4    0.738638    0.514989    0.333529    11.00000    0.02897    0.01298 =
         0.01245   -0.00074   -0.00023   -0.00002
CL1   3    0.561225    0.502576    0.166589    11.00000    0.03339    0.02487 =
         0.01623    0.00039   -0.00246   -0.00375
CL2   3    0.920507    0.534077    0.177775    11.00000    0.02744    0.03396 =
         0.01837   -0.00058   -0.00096   -0.00135
N1    5    0.763765    0.447455    0.506115    11.00000    0.03562    0.00998 =
         0.01425    0.00062   -0.00079    0.00114
N2    5    0.711913    0.577323    0.519449    11.00000    0.03443    0.01059 =
         0.01423   -0.00241   -0.00439   -0.00675
C1    1    0.787544    0.401455    0.800750    11.00000    0.04832    0.01539 =
         0.02441    0.00343   -0.00851    0.00544
AFIX 137
H1A   2    0.709284    0.396202    0.873720    11.00000   -1.50000
H1B   2    0.861757    0.409601    0.879175    11.00000   -1.50000
H1C   2    0.804043    0.365129    0.731854    11.00000   -1.50000
AFIX   0
C2    1    0.768868    0.451600    0.677017    11.00000    0.02414    0.01272 =
         0.02319   -0.00043    0.00690    0.00013
C3    1    0.758448    0.511110    0.771218    11.00000    0.03014    0.01657 =
         0.00722    0.00385   -0.00116   -0.00031
AFIX  23
H3A   2    0.697099    0.504724    0.871554    11.00000   -1.20000
H3B   2    0.844396    0.517910    0.826886    11.00000   -1.20000
AFIX   0
C4    1    0.720348    0.569895    0.689170    11.00000    0.02850    0.01086 =
         0.02494    0.00038   -0.00231   -0.00363
C5    1    0.700064    0.616093    0.829711    11.00000    0.04651    0.01987 =
         0.02065   -0.00249   -0.00327    0.00439
AFIX 137
H5A   2    0.691107    0.655147    0.772763    11.00000   -1.50000
H5B   2    0.774658    0.616545    0.911220    11.00000   -1.50000
H5C   2    0.621089    0.606962    0.897553    11.00000   -1.50000
AFIX   0
C6    1    0.771478    0.390326    0.415977    11.00000    0.04359    0.01377 =
         0.01904   -0.00275   -0.00755    0.00632
C7    1    0.667214    0.351104    0.427649    11.00000    0.05266    0.01445 =
         0.03107    0.00683   -0.00760    0.00008
AFIX  43
H7    2    0.592819    0.360709    0.497091    11.00000   -1.20000
AFIX   0
C8    1    0.674739    0.297545    0.335129    11.00000    0.09579    0.01359 =
         0.03805    0.00240   -0.01489   -0.00379
AFIX  43
H8    2    0.607304    0.268948    0.345455    11.00000   -1.20000
AFIX   0
C9    1    0.783376    0.286169    0.226005    11.00000    0.10234    0.01677 =
         0.02379   -0.00744   -0.01728    0.00848
AFIX  43
H9    2    0.785114    0.251063    0.155205    11.00000   -1.20000
AFIX   0
C10   1    0.890438    0.325839    0.219073    11.00000    0.10107    0.02758 =
         0.03681   -0.00872    0.00040    0.01757
AFIX  43
H10   2    0.965391    0.316738    0.150162    11.00000   -1.20000
AFIX   0
C11   1    0.882077    0.378380    0.316272    11.00000    0.05045    0.02099 =
         0.02566   -0.00271   -0.00081    0.00967
AFIX  43
H11   2    0.951796    0.406010    0.314470    11.00000   -1.20000
AFIX   0
C12   1    0.669184    0.633795    0.445433    11.00000    0.02598    0.00832 =
         0.02260   -0.00001   -0.00430   -0.00865
C13   1    0.542530    0.652430    0.480194    11.00000    0.03148    0.00832 =
         0.03483    0.00030   -0.00215   -0.00613
AFIX  43
H13   2    0.488567    0.631017    0.560802    11.00000   -1.20000
AFIX   0
C14   1    0.497138    0.703340    0.393505    11.00000    0.04067    0.01650 =
         0.02383   -0.00178   -0.00379    0.00012
AFIX  43
H14   2    0.411401    0.716871    0.416473    11.00000   -1.20000
AFIX   0
C15   1    0.573693    0.734031    0.276348    11.00000    0.05140    0.00771 =
         0.03042    0.00779   -0.01064   -0.01046
AFIX  43
H15   2    0.541047    0.768462    0.217955    11.00000   -1.20000
AFIX   0
C16   1    0.697880    0.715057    0.243084    11.00000    0.05880    0.00879 =
         0.02709    0.00761   -0.00136   -0.00743
AFIX  43
H16   2    0.751185    0.736537    0.161805    11.00000   -1.20000
AFIX   0
C17   1    0.746800    0.664058    0.328418    11.00000    0.03341    0.01734 =
         0.02440    0.00702    0.00298   -0.00697
AFIX  43
H17   2    0.832692    0.650819    0.305015    11.00000   -1.20000
AFIX   0
HKLF 4

REM  CoNacNac2_solve_a.res in Pna2(1)
REM R1 =  0.0516 for    1468 Fo > 4sig(Fo)  and  0.0806 for all    1926 data
REM    201 parameters refined using     79 restraints

END

WGHT      0.0472      0.0000

REM Highest difference peak  0.474,  deepest hole -0.494,  1-sigma level  0.090
Q1    1   0.9024  0.5188  0.3194  11.00000  0.05    0.47
Q2    1   1.0197  0.5296  0.0651  11.00000  0.05    0.41
Q3    1   0.6102  0.3395  0.3342  11.00000  0.05    0.38
Q4    1   0.7547  0.5017  0.1860  11.00000  0.05    0.36
Q5    1   0.6764  0.4951  0.2560  11.00000  0.05    0.36
Q6    1   0.8531  0.5201  0.4485  11.00000  0.05    0.36
Q7    1   0.8335  0.5592  0.3246  11.00000  0.05    0.34
Q8    1   0.6466  0.5110  0.4314  11.00000  0.05    0.34
Q9    1   0.6582  0.5197  0.1977  11.00000  0.05    0.33
Q10   1   0.6885  0.7195  0.8360  11.00000  0.05    0.32
;
_shelx_res_checksum              53544
_shelx_hkl_file
;
   1   0  -1  -33.30   21.20
  -1   0  -2  -27.60   29.90
   1   0   2  -51.09   30.10
   2   0   3  209.58   32.20
   2   0   4 4954.30  138.39
   3   0  -3  -96.49   34.60
   4   0  -4 1741.73   69.69
   5   0  -6  -16.70   45.10
   5   0  -5  -37.20   44.30
   5   0  -4  -38.50   40.60
   6   0  -6 3296.67  111.39
   6   0  -5  521.75   51.19
   7   0  -7   40.90   51.79
   7   0  -6  -28.60   51.69
   7   0  -5   -2.10   49.99
   8   0  -7   61.09   54.59
   8   0  -6   39.20   53.49
   8   0  -5  456.95   55.79
   9   0  -6  121.19   57.69
  10   0  -6  286.87   64.19
  10  -1  -5   53.79   57.39
  10  -1  -6  -14.80   63.59
   9  -1  -5  400.56   59.89
   9  -1  -6   89.59   57.99
   8  -1  -5   31.40   54.09
   8  -1  -6   10.90   54.59
   8  -1  -7  101.99   58.69
   7  -1  -5  838.72   70.19
   7  -1  -6  144.09   54.49
   7  -1  -7  502.65   60.29
   6  -1  -4    5.20   43.30
   6  -1  -5   83.09   47.70
   6  -1  -6   71.29   50.79
   6  -1  -7   79.19   49.00
   5  -1  -4   73.29   42.20
   5  -1  -5 2956.70   99.89
   5  -1  -6  586.74   52.99
   4  -1  -3  333.37   40.50
   4  -1  -4   28.30   40.70
   4  -1  -5  193.98   41.40
   3  -1  -3 9999.00  264.77
   3  -1  -4  183.78   36.90
   2  -1   3  306.27   33.40
   2  -1  -2  647.94   48.80
   2  -1  -3  396.56   37.40
  -2   1   3  362.16   34.50
   1  -1  -2  749.53   42.50
  -1   1   2  679.53   45.60
   0  -1  -1  316.27   21.20
   0   1   1  275.57   23.50
   0  -1  -2  148.39   28.10
   0   1   2  114.49   27.10
  -1  -1  -2  695.33   44.90
   1   1   2  647.34   45.60
  -1  -1  -3  470.95   38.20
   1   1   3  492.25   43.00
   1   1   4   81.99   31.50
   2   1   2  680.83   49.30
   2   1   3  353.56   37.70
  -2  -1  -4  489.35   42.00
   2   1   4  502.45   40.10
  -2  -1  -5  154.08   40.10
  -2  -1  -6  -20.00   43.20
   3   1  -3 9310.87  245.78
   3   1   3 8641.74  231.08
   4   1  -4   14.20   36.80
   5   1  -5 2737.33   93.49
   5   1  -4   72.19   38.60
   6   1  -6    6.20   46.80
   6   1  -5  120.89   47.40
   7   1  -7  484.55   57.59
   7   1  -6  202.18   51.09
   7   1  -5  763.22   64.79
   8   1  -7   32.00   53.99
   8   1  -6  -74.79   52.49
   9   1  -6   71.09   57.89
  10   1  -6  -54.49   58.29
  11  -2  -5   95.99   64.99
  10  -2  -5   23.70   60.79
  10  -2  -6  155.08   63.99
   9  -2  -5  -47.20   57.79
   9  -2  -6   67.99   58.59
   8  -2  -5  233.88   58.39
   8  -2  -6   87.69   56.89
   8  -2  -7  106.29   59.29
   7  -2  -4  183.68   51.59
   7  -2  -5   55.89   50.59
   7  -2  -6   66.59   52.19
   7  -2  -7  134.29   55.99
   6  -2  -4  595.84   54.79
   6  -2  -5  571.64   54.79
   6  -2  -6 2534.55   97.69
   6  -2  -7  199.48   53.09
   5  -2  -3  592.14   56.99
   5  -2  -4  101.19   43.10
   5  -2  -5   46.60   47.70
   5  -2  -6  208.88   50.49
   5  -2  -7   11.10   47.50
   4  -2  -3  471.55   44.40
   4  -2  -4 1726.33   71.39
   4  -2  -5    8.00   41.20
   4  -2  -6  981.30   63.19
   3  -2  -2  934.01   56.59
   3  -2  -3  208.38   39.70
   3  -2  -4 1021.20   57.79
   3  -2  -5   36.50   37.30
   3  -2  -6  105.79   42.00
   2  -2  -1  220.68   34.40
   2  -2  -2 8981.70  238.88
  -2   2   2 9025.80  239.18
   2  -2  -3   22.00   35.30
  -2   2   3   57.89   34.70
   2  -2  -4 4390.86  130.99
  -2   2   4 4864.71  133.49
   1  -2   0  168.78   21.00
   1  -2  -1 1147.09   49.30
  -1   2   1 1071.59   46.70
   1  -2  -2   31.80   31.40
  -1   2   2   27.30   30.70
   1  -2  -3   60.89   31.00
  -1   2   3   -3.70   31.00
   1  -2  -4  171.28   32.50
  -1   2   4  165.78   31.90
   0  -2  -1  -44.50   21.50
   0   2   1   13.80   20.60
   0  -2  -2 2740.63   80.79
   0   2   2 2498.25   80.09
   0  -2  -3   -3.10   32.30
   0   2   3  -45.40   30.50
   0  -2  -4 1530.55   62.29
   1   2   0  157.28   20.80
  -1  -2  -1  941.81   45.30
   1   2   1  822.12   43.70
  -1  -2  -2   -5.80   35.00
   1   2   2   41.20   32.90
  -1  -2  -3  -36.10   34.80
   1   2   3    7.30   31.70
  -1  -2  -4  161.28   37.60
   1   2   4  152.48   32.50
  -1  -2  -5  202.88   40.20
   2   2   2 7932.21  211.98
  -2  -2  -3   20.20   37.20
   2   2   3   88.09   35.00
  -2  -2  -4 3779.12  111.79
  -2  -2  -5   40.20   38.50
  -2  -2  -6  420.86   45.90
   3   2   3  176.78   37.30
   4   2   3  460.35   46.40
   6   2  -5  528.85   50.19
   7   2  -6  -28.80   49.00
   8   2  -6   65.09   54.69
   9   2  -6  -43.60   54.59
  10   2  -6  235.88   60.49
  10  -3  -5  -63.09   61.99
   9  -3  -5  172.98   61.79
   9  -3  -6  -31.30   60.09
   8  -3  -4   94.49   53.29
   8  -3  -5   69.09   55.89
   8  -3  -6   -5.70   58.19
   8  -3  -7  -17.20   57.49
   7  -3  -4  303.17   52.89
   7  -3  -5  191.48   53.69
   7  -3  -6   64.39   56.19
   7  -3  -7  357.06   59.99
   6  -3  -3   -6.30   43.10
   6  -3  -4   32.30   48.40
   6  -3  -5  427.56   52.79
   6  -3  -6  209.88   54.69
   6  -3  -7  138.99   53.69
   6  -3  -8   12.30   51.59
   5  -3  -3   94.59   44.60
   5  -3  -4   37.60   44.70
   5  -3  -5 2280.57   88.79
   5  -3  -6  137.59   48.10
   5  -3  -7 1448.36   78.69
   4  -3  -2   98.59   40.90
   4  -3  -3  732.73   57.29
   4  -3  -4  -22.30   42.10
   4  -3  -5  399.16   47.30
   4  -3  -6  429.96   47.90
   4  -3  -7    0.60   46.60
   3  -3  -2  158.68   41.10
   3  -3  -3 7960.70  219.68
  -3   3   3 8302.87  219.18
   3  -3  -4  201.28   40.40
   3  -3  -5 2829.32   94.19
   3  -3  -6   68.89   41.50
   2  -3  -1  732.73   44.00
  -2   3   1  613.54   40.80
   2  -3  -2 1795.42   69.59
  -2   3   2 1817.12   71.09
   2  -3  -3 1432.06   63.59
  -2   3   3 1460.25   61.69
   2  -3  -4  510.65   48.20
  -2   3   4  431.36   54.29
   2  -3  -5  387.76   40.60
   1  -3   0  674.23   38.90
  -1   3   0  561.54   38.30
   1  -3  -1    5.60   32.80
  -1   3   1   33.20   31.00
   1  -3  -2 2094.79   72.19
  -1   3   2 2108.29   71.89
   1  -3  -3  777.52   50.19
  -1   3   3  871.41   47.80
   1  -3  -4   92.89   33.50
  -1   3   4   34.10   32.40
   1  -3  -5 4166.38  121.89
   0  -3   0  -20.40   19.20
   0   3   0    0.40   18.10
   0  -3  -1  466.05   36.70
   0   3   1  473.15   37.30
   0  -3  -2  -12.10   31.60
   0   3   2   29.10   32.30
   0  -3  -3  415.36   37.80
   0   3   3  421.16   36.40
   0  -3  -4  -49.50   36.30
   0   3   4    8.10   32.50
   0  -3  -5  611.24   53.59
   0  -3  -6  117.79   42.00
  -1  -3   0  529.35   34.60
   1   3   0  359.26   35.10
  -1  -3  -1   72.09   33.00
   1   3   1  -32.20   31.60
  -1  -3  -2 2145.09   75.09
   1   3   2 2099.69   73.79
  -1  -3  -3  940.41   55.09
   1   3   3  812.62   53.09
  -1  -3  -4  101.79   37.60
   1   3   4  107.39   33.50
  -1  -3  -5 3733.53  114.79
  -1  -3  -6   73.49   45.40
   2   3   1  583.64   38.60
  -2  -3  -2 1659.13   66.49
   2   3   2 1615.34   68.89
  -2  -3  -3 1250.37   61.89
   2   3   3 1294.77   60.69
  -2  -3  -4  475.35   43.50
   2   3   4  451.85   40.50
  -2  -3  -5  373.76   44.90
  -2  -3  -6   48.80   45.10
  -2  -3  -7   91.89   49.30
  -2  -3  -8  -61.39   50.99
   3   3   2  125.29   37.70
   3   3   3 7032.50  192.08
   4   3   3  654.83   54.99
   7   3  -6   92.59   48.80
   8   3  -6  -25.90   51.89
   9   3  -6   75.59   54.59
  10  -4  -4  314.77   62.29
  10  -4  -5   24.20   65.29
   9  -4  -4  221.18   58.49
   9  -4  -5  146.19   60.39
   9  -4  -6  134.79   62.59
   8  -4  -4  884.71   76.69
   8  -4  -5   72.69   55.89
   8  -4  -6   38.50   57.49
   8  -4  -7  -69.19   59.79
   7  -4  -3  376.36   51.49
   7  -4  -4   14.60   50.89
   7  -4  -5  238.38   55.29
   7  -4  -6   75.69   57.59
   7  -4  -7  106.39   57.59
   6  -4  -3   58.69   46.80
   6  -4  -4  233.98   49.50
   6  -4  -5  361.26   52.89
   6  -4  -6 1560.24   82.49
   6  -4  -7  160.68   53.59
   6  -4  -8  283.67   56.99
   5  -4  -2  564.24   48.50
   5  -4  -3  138.69   44.30
   5  -4  -4  129.59   44.90
   5  -4  -5  224.98   50.39
   5  -4  -6   79.19   49.80
   5  -4  -7   36.30   49.50
   5  -4  -8   28.10   52.09
   4  -4  -2 2948.41   98.89
   4  -4  -3  912.01   61.99
   4  -4  -4 1305.47   68.29
   4  -4  -5   43.70   44.00
   4  -4  -6  418.76   49.40
   4  -4  -7  187.78   50.69
   3  -4  -1 1573.94   69.09
   3  -4  -2 1102.09   64.69
  -3   4   2 1218.68   60.49
   3  -4  -3  652.83   49.50
  -3   4   3  595.14   44.60
   3  -4  -4 1358.46   66.29
   3  -4  -5  162.98   41.90
   3  -4  -6   89.79   43.00
   3  -4  -7    9.40   44.30
   3  -4  -8  131.69   45.50
   2  -4   0   23.70   34.50
   2  -4  -1 2422.96   81.69
  -2   4   1 2239.18   80.49
   2  -4  -2 2211.28   79.09
  -2   4   2 2199.08   80.29
   2  -4  -3 1548.05   64.99
  -2   4   3 1473.55   66.69
   2  -4  -4 3424.86  105.29
   2  -4  -5  448.06   43.10
   2  -4  -6  131.99   40.70
   2  -4  -8 1296.37   76.29
   1  -4   1 2689.33   79.69
   1  -4   0 2501.55   76.19
  -1   4   0 2334.77   75.59
   1  -4  -1 2767.92   85.79
  -1   4   1 2643.54   84.79
   1  -4  -2  691.73   49.70
  -1   4   2  594.04   49.40
   1  -4  -3  716.33   51.89
  -1   4   3  853.01   50.19
   1  -4  -4  135.59   35.70
  -1   4   4   93.39   34.60
   1  -4  -5  315.07   38.70
   1  -4  -6  397.26   44.20
   1  -4  -7  147.99   47.80
   1  -4  -8  173.58   50.49
   0  -4  -1    4.90   31.70
   0   4   1  -56.09   29.90
   0  -4  -3   25.60   35.20
   0   4   3   26.20   33.20
   0  -4  -4  808.92   56.99
   0   4   4  930.51   52.49
   0  -4  -5  -64.59   38.50
   0  -4  -6 3094.49  102.99
   0  -4  -7   49.90   46.60
  -1  -4   0 2214.18   68.99
   1   4   0 2011.70   68.29
  -1  -4  -1 2480.85   81.39
   1   4   1 2332.47   78.19
  -1  -4  -2  550.74   53.49
   1   4   2  603.94   50.39
  -1  -4  -3  584.24   55.89
   1   4   3  750.62   50.99
  -1  -4  -4  142.39   40.60
   1   4   4  123.19   34.50
  -1  -4  -5  420.56   45.20
  -1  -4  -6  542.25   51.29
  -1  -4  -7  105.29   50.99
  -2  -4  -1 1954.10   72.19
   2   4   1 1882.41   71.49
  -2  -4  -2 2084.79   75.59
   2   4   2 1904.81   74.39
  -2  -4  -3 1304.47   64.69
   2   4   3 1269.87   62.19
  -2  -4  -4 3136.39  101.79
  -2  -4  -5  458.95   48.00
  -2  -4  -6  187.58   47.90
  -2  -4  -7   -3.60   50.59
  -2  -4  -8 1090.69   76.89
  -2  -4  -9  103.99   56.59
   3   4   1 1407.56   64.99
   3   4   2  920.81   55.89
  -3  -4  -3  685.53   51.19
   3   4   3  537.45   47.00
  -3  -4  -4  995.90   63.69
  -3  -4  -5  165.98   46.60
  -3  -4  -6   18.90   49.00
  -3  -4  -7   65.89   54.19
   4   4   2 2444.76   87.09
   4   4   3  664.33   57.59
   5   4   3  156.68   45.00
   8   4  -6  -25.10   50.09
  11  -5  -4  125.99   68.69
  10  -5  -4   40.70   60.69
  10  -5  -5   67.19   63.99
   9  -5  -4  265.87   62.19
   9  -5  -5  175.08   60.99
   9  -5  -6   62.19   63.19
   8  -5  -3  257.37   54.99
   8  -5  -4  146.09   59.09
   8  -5  -5  -13.10   57.19
   8  -5  -6  -59.39   58.89
   8  -5  -7  -35.50   60.49
   7  -5  -3  597.14   56.89
   7  -5  -4  217.78   54.49
   7  -5  -5  285.37   56.49
   7  -5  -6  221.18   57.69
   7  -5  -7  253.07   58.49
   6  -5  -3   29.50   49.60
   6  -5  -4   40.30   50.89
   6  -5  -5  280.47   53.99
   6  -5  -6   15.20   54.29
   6  -5  -7  455.35   57.59
   6  -5  -8  111.39   55.09
   5  -5  -2  704.73   62.69
   5  -5  -3  133.79   46.70
   5  -5  -4  119.49   47.60
   5  -5  -5 2110.19   88.79
   5  -5  -6   35.60   49.70
   5  -5  -7 1863.41   87.89
   5  -5  -8   -0.90   52.29
   4  -5  -1   21.90   40.90
   4  -5  -2  486.65   48.00
   4  -5  -3  876.81   62.79
  -4   5   3  953.80   59.19
   4  -5  -4  577.54   49.70
   4  -5  -5  126.59   46.00
   4  -5  -6  567.24   52.49
   4  -5  -7  -36.30   48.10
   4  -5  -8   44.50   50.19
   3  -5  -1 2195.08   83.09
   3  -5  -2  814.02   61.29
  -3   5   2  675.63   58.39
   3  -5  -3 9928.81  262.87
  -3   5   3 9655.13  261.97
   3  -5  -4  688.73   56.89
   3  -5  -5 1567.14   72.69
   3  -5  -6   40.00   44.60
   3  -5  -7  848.02   67.39
   3  -5  -8  104.69   45.90
   3  -5  -9 1812.72   88.69
   2  -5   0  727.73   45.60
  -2   5   0  516.95   50.09
   2  -5  -1  828.72   60.39
  -2   5   1  869.81   56.89
   2  -5  -2  324.67   42.40
  -2   5   2  324.27   41.40
   2  -5  -3 1379.26   63.69
  -2   5   3 1290.37   63.69
   2  -5  -4  345.97   42.50
   2  -5  -5  297.27   42.30
   2  -5  -6   98.19   42.80
   2  -5  -7   58.59   43.30
   2  -5  -8  114.09   49.90
   1  -5   0 2953.50   88.49
  -1   5   0 2761.12   88.49
   1  -5  -2  556.94   51.99
  -1   5   2  541.65   48.90
   1  -5  -3 3327.87  103.89
  -1   5   3 3456.85  103.19
   1  -5  -4  416.06   40.10
  -1   5   4  404.36   38.50
   1  -5  -5 2200.88   79.99
   1  -5  -6  109.39   43.80
   1  -5  -7 2336.17   94.39
   1  -5  -8  143.59   50.79
   1  -5  -9  472.75   58.09
   0  -5   0   26.60   30.50
   0   5   0   39.60   29.20
   0  -5  -2  -40.20   34.10
   0   5   2  -38.40   34.80
   0  -5  -3  202.68   38.00
   0   5   3  199.58   37.70
   0  -5  -4    4.20   37.60
   0   5   4  -23.70   34.50
   0  -5  -5 1269.27   67.49
   0  -5  -6  -43.20   43.10
   0  -5  -7  822.82   69.89
   0  -5  -8   84.09   53.69
   0  -5  -9  254.77   58.49
  -1  -5   0 2414.16   79.69
   1   5   0 2417.66   77.39
  -1  -5  -2  520.65   44.10
   1   5   2  613.34   42.50
  -1  -5  -3 3201.48  102.79
   1   5   3 3248.07  100.19
  -1  -5  -4  428.46   43.00
   1   5   4  338.77   39.80
  -1  -5  -5 2245.18   86.29
  -1  -5  -6  137.79   47.70
  -1  -5  -7 1983.70   88.99
  -1  -5  -8  248.88   56.69
  -1  -5  -9  498.15   65.19
   2   5  -1  610.34   42.60
  -2  -5   0  499.85   42.60
   2   5   0  549.95   38.80
  -2  -5  -1  738.23   56.49
   2   5   1  654.93   52.89
  -2  -5  -2  304.67   45.90
   2   5   2  295.47   40.00
  -2  -5  -3 1074.19   67.19
   2   5   3 1261.07   61.39
  -2  -5  -4  304.87   47.90
   2   5   4  307.87   43.40
  -2  -5  -5  335.97   49.20
  -2  -5  -6  109.19   51.99
  -2  -5  -7   85.79   52.99
  -2  -5  -8   64.89   56.49
  -2  -5  -9  154.58   59.79
   3   5   1 1830.22   70.79
  -3  -5  -2  660.43   60.79
   3   5   2  643.14   48.70
  -3  -5  -3 8770.22  240.28
   3   5   3 8985.70  239.68
  -3  -5  -4  709.53   51.79
  -3  -5  -5 1350.36   71.89
  -3  -5  -6   -5.10   48.90
  -3  -5  -7  606.24   58.99
  -3  -5  -8  109.99   58.99
  -3  -5  -9 1263.57   88.89
   4   5   2  443.56   43.20
   4   5   3  820.42   60.49
   5   5   2  773.32   55.69
   5   5   3  123.39   42.90
   6   5   3  170.18   64.69
  11  -6  -4   51.49   66.09
  10  -6  -4  106.79   65.29
  10  -6  -5   85.69   65.69
   9  -6  -3  114.59   57.29
   9  -6  -4  477.65   67.09
   9  -6  -5  149.59   62.69
   9  -6  -6   53.59   61.79
   8  -6  -3  320.97   56.39
   8  -6  -4 1620.94   89.89
   8  -6  -5   48.10   60.79
   8  -6  -6   24.40   60.49
   8  -6  -7  -31.50   61.59
   7  -6  -3  926.81   75.19
   7  -6  -4  202.48   55.59
   7  -6  -5  694.83   62.09
   7  -6  -6  218.88   59.89
   7  -6  -7   28.40   58.89
   6  -6  -2 1396.86   73.79
   6  -6  -3   15.00   50.39
   6  -6  -4  678.53   58.29
   6  -6  -5  200.78   54.19
   6  -6  -6 1382.46   81.59
   6  -6  -7  310.97   56.99
   6  -6  -8  133.49   56.79
   5  -6  -1 1387.86   68.99
   5  -6  -2  954.90   67.59
   5  -6  -3  124.39   47.60
   5  -6  -4  400.46   54.29
   5  -6  -5  183.48   51.89
   5  -6  -6  237.88   51.39
   5  -6  -7  129.99   52.39
   5  -6  -8  126.19   55.59
   4  -6  -1  224.18   45.50
   4  -6  -2 3306.17  107.99
   4  -6  -3 1201.88   69.69
  -4   6   3 1239.08   67.39
   4  -6  -4 2524.55   93.69
   4  -6  -5   69.29   45.40
   4  -6  -6  614.24   55.49
   4  -6  -7   49.10   49.80
   4  -6  -8  290.27   54.49
   3  -6   0  283.97   46.20
   3  -6  -1   14.20   43.80
  -3   6   1   -6.20   38.40
   3  -6  -2 3264.37  104.89
  -3   6   2 3102.39  102.49
   3  -6  -3  501.55   46.70
  -3   6   3  639.54   57.89
   3  -6  -4 1170.08   65.19
   3  -6  -5   39.90   43.80
   3  -6  -6  230.18   46.70
   3  -6  -7  137.29   48.30
   3  -6  -8  185.98   48.00
   2  -6   1  307.97   40.00
   2  -6   0  169.58   41.70
  -2   6   0  131.89   39.50
   2  -6  -1  230.88   44.90
  -2   6   1  303.27   42.80
   2  -6  -2 9739.43  255.07
  -2   6   2 9219.58  254.17
   2  -6  -3  683.43   57.79
  -2   6   3  695.93   55.99
   2  -6  -4 4936.81  143.69
   2  -6  -5  212.58   43.70
   2  -6  -6  181.78   44.70
   2  -6  -7  190.68   46.40
   2  -6  -8  949.90   75.39
   2  -6  -9    5.90   55.99
   1  -6   1  385.66   35.60
  -1   6  -1  491.85   35.60
   1  -6   0 2040.30   73.49
  -1   6   0 1993.40   71.19
   1  -6  -1  424.16   41.90
  -1   6   1  539.45   41.50
   1  -6  -2 2223.68   79.69
  -1   6   2 2097.29   75.49
   1  -6  -3  623.14   55.09
  -1   6   3  616.24   50.99
   1  -6  -4  567.64   45.40
  -1   6   4  524.45   43.70
   1  -6  -5  152.18   38.90
   1  -6  -6  144.59   44.00
   1  -6  -7  572.14   56.69
   1  -6  -8  202.98   53.99
   1  -6  -9   99.69   56.29
   0  -6  -1   23.80   36.40
   0   6   1   25.10   33.80
   0  -6  -2 3106.09   98.09
   0   6   2 3158.98   97.89
   0  -6  -3  -26.30   36.40
   0   6   3  -20.80   35.70
   0  -6  -4 1547.45   70.99
   0   6   4 1760.12   68.59
   0  -6  -5   23.70   43.90
   0  -6  -6 2272.87   90.39
   0  -6  -7   17.30   49.60
   0  -6  -8  669.23   61.79
   0  -6  -9   45.00   57.89
  -1  -6   0 1869.11   69.99
   1   6   0 1772.22   67.89
  -1  -6  -1  413.96   42.60
   1   6   1  381.56   38.50
  -1  -6  -2 1996.70   76.59
   1   6   2 1860.31   72.29
  -1  -6  -3  661.93   48.20
   1   6   3  692.33   53.69
  -1  -6  -4  462.65   45.50
   1   6   4  464.95   42.20
  -1  -6  -5  152.68   45.00
  -1  -6  -6  140.29   48.30
  -1  -6  -7  473.95   56.69
  -1  -6  -8  192.98   58.19
  -1  -6  -9  122.39   62.39
   2   6  -1  235.18   33.60
  -2  -6   0  100.59   38.90
   2   6   0   74.79   36.70
  -2  -6  -1  204.58   45.20
   2   6   1  214.58   39.40
  -2  -6  -2 8638.04  228.78
   2   6   2 8206.08  226.98
  -2  -6  -3  707.63   54.09
   2   6   3  724.83   55.69
  -2  -6  -4 4416.06  135.09
   2   6   4 4531.85  141.49
  -2  -6  -5  123.89   48.80
  -2  -6  -6  141.89   53.09
  -2  -6  -7  233.88   58.19
  -2  -6  -8  654.83   63.89
  -2  -6  -9   52.79   59.29
   3   6   0  143.89   36.10
  -3  -6  -1  118.79   47.90
   3   6   1   81.79   39.60
  -3  -6  -2 2708.93   93.59
   3   6   2 2713.23   92.59
  -3  -6  -3  529.75   50.29
   3   6   3  531.05   46.30
  -3  -6  -4  974.60   66.99
  -3  -6  -5   89.39   49.50
  -3  -6  -6  208.68   53.09
  -3  -6  -7  122.59   56.29
  -3  -6  -8  224.38   60.39
   4   6   1  124.69   41.50
   4   6   2 2902.11   97.09
   4   6   3 1189.48   68.59
  -4  -6  -4 2031.70   86.79
  -4  -6  -5   71.99   55.19
  -4  -6  -6  491.05   62.79
   5   6   2  766.52   62.69
   5   6   3   75.29   46.40
   6   6   2 1245.68   74.69
   6   6   3   98.59   49.10
  11  -7  -3   80.39   63.89
  11  -7  -4   79.39   70.99
  10  -7  -3  194.18   63.79
  10  -7  -4   46.80   66.79
  10  -7  -5   14.80   66.19
   9  -7  -3  289.77   59.89
   9  -7  -4  590.94   67.49
   9  -7  -5   93.89   64.79
   9  -7  -6   39.20   64.19
   8  -7  -2  173.58   53.89
   8  -7  -3 1040.20   80.79
   8  -7  -4  190.38   58.89
   8  -7  -5   41.60   58.79
   8  -7  -6   32.10   59.29
   8  -7  -7   34.50   62.99
   7  -7  -2  243.58   52.99
   7  -7  -3 1529.45   85.19
   7  -7  -4  477.35   60.79
   7  -7  -5  480.15   63.59
   7  -7  -6  350.36   61.09
   7  -7  -7  344.47   62.69
   6  -7  -2   23.90   50.19
   6  -7  -3   24.20   51.29
   6  -7  -4  -50.19   50.49
   6  -7  -5  826.22   77.09
   6  -7  -6  182.38   56.09
   6  -7  -7  905.51   79.59
   6  -7  -8   71.09   56.29
   5  -7  -1 2602.74   93.19
   5  -7  -2  588.84   52.79
   5  -7  -3  152.58   49.20
   5  -7  -4   73.89   50.09
   5  -7  -5 2325.67   95.29
   5  -7  -6   72.89   50.89
   5  -7  -7 1519.35   84.49
   5  -7  -8  138.29   57.09
   4  -7   0  219.28   42.30
   4  -7  -1 1442.66   71.59
   4  -7  -2  932.71   65.69
  -4   7   2  924.01   63.49
   4  -7  -3 1469.95   74.69
  -4   7   3 1478.45   74.59
   4  -7  -4  209.58   48.70
   4  -7  -5  126.49   48.90
   4  -7  -6  366.66   52.19
   4  -7  -7  125.89   52.09
   4  -7  -8   92.99   54.29
   3  -7   1  213.38   42.60
   3  -7   0   16.00   44.90
   3  -7  -1  193.98   44.60
  -3   7   1  220.58   43.90
   3  -7  -2 1311.67   69.99
  -3   7   2 1225.28   66.79
   3  -7  -3 6097.19  174.58
  -3   7   3 6204.88  174.28
   3  -7  -4   91.69   43.30
   3  -7  -5  388.46   48.50
   3  -7  -6  130.79   48.20
   3  -7  -7  302.07   51.59
   3  -7  -8  125.39   49.40
   2  -7   2  457.35   35.40
   2  -7   1  778.52   55.19
   2  -7   0 2691.53   91.19
  -2   7   0 2520.65   87.69
   2  -7  -1  883.41   62.89
  -2   7   1  737.03   57.59
   2  -7  -2  550.04   47.70
  -2   7   2  532.85   46.00
   2  -7  -3 3218.18  103.29
  -2   7   3 3119.39  101.69
   2  -7  -4   76.49   41.90
   2  -7  -5  450.65   48.60
   2  -7  -6  128.79   45.90
   2  -7  -7  142.29   47.20
   2  -7  -8  274.97   54.89
   2  -7  -9  740.23   67.89
   1  -7   1 2618.34   83.79
  -1   7  -1 2545.35   81.89
   1  -7   0  796.32   54.09
  -1   7   0  870.21   51.99
   1  -7  -1 2529.75   86.89
  -1   7   1 2522.95   84.59
   1  -7  -2 1006.60   61.19
  -1   7   2  912.21   55.49
   1  -7  -3 2099.19   83.19
  -1   7   3 2392.96   80.69
   1  -7  -4  832.22   58.99
  -1   7   4  611.24   61.39
   1  -7  -5 1375.76   67.89
   1  -7  -6  475.95   50.19
   1  -7  -7 2316.47   96.89
   1  -7  -8  149.79   53.79
   1  -7  -9  309.47   58.79
   0  -7   1 5128.89  137.49
   0   7  -1 4889.01  136.59
   0  -7   0  -15.60   35.10
   0   7   0   23.90   31.10
   0  -7  -1 5241.18  147.79
   0   7   1 5214.88  145.99
   0  -7  -2    8.20   38.40
   0   7   2  -24.50   35.80
   0  -7  -3  741.33   58.59
   0   7   3  833.02   54.89
   0  -7  -4   28.30   39.60
   0   7   4  -34.50   36.60
   0  -7  -5 2759.32   99.39
   0  -7  -6   32.90   47.20
   0  -7  -7 1882.81   87.99
   0  -7  -8   25.70   53.59
   0  -7  -9  129.49   59.49
  -1  -7   1 2255.37   74.19
   1   7  -1 2221.28   71.69
  -1  -7   0  809.42   55.29
   1   7   0  848.02   50.79
  -1  -7  -1 2393.66   83.29
   1   7   1 2320.37   81.09
  -1  -7  -2 1025.20   62.09
   1   7   2  837.12   56.29
  -1  -7  -3 2123.59   83.89
   1   7   3 2221.58   79.09
  -1  -7  -4  769.22   52.09
   1   7   4  698.03   55.69
  -1  -7  -5 1256.57   71.59
  -1  -7  -6  437.46   54.89
  -1  -7  -7 1929.41   91.09
  -1  -7  -8   96.49   57.39
  -1  -7  -9  351.06   64.69
  -2  -7   1  678.03   43.50
   2   7  -1  684.13   47.80
  -2  -7   0 2261.47   83.89
   2   7   0 2279.57   79.39
  -2  -7  -1  654.53   63.19
   2   7   1  582.34   54.49
  -2  -7  -2  395.26   47.60
   2   7   2  445.96   43.50
  -2  -7  -3 2865.21  100.99
   2   7   3 2995.30   96.79
  -2  -7  -4   36.00   47.50
  -2  -7  -5  425.66   54.19
  -2  -7  -6  211.18   53.79
  -2  -7  -7  267.97   59.59
  -2  -7  -8  211.08   63.99
  -2  -7  -9  591.14   67.49
   3   7  -1  134.49   34.00
   3   7   0   49.70   37.50
  -3  -7  -1  153.88   43.50
   3   7   1  143.59   42.30
  -3  -7  -2 1057.39   66.09
   3   7   2 1050.89   62.99
  -3  -7  -3 5139.69  153.98
   3   7   3 5426.16  153.28
  -3  -7  -4  101.59   47.70
  -3  -7  -5  356.46   53.79
  -3  -7  -6  103.39   53.39
  -3  -7  -7  316.67   59.09
  -3  -7  -8  169.18   62.09
   4   7   0  126.49   39.20
   4   7   1 1318.17   65.29
   4   7   2  897.21   64.59
  -4  -7  -3 1182.38   73.79
   4   7   3 1354.96   70.59
  -4  -7  -4  132.79   52.59
  -4  -7  -5  115.59   54.39
  -4  -7  -6  283.87   59.19
  -4  -7  -7  173.88   61.59
  -4  -7  -8   61.29   66.89
   5   7   1 2316.07   85.09
   5   7   2  474.95   48.80
   5   7   3   35.70   47.60
   6   7   2   30.70   47.90
   6   7   3   52.09   49.30
   7   7   2  172.58   56.79
  11  -8  -3   10.60   66.79
  11  -8  -4  125.49   74.09
  10  -8  -3  244.28   65.39
  10  -8  -4   17.00   65.39
  10  -8  -5   -0.70   68.69
   9  -8  -2  659.03   65.59
   9  -8  -3   86.69   62.09
   9  -8  -4  501.95   67.59
   9  -8  -5  -38.60   64.89
   9  -8  -6   62.99   65.59
   8  -8  -2  599.74   62.49
   8  -8  -3  126.09   59.39
   8  -8  -4  804.12   69.69
   8  -8  -5  -15.90   59.49
   8  -8  -6   72.79   65.39
   7  -8  -2  929.41   75.09
   7  -8  -3 1071.69   78.79
   7  -8  -4  538.35   61.29
   7  -8  -5  306.57   60.39
   7  -8  -6  209.78   62.49
   7  -8  -7   36.10   59.59
   6  -8  -1  688.83   65.39
   6  -8  -2 1207.38   75.79
   6  -8  -3   91.09   53.49
   6  -8  -4  805.12   76.79
   6  -8  -5  139.09   55.59
   6  -8  -6  279.27   58.79
   6  -8  -7  197.28   58.19
   5  -8   0 3087.69  103.09
   5  -8  -1  564.44   52.29
   5  -8  -2 1188.78   73.69
   5  -8  -3   35.10   50.19
   5  -8  -4  334.97   55.79
   5  -8  -5  415.16   55.89
   5  -8  -6  513.45   58.89
   5  -8  -7  635.04   61.89
   5  -8  -8  267.67   60.19
   4  -8   0  264.37   46.40
   4  -8  -1  934.21   65.29
   4  -8  -2 1587.84   77.49
  -4   8   2 1724.03   75.99
   4  -8  -3  682.43   65.49
  -4   8   3  702.73   54.19
   4  -8  -4  948.71   70.19
   4  -8  -5  482.45   53.59
   4  -8  -6  105.29   50.29
   4  -8  -7   59.29   52.09
   4  -8  -8  250.97   55.99
   3  -8   1  153.18   45.00
   3  -8   0   86.39   43.40
  -3   8   0  170.28   40.20
   3  -8  -1  122.99   44.90
  -3   8   1  116.69   43.30
   3  -8  -2 6212.88  174.68
  -3   8   2 6080.89  173.78
   3  -8  -3  804.42   64.29
  -3   8   3  830.22   62.99
   3  -8  -4 3681.03  118.39
   3  -8  -5  185.68   49.50
   3  -8  -6  208.98   50.19
   3  -8  -7   19.90   50.39
   3  -8  -8  387.76   53.69
   2  -8   2 6713.83  181.08
   2  -8   1 1152.38   62.59
  -2   8  -1 1136.19   57.69
   2  -8   0  384.36   46.70
  -2   8   0  231.48   41.60
   2  -8  -1 1153.28   64.89
  -2   8   1 1039.20   64.99
   2  -8  -2 7382.36  202.18
  -2   8   2 7292.27  201.78
   2  -8  -3 1351.56   68.39
  -2   8   3 1234.98   66.19
   2  -8  -4 2152.68   84.99
   2  -8  -5  207.68   47.80
   2  -8  -6  121.39   47.20
   2  -8  -7  116.39   48.40
   2  -8  -8  437.96   59.89
   1  -8   1  878.41   53.89
  -1   8  -1  937.71   51.99
   1  -8   0 5251.57  148.59
  -1   8   0 5240.38  147.39
   1  -8  -1  912.81   60.59
  -1   8   1  969.60   56.09
   1  -8  -2 5710.63  157.28
  -1   8   2 5325.47  155.48
   1  -8  -3  303.97   46.00
  -1   8   3  301.77   41.00
   1  -8  -4 1741.63   75.49
   1  -8  -5  356.46   44.10
   1  -8  -6 1020.90   69.89
   1  -8  -7   37.20   52.49
   1  -8  -8  716.93   64.89
   1  -8  -9  100.19   59.09
   0  -8   1   50.29   32.50
   0   8  -1   -6.00   29.40
   0   8   0 7542.35  202.68
   0  -8  -1   32.30   38.50
   0   8   1    5.60   35.10
   0  -8  -2 4796.22  139.79
   0   8   2 4882.21  139.09
   0  -8  -3  -70.49   39.50
   0   8   3   23.30   37.70
   0  -8  -4 1747.73   74.89
   0   8   4 1541.05   79.19
   0  -8  -5   -7.90   46.20
   0  -8  -6 1471.75   79.19
   0  -8  -7   39.90   52.09
   0  -8  -8  440.56   61.09
   0  -8  -9   92.79   60.99
  -1  -8   1  732.73   51.59
   1   8  -1  802.52   47.10
  -1  -8   0 4711.03  134.49
   1   8   0 4590.54  131.99
  -1  -8  -1  928.81   62.89
   1   8   1  795.32   55.99
  -1  -8  -2 5224.28  151.78
   1   8   2 5296.67  150.28
  -1  -8  -3  185.18   43.20
   1   8   3  240.08   39.70
  -1  -8  -4 1754.42   78.19
   1   8   4 1675.43   81.59
  -1  -8  -5  371.56   50.49
  -1  -8  -6 1060.89   75.69
  -1  -8  -7  106.99   54.89
  -1  -8  -8  642.84   66.29
  -1  -8  -9  138.59   63.59
  -2  -8   1  908.71   57.19
   2   8  -1  924.81   53.39
  -2  -8   0  180.98   47.00
   2   8   0  127.69   39.00
  -2  -8  -1 1007.90   65.29
   2   8   1  936.61   60.09
  -2  -8  -2 6558.44  183.28
   2   8   2 6518.95  181.98
  -2  -8  -3 1283.87   70.79
   2   8   3 1217.68   66.29
  -2  -8  -4 2000.10   85.19
  -2  -8  -5  231.98   51.59
  -2  -8  -6  155.68   54.59
  -2  -8  -7  222.48   59.19
  -2  -8  -8  612.14   68.29
   3   8  -1   62.69   35.30
  -3  -8   0   65.89   44.30
   3   8   0  101.89   39.40
  -3  -8  -1  189.08   43.90
   3   8   1  156.58   41.70
  -3  -8  -2 5249.67  152.78
   3   8   2 5266.97  151.88
  -3  -8  -3  754.72   66.29
   3   8   3  727.83   60.99
  -3  -8  -4 3140.79  109.49
  -3  -8  -5  249.88   55.09
  -3  -8  -6  186.18   56.59
  -3  -8  -7  155.88   58.99
  -3  -8  -8  439.76   65.39
   4   8  -1  635.84   50.19
   4   8   0  244.48   39.00
   4   8   1  758.82   58.19
  -4  -8  -2 1390.06   75.89
   4   8   2 1521.35   72.59
  -4  -8  -3  586.04   55.09
   4   8   3  570.04   51.69
  -4  -8  -4  780.72   70.59
  -4  -8  -5  382.06   57.79
  -4  -8  -6   44.30   55.99
  -4  -8  -7   98.29   61.89
  -4  -8  -8  217.58   67.19
   5   8   0 2805.62   93.69
   5   8   1  533.85   45.20
   5   8   2 1107.99   68.09
   5   8   3   49.00   50.99
   6   8   1  698.03   61.99
   6   8   2 1056.89   67.89
   6   8   3  -34.20   49.80
   7   8   2  876.41   73.19
   8   8   2  602.94   66.69
  11  -9  -2  -23.90   66.79
  11  -9  -3  -87.79   68.49
  11  -9  -4   80.19   70.69
  10  -9  -2  149.49   63.89
  10  -9  -3   53.59   67.09
  10  -9  -4  138.19   65.49
  10  -9  -5  203.68   70.39
   9  -9  -2  218.28   60.69
   9  -9  -3  193.08   62.79
   9  -9  -4   94.69   63.19
   9  -9  -5  116.49   64.09
   9  -9  -6   61.19   65.19
   8  -9  -1  135.29   53.59
   8  -9  -2  276.67   60.39
   8  -9  -3  538.95   63.69
   8  -9  -4  445.16   65.59
   8  -9  -5  161.28   66.09
   8  -9  -6  -47.80   62.69
   7  -9  -1  255.87   53.69
   7  -9  -2  513.65   60.49
   7  -9  -3  734.83   65.39
   7  -9  -4   82.49   56.49
   7  -9  -5  258.67   61.39
   7  -9  -6  646.14   65.39
   7  -9  -7   36.60   59.99
   6  -9   0   11.70   44.70
   6  -9  -1 2104.79   89.79
   6  -9  -2  183.78   51.69
   6  -9  -3   48.70   53.69
   6  -9  -4  102.39   55.29
   6  -9  -5  840.12   79.69
   6  -9  -6   59.89   56.89
   6  -9  -7  410.26   65.79
   5  -9   0   99.09   46.30
   5  -9  -1 1743.53   79.59
   5  -9  -2  694.93   57.89
   5  -9  -3   39.90   50.59
   5  -9  -4  768.82   62.59
   5  -9  -5  893.91   77.69
   5  -9  -6   -5.50   54.59
   5  -9  -7  364.36   59.59
   5  -9  -8  154.88   58.89
   4  -9   1  629.34   49.90
   4  -9   0  126.89   43.80
   4  -9  -1  694.43   53.69
  -4   9   1  533.25   49.40
   4  -9  -2  263.77   48.80
  -4   9   2  234.48   49.10
   4  -9  -3 1262.37   75.29
  -4   9   3 1253.07   72.59
   4  -9  -4  404.96   52.29
   4  -9  -5  697.23   60.59
   4  -9  -6  338.97   55.59
   4  -9  -7  488.95   59.79
   4  -9  -8  180.58   56.59
   3  -9   2  211.48   38.90
   3  -9   1  372.26   43.00
   3  -9   0   15.70   42.00
  -3   9   0   46.10   39.40
   3  -9  -1  336.57   47.70
  -3   9   1  280.17   45.80
   3  -9  -2  174.08   45.20
  -3   9   2  188.08   45.80
   3  -9  -3  339.77   47.30
  -3   9   3  399.46   48.00
   3  -9  -4  267.57   47.70
   3  -9  -5  254.67   51.99
   3  -9  -6  -41.60   48.60
   3  -9  -7  339.97   54.49
   3  -9  -8  213.88   53.09
   2  -9   2 1035.70   54.09
   2  -9   1  636.74   56.39
  -2   9  -1  793.42   54.09
   2  -9   0  268.27   43.60
  -2   9   0  191.38   42.20
   2  -9  -1  740.33   60.59
  -2   9   1  992.60   55.29
   2  -9  -2 1122.79   67.59
  -2   9   2 1011.90   62.89
   2  -9  -3 3104.79  103.39
  -2   9   3 3075.89  102.29
   2  -9  -4  642.24   52.49
   2  -9  -5  446.76   52.39
   2  -9  -6  161.88   49.80
   2  -9  -7  317.37   53.19
   2  -9  -8   56.79   55.29
   1  -9   1 2776.02   90.49
  -1   9  -1 2802.92   88.79
   1  -9   0 3089.69   98.69
  -1   9   0 2974.30   95.19
   1  -9  -1 2906.01   94.99
  -1   9   1 2791.42   92.39
   1  -9  -2 1720.93   74.39
  -1   9   2 1792.82   72.69
   1  -9  -3  286.37   46.40
  -1   9   3  209.38   41.70
   1  -9  -4  715.03   61.29
   1  -9  -5  430.26   47.20
   1  -9  -6  367.56   52.29
   1  -9  -7  319.77   56.09
   1  -9  -8  234.88   60.09
   0  -9   1 6778.82  181.18
   0   9  -1 6526.95  179.28
   0  -9   0  -19.90   37.90
   0   9   0   -6.20   34.60
   0  -9  -1 6953.70  189.88
   0   9   1 6836.42  188.78
   0  -9  -2  -63.29   38.50
   0   9   2    4.90   37.80
   0  -9  -3  164.98   42.50
   0   9   3   63.59   38.50
   0  -9  -4   69.59   43.10
   0  -9  -5 1315.47   76.59
   0  -9  -6   86.99   50.69
   0  -9  -7 2314.37   98.39
   0  -9  -8  140.29   58.59
  -1  -9   1 2411.76   81.49
   1   9  -1 2453.85   78.39
  -1  -9   0 2792.22   94.09
   1   9   0 2753.42   89.49
  -1  -9  -1 2619.34   91.39
   1   9   1 2511.05   87.29
  -1  -9  -2 1697.73   76.19
   1   9   2 1759.32   71.99
  -1  -9  -3  235.18   45.20
   1   9   3  244.18   40.60
  -1  -9  -4  691.53   63.89
  -1  -9  -5  475.95   55.19
  -1  -9  -6  391.26   55.79
  -1  -9  -7  368.56   61.49
  -1  -9  -8  327.97   63.59
  -2  -9   1  635.74   54.39
   2   9  -1  612.64   49.00
  -2  -9   0  129.49   46.40
   2   9   0  228.68   39.50
  -2  -9  -1  658.73   60.99
   2   9   1  648.64   56.79
  -2  -9  -2  981.20   66.69
   2   9   2  955.10   62.19
  -2  -9  -3 2817.02  101.39
   2   9   3 2873.31   97.19
  -2  -9  -4  598.04   54.69
  -2  -9  -5  373.66   55.09
  -2  -9  -6  158.08   55.99
  -2  -9  -7  525.95   65.29
  -2  -9  -8  182.88   63.99
   3   9  -1  234.88   38.00
  -3  -9   0   17.20   42.20
   3   9   0  -11.90   36.80
  -3  -9  -1  251.67   47.10
   3   9   1  270.27   42.30
  -3  -9  -2  188.48   50.09
   3   9   2  193.98   43.00
  -3  -9  -3  291.67   53.19
   3   9   3  315.07   45.70
  -3  -9  -4  258.27   54.79
  -3  -9  -5  250.77   58.59
  -3  -9  -6   39.50   57.19
  -3  -9  -7  397.26   64.49
  -3  -9  -8  209.38   65.19
   4   9  -2  237.58   33.60
   4   9  -1  468.65   40.20
   4   9   0   97.79   38.70
  -4  -9  -1  533.45   54.29
   4   9   1  620.94   49.20
  -4  -9  -2  270.77   50.59
   4   9   2  190.78   46.10
  -4  -9  -3 1072.19   71.79
   4   9   3  987.50   69.39
  -4  -9  -4  383.66   57.19
  -4  -9  -5  621.74   64.09
  -4  -9  -6  321.47   60.49
  -4  -9  -7  336.67   64.59
  -4  -9  -8  220.78   65.29
   5   9  -1 1409.96   64.69
   5   9   0   10.40   36.60
   5   9   1 1342.47   67.49
   5   9   2  681.83   56.89
   5   9   3   -2.30   49.30
  -5  -9  -5  845.22   71.59
  -5  -9  -6   45.30   64.19
   6   9   0   31.00   44.70
   6   9   1 1733.03   74.69
   6   9   2  179.28   49.10
   6   9   3  123.39   54.89
   7   9   1  247.98   52.19
   7   9   2  365.26   52.19
   8   9   2  330.77   60.29
   9   9   2  298.07   67.39
  11 -10  -2  133.69   70.79
  11 -10  -3   74.99   73.79
  10 -10  -2  183.98   67.09
  10 -10  -3  551.84   71.79
  10 -10  -4   95.09   67.19
  10 -10  -5  216.18   68.69
   9 -10  -1  105.49   59.39
   9 -10  -2  305.47   65.19
   9 -10  -3  167.38   65.79
   9 -10  -4  193.58   66.89
   9 -10  -5   59.29   66.09
   8 -10  -1  220.58   57.29
   8 -10  -2  718.13   66.99
   8 -10  -3  -19.40   58.89
   8 -10  -4  106.49   61.09
   8 -10  -5   99.79   62.79
   8 -10  -6  -34.50   64.29
   7 -10   0  306.67   53.29
   7 -10  -1   40.50   54.69
   7 -10  -2  294.27   57.09
   7 -10  -3  420.76   62.79
   7 -10  -4  231.58   62.49
   7 -10  -5  -60.79   58.99
   7 -10  -6  221.88   63.29
   7 -10  -7   32.30   61.59
   6 -10   0  207.98   49.80
   6 -10  -1  504.15   56.59
   6 -10  -2  414.76   57.19
   6 -10  -3   67.99   55.09
   6 -10  -4  279.07   58.39
   6 -10  -5  246.28   58.49
   6 -10  -6  100.79   58.59
   6 -10  -7  217.58   62.69
   5 -10   1  896.81   64.99
   5 -10   0 1253.57   74.19
   5 -10  -1  937.01   70.39
   5 -10  -2 1378.56   76.89
  -5  10   2 1242.78   72.29
   5 -10  -3  107.89   53.19
   5 -10  -4  859.01   75.29
   5 -10  -5  358.96   56.59
   5 -10  -6  617.24   61.19
   5 -10  -7  184.18   60.69
   5 -10  -8    4.80   58.49
   4 -10   2 1742.53   72.69
   4 -10   1  962.20   65.19
   4 -10   0 1337.27   70.89
   4 -10  -1  972.30   68.69
  -4  10   1 1030.00   64.49
   4 -10  -2 1760.22   83.09
  -4  10   2 1850.41   82.99
   4 -10  -3 2065.19   88.59
  -4  10   3 1981.70   87.49
   4 -10  -4  339.07   52.59
   4 -10  -5 1430.56   82.29
   4 -10  -6  -26.30   54.69
   4 -10  -7  264.27   57.89
   4 -10  -8  115.69   58.19
   3 -10   3  101.99   36.70
   3 -10   2 3616.24  109.19
   3 -10   1  537.25   47.10
   3 -10   0  -84.39   42.50
  -3  10   0   -1.90   41.40
   3 -10  -1  495.65   49.40
  -3  10   1  463.25   47.60
   3 -10  -2 3652.93  120.69
  -3  10   2 3882.51  119.49
   3 -10  -3   14.70   45.30
  -3  10   3   43.80   47.00
   3 -10  -4 3305.37  112.99
   3 -10  -5   -4.50   48.40
   3 -10  -6  295.47   54.89
   3 -10  -7   -5.50   53.29
   3 -10  -8  335.37   56.89
   2 -10   2 3304.67  100.79
   2 -10   1 1498.65   65.19
  -2  10  -1 1528.55   65.09
   2 -10   0  765.52   58.79
  -2  10   0  777.12   55.99
   2 -10  -1 1489.85   70.69
  -2  10   1 1576.04   71.19
   2 -10  -2 3259.17  107.49
  -2  10   2 3296.67  106.39
   2 -10  -3  442.76   49.60
  -2  10   3  476.65   48.60
   2 -10  -4 1866.81   82.89
   2 -10  -5  843.32   59.69
   2 -10  -6   13.70   50.19
   2 -10  -7  280.37   53.49
   2 -10  -8  379.36   61.79
   1 -10   1  316.67   38.10
  -1  10  -1  289.07   38.20
   1 -10   0 2832.62   93.59
  -1  10   0 2818.12   90.89
   1 -10  -1  229.48   43.40
  -1  10   1  380.16   41.10
   1 -10  -2 2756.92   95.09
  -1  10   2 2724.43   92.99
   1 -10  -3  784.22   54.19
  -1  10   3  685.13   50.89
   1 -10  -4  709.03   65.19
   1 -10  -5  113.39   45.80
   1 -10  -6  690.93   58.59
   1 -10  -7  134.69   55.19
   1 -10  -8  382.26   63.59
   0 -10   1   18.70   32.70
   0  10  -1   46.10   32.30
   0 -10   0 3225.98  102.59
   0  10   0 3110.69   98.69
   0 -10  -1   -0.70   36.70
   0  10   1  -14.90   36.30
   0 -10  -2 4941.71  143.49
   0  10   2 4887.51  142.19
   0 -10  -3    1.50   41.70
   0  10   3   20.30   38.50
   0 -10  -4 2087.29   86.59
   0 -10  -5   21.10   49.80
   0 -10  -6  266.67   55.79
   0 -10  -7   30.20   53.09
   0 -10  -8   34.20   58.49
  -1 -10   1  198.18   35.80
   1  10  -1  282.97   35.30
  -1 -10   0 2767.32   97.39
   1  10   0 2828.22   89.39
  -1 -10  -1  298.87   45.70
   1  10   1  296.57   39.30
  -1 -10  -2 2524.05   94.59
   1  10   2 2649.93   89.49
  -1 -10  -3  727.63   53.89
   1  10   3  686.03   49.99
  -1 -10  -4  718.63   66.19
  -1 -10  -5  165.08   50.19
  -1 -10  -6  563.94   59.29
  -1 -10  -7  129.59   58.89
  -1 -10  -8  493.25   66.09
  -2 -10   1 1161.58   61.89
   2  10  -1 1278.87   57.59
  -2 -10   0  782.52   59.59
   2  10   0  660.63   53.39
  -2 -10  -1 1317.97   69.59
   2  10   1 1276.37   65.49
  -2 -10  -2 3008.60  104.79
   2  10   2 3079.59  101.79
  -2 -10  -3  483.85   52.69
   2  10   3  405.46   46.00
  -2 -10  -4 1762.32   85.39
  -2 -10  -5  823.52   74.99
  -2 -10  -6   13.10   56.09
  -2 -10  -7  204.18   61.09
  -2 -10  -8  398.16   67.29
  -3 -10   1  349.47   43.20
   3  10  -1  363.26   38.30
  -3 -10   0  -15.30   43.40
   3  10   0   15.30   38.10
  -3 -10  -1  349.07   50.49
   3  10   1  420.66   43.80
  -3 -10  -2 3234.48  112.79
   3  10   2 3480.65  109.09
  -3 -10  -3    2.90   51.19
   3  10   3   64.29   44.60
  -3 -10  -4 2900.61  109.19
  -3 -10  -5   53.69   58.99
  -3 -10  -6  343.77   64.09
  -3 -10  -7  122.39   63.99
  -3 -10  -8  487.65   68.59
   4  10  -2 1229.18   56.49
   4  10  -1  822.12   54.59
   4  10   0 1261.27   64.89
  -4 -10  -1  873.81   66.39
   4  10   1  860.01   60.09
  -4 -10  -2 1536.15   77.29
   4  10   2 1529.95   73.79
  -4 -10  -3 1583.64   82.59
   4  10   3 1594.34   78.79
  -4 -10  -4  421.66   58.19
  -4 -10  -5 1276.67   85.49
  -4 -10  -6   45.50   59.89
  -4 -10  -7  320.27   65.39
  -4 -10  -8  190.58   67.59
   5  10  -2  871.51   53.69
   5  10  -1  709.83   52.09
   5  10   0 1004.70   61.59
   5  10   1  658.03   60.79
   5  10   2  951.50   67.89
  -5 -10  -3   41.50   58.29
   5  10   3  164.48   50.49
  -5 -10  -4  612.54   66.29
  -5 -10  -5  375.26   65.39
  -5 -10  -6  671.43   72.69
  -5 -10  -7  101.29   71.29
  -5 -10  -8  -13.80   72.89
   6  10  -1  400.56   47.90
   6  10   0  170.78   41.60
   6  10   1  373.56   47.20
   6  10   2  225.28   51.29
   6  10   3  153.58   56.29
   7  10   0  345.97   52.79
   7  10   1   68.09   45.20
   7  10   2  166.38   52.79
   8  10   1  297.97   57.39
   8  10   2  772.52   70.49
   9  10   1  102.89   60.99
   9  10   2  238.48   62.19
  11 -11  -1  205.78   71.99
  11 -11  -2   80.09   75.09
  11 -11  -3   23.50   73.59
  10 -11  -1   99.49   66.89
  10 -11  -2  305.27   71.59
  10 -11  -3   98.59   68.69
  10 -11  -4  159.68   71.59
   9 -11  -1  255.17   62.39
   9 -11  -2  332.17   65.89
   9 -11  -3  -22.20   61.69
   9 -11  -4   57.89   66.09
   9 -11  -5  162.68   67.29
   8 -11   0   32.60   54.39
   8 -11  -1  373.06   62.69
   8 -11  -2  698.23   68.09
   8 -11  -3  630.84   68.09
   8 -11  -4  375.76   65.39
   8 -11  -5  275.07   65.99
   8 -11  -6   -6.00   64.29
   7 -11   0 1309.47   80.49
   7 -11  -1  214.68   58.19
   7 -11  -2  488.35   61.59
   7 -11  -3  424.56   61.39
   7 -11  -4  558.54   63.99
   7 -11  -5  -20.00   62.79
   7 -11  -6  983.50   88.79
   7 -11  -7   44.20   62.99
   6 -11   1  814.52   68.49
   6 -11   0   59.09   52.79
   6 -11  -1 1045.80   74.19
   6 -11  -2  476.25   58.69
   6 -11  -3  197.08   58.19
   6 -11  -4  159.88   56.99
   6 -11  -5  969.20   84.69
   6 -11  -6   -7.90   57.79
   6 -11  -7 1061.29   88.49
   5 -11   2  220.28   45.80
   5 -11   1  806.02   57.39
   5 -11   0   19.30   46.70
   5 -11  -1  846.92   61.29
   5 -11  -2  290.77   53.79
  -5  11   2  153.88   49.50
   5 -11  -3  310.67   54.59
   5 -11  -4  430.56   59.59
   5 -11  -5  705.13   63.69
   5 -11  -6    3.40   55.09
   5 -11  -7  454.85   64.39
   4 -11   3 1515.85   67.89
   4 -11   2  401.16   45.60
   4 -11   1  865.41   63.39
   4 -11   0 1228.58   70.49
  -4  11   0 1337.07   63.79
   4 -11  -1  916.51   68.49
  -4  11   1  872.51   65.19
   4 -11  -2  528.15   53.79
  -4  11   2  500.55   54.29
   4 -11  -3 2002.30   86.99
  -4  11   3 1671.03   85.49
   4 -11  -4   68.19   51.89
   4 -11  -5  802.22   76.99
   4 -11  -6  -32.40   55.29
   4 -11  -7  298.97   58.79
   4 -11  -8  145.39   60.29
   3 -11   3  783.92   52.59
   3 -11   2    5.70   39.20
   3 -11   1  653.53   49.50
  -3  11  -1  608.24   45.00
   3 -11   0  135.89   44.80
  -3  11   0  192.98   41.80
   3 -11  -1  668.33   52.19
  -3  11   1  670.83   51.79
   3 -11  -2   49.60   44.90
  -3  11   2  113.89   44.90
   3 -11  -3  710.23   67.79
  -3  11   3  870.31   69.39
   3 -11  -4  516.65   56.19
   3 -11  -5  297.87   54.09
   3 -11  -6  189.38   55.09
   3 -11  -7  353.86   60.49
   3 -11  -8  102.19   55.09
   2 -11   2  531.15   49.00
  -2  11  -2  491.65   46.30
   2 -11   1  377.86   40.80
  -2  11  -1  308.57   41.10
   2 -11   0   56.89   40.40
  -2  11   0   88.09   39.50
   2 -11  -1  311.87   45.50
  -2  11   1  323.37   45.40
   2 -11  -2  668.93   51.69
  -2  11   2  695.43   50.99
   2 -11  -3 1003.10   67.99
  -2  11   3  873.11   62.69
   2 -11  -4  277.47   49.90
   2 -11  -5  716.33   58.59
   2 -11  -6  110.19   53.19
   2 -11  -7  528.55   58.69
   2 -11  -8   39.90   59.39
   1 -11   2 1689.73   62.49
  -1  11  -2 1609.24   63.09
   1 -11   1  127.79   35.30
  -1  11  -1  227.38   36.50
   1 -11   0  619.34   46.50
  -1  11   0  514.05   49.30
   1 -11  -1  159.18   42.10
  -1  11   1  169.18   38.10
   1 -11  -2 1743.03   77.39
  -1  11   2 1832.02   74.79
   1 -11  -3  400.56   49.40
  -1  11   3  380.16   46.30
   1 -11  -4  886.01   68.99
   1 -11  -5 1193.48   72.89
   1 -11  -6  929.41   75.49
   1 -11  -7  386.56   58.09
   1 -11  -8  352.76   64.99
   0 -11   1 1940.01   72.19
   0  11  -1 2056.29   70.99
   0 -11   0  -21.70   36.10
   0  11   0   11.60   34.50
   0 -11  -1 2074.99   77.69
   0  11   1 2011.40   75.99
   0 -11  -2    7.10   39.90
   0  11   2  -10.00   38.40
   0 -11  -3   -6.60   42.70
   0  11   3   43.30   39.90
   0 -11  -4   31.80   46.20
   0 -11  -5 1262.07   80.09
   0 -11  -6  -23.90   55.69
   0 -11  -7  799.82   67.19
   0 -11  -8   42.60   58.49
  -1 -11   1  124.99   35.50
   1  11  -1  157.28   33.60
  -1 -11   0  687.83   49.90
   1  11   0  691.93   46.40
  -1 -11  -1  139.49   44.90
   1  11   1  183.48   39.30
  -1 -11  -2 1564.14   76.99
   1  11   2 1640.14   71.59
  -1 -11  -3  347.87   49.90
   1  11   3  405.76   46.20
  -1 -11  -4  897.61   72.29
  -1 -11  -5 1153.18   78.29
  -1 -11  -6  999.70   81.19
  -1 -11  -7  380.86   61.69
  -1 -11  -8  389.86   65.29
  -2 -11   1  329.37   41.50
   2  11  -1  380.06   38.00
  -2 -11   0  -23.10   40.60
   2  11   0   40.10   36.90
  -2 -11  -1  362.06   49.30
   2  11   1  289.87   40.60
  -2 -11  -2  570.64   53.39
   2  11   2  580.24   47.40
  -2 -11  -3  885.71   72.39
   2  11   3  909.11   64.89
  -2 -11  -4  254.27   56.49
  -2 -11  -5  623.84   60.79
  -2 -11  -6  121.79   58.49
  -2 -11  -7  448.46   66.59
  -2 -11  -8  191.88   66.79
   3  11  -2   49.40   33.60
  -3 -11   1  402.56   45.20
   3  11  -1  422.96   39.80
  -3 -11   0  100.99   46.00
   3  11   0  160.18   38.30
  -3 -11  -1  552.34   53.79
   3  11   1  544.55   46.50
  -3 -11  -2  143.29   49.50
   3  11   2   43.80   41.00
  -3 -11  -3  855.11   63.49
   3  11   3  766.82   64.99
  -3 -11  -4  387.36   59.29
  -3 -11  -5  377.26   61.29
  -3 -11  -6  201.98   62.99
  -3 -11  -7  296.77   67.89
  -3 -11  -8   53.49   67.99
   4  11  -2  367.16   39.50
   4  11  -1  775.52   53.99
  -4 -11   0 1085.99   69.79
   4  11   0 1158.38   61.69
  -4 -11  -1  801.02   66.29
   4  11   1  808.12   60.19
  -4 -11  -2  334.67   53.69
   4  11   2  419.76   48.20
  -4 -11  -3 1498.45   82.59
   4  11   3 1493.25   78.09
  -4 -11  -4   70.19   56.39
  -4 -11  -5  841.32   70.09
  -4 -11  -6   44.50   61.89
  -4 -11  -7  276.07   67.79
  -4 -11  -8  167.88   69.69
   5  11  -3  129.29   34.40
   5  11  -2  103.79   36.90
   5  11  -1  590.24   53.59
   5  11   0   -1.70   42.30
   5  11   1  620.44   51.29
  -5 -11  -2   78.79   56.99
   5  11   2  110.59   45.80
  -5 -11  -3  146.29   58.99
   5  11   3  251.07   52.19
  -5 -11  -4  236.68   61.69
  -5 -11  -5  599.64   68.19
  -5 -11  -6  146.39   66.19
  -5 -11  -7  350.56   72.09
   6  11  -2  307.97   45.10
   6  11  -1  540.65   46.50
   6  11   0   54.59   42.20
   6  11   1  644.54   61.79
   6  11   2  379.66   54.59
   6  11   3   37.90   55.59
   7  11  -1  129.39   49.40
   7  11   0 1030.50   66.59
   7  11   1   84.19   48.00
   7  11   2  533.75   57.29
   8  11   0  -94.19   51.49
   8  11   1  257.67   52.49
   8  11   2  577.64   60.89
   9  11   1  253.07   62.59
   9  11   2  530.45   63.49
  11 -12  -1  339.17   78.09
  11 -12  -2   58.39   78.29
  11 -12  -3  113.89   74.69
  10 -12   0  483.45   72.39
  10 -12  -1  386.06   72.39
  10 -12  -2  262.27   71.99
  10 -12  -3  455.85   73.69
  10 -12  -4   11.20   71.39
   9 -12   0  231.18   63.49
   9 -12  -1  259.67   66.49
   9 -12  -2  404.26   69.69
   9 -12  -3   56.99   65.89
   9 -12  -4  325.97   67.49
   9 -12  -5  -39.70   63.99
   8 -12   1  146.79   55.89
   8 -12   0  -72.39   56.19
   8 -12  -1  249.78   61.89
   8 -12  -2  373.36   63.39
   8 -12  -3   36.20   62.09
   8 -12  -4  171.68   63.19
   8 -12  -5   83.79   65.79
   8 -12  -6   28.10   64.19
   7 -12   1  -73.99   52.09
   7 -12   0 1291.27   82.89
   7 -12  -1  -51.49   53.79
   7 -12  -2  417.46   63.39
   7 -12  -3  248.68   61.69
   7 -12  -4  405.36   65.29
   7 -12  -5   51.29   63.19
   7 -12  -6  258.67   67.49
   6 -12   2  619.24   56.09
   6 -12   1  331.97   54.19
   6 -12   0  673.13   60.19
   6 -12  -1  378.96   57.39
   6 -12  -2  668.83   62.39
   6 -12  -3  131.29   57.09
   6 -12  -4  436.46   63.29
   6 -12  -5  180.78   62.39
   6 -12  -6   58.89   60.89
   6 -12  -7   43.70   61.49
   5 -12   3   58.69   44.00
   5 -12   2  857.41   66.89
   5 -12   1  425.26   50.69
   5 -12   0 1585.84   80.39
   5 -12  -1  403.06   54.69
   5 -12  -2  905.01   74.99
  -5  12   2  778.92   72.49
   5 -12  -3   46.80   54.29
   5 -12  -4  527.25   62.29
   5 -12  -5  278.67   58.79
   5 -12  -6  835.42   70.29
   5 -12  -7   56.69   62.99
   4 -12   3 1306.57   66.49
   4 -12   2  599.44   49.70
   4 -12   1 1591.54   76.19
   4 -12   0  729.83   65.89
  -4  12   0  718.93   59.29
   4 -12  -1 1780.52   83.39
  -4  12   1 1755.12   79.49
   4 -12  -2  649.54   58.99
  -4  12   2  668.33   57.39
   4 -12  -3 1426.06   80.69
  -4  12   3 1429.66   80.99
   4 -12  -4  505.15   58.49
   4 -12  -5  688.53   62.19
   4 -12  -6  488.35   62.59
   4 -12  -7  568.14   65.29
   4 -12  -8  114.09   61.19
   3 -12   3   14.40   38.60
   3 -12   2 2315.57   83.29
   3 -12   1   74.99   42.10
  -3  12  -1   28.70   37.90
   3 -12   0 1275.77   69.89
  -3  12   0 1336.37   66.79
   3 -12  -1  105.59   44.50
  -3  12   1   26.90   43.90
   3 -12  -2 2460.15   93.49
  -3  12   2 2448.46   94.29
   3 -12  -3   23.60   47.60
  -3  12   3   78.99   50.99
   3 -12  -4 2018.40   91.09
   3 -12  -5   -7.20   52.09
   3 -12  -6  350.76   59.99
   3 -12  -7  -51.09   55.39
   3 -12  -8  424.36   60.09
   2 -12   2  966.10   54.19
  -2  12  -2  935.11   54.49
   2 -12   1  966.00   61.49
  -2  12  -1 1096.29   58.89
   2 -12   0   62.39   40.90
  -2  12   0   41.60   39.30
   2 -12  -1  946.01   64.79
  -2  12   1 1036.90   62.89
   2 -12  -2  996.90   66.29
  -2  12   2 1014.00   65.49
   2 -12  -3  527.25   52.99
  -2  12   3  524.45   49.90
   2 -12  -4  926.31   72.79
   2 -12  -5  693.53   60.99
   2 -12  -6   77.49   50.59
   2 -12  -7  308.77   57.09
   2 -12  -8  104.49   61.19
   1 -12   2 1161.98   53.29
  -1  12  -2 1117.49   54.19
   1 -12   1   18.50   36.20
  -1  12  -1   19.70   33.20
   1 -12   0 1922.51   76.69
  -1  12   0 1977.30   73.49
   1 -12  -1   55.99   41.40
  -1  12   1   31.40   36.70
   1 -12  -2 1185.08   69.89
  -1  12   2 1223.88   64.69
   1 -12  -3  164.28   47.10
  -1  12   3  187.98   45.00
   1 -12  -4 1099.39   72.19
   1 -12  -5   73.39   48.20
   1 -12  -6 1081.79   79.29
   1 -12  -7   30.60   56.79
   1 -12  -8  356.66   65.99
   0 -12   1  -30.50   33.80
   0  12  -1   -5.50   32.30
   0 -12   0   79.09   37.50
   0  12   0   48.60   35.60
   0 -12  -1  -24.10   37.70
   0  12   1  -20.80   36.50
   0 -12  -2  152.78   41.60
   0  12   2   50.59   38.70
   0 -12  -3   73.99   44.30
   0  12   3  -33.00   40.80
   0 -12  -4  593.84   56.09
   0 -12  -5   78.09   52.19
   0 -12  -6  456.15   62.29
   0 -12  -7   53.69   59.69
   0 -12  -8  113.99   59.99
  -1 -12   1  100.69   37.30
   1  12  -1   56.39   32.30
  -1 -12   0 1619.44   75.59
   1  12   0 1794.32   68.99
  -1 -12  -1   38.20   44.50
   1  12   1   64.89   37.40
  -1 -12  -2 1181.38   71.49
   1  12   2 1039.70   63.49
  -1 -12  -3  166.18   49.40
   1  12   3   94.69   44.60
  -1 -12  -4 1022.30   75.89
  -1 -12  -5   85.59   51.89
  -1 -12  -6 1176.88   85.19
  -1 -12  -7   79.99   58.79
  -1 -12  -8  311.37   68.19
  -2 -12   1  771.52   58.49
   2  12  -1  871.41   51.49
  -2 -12   0   15.20   43.50
   2  12   0   77.89   35.70
  -2 -12  -1  799.12   65.69
   2  12   1  892.71   58.79
  -2 -12  -2  808.02   67.89
   2  12   2  933.01   61.09
  -2 -12  -3  403.26   52.89
   2  12   3  406.36   49.20
  -2 -12  -4 1042.70   79.29
  -2 -12  -5  712.23   66.59
  -2 -12  -6   88.39   59.59
  -2 -12  -7  542.95   68.29
  -2 -12  -8   79.39   66.99
   3  12  -2 2002.10   71.79
  -3 -12   1    0.40   42.10
   3  12  -1   -2.10   35.30
  -3 -12   0 1152.38   71.09
   3  12   0 1122.99   61.89
  -3 -12  -1  106.19   49.00
   3  12   1   75.99   39.00
  -3 -12  -2 2136.59   92.19
   3  12   2 2180.48   84.29
  -3 -12  -3   65.19   53.09
   3  12   3   51.89   46.80
  -3 -12  -4 1963.50   95.79
  -3 -12  -5  114.79   60.69
  -3 -12  -6  346.87   65.69
  -3 -12  -7   -9.30   66.89
  -3 -12  -8  567.94   76.59
   4  12  -2  387.66   40.00
   4  12  -1 1258.77   62.39
  -4 -12   0  725.03   55.69
   4  12   0  579.84   56.19
  -4 -12  -1 1380.06   77.99
   4  12   1 1535.25   71.79
  -4 -12  -2  584.74   58.19
   4  12   2  520.85   50.19
  -4 -12  -3 1176.28   79.89
   4  12   3 1196.18   74.99
  -4 -12  -4  417.46   61.69
  -4 -12  -5  544.45   66.09
  -4 -12  -6  457.35   69.39
  -4 -12  -7  521.45   72.19
  -4 -12  -8  309.47   71.69
   5  12  -3   -2.60   36.10
   5  12  -2  630.04   53.69
   5  12  -1  294.87   43.50
   5  12   0 1394.96   68.89
   5  12   1  290.17   46.60
  -5 -12  -2  761.52   65.09
   5  12   2  746.33   65.69
  -5 -12  -3  114.29   58.19
   5  12   3   71.89   51.99
  -5 -12  -4  481.55   63.89
  -5 -12  -5  175.18   64.09
  -5 -12  -6  631.14   71.29
  -5 -12  -7  261.97   70.99
   6  12  -3   37.40   38.00
   6  12  -2  455.95   45.40
   6  12  -1  201.48   44.80
   6  12   0  494.25   49.70
   6  12   1  313.57   51.79
   6  12   2  667.93   58.29
   6  12   3    1.70   54.89
   7  12  -2  382.26   51.09
   7  12  -1   57.79   43.60
   7  12   0  701.13   64.79
   7  12   1   38.70   48.90
   7  12   2  415.06   58.39
   8  12  -1  127.29   53.69
   8  12   0   55.09   49.40
   8  12   1  155.08   53.29
   8  12   2  212.88   57.49
   9  12   0  198.68   59.29
   9  12   1  295.77   57.99
   9  12   2  345.97   62.89
  11 -13  -1   64.79   78.19
  11 -13  -2   -5.60   80.39
  10 -13   0   71.79   72.49
  10 -13  -1  194.98   74.49
  10 -13  -2  120.59   73.89
  10 -13  -3  -30.30   74.29
  10 -13  -4  -38.30   68.19
   9 -13   1  151.48   65.49
   9 -13   0  -59.29   65.99
   9 -13  -1  157.48   67.19
   9 -13  -2  232.48   67.49
   9 -13  -3  -47.80   67.29
   9 -13  -4  180.48   68.69
   9 -13  -5   87.79   69.59
   8 -13   1  291.57   61.39
   8 -13   0  -38.90   61.09
   8 -13  -1  444.96   63.99
   8 -13  -2  333.97   66.29
   8 -13  -3  447.76   66.29
   8 -13  -4  256.27   64.69
   8 -13  -5  262.57   67.89
   8 -13  -6  113.99   67.49
   7 -13   2  615.94   62.09
   7 -13   1   -1.90   56.39
   7 -13   0 2253.57  100.09
   7 -13  -1   25.90   57.49
   7 -13  -2  540.35   64.59
   7 -13  -3  419.36   65.69
   7 -13  -4  519.95   67.19
   7 -13  -5   62.79   61.29
   7 -13  -6  585.64   69.59
   6 -13   3  309.77   53.49
   6 -13   2  340.57   55.79
   6 -13   1 1540.75   83.89
   6 -13   0   73.09   53.39
   6 -13  -1 1532.05   85.19
   6 -13  -2  445.86   61.49
   6 -13  -3  411.96   62.39
   6 -13  -4  526.35   63.59
   6 -13  -5  608.44   67.59
   6 -13  -6  197.48   63.89
   6 -13  -7  493.65   67.79
   5 -13   4  133.49   45.70
   5 -13   3   28.90   47.90
   5 -13   2  609.74   55.29
   5 -13   1  499.75   54.69
   5 -13   0  270.97   51.89
   5 -13  -1  624.54   59.19
  -5  13   1  499.05   53.39
   5 -13  -2  552.74   59.69
  -5  13   2  639.34   61.09
   5 -13  -3   75.69   54.59
   5 -13  -4  117.19   57.69
   5 -13  -5  553.94   64.69
   5 -13  -6  140.89   59.39
   5 -13  -7  171.78   63.89
   4 -13   3  798.12   59.19
   4 -13   2  259.37   47.30
   4 -13   1 1638.44   77.19
   4 -13   0   -5.10   45.60
  -4  13   0   -6.00   41.10
   4 -13  -1 1586.44   80.29
  -4  13   1 1684.03   78.29
   4 -13  -2  268.57   52.99
  -4  13   2  208.18   52.69
   4 -13  -3  824.72   73.09
  -4  13   3  811.32   75.69
   4 -13  -4  491.85   58.99
   4 -13  -5  870.81   79.89
   4 -13  -6  100.59   59.19
   4 -13  -7  998.90   87.69
   3 -13   3  492.95   45.20
   3 -13   2  175.58   40.90
   3 -13   1  214.78   44.40
  -3  13  -1  149.09   42.10
   3 -13   0   19.00   44.50
  -3  13   0   86.49   41.40
   3 -13  -1  180.08   47.00
  -3  13   1  184.18   43.80
   3 -13  -2  147.89   47.90
  -3  13   2  195.08   48.90
   3 -13  -3  576.14   58.09
  -3  13   3  566.94   57.29
   3 -13  -4   66.19   52.69
   3 -13  -5  341.47   57.69
   3 -13  -6  181.28   58.89
   3 -13  -7  363.26   61.29
   3 -13  -8   45.80   58.29
   2 -13   2  154.98   39.10
  -2  13  -2   36.70   37.20
   2 -13   1 3312.47  104.09
  -2  13  -1 3207.68  103.39
   2 -13   0  -21.20   41.60
  -2  13   0  -15.60   40.40
   2 -13  -1 3041.60  106.39
  -2  13   1 3320.27  104.39
   2 -13  -2  224.18   47.50
  -2  13   2  158.38   43.50
   2 -13  -3 2642.44   98.79
  -2  13   3 2475.85   94.99
   2 -13  -4  231.88   53.69
   2 -13  -5 1599.04   87.59
   2 -13  -6   43.80   51.99
   2 -13  -7  832.82   80.59
   2 -13  -8   25.50   62.39
   1 -13   2 1289.87   59.49
  -1  13  -2 1379.86   59.39
   1 -13   1  598.84   52.69
  -1  13  -1  694.43   43.60
   1 -13   0 4073.09  122.09
  -1  13   0 3907.01  119.29
   1 -13  -1  715.93   51.89
  -1  13   1  623.34   46.80
   1 -13  -2 1336.77   73.09
  -1  13   2 1296.77   67.59
   1 -13  -3  224.08   49.80
  -1  13   3  127.49   45.60
   1 -13  -4  808.32   69.69
   1 -13  -5  488.25   56.79
   1 -13  -6  607.44   62.09
   1 -13  -7  100.29   59.79
   1 -13  -8  563.74   72.89
   0 -13   2   18.30   30.50
   0 -13   1 3088.59   98.19
   0  13  -1 3266.77   97.89
   0 -13   0  -16.50   36.30
   0  13   0  -19.30   34.30
   0 -13  -1 3224.88  104.79
   0  13   1 3218.68  103.19
   0 -13  -2   19.80   41.40
   0  13   2  -14.10   38.50
   0 -13  -3 1664.43   79.49
   0  13   3 1562.04   75.59
   0 -13  -4   -4.20   48.90
   0 -13  -5 3153.48  116.79
   0 -13  -6  -39.80   59.49
   0 -13  -7 1733.03   97.19
   0 -13  -8  160.68   64.99
  -1 -13   1  613.14   46.00
   1  13  -1  520.45   48.20
  -1 -13   0 3573.34  116.89
   1  13   0 3788.42  112.89
  -1 -13  -1  669.33   53.99
   1  13   1  657.53   47.90
  -1 -13  -2 1374.76   77.19
   1  13   2 1418.86   69.29
  -1 -13  -3  247.18   52.79
   1  13   3  160.18   46.30
  -1 -13  -4  873.11   63.59
  -1 -13  -5  405.76   57.59
  -1 -13  -6  713.53   66.49
  -1 -13  -7   90.39   61.89
  -1 -13  -8  445.16   70.79
  -2 -13   2  155.28   39.70
   2  13  -2  148.49   32.10
  -2 -13   1 2891.41   96.99
   2  13  -1 2905.71   93.09
  -2 -13   0  -27.30   43.30
   2  13   0   -6.00   35.20
  -2 -13  -1 2846.82  102.29
   2  13   1 3001.40   97.99
  -2 -13  -2  103.39   46.70
   2  13   2  117.99   41.80
  -2 -13  -3 2377.26   95.39
   2  13   3 2193.28   90.89
  -2 -13  -4   87.29   53.99
  -2 -13  -5 1562.44   91.89
  -2 -13  -6   75.99   61.09
  -2 -13  -7  842.02   74.79
  -2 -13  -8   17.00   67.09
  -3 -13   2  128.39   40.50
   3  13  -2  132.39   35.10
  -3 -13   1  192.38   44.30
   3  13  -1  187.88   37.80
  -3 -13   0   76.89   49.40
   3  13   0   44.70   38.20
  -3 -13  -1  131.19   51.79
   3  13   1  138.59   40.80
  -3 -13  -2   73.39   51.19
   3  13   2  160.88   43.80
  -3 -13  -3  448.06   58.69
   3  13   3  317.47   50.39
  -3 -13  -4  -56.59   56.69
  -3 -13  -5  361.36   65.69
  -3 -13  -6  181.78   67.99
  -3 -13  -7  330.27   69.69
  -3 -13  -8  118.39   72.19
   4  13  -2  183.08   38.40
  -4 -13   1 1391.26   73.09
   4  13  -1 1287.77   65.79
  -4 -13   0   69.69   47.90
   4  13   0   52.39   40.00
  -4 -13  -1 1418.66   78.59
   4  13   1 1533.55   71.99
  -4 -13  -2  261.27   55.09
   4  13   2  175.08   45.40
  -4 -13  -3  843.02   78.89
   4  13   3  771.12   71.99
  -4 -13  -4  411.46   64.99
  -4 -13  -5  935.01   75.19
  -4 -13  -6  156.48   66.79
  -4 -13  -7  893.11   79.29
   5  13  -3  -12.10   39.00
   5  13  -2  426.26   44.80
   5  13  -1  425.76   47.00
   5  13   0  106.19   43.70
  -5 -13  -1  419.76   60.59
   5  13   1  415.96   49.10
  -5 -13  -2  466.95   60.59
   5  13   2  435.36   52.29
  -5 -13  -3   40.40   57.79
   5  13   3   57.09   51.79
  -5 -13  -4  180.08   61.69
  -5 -13  -5  515.65   67.79
  -5 -13  -6  272.87   67.09
  -5 -13  -7  327.17   72.39
   6  13  -3  170.68   41.50
   6  13  -2  223.38   44.10
   6  13  -1 1122.09   66.89
   6  13   0  127.59   47.30
   6  13   1 1493.65   76.69
   6  13   2  347.07   53.19
   6  13   3  234.48   58.29
  -6 -13  -4  471.05   72.79
  -6 -13  -5  554.14   76.29
  -6 -13  -6  219.58   75.99
  -6 -13  -7  449.16   83.59
   7  13  -5   74.79   46.30
   7  13  -3  326.27   46.90
   7  13  -2  339.47   47.10
   7  13  -1   97.49   46.60
   7  13   0 1526.75   77.69
   7  13   1   59.09   52.39
   7  13   2  779.42   73.79
   8  13  -2  245.48   54.09
   8  13  -1  255.37   50.69
   8  13   0   55.39   50.79
   8  13   1  270.27   57.89
   8  13   2  332.47   62.69
   9  13   1   74.89   58.89
   9  13   2   86.59   62.09
  11 -14  -1  240.28   84.89
  10 -14   0  153.68   76.89
  10 -14  -1  403.36   81.49
  10 -14  -2  103.89   73.79
  10 -14  -3  456.25   79.59
   9 -14   1   71.69   66.19
   9 -14   0  757.12   79.19
   9 -14  -1  172.08   67.79
   9 -14  -2  464.85   73.49
   9 -14  -3  115.69   66.99
   9 -14  -4  364.96   71.59
   8 -14   2   76.59   62.29
   8 -14   1   24.50   63.99
   8 -14   0   31.60   61.89
   8 -14  -1   58.39   61.89
   8 -14  -2   56.39   64.79
   8 -14  -3  109.99   64.89
   8 -14  -4   -6.60   64.99
   8 -14  -5  -21.70   64.89
   7 -14   3  110.69   57.89
   7 -14   2  875.11   80.89
   7 -14   1  572.44   65.09
   7 -14   0 1369.36   84.99
   7 -14  -1  602.54   66.69
   7 -14  -2  864.51   81.59
   7 -14  -3  109.69   60.09
   7 -14  -4  574.74   69.79
   7 -14  -5   89.19   63.39
   7 -14  -6  273.67   67.69
   6 -14   4  232.58   54.59
   6 -14   3   64.19   54.69
   6 -14   2   36.00   54.49
   6 -14   1  166.18   53.19
   6 -14   0  197.58   56.19
   6 -14  -1  -30.70   54.99
   6 -14  -2    7.20   55.29
  -6  14   2   39.90   50.69
   6 -14  -3  105.29   58.99
   6 -14  -4  303.47   62.39
   6 -14  -5   99.39   60.79
   6 -14  -6  -11.00   60.59
   5 -14   4  215.58   51.59
   5 -14   3  215.48   50.79
   5 -14   2  788.52   58.39
   5 -14   1  192.48   52.79
   5 -14   0 3967.60  130.09
   5 -14  -1  211.68   54.09
  -5  14   1  137.59   48.10
   5 -14  -2  915.61   67.69
  -5  14   2  938.11   69.19
   5 -14  -3  173.58   56.99
   5 -14  -4  300.67   59.29
   5 -14  -5  346.57   62.59
   5 -14  -6  794.82   71.39
   5 -14  -7  210.08   65.99
   4 -14   3 1405.26   70.99
   4 -14   2  391.66   48.90
   4 -14   1 1780.42   80.29
   4 -14   0  616.14   55.69
  -4  14   0  635.84   53.49
   4 -14  -1 1832.82   84.89
  -4  14   1 1908.91   82.79
   4 -14  -2  530.45   58.59
  -4  14   2  425.86   55.99
   4 -14  -3 1543.35   85.89
  -4  14   3 1554.94   87.09
   4 -14  -4   64.99   54.49
   4 -14  -5  914.81   83.29
   4 -14  -6  171.18   61.19
   4 -14  -7  667.43   72.49
   3 -14   3  200.98   40.80
   3 -14   2 1095.29   63.59
   3 -14   1   47.20   44.30
  -3  14  -1   -3.80   41.20
   3 -14   0 2114.19   86.79
  -3  14   0 2133.19   84.09
   3 -14  -1   15.40   46.10
  -3  14   1   67.79   42.30
   3 -14  -2 1164.98   74.19
  -3  14   2 1193.58   73.79
   3 -14  -3  296.47   52.99
  -3  14   3  263.07   52.79
   3 -14  -4  979.50   79.69
   3 -14  -5  184.18   57.29
   3 -14  -6  702.03   66.99
   3 -14  -7    0.70   58.29
   2 -14   2  245.18   39.60
  -2  14  -2  319.87   41.10
   2 -14   1 1705.73   72.29
  -2  14  -1 1563.34   68.89
   2 -14   0  256.67   45.10
  -2  14   0  298.07   43.00
   2 -14  -1 1593.14   76.79
  -2  14   1 1750.62   73.19
   2 -14  -2  304.07   50.79
  -2  14   2  339.97   47.00
   2 -14  -3  946.81   73.09
  -2  14   3 1002.00   69.69
   2 -14  -4  487.55   58.69
   2 -14  -5  317.97   58.19
   2 -14  -6   87.49   52.69
   2 -14  -7  343.27   62.29
   2 -14  -8  141.39   64.39
   1 -14   2 1891.21   71.19
  -1  14  -2 1889.21   71.69
   1 -14   1   56.89   38.70
  -1  14  -1   63.39   34.80
   1 -14   0 7087.69  196.18
  -1  14   0 6936.01  193.58
   1 -14  -1  107.29   45.30
  -1  14   1  106.89   38.00
   1 -14  -2 1979.10   85.79
  -1  14   2 1990.70   80.69
   1 -14  -3   37.60   47.20
  -1  14   3  108.89   45.80
   1 -14  -4 1663.63   81.19
   1 -14  -5   89.69   51.39
   1 -14  -6 1647.94   91.69
   1 -14  -7   69.59   60.49
   1 -14  -8  174.98   70.29
   0 -14   2   61.79   32.10
   0 -14   1   42.20   35.20
   0  14  -1   -6.70   33.70
   0 -14   0 1412.46   67.39
   0  14   0 1401.86   62.99
   0 -14  -1   69.89   40.60
   0  14   1   40.80   37.70
   0 -14  -2   33.30   43.40
   0  14   2  -22.50   39.70
   0 -14  -3   18.50   47.30
   0  14   3   16.50   43.90
   0 -14  -4   30.70   52.49
   0 -14  -5   40.20   55.39
   0 -14  -6  179.48   64.19
   0 -14  -7   82.49   62.99
   0 -14  -8  129.59   65.39
   1  14  -2 1712.73   64.69
  -1 -14   1  130.79   40.40
   1  14  -1   53.79   33.80
  -1 -14   0 6162.58  177.68
   1  14   0 6295.47  174.98
  -1 -14  -1  126.69   47.50
   1  14   1   79.89   39.40
  -1 -14  -2 1781.72   85.49
   1  14   2 1751.42   76.69
  -1 -14  -3  120.89   52.59
   1  14   3  102.49   46.90
  -1 -14  -4 1564.34   87.19
  -1 -14  -5  126.69   55.99
  -1 -14  -6 1497.95   92.09
  -1 -14  -7   10.60   61.79
  -1 -14  -8  307.07   69.89
  -2 -14   2  212.68   40.20
   2  14  -2  236.18   34.20
  -2 -14   1 1456.45   70.29
   2  14  -1 1514.15   64.79
  -2 -14   0  227.78   45.70
   2  14   0  228.58   39.90
  -2 -14  -1 1405.86   76.99
   2  14   1 1556.84   70.59
  -2 -14  -2  240.68   50.49
   2  14   2  268.57   44.20
  -2 -14  -3  824.32   75.59
   2  14   3  806.92   68.19
  -2 -14  -4  304.97   57.49
  -2 -14  -5  373.86   63.59
  -2 -14  -6  133.69   63.49
  -2 -14  -7  248.88   67.79
  -2 -14  -8  151.88   69.39
  -3 -14   2  914.31   60.39
   3  14  -2  999.60   56.49
  -3 -14   1   99.89   48.00
   3  14  -1  118.59   38.20
  -3 -14   0 1844.12   84.09
   3  14   0 1889.31   76.29
  -3 -14  -1   75.09   50.69
   3  14   1  111.79   41.70
  -3 -14  -2  990.50   77.49
   3  14   2 1058.09   66.39
  -3 -14  -3  150.28   56.29
   3  14   3  212.88   49.50
  -3 -14  -4  906.41   83.29
  -3 -14  -5  190.08   62.69
  -3 -14  -6  716.93   74.29
  -3 -14  -7  249.97   70.09
   4  14  -2  373.36   41.70
  -4 -14   1 1401.16   74.89
   4  14  -1 1534.65   68.79
  -4 -14   0  457.45   54.79
   4  14   0  528.25   47.70
  -4 -14  -1 1349.66   81.19
   4  14   1 1466.55   71.79
  -4 -14  -2  324.77   59.19
   4  14   2  299.07   48.30
  -4 -14  -3 1366.36   89.29
   4  14   3 1308.67   79.99
  -4 -14  -4   -6.20   63.09
  -4 -14  -5  804.72   75.49
  -4 -14  -6  242.18   69.39
  -4 -14  -7  501.95   75.19
   5  14  -3  106.09   40.40
   5  14  -2  643.64   57.79
   5  14  -1   83.69   42.40
   5  14   0 3030.90  103.89
  -5 -14  -1  149.99   57.29
   5  14   1  146.69   47.40
  -5 -14  -2  758.62   66.39
   5  14   2  709.53   67.49
  -5 -14  -3  109.29   60.59
   5  14   3   93.09   53.19
  -5 -14  -4  384.96   65.89
  -5 -14  -5  348.57   68.39
  -5 -14  -6  601.04   74.19
  -5 -14  -7  189.68   71.29
   6  14  -3  107.79   44.70
   6  14  -2   34.90   45.00
   6  14  -1  206.48   48.40
   6  14   0  146.19   48.30
   6  14   1  115.09   49.50
   6  14   2  -19.00   49.40
  -6 -14  -3   40.00   66.59
   6  14   3   60.89   56.59
  -6 -14  -4  195.08   69.89
  -6 -14  -5  138.39   71.69
  -6 -14  -6   15.00   74.19
   7  14  -5   62.19   53.59
   7  14  -4  417.76   48.70
   7  14  -3  118.59   46.30
   7  14  -2  571.84   54.89
   7  14  -1  282.27   50.39
   7  14   0 1069.79   74.29
   7  14   1  549.74   59.69
   7  14   2  766.32   65.99
   8  14  -1   21.00   51.49
   8  14   0  -13.10   51.89
   8  14   1  -36.80   56.79
   8  14   2   49.80   59.69
  10 -15  -1  137.39   75.59
  10 -15  -2  120.49   79.29
  10 -15  -3   47.90   74.09
   9 -15   1   89.29   86.39
   9 -15   0   47.20   69.39
   9 -15  -1    8.00   68.69
   9 -15  -2   38.50   72.69
   9 -15  -3   -3.80   68.79
   9 -15  -4   70.89   68.89
   8 -15   2  -22.10   64.89
   8 -15   1  432.36   72.19
   8 -15   0   36.70   61.99
   8 -15  -1  451.95   69.49
   8 -15  -2   95.09   63.49
   8 -15  -3  688.13   73.19
   8 -15  -4   20.10   65.79
   8 -15  -5  141.29   65.69
   7 -15   3  100.59   62.99
   7 -15   2  729.63   68.49
   7 -15   1  254.47   60.39
   7 -15   0  924.21   82.19
   7 -15  -1  257.17   61.49
   7 -15  -2 1037.30   86.39
   7 -15  -3   65.89   62.19
   7 -15  -4  437.96   69.09
   7 -15  -5   19.80   64.49
   7 -15  -6  464.75   70.89
   6 -15   4  -17.60   57.39
   6 -15   3  472.15   61.29
   6 -15   2   68.09   54.59
   6 -15   1 1080.09   78.39
   6 -15   0  669.93   63.29
   6 -15  -1 1037.60   81.89
   6 -15  -2  136.89   58.69
  -6  15   2  183.48   55.89
   6 -15  -3  507.35   66.89
   6 -15  -4   75.79   62.49
   6 -15  -5  503.85   67.39
   6 -15  -6  111.69   63.69
   5 -15   4  262.17   49.50
   5 -15   3  -17.70   49.60
   5 -15   2  720.63   60.39
   5 -15   1  202.58   52.69
   5 -15   0   21.70   50.29
   5 -15  -1  110.09   53.89
  -5  15   1   65.59   49.99
   5 -15  -2  801.92   65.39
  -5  15   2  786.62   66.39
   5 -15  -3  122.09   58.29
   5 -15  -4  240.98   60.29
   5 -15  -5  122.39   60.59
   5 -15  -6  113.79   62.69
   5 -15  -7   42.60   63.49
   4 -15   4  190.18   45.30
   4 -15   3  746.03   63.49
   4 -15   2  114.99   46.60
   4 -15   1 1791.02   82.99
  -4  15  -1 1775.02   78.79
   4 -15   0  -12.60   48.90
  -4  15   0   17.70   46.80
   4 -15  -1 1763.82   88.09
  -4  15   1 2046.40   84.99
   4 -15  -2  132.49   52.59
  -4  15   2  120.59   51.49
   4 -15  -3  866.61   67.19
  -4  15   3  922.51   72.49
   4 -15  -4  248.38   57.69
   4 -15  -5  901.71   84.69
   4 -15  -6  -36.70   60.69
   4 -15  -7  474.55   69.19
   3 -15   3   95.29   40.40
   3 -15   2  165.08   45.20
  -3  15  -2  171.58   41.40
   3 -15   1   94.49   44.40
  -3  15  -1   73.19   43.40
   3 -15   0   65.39   44.40
  -3  15   0   -5.20   43.90
   3 -15  -1  129.09   47.80
  -3  15   1  152.78   44.80
   3 -15  -2  131.99   49.99
  -3  15   2  178.38   51.09
   3 -15  -3  179.28   53.39
  -3  15   3  154.18   54.09
   3 -15  -4   46.80   55.39
   3 -15  -5   66.29   57.49
   3 -15  -6   19.50   58.69
   3 -15  -7   53.29   61.59
   2 -15   2  113.79   39.70
  -2  15  -2   98.69   38.60
   2 -15   1 2113.09   80.59
  -2  15  -1 1891.31   77.29
   2 -15   0   15.90   41.50
  -2  15   0  -67.79   40.00
   2 -15  -1 1949.70   85.59
  -2  15   1 2124.49   81.39
   2 -15  -2   67.99   48.40
  -2  15   2   92.89   44.90
   2 -15  -3 1863.41   89.09
  -2  15   3 1842.72   85.19
   2 -15  -4   42.90   53.09
   2 -15  -5 1543.05   90.59
   2 -15  -6   34.40   54.39
   2 -15  -7  463.55   66.59
   1 -15   2  817.22   54.19
  -1  15  -2  789.82   54.79
   1 -15   1  356.36   44.20
  -1  15  -1  315.67   41.00
   1 -15   0 2461.65   92.89
  -1  15   0 2552.44   87.49
   1 -15  -1  365.16   49.90
  -1  15   1  361.96   44.20
   1 -15  -2  808.02   69.79
  -1  15   2  820.62   61.89
   1 -15  -3    3.50   48.70
  -1  15   3  137.09   48.00
   1 -15  -4 1427.36   79.79
   1 -15  -5  266.07   55.19
   1 -15  -6  443.66   63.19
   1 -15  -7   42.90   61.79
   0 -15   2    9.40   33.60
   0  15  -2    5.10   32.20
   0 -15   1 4621.44  132.59
   0  15  -1 4383.96  131.19
   0 -15   0   71.29   40.10
   0  15   0  -11.50   36.20
   0 -15  -1 4238.38  136.49
   0  15   1 4736.53  135.29
   0 -15  -2    1.70   44.60
   0  15   2  -12.40   41.90
   0 -15  -3 1161.98   74.99
   0  15   3 1016.00   73.79
   0 -15  -4   20.00   52.29
   0 -15  -5 1870.91   95.99
   0 -15  -6   21.30   63.09
   0 -15  -7  798.12   72.59
   0 -15  -8   34.30   65.49
  -1 -15   2  764.72   55.09
   1  15  -2  692.13   50.09
  -1 -15   1  260.27   44.10
   1  15  -1  241.78   37.50
  -1 -15   0 2255.77   89.99
   1  15   0 2273.47   82.89
  -1 -15  -1  253.67   50.89
   1  15   1  239.08   43.00
  -1 -15  -2  924.71   64.59
   1  15   2  837.82   63.89
  -1 -15  -3  144.89   54.19
   1  15   3   31.50   47.50
  -1 -15  -4 1353.56   85.69
  -1 -15  -5  164.88   59.59
  -1 -15  -6  454.75   65.09
  -1 -15  -7   86.09   64.69
  -2 -15   2   72.99   39.60
   2  15  -2  104.79   35.50
  -2 -15   1 1702.03   77.49
   2  15  -1 1760.32   69.49
  -2 -15   0   32.80   44.80
   2  15   0  -40.60   36.90
  -2 -15  -1 1925.91   86.09
   2  15   1 1906.01   78.29
  -2 -15  -2  119.49   50.09
   2  15   2  123.49   42.10
  -2 -15  -3 1649.54   88.99
   2  15   3 1773.82   82.69
  -2 -15  -4   29.90   55.19
  -2 -15  -5 1420.86   92.49
  -2 -15  -6    9.80   64.19
  -2 -15  -7  415.96   69.29
  -3 -15   2  151.18   44.40
   3  15  -2   55.19   35.60
  -3 -15   1  145.49   48.40
   3  15  -1  153.08   39.20
  -3 -15   0  135.79   50.59
   3  15   0   55.49   39.80
  -3 -15  -1  114.39   51.69
   3  15   1   80.49   41.40
  -3 -15  -2  199.18   55.19
   3  15   2  183.98   44.50
  -3 -15  -3  141.69   56.99
   3  15   3  121.39   49.99
  -3 -15  -4   75.49   59.79
  -3 -15  -5  -28.00   61.29
  -3 -15  -6  107.59   66.49
  -3 -15  -7   57.29   70.99
   4  15  -2   75.59   38.90
  -4 -15   1 1605.24   76.79
   4  15  -1 1474.35   71.59
  -4 -15   0  -45.70   51.39
   4  15   0   19.80   42.40
  -4 -15  -1 1389.46   82.29
   4  15   1 1534.25   74.69
  -4 -15  -2  250.27   61.29
   4  15   2  167.58   47.20
  -4 -15  -3  759.72   69.59
   4  15   3  844.32   73.69
  -4 -15  -4  287.07   66.29
  -4 -15  -5 1054.99   93.39
  -4 -15  -6   50.89   70.69
  -4 -15  -7  443.36   76.29
   5  15  -3   75.69   39.60
   5  15  -2  496.65   47.30
   5  15  -1  166.08   45.10
  -5 -15   0   82.89   57.09
   5  15   0   32.60   44.70
  -5 -15  -1   52.69   55.99
   5  15   1  111.59   46.10
  -5 -15  -2  676.33   65.79
   5  15   2  596.24   56.39
  -5 -15  -3   71.49   60.89
   5  15   3  110.69   53.89
  -5 -15  -4  234.58   65.49
  -5 -15  -5  135.29   69.09
  -5 -15  -6  179.48   69.89
  -5 -15  -7   40.40   72.09
   6  15  -3  426.26   48.50
   6  15  -2  114.49   45.80
   6  15  -1  737.13   64.19
   6  15   0  428.66   54.69
   6  15   1  786.02   69.69
  -6 -15  -2  -27.50   64.69
   6  15   2   79.69   51.59
  -6 -15  -3  441.66   71.89
   6  15   3  570.24   61.69
  -6 -15  -4  107.99   69.29
  -6 -15  -5  438.16   74.89
  -6 -15  -6  148.69   73.39
   7  15  -4  228.88   54.39
   7  15  -3   76.09   47.40
   7  15  -2  546.65   56.49
   7  15  -1  248.68   53.59
   7  15   0  957.80   72.39
   7  15   1  240.08   56.19
   7  15   2  623.94   63.19
   8  15   0  -27.80   57.49
   8  15   1  434.86   63.29
   8  15   2  251.07   60.19
  10 -16  -1  266.57   81.09
  10 -16  -2   94.39   79.79
   9 -16   0  570.34   77.39
   9 -16  -1  185.28   74.09
   9 -16  -2  279.47   73.29
   9 -16  -3  309.77   75.69
   9 -16  -4   41.80   73.09
   8 -16   1   18.20   65.39
   8 -16   0  -10.20   68.49
   8 -16  -1  -24.10   64.29
   8 -16  -2   -1.60   67.59
   8 -16  -3  215.18   69.69
   8 -16  -4  -10.90   68.39
   8 -16  -5   19.80   67.69
   7 -16   2  721.13   69.19
   7 -16   1  208.88   63.29
   7 -16   0  872.61   82.69
   7 -16  -1  283.87   64.19
   7 -16  -2  774.22   71.79
   7 -16  -3   64.29   62.89
   7 -16  -4  494.05   70.19
   7 -16  -5  298.87   68.59
   6 -16   3   76.69   55.99
   6 -16   2  -24.90   56.89
   6 -16   1  195.78   57.39
   6 -16   0  142.39   57.89
   6 -16  -1  121.19   58.59
   6 -16  -2  -19.80   57.29
  -6  16   2    9.90   54.59
   6 -16  -3    4.50   59.09
   6 -16  -4   39.00   60.29
   6 -16  -5  154.48   62.89
   6 -16  -6   -9.40   64.29
   5 -16   4  269.37   54.39
   5 -16   3  297.77   55.09
   5 -16   2  651.73   60.09
   5 -16   1  573.64   59.29
   5 -16   0 2304.17   99.79
  -5  16   0 2391.66   93.59
   5 -16  -1  468.85   61.99
  -5  16   1  598.74   59.79
   5 -16  -2  690.33   64.49
  -5  16   2  674.83   64.79
   5 -16  -3  148.89   57.79
   5 -16  -4  313.37   62.19
   5 -16  -5   92.19   61.29
   5 -16  -6  678.03   74.29
   4 -16   3  558.14   51.59
   4 -16   2  108.49   48.50
   4 -16   1 1336.77   77.19
  -4  16  -1 1410.06   73.79
   4 -16   0   72.29   48.90
  -4  16   0  -16.30   46.70
   4 -16  -1 1334.67   81.89
  -4  16   1 1438.86   77.89
   4 -16  -2  114.59   53.29
  -4  16   2   99.19   53.59
   4 -16  -3  562.74   62.59
  -4  16   3  555.84  108.69
   4 -16  -4  103.79   57.39
   4 -16  -5  634.54   68.69
   4 -16  -6   87.19   61.59
   4 -16  -7  282.47   67.79
   3 -16   3   91.89   41.20
   3 -16   2 1005.30   64.69
  -3  16  -2  956.10   62.29
   3 -16   1  -66.99   44.50
  -3  16  -1  -11.50   43.30
   3 -16   0 3646.94  119.79
  -3  16   0 3614.84  118.79
   3 -16  -1   -3.10   47.00
  -3  16   1  -20.50   45.10
   3 -16  -2 1075.69   75.89
  -3  16   2 1057.79   73.89
   3 -16  -3  180.58   55.69
  -3  16   3  166.08   55.59
   3 -16  -4  465.05   62.09
   3 -16  -5   92.69   59.29
   3 -16  -6  541.85   66.89
   3 -16  -7   70.49   62.39
   2 -16   3  730.93   55.29
   2 -16   2  223.78   41.70
  -2  16  -2  235.38   42.70
   2 -16   1  672.93   52.19
  -2  16  -1  709.43   51.39
   2 -16   0  -71.29   42.40
  -2  16   0   45.00   41.90
   2 -16  -1  718.33   58.29
  -2  16   1  550.04   50.29
   2 -16  -2  306.87   52.39
  -2  16   2  258.57   47.90
   2 -16  -3  935.21   66.59
  -2  16   3  824.12   71.19
   2 -16  -4   47.20   54.09
   2 -16  -5  477.05   62.69
   2 -16  -6   43.20   55.59
   2 -16  -7  186.58   62.79
   1 -16   2  767.22   56.49
  -1  16  -2  702.53   53.99
   1 -16   1   73.39   41.40
  -1  16  -1   40.90   37.30
   1 -16   0 4664.73  141.69
  -1  16   0 4627.64  137.69
   1 -16  -1   21.30   46.20
  -1  16   1   96.39   40.20
   1 -16  -2  776.72   61.39
  -1  16   2  812.32   56.39
   1 -16  -3  177.08   51.49
  -1  16   3  217.08   50.19
   1 -16  -4  451.45   56.79
   1 -16  -5  102.79   56.59
   1 -16  -6  775.32   70.69
   1 -16  -7  146.79   63.89
   0 -16   2   57.29   35.90
   0  16  -2   43.50   34.70
   0 -16   1    0.50   38.30
   0  16  -1  -19.20   35.00
   0 -16   0   29.50   41.00
   0  16   0   49.40   38.40
   0 -16  -1  -18.50   42.50
   0  16   1   -9.10   39.70
   0 -16  -2  143.39   48.00
   0  16   2   53.69   42.60
   0 -16  -3   32.30   49.60
   0  16   3  -13.00   47.70
   0 -16  -4  198.88   55.89
   0 -16  -5   83.19   60.69
   0 -16  -6  226.58   67.59
   0 -16  -7   43.60   63.79
  -1 -16   2  586.64   55.69
   1  16  -2  617.94   50.59
  -1 -16   1   55.29   43.40
   1  16  -1   62.69   36.50
  -1 -16   0 4346.67  134.99
   1  16   0 4256.27  129.59
  -1 -16  -1  100.59   50.09
   1  16   1   42.30   40.10
  -1 -16  -2  717.83   62.89
   1  16   2  770.52   63.59
  -1 -16  -3  211.08   56.89
   1  16   3  196.08   50.59
  -1 -16  -4  317.97   58.69
  -1 -16  -5  200.48   60.69
  -1 -16  -6  749.13   71.09
  -1 -16  -7   47.80   65.79
  -2 -16   2  198.18   42.60
   2  16  -2  126.69   37.10
  -2 -16   1  423.36   48.70
   2  16  -1  548.15   45.00
  -2 -16   0   75.59   45.60
   2  16   0   36.50   37.50
  -2 -16  -1  452.25   54.49
   2  16   1  520.45   47.30
  -2 -16  -2   70.49   51.69
   2  16   2  144.09   44.20
  -2 -16  -3  742.43   64.39
   2  16   3  684.63   59.79
  -2 -16  -4    7.90   56.79
  -2 -16  -5  597.94   66.89
  -2 -16  -6   66.19   66.69
  -2 -16  -7  154.28   68.89
  -3 -16   2  811.12   63.89
   3  16  -2  777.92   56.29
  -3 -16   1   79.29   49.30
   3  16  -1   20.00   38.50
  -3 -16   0 3029.90  110.79
   3  16   0 3209.88  104.99
  -3 -16  -1   36.10   51.99
   3  16   1  -24.50   41.30
  -3 -16  -2  855.11   79.09
   3  16   2  945.31   67.49
  -3 -16  -3   -2.10   56.29
   3  16   3  115.39   50.49
  -3 -16  -4  495.75   65.79
  -3 -16  -5   97.29   64.29
  -3 -16  -6  488.95   73.39
  -3 -16  -7  215.08   73.59
  -4 -16   2   -5.40   49.70
   4  16  -2  108.69   40.60
  -4 -16   1 1236.98   75.49
   4  16  -1 1171.78   67.29
  -4 -16   0   55.99   53.49
   4  16   0  -23.60   42.10
  -4 -16  -1 1118.99   84.89
   4  16   1 1212.48   70.29
  -4 -16  -2  155.78   60.19
   4  16   2  183.88   47.20
  -4 -16  -3  472.05   66.99
   4  16   3  496.15   57.79
  -4 -16  -4  218.88   67.19
  -4 -16  -5  562.04   74.99
  -4 -16  -6   22.70   69.69
  -4 -16  -7  352.56   78.09
   5  16  -3  200.88   43.00
   5  16  -2  527.55   49.10
   5  16  -1  422.26   48.80
  -5 -16   0 1789.12   91.79
   5  16   0 1852.91   82.69
  -5 -16  -1  427.46   60.89
   5  16   1  419.56   53.79
  -5 -16  -2  575.04   65.79
   5  16   2  607.64   58.69
  -5 -16  -3  207.88   62.39
   5  16   3  163.58   55.09
  -5 -16  -4  429.06   70.09
  -5 -16  -5  150.18   69.19
  -5 -16  -6  564.54   75.99
   6  16  -3  102.69   45.00
   6  16  -2   10.40   45.40
   6  16  -1  125.89   47.80
   6  16   0  -31.80   47.30
   6  16   1  128.19   51.39
  -6 -16  -2   63.69   66.99
   6  16   2  123.79   51.99
  -6 -16  -3  153.48   68.09
   6  16   3  125.99   55.99
  -6 -16  -4   57.39   69.29
  -6 -16  -5  311.17   73.39
  -6 -16  -6  128.39   74.19
   7  16  -2  774.12   67.09
   7  16  -1  209.88   52.59
   7  16   0  918.11   71.49
   7  16   1  140.09   53.99
   7  16   2  559.04   62.29
  10 -17  -2   38.30   78.09
   9 -17  -1   29.30   75.59
   9 -17  -2  118.89   75.09
   9 -17  -3  -25.70   71.19
   8 -17   0  127.99   72.89
   8 -17  -1  270.57   69.59
   8 -17  -2   33.30   68.19
   8 -17  -3  272.57   72.09
   8 -17  -4  118.79   72.19
   7 -17   2  352.46   70.39
   7 -17   1  155.28   65.69
   7 -17   0  730.63   71.19
   7 -17  -1  294.97   64.89
   7 -17  -2  366.36   68.49
   7 -17  -3  -30.30   64.29
   7 -17  -4  360.66   69.59
   7 -17  -5    7.00   63.89
   6 -17   3  703.23   67.89
   6 -17   2   51.29   57.89
   6 -17   1  370.36   62.19
   6 -17   0   24.50   55.99
   6 -17  -1  294.07   61.59
  -6  17   1  301.77   53.29
   6 -17  -2    3.90   59.79
  -6  17   2  -62.89   54.39
   6 -17  -3  695.93   71.79
   6 -17  -4   23.40   61.09
   6 -17  -5  406.16   69.89
   6 -17  -6  146.49   65.99
   5 -17   4  183.18   54.29
   5 -17   3   94.39   53.89
   5 -17   2   96.29   54.59
   5 -17   1  135.79   54.99
   5 -17   0  407.06   58.89
  -5  17   0  470.45   56.59
   5 -17  -1   98.69   54.29
  -5  17   1  -23.30   53.09
   5 -17  -2  118.69   57.99
  -5  17   2   65.69   55.79
   5 -17  -3   -0.60   56.89
   5 -17  -4  256.27   62.49
   5 -17  -5   52.79   60.99
   5 -17  -6  -33.00   64.69
   4 -17   4   46.50   46.70
   4 -17   3  602.24   54.99
   4 -17   2  438.16   54.49
   4 -17   1  810.82   69.79
  -4  17  -1  728.83   67.49
   4 -17   0   40.90   50.99
  -4  17   0   15.60   47.60
   4 -17  -1  963.90   75.49
  -4  17   1  845.72   73.39
   4 -17  -2  471.25   60.39
  -4  17   2  492.25   60.59
   4 -17  -3  697.23   65.49
   4 -17  -4   78.19   58.19
   4 -17  -5  700.13   71.49
   4 -17  -6   96.19   63.69
   3 -17   3  229.38   45.20
   3 -17   2   58.19   44.90
  -3  17  -2   37.00   44.30
   3 -17   1  515.55   53.79
  -3  17  -1  571.44   52.79
   3 -17   0  300.27   51.59
  -3  17   0  183.38   49.40
   3 -17  -1  531.15   57.69
  -3  17   1  462.25   55.89
   3 -17  -2   25.80   51.69
  -3  17   2  -39.00   48.50
   3 -17  -3  148.99   56.59
  -3  17   3  200.48   58.59
   3 -17  -4  -41.40   56.29
   3 -17  -5   25.70   59.99
   3 -17  -6   50.29   61.99
   3 -17  -7   88.69   62.69
   2 -17   3  550.34   45.30
  -2  17  -3  580.44   48.60
   2 -17   2  -36.60   38.90
  -2  17  -2  -23.90   42.20
   2 -17   1 1382.16   70.49
  -2  17  -1 1314.87   70.39
   2 -17   0  205.68   49.00
  -2  17   0  193.98   46.20
   2 -17  -1 1394.16   79.79
  -2  17   1 1575.44   74.69
   2 -17  -2  -16.20   51.19
  -2  17   2   -4.20   42.50
   2 -17  -3  708.83   64.29
  -2  17   3  692.43   60.39
   2 -17  -4   80.69   55.99
   2 -17  -5  547.45   66.89
   2 -17  -6   91.39   57.29
   2 -17  -7  436.16   68.59
   1 -17   2 1474.85   70.29
  -1  17  -2 1506.45   67.99
   1 -17   1  226.68   44.80
  -1  17  -1   76.69   40.90
   1 -17   0  285.47   49.40
  -1  17   0  246.58   42.70
   1 -17  -1  125.29   48.50
  -1  17   1   73.69   41.80
   1 -17  -2 1404.86   81.19
  -1  17   2 1463.35   74.29
   1 -17  -3    6.70   49.20
  -1  17   3   91.09   50.69
   1 -17  -4  282.27   55.89
   1 -17  -5   13.10   56.29
   1 -17  -6  341.77   65.39
   1 -17  -7   46.40   65.89
   0 -17   2  114.99   38.60
   0  17  -2   22.40   35.70
   0 -17   1 1454.35   69.99
   0  17  -1 1362.76   65.49
   0 -17   0   71.09   42.70
   0  17   0   53.49   39.20
   0 -17  -1 1382.56   77.79
   0  17   1 1534.75   71.09
   0 -17  -2  -21.20   47.70
   0  17   2  -65.09   43.20
   0 -17  -3  882.31   75.99
   0  17   3 1015.40   75.29
   0 -17  -4  -22.70   55.09
   0 -17  -5  586.24   68.89
   0 -17  -6   36.10   67.09
   0 -17  -7  162.08   66.89
  -1 -17   2 1216.28   66.59
   1  17  -2 1319.17   61.79
  -1 -17   1  182.88   46.40
   1  17  -1   86.99   37.70
  -1 -17   0  236.28   50.39
   1  17   0  247.58   43.20
  -1 -17  -1  136.79   52.59
   1  17   1   55.89   41.80
  -1 -17  -2 1450.45   86.69
   1  17   2 1465.45   75.49
  -1 -17  -3   74.29   55.29
   1  17   3  -26.20   48.30
  -1 -17  -4  346.07   60.89
  -1 -17  -5   95.09   61.39
  -1 -17  -6  235.08   64.59
  -1 -17  -7  115.19   68.79
  -2 -17   2   12.30   42.90
   2  17  -2   26.70   36.50
  -2 -17   1 1268.07   71.19
   2  17  -1 1088.49   63.89
  -2 -17   0  211.78   49.20
   2  17   0  115.29   42.10
  -2 -17  -1 1153.88   77.09
   2  17   1 1308.77   70.09
  -2 -17  -2 -119.79   50.49
   2  17   2   35.70   44.50
  -2 -17  -3  466.65   61.69
   2  17   3  572.24   57.49
  -2 -17  -4  164.48   59.09
  -2 -17  -5  545.95   68.09
  -2 -17  -6  177.88   67.99
  -2 -17  -7  453.55   74.69
  -3 -17   2  105.69   49.50
   3  17  -2   26.60   38.70
  -3 -17   1  418.16   54.49
   3  17  -1  367.66   45.40
  -3 -17   0  121.19   53.69
   3  17   0   76.49   43.30
  -3 -17  -1  535.05   60.39
   3  17   1  393.76   49.30
  -3 -17  -2   82.29   55.79
   3  17   2   47.70   45.60
  -3 -17  -3  158.68   59.69
   3  17   3  171.38   52.19
  -3 -17  -4   56.39   61.69
  -3 -17  -5   22.20   64.19
  -3 -17  -6   30.40   68.09
  -3 -17  -7  150.08   72.49
   4  17  -3  474.65   46.50
  -4 -17   2  334.47   52.19
   4  17  -2  360.16   45.30
  -4 -17   1  667.93   59.29
   4  17  -1  708.43   62.09
  -4 -17   0   17.70   54.19
   4  17   0   69.49   44.80
  -4 -17  -1  760.22   68.99
   4  17   1  796.12   68.09
  -4 -17  -2  423.96   66.19
   4  17   2  412.56   52.89
  -4 -17  -3  583.94   69.19
   4  17   3  560.64   58.09
  -4 -17  -4  224.68   67.89
  -4 -17  -5  568.54   75.89
  -4 -17  -6  246.18   73.49
   5  17  -3   24.10   43.10
   5  17  -2  113.79   45.50
  -5 -17   1   25.90   59.69
   5  17  -1   31.30   44.60
  -5 -17   0  514.35   62.69
   5  17   0  389.86   51.79
  -5 -17  -1   39.20   58.89
   5  17   1    6.60   47.60
  -5 -17  -2   47.20   60.39
   5  17   2   53.79   49.10
  -5 -17  -3   32.00   63.59
   5  17   3  237.18   55.49
  -5 -17  -4  194.38   68.99
  -5 -17  -5   60.09   69.79
  -5 -17  -6  -17.20   71.09
   6  17  -3  514.75   51.99
   6  17  -2    4.50   46.20
   6  17  -1  236.68   49.99
   6  17   0   47.30   49.10
  -6 -17  -1  250.47   69.69
   6  17   1  355.96   53.09
  -6 -17  -2  106.89   67.29
   6  17   2  115.59   53.69
  -6 -17  -3  611.24   74.49
   6  17   3  528.35   63.49
  -6 -17  -4   27.20   69.39
  -6 -17  -5  399.36   76.49
  -6 -17  -6  169.38   74.69
   7  17   0  417.86   57.89
   7  17   1   50.59   54.09
   7  17   2  445.66   62.99
  -7 -17  -5  -56.39   82.29
   9 -18  -2  136.59   75.69
   9 -18  -3  231.78   78.69
   8 -18   0  -23.90   69.69
   8 -18  -1  173.28   71.69
   8 -18  -2  -19.00   69.79
   8 -18  -3   39.30   71.29
   8 -18  -4  141.19   71.29
   7 -18   1  271.27   67.59
   7 -18   0  309.77   67.59
   7 -18  -1  262.77   67.89
   7 -18  -2  260.27   68.09
   7 -18  -3  157.38   67.09
   7 -18  -4  261.27   72.19
   7 -18  -5  204.78   69.69
   6 -18   2   50.49   61.49
   6 -18   1  229.68   60.89
   6 -18   0  347.97   65.09
   6 -18  -1  232.18   63.89
  -6  18   1  425.66   59.99
   6 -18  -2   30.00   60.19
  -6  18   2  100.69   58.59
   6 -18  -3  -44.70   62.39
   6 -18  -4  -45.10   62.09
   6 -18  -5  108.89   64.59
   5 -18   3  363.16   57.59
   5 -18   2 1092.59   80.29
   5 -18   1  159.98   56.09
   5 -18   0 1325.27   86.09
  -5  18   0 1370.96   80.39
   5 -18  -1  250.87   57.89
  -5  18   1  201.38   58.69
   5 -18  -2 1148.99   84.89
  -5  18   2 1170.68   83.89
   5 -18  -3  294.07   62.79
   5 -18  -4  700.53   70.59
   5 -18  -5  160.58   64.49
   5 -18  -6  261.07   69.99
   4 -18   4   37.90   48.10
   4 -18   3  514.55   55.59
   4 -18   2   -3.10   48.00
   4 -18   1  746.53   62.09
  -4  18  -1  690.93   60.09
   4 -18   0  184.28   54.99
  -4  18   0  366.96   53.99
   4 -18  -1  812.62   65.59
  -4  18   1  706.43   63.29
   4 -18  -2    9.60   53.49
  -4  18   2  -75.49   51.79
   4 -18  -3  625.54   64.89
   4 -18  -4   82.49   60.39
   4 -18  -5  412.96   66.39
   4 -18  -6   15.00   64.09
   3 -18   3  177.88   45.10
   3 -18   2 1059.29   69.19
  -3  18  -2  976.50   70.09
   3 -18   1  606.34   57.19
  -3  18  -1  633.14   56.29
   3 -18   0 3999.50  134.19
  -3  18   0 4362.46  133.29
   3 -18  -1  771.72   60.99
  -3  18   1  714.53   61.89
   3 -18  -2 1070.79   80.79
  -3  18   2 1036.20   74.59
   3 -18  -3  200.28   58.69
  -3  18   3  315.17   60.49
   3 -18  -4  405.56   62.89
   3 -18  -5   -2.60   60.79
   3 -18  -6 1082.79   95.09
   2 -18   3  407.96   44.70
  -2  18  -3  417.96   48.10
   2 -18   2   89.59   42.50
  -2  18  -2  100.89   45.10
   2 -18   1  673.83   55.69
  -2  18  -1  704.33   64.59
   2 -18   0  169.58   50.19
  -2  18   0  147.09   47.90
   2 -18  -1  868.71   63.49
  -2  18   1  780.92   57.39
   2 -18  -2  102.99   53.59
  -2  18   2   99.99   44.90
   2 -18  -3  522.45   63.19
  -2  18   3  576.44   57.99
   2 -18  -4   12.30   57.39
   2 -18  -5  214.28   62.39
   2 -18  -6   58.59   58.29
   2 -18  -7   62.29   65.29
   1 -18   2 1886.21   78.89
  -1  18  -2 1816.02   76.49
   1 -18   1  556.14   52.59
  -1  18  -1  658.43   51.69
   1 -18   0 4777.32  148.99
  -1  18   0 4918.91  145.49
   1 -18  -1  532.75   57.99
  -1  18   1  567.44   52.69
   1 -18  -2 1805.22   90.69
  -1  18   2 1880.11   83.29
   1 -18  -3   62.99   49.80
  -1  18   3  130.59   50.79
   1 -18  -4  837.32   66.79
   1 -18  -5   92.49   58.99
   1 -18  -6  755.42   73.19
   1 -18  -7  113.39   68.69
   0 -18   2  376.36   44.10
   0  18  -2  305.47   41.80
   0 -18   1   62.49   42.20
   0  18  -1   16.90   38.30
   0 -18   0  413.46   50.79
   0  18   0  416.06   46.80
   0 -18  -1   50.49   47.40
   0  18   1   56.59   42.90
   0 -18  -2  414.76   55.29
   0  18   2  463.85   51.89
   0 -18  -3   32.60   52.69
   0  18   3   75.79   49.90
   0 -18  -4   72.69   57.39
   0 -18  -5   79.69   63.59
   0 -18  -6   33.80   67.59
   0 -18  -7  -20.40   66.29
  -1 -18   2 1469.85   73.39
   1  18  -2 1648.04   68.49
  -1 -18   1  613.54   53.29
   1  18  -1  441.96   46.10
  -1 -18   0 4146.08  136.09
   1  18   0 4260.37  130.29
  -1 -18  -1  635.84   61.09
   1  18   1  665.23   53.99
  -1 -18  -2 1704.63   91.59
   1  18   2 1630.44   79.99
  -1 -18  -3  156.58   58.49
   1  18   3   99.59   49.30
  -1 -18  -4  793.22   69.49
  -1 -18  -5  181.28   63.19
  -1 -18  -6  663.43   72.59
  -1 -18  -7  208.98   71.39
  -2 -18   2  135.59   44.80
   2  18  -2   98.39   39.10
  -2 -18   1  692.33   55.19
   2  18  -1  676.23   51.99
  -2 -18   0   82.19   48.50
   2  18   0   75.49   43.30
  -2 -18  -1  680.83   60.49
   2  18   1  675.73   55.09
  -2 -18  -2  128.89   54.69
   2  18   2   -5.80   47.00
  -2 -18  -3  397.36   60.99
   2  18   3  356.96   55.69
  -2 -18  -4   70.39   59.69
  -2 -18  -5  248.38   64.19
  -2 -18  -6  179.78   68.29
  -2 -18  -7   70.49   71.09
  -3 -18   2 1001.00   71.59
   3  18  -2  935.61   61.29
  -3 -18   1  599.74   58.99
   3  18  -1  508.55   49.00
  -3 -18   0 3644.94  125.59
   3  18   0 3643.04  119.79
  -3 -18  -1  549.74   62.09
   3  18   1  458.05   51.89
  -3 -18  -2  899.31   71.19
   3  18   2 1109.29   71.79
  -3 -18  -3  198.48   61.19
   3  18   3  249.97   52.79
  -3 -18  -4  304.97   66.89
  -3 -18  -5  161.38   66.49
  -3 -18  -6  955.80   81.89
  -4 -18   2  107.19   50.39
   4  18  -2  -16.80   41.90
  -4 -18   1  435.86   59.09
   4  18  -1  538.05   52.29
  -4 -18   0  165.98   60.69
   4  18   0  215.98   47.80
  -4 -18  -1  583.24   66.59
   4  18   1  590.44   55.29
  -4 -18  -2  163.78   63.39
   4  18   2   21.50   46.50
  -4 -18  -3  541.35   68.69
   4  18   3  306.37   55.79
  -4 -18  -4  197.08   68.49
  -4 -18  -5  432.96   74.19
  -4 -18  -6  112.19   74.59
   5  18  -3  190.68   46.00
   5  18  -2  977.80   69.29
  -5 -18   1  204.98   62.79
   5  18  -1   76.49   47.00
  -5 -18   0 1090.29   84.09
   5  18   0 1099.69   73.59
  -5 -18  -1  201.18   61.59
   5  18   1  140.59   50.59
  -5 -18  -2 1042.00   90.09
   5  18   2  947.41   75.69
  -5 -18  -3  181.78   68.19
   5  18   3  298.47   56.29
  -5 -18  -4  495.45   74.59
  -5 -18  -5  157.78   72.99
  -5 -18  -6  303.47   77.39
   6  18  -3  163.88   50.49
   6  18  -2  142.69   48.20
   6  18  -1  284.67   51.09
   6  18   0  373.36   54.29
  -6 -18  -1  289.47   72.19
   6  18   1  225.28   54.59
  -6 -18  -2  104.99   67.89
   6  18   2  -43.90   51.39
  -6 -18  -3  131.49   70.59
   6  18   3   73.79   57.39
  -6 -18  -4  -57.29   70.39
  -6 -18  -5   67.49   73.69
  -7 -18  -4  295.37   86.49
  -7 -18  -5  280.97   88.39
   9 -19  -2  104.89   88.39
   8 -19  -1  227.38   71.79
   8 -19  -2   83.29   72.79
   8 -19  -3  142.29   73.69
   7 -19   0    6.70   64.19
   7 -19  -1  158.28   68.09
   7 -19  -2  296.17   71.09
   7 -19  -3   77.99   68.29
   7 -19  -4  205.98   70.29
   6 -19   1  289.97   66.99
   6 -19   0  196.78   62.49
   6 -19  -1  300.27   63.19
  -6  19   1  398.76   61.79
   6 -19  -2  120.49   63.99
  -6  19   2   70.59   62.19
   6 -19  -3  993.70   90.79
   6 -19  -4   82.59   66.59
   6 -19  -5  493.95   73.49
   5 -19   2   42.60   55.39
   5 -19   1  -60.99   56.99
   5 -19   0  457.75   63.59
  -5  19   0  503.05   60.89
   5 -19  -1   57.29   57.59
  -5  19   1   41.10   56.49
   5 -19  -2   72.09   59.69
  -5  19   2  260.37   59.69
   5 -19  -3  410.76   65.79
   5 -19  -4  107.79   62.79
   5 -19  -5  128.59   66.49
   5 -19  -6  226.48   69.89
   4 -19   3  708.73   59.79
   4 -19   2  668.63   60.79
  -4  19  -2  478.65   53.79
   4 -19   1  647.84   62.09
  -4  19  -1  649.64   60.19
   4 -19   0  -64.79   52.39
  -4  19   0   62.19   51.09
   4 -19  -1  557.54   64.59
  -4  19   1  633.54   62.69
   4 -19  -2  617.74   65.69
  -4  19   2  672.03   64.39
   4 -19  -3  693.43   68.89
   4 -19  -4  161.08   63.49
   4 -19  -5  858.01   75.79
   4 -19  -6   57.89   65.79
   3 -19   3  -23.70   44.90
   3 -19   2    8.10   48.50
  -3  19  -2   60.19   48.10
   3 -19   1  -17.60   48.20
  -3  19  -1   -1.10   48.80
   3 -19   0  453.75   55.69
  -3  19   0  363.86   52.89
   3 -19  -1   65.99   51.89
  -3  19   1   15.70   52.09
   3 -19  -2    3.90   55.19
  -3  19   2   39.00   50.79
   3 -19  -3    7.80   56.79
  -3  19   3   -3.70   57.99
   3 -19  -4  100.89   61.49
   3 -19  -5  282.97   64.39
   3 -19  -6   64.79   64.29
   2 -19   3  711.23   62.29
  -2  19  -3  721.13   63.09
   2 -19   2  393.26   50.59
  -2  19  -2  404.16   51.19
   2 -19   1  973.80   71.99
  -2  19  -1 1040.00   70.09
   2 -19   0 1135.79   74.59
  -2  19   0 1044.20   72.59
   2 -19  -1  981.90   76.19
  -2  19   1  970.70   70.39
   2 -19  -2  621.34   63.49
  -2  19   2  471.35   56.49
   2 -19  -3  858.21   82.39
  -2  19   3  980.30   75.99
   2 -19  -4  165.78   59.89
   2 -19  -5  658.73   68.59
   2 -19  -6  143.59   61.69
  -1  19  -3  102.69   41.40
   1 -19   2  278.77   47.00
  -1  19  -2  295.77   45.20
   1 -19   1  -22.90   47.10
  -1  19  -1   65.49   43.30
   1 -19   0  609.34   58.69
  -1  19   0  701.03   53.49
   1 -19  -1   -8.00   49.20
  -1  19   1   26.50   43.60
   1 -19  -2  351.76   56.39
  -1  19   2  220.58   49.40
   1 -19  -3  140.19   52.29
  -1  19   3   70.39   51.79
   1 -19  -4  457.75   61.69
   1 -19  -5   44.90   59.59
   1 -19  -6  276.67   67.49
   0 -19   2   -3.60   41.40
   0  19  -2   20.70   38.20
   0 -19   1  370.96   49.20
   0  19  -1  383.86   45.50
   0 -19   0   52.99   47.40
   0  19   0   14.80   42.50
   0 -19  -1  285.77   53.09
   0  19   1  450.35   51.59
   0 -19  -2  -34.70   50.19
   0  19   2   40.80   45.20
   0 -19  -3 1497.65   89.89
   0  19   3 1439.56   82.49
   0 -19  -4  -37.60   57.49
   0 -19  -5  771.02   75.89
   0 -19  -6   36.10   67.59
   0 -19  -7  142.19   69.29
  -1 -19   2  247.18   46.00
   1  19  -2  308.77   42.80
  -1 -19   1   56.59   47.80
   1  19  -1   38.20   42.20
  -1 -19   0  613.74   60.99
   1  19   0  543.15   51.79
  -1 -19  -1  -11.90   54.09
   1  19   1  -13.60   42.90
  -1 -19  -2  324.87   60.69
   1  19   2  358.56   50.49
  -1 -19  -3  157.28   59.99
   1  19   3   75.29   49.60
  -1 -19  -4  470.35   65.59
  -1 -19  -5  132.89   63.49
  -1 -19  -6  228.58   67.29
  -2 -19   2  395.96   50.69
   2  19  -2  300.07   43.10
  -2 -19   1  968.90   72.29
   2  19  -1  798.42   64.89
  -2 -19   0  999.50   77.09
   2  19   0  988.50   68.79
  -2 -19  -1  836.42   76.99
   2  19   1  909.01   69.19
  -2 -19  -2  420.96   59.79
   2  19   2  316.67   52.59
  -2 -19  -3  771.22   69.99
   2  19   3  837.32   75.59
  -2 -19  -4  155.68   62.59
  -2 -19  -5  685.33   72.79
  -2 -19  -6  292.47   71.29
  -3 -19   2  143.19   53.29
   3  19  -2   72.89   41.00
  -3 -19   1   21.10   54.09
   3  19  -1   27.30   41.30
  -3 -19   0  246.08   57.99
   3  19   0  359.66   50.29
  -3 -19  -1  -14.10   56.69
   3  19   1   58.59   45.40
  -3 -19  -2  153.08   59.79
   3  19   2  173.98   49.80
  -3 -19  -3  136.39   62.49
   3  19   3   35.30   50.49
  -3 -19  -4   61.59   65.29
  -3 -19  -5  257.17   70.39
  -3 -19  -6   74.99   70.99
  -4 -19   3  518.05   59.19
   4  19  -3  439.36   48.20
  -4 -19   2  501.45   58.39
   4  19  -2  368.66   49.40
  -4 -19   1  527.75   61.59
   4  19  -1  482.45   50.99
  -4 -19   0   -8.10   61.59
   4  19   0   63.79   45.80
  -4 -19  -1  684.83   71.19
   4  19   1  473.25   53.89
  -4 -19  -2  629.54   70.49
   4  19   2  482.65   57.19
  -4 -19  -3  592.24   73.19
   4  19   3  641.14   60.99
  -4 -19  -4  318.97   72.29
  -4 -19  -5  776.42   80.69
  -4 -19  -6  250.77   76.49
   5  19  -3  310.07   49.20
   5  19  -2  149.19   47.30
  -5 -19   1   27.70   60.99
   5  19  -1   64.99   47.50
  -5 -19   0  456.55   66.99
   5  19   0  338.37   52.49
  -5 -19  -1   83.69   63.19
   5  19   1   -4.00   48.60
  -5 -19  -2  180.58   67.59
   5  19   2  182.68   54.89
  -5 -19  -3  288.87   71.89
   5  19   3  325.47   58.79
  -5 -19  -4  139.79   71.99
  -5 -19  -5  163.58   75.39
  -5 -19  -6  208.68   77.59
  -6 -19   0  323.67   73.29
  -6 -19  -1  429.96   72.79
   6  19   1  198.88   60.59
  -6 -19  -2  168.48   70.99
   6  19   2   46.50   55.99
  -6 -19  -3 1138.09   97.49
   6  19   3  830.52   77.89
  -6 -19  -4  190.48   75.99
  -6 -19  -5  500.25   82.99
  -7 -19  -3   35.00   82.39
  -7 -19  -4  162.18   85.19
   8 -20  -2   98.79   75.19
   8 -20  -3   47.90   73.09
   7 -20  -1  335.37   74.69
   7 -20  -2  564.64   74.99
   7 -20  -3   18.70   71.69
   7 -20  -4  302.07   74.09
   6 -20   0   54.99   63.19
   6 -20  -1  230.58   66.49
   6 -20  -2  283.97   67.79
  -6  20   2  312.57   71.39
   6 -20  -3   89.39   67.09
   6 -20  -4  187.38   67.59
   6 -20  -5  218.08   70.89
   5 -20   1   68.19   58.39
  -5  20  -1   73.89   62.59
   5 -20   0  736.33   70.29
  -5  20   0  818.62   69.49
   5 -20  -1   -1.10   59.39
  -5  20   1   83.09   57.49
   5 -20  -2  700.73   72.19
  -5  20   2  814.82   71.19
   5 -20  -3  316.57   66.09
   5 -20  -4  651.63   73.79
   5 -20  -5   69.29   70.19
   4 -20   2   38.20   53.49
  -4  20  -2   80.99   49.60
   4 -20   1   10.80   53.89
  -4  20  -1   99.99   53.79
   4 -20   0   95.89   56.29
  -4  20   0   57.69   51.59
   4 -20  -1   21.90   56.19
  -4  20   1  136.59   56.59
   4 -20  -2   70.19   56.79
  -4  20   2    4.40   55.69
   4 -20  -3  578.44   69.39
   4 -20  -4   79.79   64.59
   4 -20  -5   78.19   65.59
   4 -20  -6  114.29   68.39
   3 -20   3  132.89   47.90
  -3  20  -3   91.19   47.20
   3 -20   2 1943.61   87.19
  -3  20  -2 1795.22   85.79
   3 -20   1   35.00   50.59
  -3  20  -1   13.60   50.89
   3 -20   0 2272.07   98.49
  -3  20   0 2331.47   95.79
   3 -20  -1   -0.20   54.59
  -3  20   1   41.50   52.79
   3 -20  -2 1718.03   97.19
  -3  20   2 1911.41   91.29
   3 -20  -3   38.60   59.29
  -3  20   3  150.68   69.19
   3 -20  -4  778.82   74.19
   3 -20  -5  -62.89   62.39
   3 -20  -6  571.24   75.49
   2 -20   3   93.69   45.50
  -2  20  -3  132.49   46.30
   2 -20   2   -8.20   46.10
  -2  20  -2  -59.19   47.20
   2 -20   1  627.04   58.29
  -2  20  -1  606.44   56.99
   2 -20   0  344.87   56.59
  -2  20   0  321.57   52.89
   2 -20  -1  644.74   63.89
  -2  20   1  665.13   57.79
   2 -20  -2   92.39   56.29
  -2  20   2   20.60   50.79
   2 -20  -3  151.48   58.79
  -2  20   3  104.49   51.59
   2 -20  -4   64.59   60.59
   2 -20  -5  125.99   59.99
   2 -20  -6  232.58   64.59
   1 -20   3  150.68   44.10
  -1  20  -3  240.08   44.40
   1 -20   2 1603.84   81.19
  -1  20  -2 1626.84   76.49
   1 -20   1  318.17   53.79
  -1  20  -1  321.47   48.30
   1 -20   0  955.70   75.49
  -1  20   0  954.70   67.19
   1 -20  -1  424.66   58.79
  -1  20   1  326.07   51.09
   1 -20  -2 1699.63   86.59
  -1  20   2 1748.23   84.59
   1 -20  -3  272.67   56.29
  -1  20   3  318.17   56.19
   1 -20  -4 1462.35   92.49
   1 -20  -5  191.48   62.89
   1 -20  -6  585.54   74.39
   0 -20   2  196.18   45.90
   0  20  -2  226.98   43.80
   0 -20   1   26.20   45.90
   0  20  -1  -70.39   40.80
   0 -20   0  153.88   50.39
   0  20   0   44.60   46.30
   0 -20  -1   -6.30   50.19
   0  20   1  -49.20   44.50
   0 -20  -2  244.88   56.29
   0  20   2  226.48   50.99
   0 -20  -3  -13.30   56.29
   0  20   3   39.00   50.09
   0 -20  -4  472.85   68.09
   0 -20  -5  -33.70   66.29
   0 -20  -6   34.00   68.59
  -1 -20   2 1493.15   77.59
   1  20  -2 1469.25   71.99
  -1 -20   1  287.67   53.99
   1  20  -1  240.38   46.20
  -1 -20   0 1050.19   80.19
   1  20   0  849.41   68.09
  -1 -20  -1  261.07   59.79
   1  20   1  254.17   48.90
  -1 -20  -2 1587.44   94.39
   1  20   2 1536.15   81.89
  -1 -20  -3  117.39   61.49
   1  20   3  131.19   51.69
  -1 -20  -4 1377.96   96.69
  -1 -20  -5  287.77   68.69
  -1 -20  -6  357.66   70.69
  -2 -20   2   93.09   49.10
   2  20  -2   21.20   40.90
  -2 -20   1  550.54   56.79
   2  20  -1  421.16   49.80
  -2 -20   0  309.07   56.99
   2  20   0  284.37   50.39
  -2 -20  -1  499.95   60.29
   2  20   1  455.95   54.79
  -2 -20  -2   61.99   56.79
   2  20   2   -8.90   48.00
  -2 -20  -3   45.20   59.79
   2  20   3   91.79   52.49
  -2 -20  -4   65.89   64.09
  -2 -20  -5  205.18   68.29
  -2 -20  -6  241.48   73.59
  -3 -20   2 1804.12   87.79
   3  20  -2 1575.54   77.29
  -3 -20   1   91.89   55.99
   3  20  -1   39.20   44.30
  -3 -20   0 2116.49  100.19
   3  20   0 2048.99   88.09
  -3 -20  -1  106.59   59.19
   3  20   1   58.69   46.00
  -3 -20  -2 1617.54   97.09
   3  20   2 1633.64   84.49
  -3 -20  -3  156.48   64.59
   3  20   3  145.19   53.19
  -3 -20  -4  679.53   75.49
  -3 -20  -5   24.70   69.99
  -3 -20  -6  671.83   81.39
   4  20  -3  435.26   48.70
  -4 -20   2   64.29   55.09
   4  20  -2   60.39   45.10
  -4 -20   1   65.69   61.09
   4  20  -1   95.79   47.20
  -4 -20   0  215.88   65.09
   4  20   0   14.40   46.70
  -4 -20  -1  183.38   65.29
   4  20   1   65.09   49.30
  -4 -20  -2  131.19   66.79
   4  20   2   -7.90   49.50
  -4 -20  -3  631.44   76.09
   4  20   3  422.76   61.49
  -4 -20  -4  164.48   73.89
  -4 -20  -5  343.67   78.19
  -4 -20  -6  110.99   76.49
   5  20  -2  477.55   87.09
  -5 -20   1   32.10   61.09
   5  20  -1   43.00   50.29
  -5 -20   0  611.04   69.69
   5  20   0  638.14   59.69
  -5 -20  -1   82.29   66.69
   5  20   1   96.59   51.19
  -5 -20  -2  618.54   76.19
   5  20   2  560.94   62.89
  -5 -20  -3  223.18   73.19
   5  20   3  241.18   56.59
  -5 -20  -4  539.05   81.89
  -5 -20  -5   54.29   78.79
  -6 -20   0   28.10   91.59
  -6 -20  -1  224.88   71.99
  -6 -20  -2  294.37   72.99
  -6 -20  -3  188.78   76.29
  -6 -20  -4  164.08   78.39
  -6 -20  -5  103.99   79.89
  -7 -20  -3   72.19   84.39
  -7 -20  -4  333.57   89.09
   7 -21  -2  190.48   72.19
   7 -21  -3   81.29   71.39
   6 -21  -1  227.08   69.49
   6 -21  -2    3.80   65.79
   6 -21  -3  705.13   78.19
   6 -21  -4  101.99   69.69
   5 -21   0  884.31   74.49
   5 -21  -1  118.89   63.59
   5 -21  -2  208.78   64.59
  -5  21   2  226.48   70.49
   5 -21  -3  405.26   70.19
   5 -21  -4   39.10   67.59
   5 -21  -5    1.70   70.59
   4 -21   1  820.52   69.69
  -4  21  -1  968.90   79.89
   4 -21   0  290.57   59.69
  -4  21   0  271.77   56.69
   4 -21  -1  869.61   73.09
  -4  21   1  803.42   70.49
   4 -21  -2  191.38   63.09
  -4  21   2  201.38   59.09
   4 -21  -3  492.65   71.79
   4 -21  -4  219.98   68.59
   4 -21  -5  383.06   73.39
  -3  21  -3   49.70   48.70
   3 -21   2  129.89   51.49
  -3  21  -2  140.09   50.89
   3 -21   1  819.22   66.09
  -3  21  -1  808.72   65.79
   3 -21   0  336.57   59.39
  -3  21   0  277.17   53.99
   3 -21  -1  958.20   73.59
  -3  21   1  831.62   77.79
   3 -21  -2   39.10   59.39
  -3  21   2  168.78   57.09
   3 -21  -3   31.10   61.19
   3 -21  -4   -6.50   63.29
   3 -21  -5  145.19   67.29
   2 -21   3  904.81   70.99
  -2  21  -3  926.51   69.09
   2 -21   2  222.78   51.99
  -2  21  -2  231.58   51.79
   2 -21   1  421.56   56.39
  -2  21  -1  405.76   55.59
   2 -21   0   75.39   53.29
  -2  21   0   23.40   49.40
  -2  21   1  236.78   53.59
   2 -21  -2  137.29   59.99
  -2  21   2  271.27   55.89
   2 -21  -3 1054.89   78.79
  -2  21   3  986.60   80.69
   2 -21  -4  128.79   63.49
   2 -21  -5  547.65   69.69
   2 -21  -6  161.58   66.89
   1 -21   3  494.75   50.19
  -1  21  -3  509.55   50.69
   1 -21   2   82.89   48.20
  -1  21  -2  166.38   47.70
   1 -21   1  473.95   56.59
  -1  21  -1  366.86   51.29
   1 -21   0  438.36   59.29
  -1  21   0  436.56   51.69
   1 -21  -1  468.15   58.29
  -1  21   1  429.86   54.59
   1 -21  -2  121.49   53.59
  -1  21   2  105.89   50.49
   1 -21  -3  502.05   63.39
  -1  21   3  525.05   61.09
   1 -21  -4   87.19   61.39
   1 -21  -5  253.67   66.39
   1 -21  -6  119.79   70.19
   0 -21   3 1193.18   71.09
   0  21  -3 1098.29   66.99
   0 -21   2   17.30   45.90
   0  21  -2   78.79   42.00
   0 -21   1  160.88   50.09
   0  21  -1   52.59   43.80
   0 -21   0   22.10   50.49
   0  21   0  -37.60   45.10
   0 -21  -1  209.68   55.29
   0  21   1  279.57   51.09
   0 -21  -2  129.49   56.99
   0  21   2   46.70   49.60
   0 -21  -3 1071.69   90.19
   0  21   3 1260.87   82.79
   0 -21  -4   -6.00   62.89
   0 -21  -5  604.04   77.89
   0 -21  -6  176.78   72.89
   1  21  -3  394.06   44.90
  -1 -21   2  147.99   49.00
   1  21  -2  204.08   44.90
  -1 -21   1  447.66   56.89
   1  21  -1  369.36   49.90
  -1 -21   0  355.56   61.49
   1  21   0  363.36   53.39
  -1 -21  -1  545.65   64.49
   1  21   1  300.57   53.19
  -1 -21  -2  155.28   61.89
   1  21   2  103.49   51.39
  -1 -21  -3  457.85   67.59
   1  21   3  405.96   58.89
  -1 -21  -4  205.18   66.09
  -1 -21  -5  120.39   68.99
  -1 -21  -6  103.29   70.29
  -2 -21   3  798.92   71.29
   2  21  -3  752.22   62.09
  -2 -21   2  139.49   53.29
   2  21  -2  190.28   46.00
  -2 -21   1  412.26   56.29
   2  21  -1  306.27   48.90
  -2 -21   0    2.60   53.99
   2  21   0   94.39   47.50
  -2 -21  -1  322.87   59.89
   2  21   1  396.86   54.69
  -2 -21  -2  263.47   61.79
   2  21   2  209.48   53.99
  -2 -21  -3  809.32   74.49
   2  21   3  849.32   79.49
  -2 -21  -4  127.69   67.19
  -2 -21  -5  557.24   75.79
  -2 -21  -6  349.07   75.49
  -3 -21   3  171.48   56.69
   3  21  -3   53.69   43.30
  -3 -21   2  236.28   57.29
   3  21  -2  104.09   46.20
  -3 -21   1  693.93   66.59
   3  21  -1  680.03   58.19
  -3 -21   0  218.68   61.79
   3  21   0  161.28   50.89
  -3 -21  -1  646.54   71.09
   3  21   1  704.43   60.79
  -3 -21  -2  201.28   64.89
   3  21   2   98.09   52.19
  -3 -21  -3   85.09   66.59
   3  21   3   60.59   55.19
  -3 -21  -4  155.88   72.09
  -3 -21  -5  128.99   74.79
   4  21  -3  364.46   61.39
  -4 -21   2   94.19   83.69
   4  21  -2  226.58   50.19
  -4 -21   1  605.54   68.99
   4  21  -1  604.34   58.69
  -4 -21   0  319.87   68.69
   4  21   0  218.88   53.39
  -4 -21  -1  977.70   91.39
   4  21   1  711.43   63.89
  -4 -21  -2  146.99   70.89
   4  21   2  195.18   54.79
  -4 -21  -3  558.24   78.19
   4  21   3  476.55   61.19
  -4 -21  -4  345.77   78.99
  -4 -21  -5  433.16   81.99
  -5 -21   0  848.62   78.99
  -5 -21  -1  239.98   70.79
  -5 -21  -2  175.48   73.29
  -5 -21  -3  397.16   80.59
  -5 -21  -4   79.39   79.49
  -5 -21  -5  178.78   81.89
  -6 -21  -2  116.19   76.89
  -6 -21  -3  555.04   82.99
  -6 -21  -4   10.70   79.49
   7 -22  -3  -78.89   71.49
   6 -22  -2  305.27   73.49
   6 -22  -3  207.58   69.99
   6 -22  -4   73.49   71.19
   5 -22  -1   45.00   66.09
   5 -22  -2  543.05   71.89
   5 -22  -3  394.66   72.49
   5 -22  -4  188.48   72.59
   4 -22   0  515.15   66.09
   4 -22  -1  122.59   60.69
   4 -22  -2  322.57   67.49
   4 -22  -3   29.30   66.99
   4 -22  -4   15.00   69.39
   4 -22  -5  145.69   72.79
   3 -22   1  155.58   59.19
   3 -22   0   83.59   58.49
  -3  22   0  108.59   54.69
   3 -22  -1  150.18   61.19
  -3  22   1  173.28   57.29
   3 -22  -2  664.33   71.79
  -3  22   2  439.06   64.09
   3 -22  -3  150.28   66.89
   3 -22  -4  371.36   71.59
   3 -22  -5  -50.49   68.99
  -2  22  -3  120.89   79.79
   2 -22   2  495.15   59.39
  -2  22  -2  525.65   56.39
   2 -22   1  132.99   56.99
  -2  22  -1  139.29   53.09
   2 -22   0  825.02   68.99
  -2  22   0  773.22   64.49
   2 -22  -1  193.68   60.59
  -2  22   1  106.79   51.09
   2 -22  -2  601.44   69.59
  -2  22   2  510.65   62.89
   2 -22  -3  106.79   62.19
  -2  22   3  124.49   54.79
   2 -22  -4  224.08   65.29
   2 -22  -5  111.59   64.59
   1 -22   3  153.58   78.39
  -1  22  -3  141.79   46.80
   1 -22   2  763.12   71.09
  -1  22  -2  800.02   68.59
   1 -22   1  183.78   54.49
  -1  22  -1  174.98   50.79
   1 -22   0   79.59   53.39
  -1  22   0   36.70   46.30
   1 -22  -1  191.38   54.19
  -1  22   1  171.08   51.49
   1 -22  -2  990.20   82.79
  -1  22   2  872.61   77.99
   1 -22  -3  209.08   60.89
  -1  22   3  134.99   55.19
   1 -22  -4  647.74   73.19
   1 -22  -5  159.58   68.09
   0 -22   3    6.90   48.30
   0  22  -3 -104.79   42.90
   0 -22   2 1101.49   77.99
   0  22  -2 1197.08   69.79
   0 -22   1  -30.20   51.59
   0  22  -1  -28.90   43.40
   0 -22   0  104.29   54.89
   0  22   0  169.18   48.70
   0 -22  -1   -1.60   55.89
   0  22   1 -108.19   48.00
   0 -22  -2 1133.69   89.59
   0  22   2 1201.18   81.69
   0 -22  -3   23.50   61.29
   0  22   3   34.80   54.69
   0 -22  -4  770.72   78.79
   0 -22  -5    0.30   72.99
  -1 -22   2  860.81   75.09
   1  22  -2  769.22   66.49
  -1 -22   1  241.18   56.39
   1  22  -1  108.09   47.10
  -1 -22   0  107.79   58.99
   1  22   0   25.30   49.20
  -1 -22  -1  167.28   62.99
   1  22   1  150.68   51.19
  -1 -22  -2  915.71   76.49
   1  22   2  794.52   66.29
  -1 -22  -3  231.18   67.29
   1  22   3  102.09   55.89
  -1 -22  -4  581.64   76.79
  -1 -22  -5  111.79   71.99
  -2 -22   2  371.46   58.49
   2  22  -2  317.27   49.60
  -2 -22   1  249.97   56.09
   2  22  -1  150.18   48.00
  -2 -22   0  612.54   66.29
   2  22   0  624.54   57.69
  -2 -22  -1  137.59   59.89
   2  22   1   82.19   51.39
  -2 -22  -2  340.47   67.59
   2  22   2  520.55   59.49
  -2 -22  -3  117.19   65.39
   2  22   3   96.79   55.59
  -2 -22  -4  189.18   70.79
  -2 -22  -5  140.99   73.29
  -3 -22   1  115.39   60.89
   3  22  -1    3.10   62.09
  -3 -22   0  132.79   62.59
   3  22   0   29.00   56.39
  -3 -22  -1  201.58   65.79
   3  22   1  104.59   55.69
  -3 -22  -2  501.15   71.79
   3  22   2  385.06   65.29
  -3 -22  -3  162.08   69.49
   3  22   3   35.80   71.79
  -3 -22  -4  260.47   74.89
  -3 -22  -5   56.39   75.49
  -4 -22   0  599.84   79.89
  -4 -22  -1  336.87   71.89
  -4 -22  -2  330.77   75.89
  -4 -22  -3  148.49   76.39
  -4 -22  -4  223.18   80.89
  -4 -22  -5  267.37   84.09
  -5 -22  -2  398.36   81.39
  -5 -22  -3  252.57   81.39
  -5 -22  -4  265.37   85.69
  -6 -22  -4  145.09   92.69
   6 -23  -3  434.46   84.29
   5 -23  -2    8.10   66.39
   5 -23  -3  322.67   73.09
   5 -23  -4   21.40   74.19
   4 -23  -1  337.67   67.99
   4 -23  -2  383.66   72.99
   4 -23  -3   53.69   68.59
   4 -23  -4  344.47   74.99
   3 -23   0   63.79   61.39
   3 -23  -1  407.16   68.59
   3 -23  -2  157.58   66.89
   3 -23  -3  134.69   68.49
   3 -23  -4  -21.10   68.89
   3 -23  -5  472.85   77.99
   2 -23   0  109.89   61.59
   2 -23  -1  800.52   74.49
   2 -23  -2  141.89   66.29
   2 -23  -3  595.64   74.69
   2 -23  -4   61.89   62.09
   2 -23  -5  394.16   71.99
   1 -23   1  160.88   53.39
   1 -23   0    4.00   53.49
   1 -23  -1  140.99   58.19
  -1  23   1  173.18   71.39
   1 -23  -2  247.48   60.99
  -1  23   2  170.68   76.09
   1 -23  -3  618.74   70.89
  -1  23   3  701.53   89.19
   1 -23  -4   97.39   66.99
   1 -23  -5  210.68   72.99
   0 -23   1  782.32   66.09
   0 -23   0   43.10   56.79
   0  23   0    3.80   61.59
   0 -23  -1  740.43   70.19
   0  23   1  723.13   69.19
   0 -23  -2   33.70   62.39
   0  23   2   81.99   60.09
   0 -23  -3 1144.29   97.89
   0  23   3 1231.88  108.29
   0 -23  -4  149.88   73.79
   0 -23  -5  464.25   82.09
  -1 -23   1  318.77   60.59
  -1 -23   0  116.59   61.09
  -1 -23  -1  251.87   66.09
  -1 -23  -2  152.18   67.29
  -1 -23  -3  721.93   75.79
  -1 -23  -4  150.58   70.39
  -1 -23  -5  182.68   72.89
  -2 -23   0  203.68   63.59
  -2 -23  -1  672.83   71.89
  -2 -23  -2  108.89   66.09
  -2 -23  -3  461.75   74.59
  -2 -23  -4  109.69   72.29
  -2 -23  -5  420.46   78.99
  -3 -23  -1  483.75   72.79
  -3 -23  -2  218.88   69.99
  -3 -23  -3   94.79   71.59
  -3 -23  -4  131.99   75.59
  -3 -23  -5  351.76   82.39
  -4 -23  -2  408.36   88.09
  -4 -23  -3  221.08   78.29
  -4 -23  -4  215.88   80.19
  -5 -23  -4   57.89   93.69
   4 -24  -3    0.30   69.59
   4 -24  -4  196.38   76.09
   3 -24  -2  448.76   75.79
   3 -24  -3   28.60   70.09
   3 -24  -4   61.99   72.69
   2 -24  -1  -28.70   66.39
   2 -24  -2  135.19   66.99
   2 -24  -3   81.29   67.69
   2 -24  -4  289.47   70.69
   1 -24  -1  277.67   62.39
   1 -24  -2  987.50   78.29
   1 -24  -3   28.70   65.69
   1 -24  -4  408.36   73.99
   1 -24  -5  158.58   76.29
   0 -24  -1   92.19   62.79
   0 -24  -2  760.72   76.49
   0 -24  -3   79.89   69.29
   0 -24  -4  513.55   82.69
   0 -24  -5  145.19   81.29
  -1 -24  -1  220.28   67.19
  -1 -24  -2 1020.10   84.69
  -1 -24  -3  141.79   69.69
  -1 -24  -4  410.86   78.09
  -1 -24  -5   63.89   74.69
  -2 -24  -2  177.78   70.09
  -2 -24  -3    7.20   70.29
  -2 -24  -4  360.16   78.49
  -3 -24  -3    7.10   75.79
  -3 -24  -4  149.29   78.09
   2 -25  -3  121.39   72.49
   2 -25  -4  167.88   69.89
   1 -25  -3  246.58   72.09
   1 -25  -4   75.29   72.29
   0 -25  -3  718.93   88.19
   0 -25  -4   37.00   77.39
  -1 -25  -4   54.59   75.09
  -2 -25  -4  186.88  130.09

_computing_structure_solution     'SHELXT 2014/4 (Sheldrick, 2014)'
;
_shelx_hkl_checksum              13083
_shelx_shelxl_version_number     2014/7
_olex2_submission_special_instructions 'No special instructions were received'
loop_
_space_group_symop_operation_xyz
'x, y, z'
'-x, -y, z+1/2'
'x+1/2, -y+1/2, z'
'-x+1/2, y+1/2, z+1/2'
loop_
_atom_site_label
_atom_site_type_symbol
_atom_site_fract_x
_atom_site_fract_y
_atom_site_fract_z
_atom_site_U_iso_or_equiv
_atom_site_adp_type
_atom_site_occupancy
_atom_site_site_symmetry_order
_atom_site_calc_flag
_atom_site_refinement_flags_posn
_atom_site_refinement_flags_adp
Co1 Co 0.73864(15) 0.51499(4) 0.33353(17) 0.0181(3) Uani 1 1 d . .
Cl1 Cl 0.5612(3) 0.50258(8) 0.1666(3) 0.0248(6) Uani 1 1 d . .
Cl2 Cl 0.9205(3) 0.53408(9) 0.1778(4) 0.0266(6) Uani 1 1 d . .
N1 N 0.7638(10) 0.4475(2) 0.5061(10) 0.020(2) Uani 1 1 d . .
N2 N 0.7119(9) 0.5773(3) 0.5194(10) 0.020(2) Uani 1 1 d . .
C1 C 0.7875(13) 0.4015(3) 0.8008(13) 0.029(3) Uani 1 1 d . .
H1A H 0.7093 0.3962 0.8737 0.044 Uiso 1 1 calc GR .
H1B H 0.8618 0.4096 0.8792 0.044 Uiso 1 1 calc GR .
H1C H 0.8040 0.3651 0.7319 0.044 Uiso 1 1 calc GR .
C2 C 0.7689(10) 0.4516(3) 0.6770(14) 0.020(2) Uani 1 1 d . .
C3 C 0.7584(12) 0.5111(3) 0.7712(11) 0.018(2) Uani 1 1 d . .
H3A H 0.6971 0.5047 0.8716 0.022 Uiso 1 1 calc R .
H3B H 0.8444 0.5179 0.8269 0.022 Uiso 1 1 calc R .
C4 C 0.7203(11) 0.5699(3) 0.6892(14) 0.021(3) Uani 1 1 d . .
C5 C 0.7001(12) 0.6161(3) 0.8297(17) 0.029(3) Uani 1 1 d . .
H5A H 0.6911 0.6551 0.7728 0.044 Uiso 1 1 calc GR .
H5B H 0.7747 0.6165 0.9112 0.044 Uiso 1 1 calc GR .
H5C H 0.6211 0.6070 0.8976 0.044 Uiso 1 1 calc GR .
C6 C 0.7715(14) 0.3903(4) 0.4160(13) 0.025(2) Uani 1 1 d . U
C7 C 0.6672(14) 0.3511(4) 0.4276(14) 0.033(3) Uani 1 1 d . U
H7 H 0.5928 0.3607 0.4971 0.039 Uiso 1 1 calc R .
C8 C 0.6747(13) 0.2975(3) 0.3351(19) 0.049(3) Uani 1 1 d . U
H8 H 0.6073 0.2689 0.3455 0.059 Uiso 1 1 calc R .
C9 C 0.7834(17) 0.2862(4) 0.2260(14) 0.048(3) Uani 1 1 d . U
H9 H 0.7851 0.2511 0.1552 0.057 Uiso 1 1 calc R .
C10 C 0.8904(18) 0.3258(4) 0.2191(16) 0.055(4) Uani 1 1 d . U
H10 H 0.9654 0.3167 0.1502 0.066 Uiso 1 1 calc R .
C11 C 0.8821(12) 0.3784(3) 0.3163(16) 0.032(3) Uani 1 1 d . U
H11 H 0.9518 0.4060 0.3145 0.039 Uiso 1 1 calc R .
C12 C 0.6692(12) 0.6338(3) 0.4454(13) 0.019(2) Uani 1 1 d . U
C13 C 0.5425(12) 0.6524(3) 0.4802(14) 0.025(3) Uani 1 1 d . U
H13 H 0.4886 0.6310 0.5608 0.030 Uiso 1 1 calc R .
C14 C 0.4971(14) 0.7033(3) 0.3935(12) 0.027(2) Uani 1 1 d . U
H14 H 0.4114 0.7169 0.4165 0.032 Uiso 1 1 calc R .
C15 C 0.5737(14) 0.7340(3) 0.2763(12) 0.030(3) Uani 1 1 d . U
H15 H 0.5410 0.7685 0.2180 0.036 Uiso 1 1 calc R .
C16 C 0.6979(14) 0.7151(3) 0.2431(14) 0.032(3) Uani 1 1 d . U
H16 H 0.7512 0.7365 0.1618 0.038 Uiso 1 1 calc R .
C17 C 0.7468(11) 0.6641(3) 0.3284(18) 0.025(2) Uani 1 1 d . U
H17 H 0.8327 0.6508 0.3050 0.030 Uiso 1 1 calc R .
loop_
_atom_site_aniso_label
_atom_site_aniso_U_11
_atom_site_aniso_U_22
_atom_site_aniso_U_33
_atom_site_aniso_U_23
_atom_site_aniso_U_13
_atom_site_aniso_U_12
Co1 0.0290(10) 0.0130(4) 0.0125(6) -0.0007(7) -0.0002(9) 0.0000(5)
Cl1 0.033(2) 0.0249(9) 0.0162(12) 0.0004(10) -0.0025(13) -0.0037(9)
Cl2 0.027(2) 0.0340(10) 0.0184(12) -0.0006(11) -0.0010(13) -0.0013(10)
N1 0.036(7) 0.010(3) 0.014(4) 0.001(3) -0.001(4) 0.001(3)
N2 0.034(8) 0.011(3) 0.014(4) -0.002(3) -0.004(4) -0.007(3)
C1 0.048(10) 0.015(4) 0.024(8) 0.003(4) -0.009(5) 0.005(4)
C2 0.024(8) 0.013(4) 0.023(5) 0.000(4) 0.007(6) 0.000(3)
C3 0.030(8) 0.017(4) 0.007(4) 0.004(3) -0.001(4) 0.000(4)
C4 0.029(8) 0.011(4) 0.025(6) 0.000(4) -0.002(5) -0.004(4)
C5 0.047(9) 0.020(4) 0.021(5) -0.002(5) -0.003(8) 0.004(4)
C6 0.044(8) 0.014(4) 0.019(5) -0.003(3) -0.008(5) 0.006(4)
C7 0.053(9) 0.014(4) 0.031(6) 0.007(3) -0.008(5) 0.000(4)
C8 0.096(10) 0.014(4) 0.038(6) 0.002(5) -0.015(7) -0.004(4)
C9 0.102(10) 0.017(4) 0.024(6) -0.007(4) -0.017(6) 0.008(5)
C10 0.101(11) 0.028(4) 0.037(8) -0.009(4) 0.000(6) 0.018(5)
C11 0.050(7) 0.021(4) 0.026(6) -0.003(4) -0.001(6) 0.010(4)
C12 0.026(5) 0.008(3) 0.023(4) 0.000(3) -0.004(3) -0.009(3)
C13 0.031(7) 0.008(4) 0.035(6) 0.000(3) -0.002(4) -0.006(3)
C14 0.041(7) 0.017(4) 0.024(5) -0.002(3) -0.004(4) 0.000(4)
C15 0.051(7) 0.008(3) 0.030(6) 0.008(3) -0.011(5) -0.010(4)
C16 0.059(8) 0.009(4) 0.027(5) 0.008(3) -0.001(5) -0.007(4)
C17 0.033(6) 0.017(3) 0.024(4) 0.007(5) 0.003(5) -0.007(4)
loop_
_atom_type_symbol
_atom_type_description
_atom_type_scat_dispersion_real
_atom_type_scat_dispersion_imag
_atom_type_scat_source
C C 0.0000 0.0010 'International Tables Vol C Tables 4.2.6.8 and 6.1.1.4'
H H 0.0000 0.0000 'International Tables Vol C Tables 4.2.6.8 and 6.1.1.4'
Cl Cl 0.0550 0.0530 'International Tables Vol C Tables 4.2.6.8 and 6.1.1.4'
Co Co 0.2160 0.3550 'International Tables Vol C Tables 4.2.6.8 and 6.1.1.4'
N N 0.0010 0.0010 'International Tables Vol C Tables 4.2.6.8 and 6.1.1.4'
loop_
_geom_angle_atom_site_label_1
_geom_angle_atom_site_label_2
_geom_angle_atom_site_label_3
_geom_angle
Cl1 Co1 Cl2 114.80(12)
N1 Co1 Cl1 111.7(3)
N1 Co1 Cl2 111.6(3)
N2 Co1 Cl1 111.3(3)
N2 Co1 Cl2 109.9(3)
N2 Co1 N1 96.0(3)
C2 N1 Co1 126.1(5)
C2 N1 C6 121.6(7)
C6 N1 Co1 112.3(6)
C4 N2 Co1 126.0(5)
C4 N2 C12 120.7(7)
C12 N2 Co1 113.1(6)
H1A C1 H1B 109.5
H1A C1 H1C 109.5
H1B C1 H1C 109.5
C2 C1 H1A 109.5
C2 C1 H1B 109.5
C2 C1 H1C 109.5
N1 C2 C1 125.1(7)
N1 C2 C3 121.6(7)
C1 C2 C3 113.3(8)
C2 C3 H3A 105.5
C2 C3 H3B 105.5
H3A C3 H3B 106.1
C4 C3 C2 127.2(8)
C4 C3 H3A 105.5
C4 C3 H3B 105.5
N2 C4 C3 122.2(8)
N2 C4 C5 126.5(8)
C5 C4 C3 111.2(8)
C4 C5 H5A 109.5
C4 C5 H5B 109.5
C4 C5 H5C 109.5
H5A C5 H5B 109.5
H5A C5 H5C 109.5
H5B C5 H5C 109.5
C7 C6 N1 119.3(11)
C11 C6 N1 117.7(10)
C11 C6 C7 123.0(9)
C6 C7 H7 120.8
C8 C7 C6 118.3(12)
C8 C7 H7 120.8
C7 C8 H8 120.4
C7 C8 C9 119.3(10)
C9 C8 H8 120.4
C8 C9 H9 119.2
C8 C9 C10 121.7(10)
C10 C9 H9 119.2
C9 C10 H10 121.1
C11 C10 C9 117.9(13)
C11 C10 H10 121.1
C6 C11 C10 119.7(11)
C6 C11 H11 120.1
C10 C11 H11 120.1
C13 C12 N2 118.4(8)
C17 C12 N2 120.1(10)
C17 C12 C13 121.1(9)
C12 C13 H13 120.9
C12 C13 C14 118.3(10)
C14 C13 H13 120.9
C13 C14 H14 119.4
C15 C14 C13 121.2(13)
C15 C14 H14 119.4
C14 C15 H15 120.1
C14 C15 C16 119.9(10)
C16 C15 H15 120.1
C15 C16 H16 119.8
C15 C16 C17 120.4(10)
C17 C16 H16 119.8
C12 C17 C16 119.1(11)
C12 C17 H17 120.5
C16 C17 H17 120.5
loop_
_geom_bond_atom_site_label_1
_geom_bond_atom_site_label_2
_geom_bond_distance
Co1 Cl1 2.229(3)
Co1 Cl2 2.246(3)
Co1 N1 2.008(7)
Co1 N2 1.991(7)
N1 C2 1.279(12)
N1 C6 1.452(11)
N2 C4 1.280(12)
N2 C12 1.453(11)
C1 H1A 0.9800
C1 H1B 0.9800
C1 H1C 0.9800
C1 C2 1.470(12)
C2 C3 1.515(11)
C3 H3A 0.9900
C3 H3B 0.9900
C3 C4 1.509(11)
C4 C5 1.491(13)
C5 H5A 0.9800
C5 H5B 0.9800
C5 H5C 0.9800
C6 C7 1.393(18)
C6 C11 1.387(16)
C7 H7 0.9500
C7 C8 1.390(13)
C8 H8 0.9500
C8 C9 1.407(19)
C9 H9 0.9500
C9 C10 1.42(2)
C10 H10 0.9500
C10 C11 1.389(12)
C11 H11 0.9500
C12 C13 1.395(16)
C12 C17 1.365(15)
C13 H13 0.9500
C13 C14 1.396(13)
C14 H14 0.9500
C14 C15 1.365(15)
C15 H15 0.9500
C15 C16 1.372(18)
C16 H16 0.9500
C16 C17 1.405(13)
C17 H17 0.9500
loop_
_geom_torsion_atom_site_label_1
_geom_torsion_atom_site_label_2
_geom_torsion_atom_site_label_3
_geom_torsion_atom_site_label_4
_geom_torsion
Co1 N1 C2 C1 -179.9(9)
Co1 N1 C2 C3 -1.2(15)
Co1 N1 C6 C7 -106.9(9)
Co1 N1 C6 C11 70.9(11)
Co1 N2 C4 C3 2.6(15)
Co1 N2 C4 C5 -179.7(8)
Co1 N2 C12 C13 110.5(8)
Co1 N2 C12 C17 -62.1(11)
N1 C2 C3 C4 10.6(17)
N1 C6 C7 C8 177.8(10)
N1 C6 C11 C10 -176.2(10)
N2 C12 C13 C14 -173.2(8)
N2 C12 C17 C16 172.9(9)
C1 C2 C3 C4 -170.6(11)
C2 N1 C6 C7 71.1(15)
C2 N1 C6 C11 -111.1(12)
C2 C3 C4 N2 -11.4(18)
C2 C3 C4 C5 170.6(10)
C4 N2 C12 C13 -64.7(13)
C4 N2 C12 C17 122.7(11)
C6 N1 C2 C1 2.4(18)
C6 N1 C2 C3 -178.9(11)
C6 C7 C8 C9 -3.3(17)
C7 C6 C11 C10 1.5(17)
C7 C8 C9 C10 5.1(19)
C8 C9 C10 C11 -3.5(18)
C9 C10 C11 C6 0.2(17)
C11 C6 C7 C8 0.1(16)
C12 N2 C4 C3 177.2(10)
C12 N2 C4 C5 -5.2(16)
C12 C13 C14 C15 0.6(14)
C13 C12 C17 C16 0.5(15)
C13 C14 C15 C16 -0.4(14)
C14 C15 C16 C17 0.2(16)
C15 C16 C17 C12 -0.3(17)
C17 C12 C13 C14 -0.6(14)
