#------------------------------------------------------------------------------
#$Date: 2019-11-25 13:26:31 +0200 (Mon, 25 Nov 2019) $
#$Revision: 240970 $
#$URL: file:///home/coder/svn-repositories/cod/cif/4/13/05/4130561.cif $
#------------------------------------------------------------------------------
#
# This file is available in the Crystallography Open Database (COD),
# http://www.crystallography.net/
#
# All data on this site have been placed in the public domain by the
# contributors.
#
data_4130561
loop_
_publ_author_name
'Mon, Marta'
'Ferrando-Soria, Jes\'us'
'Grancha, Thais'
'Fortea-P\'erez, Francisco R'
'Gascon, Jorge'
'Leyva-P\'erez, Antonio'
'Armentano, Donatella'
'Pardo, Emilio'
_publ_section_title
;
 Selective Gold Recovery and Catalysis in a Highly Flexible
 Methionine-Decorated Metal-Organic Framework.
;
_journal_issue                   25
_journal_name_full               'Journal of the American Chemical Society'
_journal_page_first              7864
_journal_page_last               7867
_journal_paper_doi               10.1021/jacs.6b04635
_journal_volume                  138
_journal_year                    2016
_chemical_formula_sum            'C36 H84 Ca Cu6 N6 O37 S6'
_chemical_formula_weight         1806.77
_space_group_crystal_system      hexagonal
_space_group_IT_number           173
_space_group_name_Hall           'P 6c'
_space_group_name_H-M_alt        'P 63'
_atom_sites_solution_hydrogens   geom
_audit_creation_method           SHELXL-2013
_cell_angle_alpha                90
_cell_angle_beta                 90
_cell_angle_gamma                120
_cell_formula_units_Z            2
_cell_length_a                   17.7992(16)
_cell_length_b                   17.7992(16)
_cell_length_c                   12.7145(16)
_cell_measurement_reflns_used    1555
_cell_measurement_temperature    90(2)
_cell_measurement_theta_max      21.26
_cell_measurement_theta_min      2.23
_cell_volume                     3488.4(6)
_computing_cell_refinement       'Bruker APEX'
_computing_data_collection       'Bruker APEX'
_computing_data_reduction        'Bruker SAINT'
_computing_molecular_graphics    'Bruker SHELXTL'
_computing_publication_material  'Bruker SHELXTL'
_computing_structure_refinement  'SHELXL-2013 (Sheldrick, 2013)'
_computing_structure_solution    'SHELXS-2013 (Sheldrick, 2013)'
_diffrn_ambient_temperature      90(2)
_diffrn_measured_fraction_theta_full 0.796
_diffrn_measured_fraction_theta_max 0.995
_diffrn_measurement_device_type  'CCD area detector'
_diffrn_measurement_method       'phi and omega scans'
_diffrn_radiation_type           MoK\a
_diffrn_radiation_wavelength     0.71073
_diffrn_reflns_av_R_equivalents  0.1261
_diffrn_reflns_av_unetI/netI     0.0973
_diffrn_reflns_Laue_measured_fraction_full 0.796
_diffrn_reflns_Laue_measured_fraction_max 0.995
_diffrn_reflns_limit_h_max       19
_diffrn_reflns_limit_h_min       -19
_diffrn_reflns_limit_k_max       17
_diffrn_reflns_limit_k_min       -17
_diffrn_reflns_limit_l_max       11
_diffrn_reflns_limit_l_min       -14
_diffrn_reflns_number            20155
_diffrn_reflns_point_group_measured_fraction_full 0.739
_diffrn_reflns_point_group_measured_fraction_max 0.927
_diffrn_reflns_theta_full        25.242
_diffrn_reflns_theta_max         23.286
_diffrn_reflns_theta_min         1.321
_diffrn_source                   'fine-focus sealed tube'
_exptl_absorpt_coefficient_mu    2.141
_exptl_absorpt_correction_T_max  0.856
_exptl_absorpt_correction_T_min  0.810
_exptl_absorpt_correction_type   multi-scan
_exptl_absorpt_process_details   SADABS
_exptl_crystal_colour            GREEN
_exptl_crystal_density_diffrn    1.720
_exptl_crystal_description       HEXAGONAL-PRISM
_exptl_crystal_F_000             1856
_exptl_crystal_size_max          0.10
_exptl_crystal_size_mid          0.08
_exptl_crystal_size_min          0.08
_refine_diff_density_max         1.129
_refine_diff_density_min         -1.521
_refine_diff_density_rms         0.318
_refine_ls_abs_structure_details
;
 Flack x determined using 642 quotients [(I+)-(I-)]/[(I+)+(I-)]
 (Parsons and Flack (2004), Acta Cryst. A60, s61).
;
_refine_ls_abs_structure_Flack   0.50(4)
_refine_ls_extinction_method     none
_refine_ls_goodness_of_fit_ref   1.030
_refine_ls_hydrogen_treatment    constr
_refine_ls_matrix_type           full
_refine_ls_number_parameters     132
_refine_ls_number_reflns         3118
_refine_ls_number_restraints     10
_refine_ls_restrained_S_all      1.039
_refine_ls_R_factor_all          0.1492
_refine_ls_R_factor_gt           0.0890
_refine_ls_shift/su_max          0.004
_refine_ls_shift/su_mean         0.000
_refine_ls_structure_factor_coef Fsqd
_refine_ls_weighting_details
'w=1/[\s^2^(Fo^2^)+(0.1729P)^2^+25.0740P] where P=(Fo^2^+2Fc^2^)/3'
_refine_ls_weighting_scheme      calc
_refine_ls_wR_factor_gt          0.2421
_refine_ls_wR_factor_ref         0.2911
_reflns_Friedel_coverage         0.769
_reflns_Friedel_fraction_full    0.675
_reflns_Friedel_fraction_max     0.851
_reflns_number_gt                1925
_reflns_number_total             3118
_reflns_threshold_expression     'I > 2\s(I)'
_cod_data_source_file            ja6b04635_si_002.cif
_cod_data_source_block           1
_cod_original_cell_volume        3488.4(8)
_cod_database_code               4130561
_shelx_space_group_comment
;
The symmetry employed for this shelxl refinement is uniquely defined
by the following loop, which should always be used as a source of
symmetry information in preference to the above space-group names.
They are only intended as comments.
;
_shelxl_version_number           2013-4
_shelx_res_file
;
TITL marmon23_0m in P6(3)
CELL 0.71073  17.7992  17.7992  12.7145  90.000  90.000 120.000
ZERR    2.00   0.0016   0.0016   0.0016   0.000   0.000   0.000
LATT -1
SYMM -Y, X-Y, Z
SYMM -X+Y, -X, Z
SYMM -X, -Y, 0.5+Z
SYMM Y, -X+Y, 0.5+Z
SYMM X-Y, X, 0.5+Z
SFAC C  H  N  O  S  Ca Cu
UNIT 72  168  12  74  12  2  12
DFIX 2.44 0.03 C2S C3S
DFIX 1.82 0.03  C2S S1  C3S S1  S2 C5S  S2 C6S
DFIX 1.54 0.03  C1S C2S  C6 C4S  C2 C1S  C4S C5S
L.S. 10
ACTA
BOND
FMAP 2
PLAN 80
TEMP -183.000
WGHT    0.172900   25.073999
FVAR       0.10635
CU1   7    0.136837    0.553824   -0.733769    11.00000    0.01292    0.01506 =
         0.02637    0.00033    0.00839    0.00452
CU2   7    0.137719    0.554837   -0.995888    11.00000    0.01651    0.02888 =
         0.02363   -0.00114   -0.00197    0.00953
CA1   6    0.333333    0.666667   -0.865423    10.33333    0.00550    0.00550 =
         0.01022    0.00000    0.00000    0.00275
O1H   4    0.176655    0.534002   -0.871451    11.00000    0.01428
N1    3    0.088820    0.595086   -0.634520    11.00000    0.02959
N2    3    0.101560    0.598407   -1.110560    11.00000    0.00898
O1    4    0.234795    0.674732   -0.730510    11.00000    0.01766
O2    4    0.023222    0.448066   -0.717027    11.00000    0.01512
O3    4    0.294226    0.803160   -0.638159    11.00000    0.03076
O4    4    0.240071    0.675542   -0.999850    11.00000    0.02326
O5    4    0.019925    0.439005   -1.014493    11.00000    0.03979
O6    4    0.201878    0.484773   -1.073293    11.00000    0.03699
C1    1    0.236106    0.723651   -0.662023    11.00000    0.02244
C2    1    0.144586    0.695148   -0.601752    11.00000    0.04752
AFIX  13
H2A   2    0.153199    0.701350   -0.523843    11.00000   -1.20000
AFIX   0
C3    1   -0.018997    0.453663   -0.639859    11.00000    0.01305
C4    1    0.020976    0.539487   -0.582657    11.00000    0.02506
C5    1    0.225453    0.725465   -1.069089    11.00000    0.02555
C6    1    0.151531    0.683669   -1.137283    11.00000    0.02571
AFIX  13
H6A   2    0.179443    0.678540   -1.203063    11.00000   -1.20000
AFIX   0
C1S   1    0.093887    0.737909   -0.639776    11.00000    0.08020
AFIX  23
H1SA  2    0.036870    0.710098   -0.603950    11.00000   -1.20000
H1SB  2    0.125525    0.799725   -0.618675    11.00000   -1.20000
AFIX   0
C2S   1    0.079672    0.733015   -0.752225    11.00000    0.18317
AFIX  23
H2SA  2    0.135110    0.780528   -0.780110    11.00000   -1.20000
H2SB  2    0.037360    0.753217   -0.761117    11.00000   -1.20000
AFIX   0
C3S   1    0.108364    0.752881   -0.932936    11.00000    0.24721
AFIX  33
H3SA  2    0.108184    0.739197   -1.007627    11.00000   -1.50000
H3SB  2    0.168330    0.785653   -0.907630    11.00000   -1.50000
H3SC  2    0.080231    0.787754   -0.923778    11.00000   -1.50000
AFIX   1
C4S   1    0.095190    0.723100   -1.183240    11.00000    0.31647
AFIX  23
H4SA  2    0.049002    0.674647   -1.224069    11.00000   -1.20000
H4SB  2    0.133712    0.765719   -1.236272    11.00000   -1.20000
AFIX   1
C5S   1    0.045850    0.769670   -1.129300    11.00000    0.30297
AFIX  23
H5SA  2   -0.012819    0.717950   -1.124653    11.00000   -1.20000
H5SB  2    0.042561    0.800555   -1.192333    11.00000   -1.20000
AFIX   0
C6S   1   -0.025814    0.875892   -1.111574    11.00000    0.34454
AFIX  33
H6SA  2   -0.037729    0.912611   -1.065065    11.00000   -1.50000
H6SB  2   -0.080653    0.828104   -1.138175    11.00000   -1.50000
H6SC  2    0.010001    0.910548   -1.170784    11.00000   -1.50000
AFIX   0
S1    5    0.045734    0.646110   -0.853342    11.00000    0.19444
AFIX   1
S2    5    0.032970    0.831080   -1.036900    11.00000    0.42569
AFIX   0
O1W   4    0.320991    1.000143   -0.850882    10.50000    0.06574
O1WA  4    0.265940    0.935451   -0.908581    10.50000    0.13799
O2W   4   -0.363613    1.242694    0.191356    11.00000    0.11097
O3W   4    0.000000    1.000000   -1.021197    10.33333    0.38150
O4W   4   -0.171076    0.711469   -0.786817    11.00000    0.20210
O5W   4   -0.130362    0.520014   -0.800409    10.50000    0.21897
O5WA  4   -0.170081    0.593934   -0.822612    10.50000    0.13370
O6W   4   -0.086064    0.704962   -0.628937    11.00000    0.27634

HKLF 4

REM  marmon23_0m in P6(3)
REM R1 =  0.0890 for    1925 Fo > 4sig(Fo)  and  0.1492 for all    3118 data
REM    132 parameters refined using     10 restraints

END

WGHT      0.1757     21.3455

REM Highest difference peak  1.129,  deepest hole -1.521,  1-sigma level  0.318
Q1    1  -0.1333  0.7349 -0.8620  11.00000  0.05    1.12
Q2    1   0.2937  0.9510 -0.8636  11.00000  0.05    1.11
Q3    1   0.1797  0.6969 -0.4767  11.00000  0.05    1.11
Q4    1  -0.0409  0.8815 -1.2001  11.00000  0.05    1.01
Q5    1  -0.0823  0.7813 -1.0389  11.00000  0.05    1.01
Q6    1  -0.1084  0.9277 -1.0265  11.00000  0.05    0.99
Q7    1   0.1669  0.8310 -0.8114  11.00000  0.05    0.98
Q8    1   0.1810  0.6911 -1.2570  11.00000  0.05    0.98
Q9    1  -0.1540  0.5964 -0.8644  11.00000  0.05    0.98
Q10   1  -0.0741  0.6388 -0.7158  11.00000  0.05    0.98
Q11   1  -0.0830  0.9015 -1.3140  11.00000  0.05    0.97
Q12   1  -0.0172  0.8841 -0.8915  11.00000  0.05    0.97
Q13   1   0.0983  0.9894 -1.3431  11.00000  0.05    0.95
Q14   1  -0.1827  0.7924 -0.8639  11.00000  0.05    0.95
Q15   1  -0.0587  0.8343 -1.1773  11.00000  0.05    0.94
Q16   1  -0.0720  0.6361 -1.0056  11.00000  0.05    0.92
Q17   1  -0.0486  0.8320 -0.9841  11.00000  0.05    0.91
Q18   1   0.1679  0.8277 -0.9211  11.00000  0.05    0.90
Q19   1  -0.0201  0.7499 -0.8632  11.00000  0.05    0.90
Q20   1  -0.2098  0.5983 -0.7820  11.00000  0.05    0.89
Q21   1   0.1832  0.4974 -0.8609  11.00000  0.05    0.87
Q22   1  -0.0777  0.7825 -0.6887  11.00000  0.05    0.84
Q23   1   0.2398  0.8814 -0.7820  11.00000  0.05    0.84
Q24   1  -0.0464  0.8013 -1.3251  11.00000  0.05    0.84
Q25   1   0.1309  0.9514 -0.9916  11.00000  0.05    0.84
Q26   1   0.1448  0.7842 -0.8616  11.00000  0.05    0.84
Q27   1  -0.0599  0.8211 -1.2186  11.00000  0.05    0.83
Q28   1  -0.0762  0.9144 -1.1244  11.00000  0.05    0.83
Q29   1   0.2348  0.8818 -0.9445  11.00000  0.05    0.83
Q30   1   0.1274  0.9066 -0.9837  11.00000  0.05    0.82
Q31   1  -0.0547  0.8877 -1.1185  11.00000  0.05    0.82
Q32   1   0.0134  0.9221 -1.0486  11.00000  0.05    0.81
Q33   1  -0.0638  0.8081 -0.8993  11.00000  0.05    0.81
Q34   1   0.1337  0.9650 -1.2524  11.00000  0.05    0.81
Q35   1   0.1102  0.9346 -1.0630  11.00000  0.05    0.81
Q36   1  -0.0479  0.9288 -0.9542  11.00000  0.05    0.80
Q37   1   0.1219  0.6791 -1.0917  11.00000  0.05    0.79
Q38   1   0.1452  0.9584 -0.8970  11.00000  0.05    0.78
Q39   1  -0.0976  0.9727 -0.9215  11.00000  0.05    0.77
Q40   1  -0.0961  0.7830 -1.2424  11.00000  0.05    0.77
Q41   1   0.0066  0.9210 -1.0919  11.00000  0.05    0.76
Q42   1   0.1926  0.7858 -0.4465  11.00000  0.05    0.75
Q43   1   0.0643  0.9111 -0.9652  11.00000  0.05    0.73
Q44   1   0.0007  0.9543 -1.1387  11.00000  0.05    0.73
Q45   1  -0.1308  0.7864 -0.8273  11.00000  0.05    0.71
Q46   1   0.1269  0.8697 -0.5977  11.00000  0.05    0.71
Q47   1   0.0289  0.9577 -1.2843  11.00000  0.05    0.71
Q48   1  -0.0032  0.8326 -0.8687  11.00000  0.05    0.70
Q49   1   0.1976  0.8628 -0.9519  11.00000  0.05    0.69
Q50   1   0.1800  0.9634 -0.9403  11.00000  0.05    0.67
Q51   1   0.1193  0.7408 -0.5837  11.00000  0.05    0.67
Q52   1   0.1208  0.6791 -0.6388  11.00000  0.05    0.65
Q53   1  -0.0920  0.7474 -0.5356  11.00000  0.05    0.65
Q54   1  -0.0731  0.5819 -0.8049  11.00000  0.05    0.64
Q55   1  -0.0698  0.7884 -0.7805  11.00000  0.05    0.64
Q56   1  -0.0462  0.6980 -0.9506  11.00000  0.05    0.64
Q57   1  -0.0102  0.7918 -0.7870  11.00000  0.05    0.63
Q58   1  -0.0490  0.7081 -1.2164  11.00000  0.05    0.63
Q59   1   0.1197  0.8242 -0.6595  11.00000  0.05    0.63
Q60   1   0.1474  0.8579 -0.9019  11.00000  0.05    0.62
Q61   1   0.2025  0.8346 -0.8669  11.00000  0.05    0.62
Q62   1  -0.1295  0.7376 -0.5863  11.00000  0.05    0.62
Q63   1  -0.0295  0.6420 -0.9549  11.00000  0.05    0.61
Q64   1   0.1229  0.7492 -1.1381  11.00000  0.05    0.61
Q65   1   0.1625  0.8808 -0.6979  11.00000  0.05    0.60
Q66   1  -0.0859  0.9286 -0.8632  11.00000  0.05    0.60
Q67   1   0.1699  0.9033 -0.9651  11.00000  0.05    0.59
Q68   1   0.2001  0.9723 -0.8651  11.00000  0.05    0.59
Q69   1  -0.1418  0.7895 -1.0932  11.00000  0.05    0.59
Q70   1  -0.0462  0.6959 -0.7761  11.00000  0.05    0.58
Q71   1   0.2690  0.8205 -0.6689  11.00000  0.05    0.58
Q72   1   0.1193  0.5725 -1.1504  11.00000  0.05    0.57
Q73   1  -0.1689  0.8297 -1.0813  11.00000  0.05    0.57
Q74   1  -0.1126  0.6650 -1.1992  11.00000  0.05    0.56
Q75   1  -0.0747  0.5812 -0.9204  11.00000  0.05    0.56
Q76   1   0.1677  0.6782 -0.5578  11.00000  0.05    0.56
Q77   1  -0.1173  0.6707 -0.5515  11.00000  0.05    0.55
Q78   1  -0.0121  0.7386 -0.5790  11.00000  0.05    0.55
Q79   1   0.1688  0.9019 -0.7668  11.00000  0.05    0.55
Q80   1   0.1123  0.9470 -1.1670  11.00000  0.05    0.53
;
_shelx_res_checksum              77704
_shelx_hkl_file
;
   1   0   0   -0.34    0.10
   1   0   0   -0.12    0.12
  -1   1   0    0.01    0.26
  -1   1   0   -0.36    0.07
  -1   1   0   -0.27    0.08
   1  -1   0   -0.20    0.28
   1  -1   0   -0.48    0.27
   1  -1   0   -0.31    0.36
  -1   0   0   -0.57    0.27
  -1   0   0   -0.50    0.29
  -2   2   0  204.61    9.76
   2   0   0  195.24    8.63
   2   0   0  204.45    8.59
   2  -2   0  197.62    8.36
   2  -2   0  199.22    8.46
   2  -2   0  228.67    9.89
  -3   1   0   51.67    3.76
  -3   1   0   52.45    4.43
   1   2   0   50.49    3.79
   2  -3   0   46.12    3.38
   2  -3   0   48.70    3.45
   1   2   0   52.69    3.71
   2  -3   0   53.77    4.26
  -3   1   0   51.68    3.77
   3  -1   0   48.29    3.68
  -1  -2   0   54.61    3.84
   3  -1   0   46.03    3.64
   3  -1   0   51.57    4.81
  -2   3   0   52.47    3.25
  -2   3   0   54.21    3.38
  -1  -2   0   50.98    3.78
  -2   3   0   50.29    4.12
  -3   2   0   10.05    2.13
  -3   2   0    3.89    2.01
  -3   2   0    4.64    2.84
   2   1   0    7.65    1.94
   2   1   0    6.48    1.94
  -2  -1   0    9.84    2.06
  -2  -1   0    7.53    2.23
   3  -2   0    5.52    3.19
  -2  -1   0    3.86    1.96
   3  -2   0    8.50    1.93
   3  -2   0    5.24    1.88
   3   0   0  217.47   10.07
   3   0   0  215.90   10.23
  -3   3   0  222.15    9.66
  -3   3   0  226.62    9.82
  -3   3   0  217.83   11.62
   3   0   0  220.49   10.03
  -3   0   0  226.81   10.11
   3  -3   0  209.28    9.78
   3  -3   0  222.37    9.66
   3  -3   0  216.06   11.38
  -3   0   0  234.12   10.20
   3  -4   0  141.79    9.19
  -4   1   0  150.52    8.38
  -4   1   0  153.96    8.55
   3  -4   0  143.66    7.24
   3  -4   0  144.35    7.48
  -4   1   0  153.10    9.83
  -3   4   0  154.21    9.93
  -1  -3   0  146.85    7.52
   4  -1   0  145.94    8.26
   4  -1   0  136.49    9.96
  -3   4   0  159.57    7.15
  -3   4   0  142.95    7.17
   4  -1   0  154.50    8.23
  -1  -3   0  149.46    7.40
  -4   2   0   35.44    3.78
  -4   2   0   32.97    3.71
  -4   2   0   31.82    4.61
   2  -4   0   42.18    2.93
   2  -4   0   38.23    2.83
   2   2   0   41.97    3.64
   2   2   0   34.58    3.36
  -2  -2   0   36.14    4.35
   4  -2   0   39.81    3.80
  -2  -2   0   41.32    3.70
   4  -2   0   39.73    5.19
   4  -2   0   39.09    3.77
  -2  -2   0   34.29    3.54
  -4   3   0  469.33   18.95
   3   1   0  479.90   19.10
  -4   3   0  463.98   19.15
  -4   3   0  461.93   21.85
   3   1   0  472.20   19.24
   4  -3   0  472.28   18.85
  -3  -1   0  467.25   19.15
  -3  -1   0  447.51   20.56
  -3  -1   0  468.97   19.33
   4  -3   0  431.93   21.75
   4  -3   0  469.85   19.05
   4   0   0   37.20    3.23
  -4   4   0   34.41    3.57
   4   0   0   32.42    3.70
  -4   4   0   32.68    3.53
   4   0   0   36.03    3.89
  -4   4   0   43.85    5.22
  -4   0   0   32.18    4.07
   4  -4   0   35.75    4.67
   4  -4   0   33.07    3.34
  -4   0   0   36.16    4.13
   4  -4   0   35.24    3.37
  -5   1   0    0.75    2.90
   4  -5   0    2.65    3.69
  -5   1   0    0.36    2.91
   4  -5   0    4.33    2.27
   4  -5   0    0.91    2.09
   5  -1   0    0.21    2.59
   5  -1   0    0.90    2.68
  -4   5   0    0.71    2.25
  -1  -4   0    1.15    2.15
   5  -1   0   -0.10    1.12
  -1  -4   0    1.75    2.19
  -4   5   0    0.58    2.27
   5  -1   0    6.88    4.54
  -5   2   0    5.89    2.90
   2   3   0   -0.58    2.31
   2   3   0    7.51    2.61
  -5   2   0    3.17    3.74
  -5   2   0    0.27    2.74
   3  -5   0    5.60    2.11
   3  -5   0    4.22    2.00
  -2  -3   0    5.28    2.56
  -2  -3   0    4.41    2.58
  -2  -3   0    6.60    3.67
   5  -2   0    5.91    2.79
   5  -2   0   -0.44    4.46
  -3   5   0    8.99    3.58
   5  -2   0    5.07    2.74
   4   1   0   88.25    6.35
  -5   4   0   90.55    6.38
   4   1   0   88.95    6.32
  -5   4   0   92.05    6.50
  -5   4   0  110.06    8.20
   5  -4   0   76.01    6.19
  -4  -1   0   84.89    6.34
  -4  -1   0   85.21    6.67
  -4  -1   0   95.17    6.03
   5  -4   0  106.95    7.94
   5  -4   0   93.91    6.17
  -5   5   0    5.83    2.75
   5   0   0    1.75    2.66
  -5   5   0    1.71    2.56
   5   0   0    6.74    2.70
   5   0   0   -1.70    2.63
   5   0   0    1.88    4.70
  -5   5   0    2.95    4.08
  -5   0   0    1.59    3.02
  -5   0   0    4.66    3.18
   5  -5   0    2.87    3.97
   5  -5   0    5.01    2.62
   5  -5   0    3.10    2.50
   5  -6   0    3.88    4.06
  -6   1   0    4.37    3.31
  -6   1   0    3.47    3.23
   5  -6   0    2.24    2.42
   5  -6   0    9.80    2.67
   6  -1   0    2.99    1.98
  -1  -5   0    4.53    2.38
   6  -1   0    3.30    2.92
   6  -1   0    2.13    2.85
   6  -1   0    4.42    1.48
  -5   6   0    6.18    4.02
   6  -1   0   -2.63    4.56
  -5   6   0    6.26    2.61
  -5   6   0    6.07    2.66
  -1  -5   0    5.75    2.54
  -6   2   0   84.80    7.15
   4  -6   0   72.70    5.09
   4  -6   0   65.86    5.17
  -6   2   0   76.31    6.16
  -6   2   0   87.56    6.60
  -2  -4   0   71.15    6.51
  -2  -4   0   75.54    5.59
   6  -2   0   87.17    6.92
  -4   6   0   71.26    6.60
  -2  -4   0   74.08    5.93
   6  -2   0   78.34    7.78
   6  -2   0   94.35    6.84
   3  -6   0  339.09   13.43
   3   3   0  313.47   14.51
   3  -6   0  321.82   13.18
  -6   3   0  330.64   14.84
   3   3   0  323.80   14.35
  -6   3   0  308.89   16.93
  -6   3   0  329.45   14.98
   6  -3   0  313.75   14.98
  -3  -3   0  325.65   14.23
  -3   6   0  314.62   16.51
   6  -3   0  310.37   17.18
  -3  -3   0  316.48   15.90
  -3  -3   0  320.69   14.56
   6  -3   0  323.42   14.84
   4   2   0   67.26    5.45
   4   2   0   60.46    5.16
  -6   4   0   50.41    5.00
  -6   4   0   54.39    5.15
  -6   4   0   56.05    6.69
   6  -4   0   65.88    5.29
  -4  -2   0   57.61    5.21
   6  -4   0   65.74    7.04
  -4  -2   0   62.02    5.58
  -4  -2   0   57.11    5.23
   6  -4   0   52.52    4.96
   5   1   0   91.26    7.09
  -6   5   0   90.27    6.81
   5   1   0   92.67    6.75
  -6   5   0   89.23    6.62
  -6   5   0   91.93    8.22
  -5  -1   0   89.21    6.96
   6  -5   0   97.80    6.59
  -5  -1   0   90.37    6.88
   6  -5   0   99.39    6.46
   6  -5   0  108.17    8.51
   6   0   0    0.73    2.90
  -6   6   0    0.78    2.70
  -6   6   0    4.19    2.79
   6   0   0   -1.77    5.15
  -6   6   0   -5.17    4.05
   6   0   0    3.30    2.99
   6  -6   0    5.14    2.71
  -6   0   0    1.91    3.32
   6  -6   0    0.26    4.24
   6  -6   0   10.62    2.86
  -6   0   0    5.69    3.34
   6  -7   0   62.85    5.01
   6  -7   0   63.52    6.97
  -7   1   0   60.68    6.17
  -7   1   0   60.37    6.24
   6  -7   0   58.36    4.86
   7  -1   0   56.32    5.82
  -1  -6   0   51.88    4.75
   7  -1   0   61.14    5.85
  -6   7   0   61.14    5.02
  -6   7   0   58.99    6.77
   7  -1   0   64.64    4.18
  -1  -6   0   52.65    4.61
  -6   7   0   60.65    5.06
   7  -1   0   56.56    7.75
   7  -1   0   61.20    4.03
  -7   2   0  719.27   29.02
   5  -7   0  678.23   27.12
  -7   2   0  727.16   28.55
   5  -7   0  694.76   27.45
  -5   7   0  658.31   27.02
   7  -2   0  694.98   32.44
  -2  -5   0  684.49   27.62
  -2  -5   0  678.69   27.88
  -2  -5   0  657.46   31.60
  -5   7   0  667.35   31.86
   7  -2   0  700.27   28.77
   7  -2   0  693.80   28.48
  -5   7   0  679.28   27.31
  -7   3   0  299.59   16.52
  -7   3   0  284.14   14.19
   3   4   0  298.67   13.88
   3   4   0  311.26   13.80
  -7   3   0  280.52   14.36
   4  -7   0  302.25   12.67
   4  -7   0  308.23   12.89
   7  -3   0  292.55   14.44
  -3  -4   0  294.93   13.84
  -3  -4   0  278.40   15.46
   7  -3   0  304.89   16.91
  -3  -4   0  279.61   13.59
   7  -3   0  291.11   14.18
  -4   7   0  311.68   16.33
   4   3   0   27.98    3.89
  -7   4   0   24.64    4.33
  -7   4   0   17.55    4.06
  -7   4   0   14.86    4.97
   4   3   0   25.34    3.95
  -4  -3   0   28.29    4.49
  -4  -3   0   16.78    3.90
   7  -4   0   30.21    4.36
   7  -4   0   20.98    6.13
  -4  -3   0   23.26    4.00
   7  -4   0   19.04    3.89
  -7   5   0   77.89    6.43
  -7   5   0   80.88    8.30
   5   2   0   74.52    6.28
   5   2   0   80.24    6.50
  -7   5   0   78.50    6.52
   7  -5   0   76.32    6.25
   7  -5   0   74.94    6.14
  -5  -2   0   66.88    6.39
  -5  -2   0   77.72    6.65
  -5  -2   0   74.54    6.03
   7  -5   0   92.15    8.59
  -7   6   0  293.21   13.61
   6   1   0  279.54   14.26
  -7   6   0  281.35   16.72
   6   1   0  277.54   14.13
  -7   6   0  293.96   13.88
   7  -6   0  275.19   16.26
  -6  -1   0  273.87   14.13
   7  -6   0  300.69   13.84
   7  -6   0  293.30   13.40
  -6  -1   0  289.00   14.42
  -7   7   0  462.35   24.09
   7   0   0  476.61   19.64
   0  -7   0  454.54   19.24
  -7   7   0  434.01   19.78
   7   0   0  444.84   23.99
  -7   7   0  442.12   20.10
   7   0   0  479.45   20.86
   0  -7   0  475.38   19.52
   7  -7   0  476.74   20.23
  -7   0   0  484.71   21.35
  -7   0   0  472.11   20.92
   7  -7   0  469.80   23.54
   7  -7   0  484.98   20.05
   7  -8   0    0.21    2.93
  -8   1   0   -2.64    3.65
   7  -8   0   -2.00    2.89
   7  -8   0    8.50    5.35
  -8   1   0   -0.48    3.69
  -1  -7   0    0.82    2.84
   8  -1   0    0.63    1.67
  -7   8   0   -1.33    4.79
  -1  -7   0    0.70    2.70
   8  -1   0   -4.18    5.83
  -7   8   0    4.88    3.41
  -7   8   0    3.27    3.27
  -1  -7   0    9.37    5.11
  -8   2   0  354.42   16.63
   6  -8   0  344.24   15.05
   6  -8   0  343.74   18.59
  -8   2   0  348.75   16.91
   6  -8   0  332.13   15.22
   8  -2   0  340.51   16.42
  -2  -6   0  340.12   18.36
  -6   8   0  344.10   15.07
   8  -2   0  365.42   19.70
  -2  -6   0  344.84   15.48
  -2  -6   0  344.08   15.55
   8  -2   0  349.42   16.30
  -6   8   0  319.41   18.81
  -6   8   0  314.73   14.72
  -8   3   0    3.08    3.77
   5  -8   0    2.00    2.61
   5  -8   0   -1.44    2.52
  -8   3   0    3.82    4.81
  -8   3   0    6.12    3.97
  -3  -5   0    2.50    3.07
   8  -3   0    0.88    3.23
  -5   8   0   10.47    4.35
   8  -3   0   13.37    6.03
  -3  -5   0   -3.67    4.34
  -3  -5   0   -0.06    3.15
   8  -3   0    0.12    3.09
   4  -8   0   94.77    6.16
   4   4   0   80.74    6.71
  -8   4   0   92.32    7.63
   4  -8   0   87.93    5.97
   4   4   0  107.13    7.59
  -8   4   0  111.26    9.50
  -8   4   0  101.17    7.96
  -4  -4   0   94.52    7.72
  -4   8   0  102.12    8.54
   8  -4   0  138.74   11.63
   8  -4   0   98.62    7.76
   8  -4   0   89.32    7.46
  -4  -4   0  101.21    7.43
  -4  -4   0   87.18    8.16
  -8   5   0   59.88    7.44
  -8   5   0   78.23    6.65
   5   3   0   56.01    5.72
   5   3   0   57.97    5.64
  -8   5   0   65.03    6.32
  -5  -3   0   60.54    6.18
   8  -5   0   56.85    5.90
  -5  -3   0   72.83    6.38
  -5  -3   0   66.59    6.25
   8  -5   0   64.85    8.11
   8  -5   0   58.72    5.93
  -8   6   0  123.76   10.79
   6   2   0  121.50    9.07
   6   2   0  127.47    8.99
  -8   6   0  126.85    8.64
  -8   6   0  130.36    9.12
   8  -6   0  119.11    8.48
  -6  -2   0  116.35    8.34
  -6  -2   0  137.91    9.44
   8  -6   0  140.50    8.92
   8  -6   0  125.98   10.63
  -6  -2   0  129.14    9.55
  -8   7   0  231.68   12.37
  -8   7   0  259.58   12.76
  -8   7   0  224.59   15.93
   8  -7   0  220.19   15.07
   8  -7   0  257.65   12.37
  -7  -1   0  213.46   12.75
  -7  -1   0  222.77   12.94
   8  -7   0  242.98   12.49
  -8   8   0   57.07    5.54
   0  -8   0   45.18    4.44
   8   0   0   39.50    7.99
   8   0   0   47.58    4.02
   0  -8   0   47.64    4.50
  -8   8   0   43.18    5.35
   8  -8   0   39.12    6.82
   8  -8   0   46.20    4.97
   8  -8   0   41.84    4.83
  -8   0   0   38.80    5.84
  -8   0   0   49.51    6.15
   8  -9   0  110.55    7.46
  -9   1   0   98.45    8.71
   8  -9   0  108.40    8.37
   8  -9   0  127.47   10.64
  -9   1   0  112.58    8.94
  -8   9   0  109.22    7.49
   9  -1   0   94.78   10.96
  -8   9   0   90.48    7.43
  -1  -8   0   99.00    7.22
  -1  -8   0   97.08    7.21
   9  -1   0  100.19    5.62
   7  -9   0  422.94   18.06
  -9   2   0  410.85   19.96
   7  -9   0  425.74   17.85
  -9   2   0  401.55   19.25
   7  -9   0  384.66   21.66
   9  -2   0  412.72   22.90
  -7   9   0  409.18   17.90
  -2  -7   0  416.56   18.19
  -7   9   0  407.16   17.70
  -2  -7   0  413.52   18.35
  -9   3   0    3.67    4.10
  -9   3   0    8.11    4.32
   6  -9   0    5.71    2.86
   6  -9   0   -0.82    2.62
  -6   9   0    3.35    4.64
  -3  -6   0    6.20    3.41
  -3  -6   0    2.80    4.76
   9  -3   0   13.06    6.52
  -3  -6   0    4.22    3.30
  -9   4   0    1.50    4.22
   5  -9   0    5.56    2.67
   5  -9   0    1.62    2.53
  -9   4   0   -1.64    3.91
   9  -4   0    2.84    5.71
  -4  -5   0    8.95    4.59
  -4  -5   0   -3.15    3.17
  -5   9   0    3.47    4.35
  -4  -5   0    0.53    3.23
  -9   5   0    5.75    4.07
   5   4   0    5.16    3.41
   4  -9   0    5.37    2.43
  -9   5   0    5.26    3.97
   4  -9   0    3.26    2.40
   5   4   0    3.81    3.27
  -5  -4   0   -0.98    3.60
  -4   9   0   -2.20    4.14
   9  -5   0   -1.94    3.40
  -5  -4   0    8.91    4.31
   9  -5   0   -5.05    5.96
  -5  -4   0   -0.42    3.63
   9  -5   0   -2.13    3.33
  -9   6   0  109.43    8.50
  -9   6   0  105.63    8.44
   9  -6   0  104.06    8.24
   9  -6   0  113.66    8.75
   9  -6   0  101.18   10.20
  -6  -3   0  114.04    9.25
  -6  -3   0  125.82    9.35
  -9   7   0   29.42    4.90
  -9   7   0   14.98    4.50
   9  -7   0   23.27    6.34
  -7  -2   0   17.20    4.82
   9  -7   0   17.78    4.02
   9  -7   0   17.82    4.18
  -7  -2   0   11.34    4.57
   8   1   0   19.76    3.60
  -9   8   0   30.25    4.78
  -9   8   0   34.39    5.04
   9  -8   0   14.01    5.92
  -8  -1   0   23.51    5.34
   9  -8   0   25.53    4.39
  -8  -1   0   14.15    4.96
   9  -8   0   24.99    4.29
   0  -9   0  191.65   10.17
   9   0   0  199.29    9.89
   0  -9   0  187.03   10.23
   9   0   0  199.10   14.81
  -9   9   0  197.50   11.42
  -9   9   0  200.09   11.05
  -9   0   0  214.29   12.63
   9  -9   0  201.13   11.05
   9  -9   0  190.55   14.20
  -9   0   0  206.81   12.24
   9  -9   0  188.73   10.80
   9 -10   0    8.24    3.52
   9 -10   0    1.89    3.22
   9 -10   0   -2.64    5.62
 -10   1   0    0.70    4.20
 -10   1   0    0.74    4.26
  -1  -9   0    1.39    3.01
  -9  10   0    4.40    3.55
  -9  10   0    0.58    3.36
  10  -1   0    0.90    5.72
  10  -1   0    1.23    1.56
  -1  -9   0    1.28    3.18
   8 -10   0   11.39    3.45
   8 -10   0    5.01    5.21
 -10   2   0    4.40    4.32
 -10   2   0    4.55    4.42
   8 -10   0    4.72    3.09
  -2  -8   0    6.75    3.37
  10  -2   0   10.35    7.04
  -8  10   0    0.52    3.16
  -8  10   0    4.66    3.35
  -2  -8   0    6.28    3.31
   7 -10   0  250.29   12.56
 -10   3   0  252.36   14.39
 -10   3   0  264.29   14.83
   7 -10   0  263.74   12.81
  -3  -7   0  255.13   13.31
  -3  -7   0  283.59   13.66
  10  -3   0  288.23   17.91
 -10   4   0  104.89    9.02
   6 -10   0  102.37    6.94
 -10   4   0  109.10    9.36
   6 -10   0   96.34    7.27
  -4  -6   0  103.97    8.22
  -4  -6   0  105.48    9.46
  10  -4   0  123.10   11.58
  -4  -6   0  106.72    8.49
   5 -10   0   78.62    5.96
   5 -10   0   82.21    6.18
 -10   5   0   74.38    7.54
 -10   5   0   84.15    7.90
  -5  -5   0   75.11    7.18
  -5  -5   0   77.47    7.33
  10  -5   0   79.59   10.02
  -5  -5   0   80.82    7.55
 -10   6   0  512.06   20.68
   4 -10   0  526.27   20.95
 -10   6   0  504.27   23.01
   4 -10   0  503.59   20.66
  -6  -4   0  475.32   24.19
  -6  -4   0  498.86   22.73
  10  -6   0  510.73   26.60
  -6  -4   0  533.84   23.28
 -10   7   0  204.61   12.32
 -10   7   0  220.55   12.24
  -7  -3   0  218.10   12.80
  10  -7   0  214.19   15.10
  -7  -3   0  219.70   12.99
  -7  -3   0  196.35   12.14
 -10   8   0   89.91    7.98
 -10   8   0   96.47    8.03
  10  -8   0  103.24   10.26
  -8  -2   0   91.42    8.75
  -8  -2   0   99.47    8.83
   1 -10   0  198.90    9.91
   1 -10   0  187.66    9.60
 -10   9   0  185.58   11.12
   9   1   0  194.57   15.54
   9   1   0  191.70   10.58
 -10   9   0  199.28   11.66
  -9  -1   0  178.59   11.93
  -9  -1   0  179.52   12.26
  10  -9   0  182.70   13.55
  10   0   0   62.88    4.88
 -10  10   0   66.89    6.87
 -10  10   0   70.79    6.94
   0 -10   0   68.65    5.86
  10   0   0   77.62   10.32
   0 -10   0   82.45    6.14
 -10   0   0   57.98    7.51
  10 -10   0   55.82    8.70
  10 -10   0   67.50    6.53
 -10   0   0   65.83    7.79
  10 -10   0   74.64    6.81
  10 -11   0   16.55    4.20
  10 -11   0   21.81    4.47
  10 -11   0   27.12    7.24
 -11   1   0   29.03    6.03
 -11   1   0   32.56    6.22
  -1 -10   0   29.98    4.51
 -10  11   0   23.35    4.82
  11  -1   0   20.86    7.33
  11  -1   0   18.14    2.29
 -10  11   0   23.72    4.97
  -1 -10   0   24.07    4.22
 -11   2   0    2.32    4.48
 -11   2   0    6.23    4.94
   9 -11   0    8.22    3.59
   9 -11   0    4.46    5.93
   9 -11   0    8.27    3.60
  -2  -9   0   15.76    4.12
  11  -2   0   13.82    7.83
  -9  11   0    4.96    3.65
  -2  -9   0   14.11    3.81
  -9  11   0    7.84    3.78
   8 -11   0  103.66    7.59
 -11   3   0   90.72    8.96
   8 -11   0   99.33    7.41
 -11   3   0  100.45    9.44
  -3  -8   0   88.03    7.58
  -3  -8   0  110.27    8.42
  11  -3   0   93.43   11.59
   7 -11   0    6.55    3.14
 -11   4   0    9.41    4.93
   7 -11   0    2.16    3.02
 -11   4   0    9.15    4.78
  -4  -7   0    3.91    3.76
  -4  -7   0    6.47    3.88
  11  -4   0    2.01    6.49
 -11   5   0  179.02   12.12
   6 -11   0  155.77    9.01
   6 -11   0  169.19    8.85
 -11   5   0  150.24   11.00
  -5  -6   0  151.14   10.85
  -5  -6   0  156.43   10.59
  11  -5   0  174.76   14.19
 -11   6   0  253.26   14.59
 -11   6   0  241.96   13.99
   5 -11   0  266.79   11.95
   5 -11   0  268.22   11.83
  11  -6   0  221.74   16.90
  -6  -5   0  251.24   14.55
  -6  -5   0  258.68   14.23
  -6  -5   0  227.03   13.76
 -11   7   0    8.91    4.40
 -11   7   0    1.99    4.45
 -11   7   0    8.33    2.24
  -7  -4   0   11.53    4.79
  11  -7   0   -0.44    6.03
  -7  -4   0    3.59    4.56
  -7  -4   0    8.36    4.73
 -11   8   0   38.37    6.16
 -11   8   0   47.91    6.45
  -8  -3   0   44.20    6.60
  -8  -3   0   45.68    6.81
  11  -8   0   58.88    8.50
 -11   9   0   82.43    7.90
   9   2   0   62.54    6.34
 -11   9   0   79.03    7.59
  -9  -2   0   82.64    8.63
  -9  -2   0   78.00    8.23
  11  -9   0   68.13    9.24
   1 -11   0  533.15   22.47
  10   1   0  515.30   23.08
  10   1   0  518.96   29.22
 -11  10   0  539.15   24.12
   1 -11   0  536.59   22.32
 -11  10   0  533.55   23.61
 -10  -1   0  552.10   24.88
 -10  -1   0  534.39   25.15
  11 -10   0  525.95   27.84
 -11  11   0   63.55    6.92
   0 -11   0   59.24    5.57
  11   0   0   57.26   10.18
 -11  11   0   57.21    6.74
  11   0   0   48.95    4.39
   0 -11   0   64.74    5.75
  11 -11   0   58.13    9.07
 -11   0   0   75.21    8.41
 -11   0   0   61.12    8.10
 -12   1   0   77.28    8.88
 -12   1   0   93.47    9.65
  11 -12   0   83.72   10.50
  12  -1   0   83.63    4.59
 -11  12   0   78.33    7.52
 -11  12   0   86.70    8.02
  -1 -11   0   97.14    7.48
  12  -1   0   77.04   12.16
  -1 -11   0   98.15    7.73
 -12   2   0   81.78    9.24
  10 -12   0   91.79    7.40
 -12   2   0  107.10   10.00
  10 -12   0   98.20    7.62
  -2 -10   0  103.89    7.86
 -10  12   0  106.18    8.27
  -2 -10   0  102.84    8.06
 -10  12   0   86.95    7.60
  12  -2   0   89.17   12.09
 -12   3   0   23.14    6.02
 -12   3   0   10.62    5.58
   9 -12   0   16.82    4.06
   9 -12   0   21.17    4.09
  12  -3   0   31.53    9.20
  -3  -9   0   33.69    5.16
  -3  -9   0   17.56    4.25
   8 -12   0   18.71    3.86
 -12   4   0   24.82    6.05
 -12   4   0   20.02    6.09
   8 -12   0   31.38    4.24
  -4  -8   0   22.73    4.91
  -4  -8   0   23.66    4.84
  12  -4   0   18.49    8.14
   7 -12   0   84.69    6.63
   7 -12   0   89.42    6.76
 -12   5   0   92.72    9.26
 -12   5   0   80.48    8.64
  -5  -7   0   86.51    8.26
  12  -5   0   84.48   11.80
  -5  -7   0   89.48    8.29
 -12   6   0    0.25    4.77
 -12   6   0    0.94    4.58
   6 -12   0   -3.13    2.36
   6 -12   0   -1.80    2.58
  -6  -6   0    0.43    4.14
  12  -6   0    5.94    7.26
  -6  -6   0   -1.50    3.94
 -12   7   0   40.39    6.57
   5 -12   0   46.91    4.37
   5 -12   0   48.58    4.45
 -12   7   0   48.54    7.09
  -7  -5   0   41.96    6.31
  12  -7   0   51.89    9.21
  -7  -5   0   52.61    7.16
  -7  -5   0   52.17    6.99
 -12   8   0    9.32    4.69
 -12   8   0   -1.90    2.33
 -12   8   0    4.34    4.74
  -8  -4   0   -5.60    4.36
  12  -8   0   17.89    6.87
  -8  -4   0   -0.55    4.30
  -8  -4   0    1.36    4.44
 -12   9   0   12.90    5.31
 -12   9   0   12.33    5.15
  -9  -3   0   15.32    5.54
  -9  -3   0    6.47    5.03
  12  -9   0   19.30    7.15
   2 -12   0   27.13    3.70
   2 -12   0   19.34    3.44
  10   2   0   13.96    4.01
  10   2   0   19.80    8.49
 -12  10   0   20.64    5.61
 -12  10   0   23.63    5.49
 -10  -2   0   23.04    5.91
 -10  -2   0   12.25    5.62
  12 -10   0   20.46    7.02
  11   1   0  113.77   13.07
   1 -12   0  119.39    7.85
  11   1   0   97.58    7.64
   1 -12   0  110.55    7.55
 -12  11   0   96.52    8.81
 -12  11   0   94.14    8.92
  12 -11   0  120.12   12.22
 -11  -1   0  105.49   10.23
 -11  -1   0  100.03    9.94
 -12  12   0    3.10    4.86
  12   0   0    3.94    2.46
   0 -12   0    4.48    3.37
 -12  12   0    5.74    4.85
   0 -12   0   11.48    3.62
  12   0   0   -0.89    8.55
 -12   0   0   -2.74    5.20
  12 -12   0    3.39    6.89
 -12   0   0    8.62    5.38
 -13   1   0   26.43    6.96
 -13   1   0   27.88    7.20
  12 -13   0   21.70    8.01
 -12  13   0   22.29    5.38
  -1 -12   0   29.01    5.00
  -1 -12   0   32.03    5.02
  13  -1   0   24.87    9.00
 -12  13   0   29.48    5.82
 -13   2   0   13.70    6.50
 -13   2   0    9.25    6.18
  -2 -11   0   17.82    4.42
  13  -2   0   24.13    9.65
  -2 -11   0   18.63    4.57
 -13   3   0   97.16   10.22
 -13   3   0   88.49    9.70
  10 -13   0  108.41    7.83
  10 -13   0  106.07    8.39
  -3 -10   0   82.26    7.61
  -3 -10   0   89.72    7.86
  13  -3   0   70.69   12.45
 -13   4   0   52.17    8.09
 -13   4   0   52.52    7.99
   9 -13   0   57.55    5.50
   9 -13   0   57.38    5.52
  -4  -9   0   48.62    6.42
  13  -4   0   31.58    9.59
  -4  -9   0   44.10    6.17
   8 -13   0  302.83   14.36
   8 -13   0  303.06   14.27
 -13   5   0  308.23   17.42
  13  -5   0  296.89   20.71
  -5  -8   0  306.43   16.32
  -5  -8   0  305.87   16.53
 -13   6   0   37.39    6.83
   7 -13   0   30.27    3.97
 -13   6   0   27.94    6.30
   7 -13   0   27.04    3.83
  -6  -7   0   31.34    5.94
  -6  -7   0   15.94    5.25
   6 -13   0    8.74    2.84
   6 -13   0    7.43    2.90
 -13   7   0    9.05    5.47
 -13   7   0    7.60    5.30
  -7  -6   0    3.22    4.97
  -7  -6   0    2.22    4.88
  13  -7   0    5.80    7.44
 -13   8   0   20.86    6.11
   5 -13   0   27.27    3.65
   5 -13   0   23.04    3.58
 -13   8   0   28.40    6.32
  -8  -5   0   33.63    6.39
  13  -8   0   25.50    8.02
  -8  -5   0   23.14    6.11
  -8  -5   0   17.88    5.60
 -13   9   0   59.31    7.51
 -13   9   0   56.27    7.52
 -13   9   0   50.13    4.46
  -9  -4   0   54.52    7.61
  13  -9   0   48.74    9.14
  -9  -4   0   54.07    7.80
 -13  10   0   27.43    6.27
  10   3   0   16.51    4.57
 -13  10   0   31.55    6.28
 -13  10   0   18.27    4.11
 -10  -3   0   20.35    6.02
  13 -10   0   20.40    8.18
 -10  -3   0   18.08    6.14
 -13  11   0    3.49    4.87
 -13  11   0    0.76    5.14
  11   2   0    1.01    3.43
   2 -13   0    2.83    2.88
   2 -13   0   -0.33    2.73
  11   2   0   -4.44    8.29
  13 -11   0   -4.94    6.96
 -11  -2   0    4.01    5.42
 -11  -2   0    5.62    5.40
   1 -13   0  108.35    7.60
  12   1   0   83.01   12.85
   1 -13   0   94.81    7.58
 -13  12   0  107.32    9.59
 -13  12   0   98.55    9.33
  12   1   0   88.27    7.57
 -12  -1   0   82.10    9.82
 -12  -1   0   89.16    9.84
  13 -12   0  100.85   11.98
  13   0   0   24.86   10.54
 -13  13   0   14.20    5.66
   0 -13   0   11.46    3.78
 -13  13   0    9.61    5.26
   0 -13   0   10.31    3.83
 -13   0   0   14.62    6.07
  13 -13   0    3.40    8.08
 -13   0   0    7.38    6.19
 -14   1   0   -0.59    5.95
  13 -14   0   -8.15    7.40
 -14   1   0    3.91    6.30
 -13  14   0   -4.04    4.96
  14  -1   0    8.45    8.24
  -1 -13   0    5.25    3.87
  -1 -13   0    3.03    3.74
 -13  14   0    3.36    4.90
 -14   2   0   54.16    9.05
 -14   2   0   30.80    7.66
  14  -2   0   49.27   11.83
  -2 -12   0   62.06    6.73
  -2 -12   0   48.73    6.14
 -14   3   0   20.13    6.76
 -14   3   0   28.14    7.40
  14  -3   0    9.36    8.73
  -3 -11   0   10.45    4.40
  -3 -11   0   14.82    4.70
 -14   4   0    1.21    5.65
 -14   4   0   -3.10    5.61
  10 -14   0    2.92    3.55
  10 -14   0    4.76    3.44
  -4 -10   0    8.54    4.57
  14  -4   0   -0.70    8.54
  -4 -10   0   11.53    4.47
   9 -14   0   16.62    3.80
 -14   5   0   34.52    7.14
   9 -14   0   16.84    3.71
 -14   5   0   22.02    7.17
  14  -5   0   30.11    9.90
  -5  -9   0   21.16    5.34
  -5  -9   0   14.90    4.99
   8 -14   0  151.34    8.80
 -14   6   0  154.72   12.35
   8 -14   0  127.12    8.67
 -14   6   0  137.49   11.94
  14  -6   0  142.81   15.08
  -6  -8   0  146.54   11.82
  -6  -8   0  114.89   10.52
   7 -14   0  144.32    8.65
 -14   7   0  136.56   11.96
 -14   7   0  158.35   12.26
   7 -14   0  129.88    8.71
  -7  -7   0  140.89   11.68
  14  -7   0  107.03   13.33
  -7  -7   0  153.37   11.90
   6 -14   0   57.93    5.15
 -14   8   0   49.73    7.84
 -14   8   0   60.69    8.49
   6 -14   0   61.75    5.31
  -8  -6   0   64.78    8.31
  14  -8   0   46.33    9.93
  -8  -6   0   90.41    9.13
 -14   9   0  188.64   13.69
 -14   9   0  189.71   12.99
   5 -14   0  203.94   10.18
   5 -14   0  198.99   10.39
  -9  -5   0  210.35   13.26
  14  -9   0  189.61   15.87
  -9  -5   0  186.24   13.59
 -14  10   0   -3.79    2.80
 -14  10   0   -4.75    5.17
 -14  10   0    0.48    5.63
 -10  -4   0    0.38    5.15
 -10  -4   0   -0.90    5.32
  14 -10   0    3.71    7.72
 -14  11   0   -2.15    5.35
  11   3   0    7.04    9.59
 -14  11   0    4.72    3.79
   3 -14   0    7.45    3.11
 -14  11   0    3.14    5.87
  11   3   0    1.21    4.09
   3 -14   0    4.04    2.84
  14 -11   0   -7.88    7.10
 -11  -3   0    2.42    5.36
 -11  -3   0    5.53    5.77
 -14  12   0   10.86    6.43
  12   2   0   18.13    8.62
   2 -14   0   16.97    3.75
 -14  12   0   13.43    6.24
   2 -14   0   16.78    3.71
 -12  -2   0   21.21    6.77
 -12  -2   0    7.43    6.31
  14 -12   0   12.90    8.40
  13   1   0   63.82   12.28
   1 -14   0   57.58    5.95
   1 -14   0   66.66    6.38
 -14  13   0   71.41    8.45
 -14  13   0   53.04    8.11
  14 -13   0   30.67    9.47
 -13  -1   0   57.30    8.65
 -13  -1   0   65.77    9.30
   0 -14   0   32.96    5.30
 -14  14   0   45.69    7.49
  14   0   0   34.98   11.88
 -14  14   0   42.02    7.05
   0 -14   0   33.74    5.30
 -14   0   0   32.25    7.93
  14 -14   0   34.79    9.65
 -14   0   0   30.02    7.76
 -15   1   0   37.25    8.45
 -15   1   0   42.61    9.23
  14 -15   0   39.51    9.82
 -14  15   0   42.89    7.29
 -14  15   0   40.96    7.03
  -1 -14   0   43.30    5.99
  15  -1   0   36.66   12.02
  -1 -14   0   48.16    6.05
 -15   2   0   16.22    6.84
 -15   2   0   11.67    7.24
  -2 -13   0    8.43    4.51
  -2 -13   0    6.24    4.28
  15  -2   0   -7.33    9.53
 -15   3   0    6.82    6.69
 -15   3   0    4.41    6.77
  -3 -12   0    0.74    4.19
  -3 -12   0    0.76    4.32
  15  -3   0    0.31    8.77
 -15   4   0   13.41    6.71
 -15   4   0   12.93    6.99
  -4 -11   0   14.88    5.16
  -4 -11   0    6.37    4.65
  15  -4   0   12.62   10.32
 -15   5   0    0.06    6.34
 -15   5   0   -0.35    5.85
  -5 -10   0    0.00    4.42
  -5 -10   0    2.66    4.36
  15  -5   0   -0.82    9.54
 -15   6   0  138.51   12.34
 -15   6   0  142.12   12.86
  -6  -9   0  130.73   11.19
  15  -6   0  165.32   16.56
  -6  -9   0  128.57   11.24
 -15   7   0   24.89    7.52
 -15   7   0   21.04    7.08
  -7  -8   0   34.60    6.91
  15  -7   0   28.92    9.70
  -7  -8   0   30.07    6.70
 -15   8   0   -6.42    5.94
 -15   8   0   -8.64    5.26
  -8  -7   0    3.42    5.46
  15  -8   0   -2.35    7.88
  -8  -7   0    3.39    5.44
 -15   9   0   38.08    7.50
 -15   9   0   36.01    7.86
  -9  -6   0   39.31    7.20
  -9  -6   0   25.98    7.07
  15  -9   0   26.83    9.82
 -15  10   0   20.68    7.28
 -15  10   0   38.66    7.52
 -10  -5   0   34.10    7.37
  15 -10   0   25.02    9.09
 -10  -5   0   28.32    7.06
 -15  11   0   -6.88    5.84
   4 -15   0   -1.05    2.76
   4 -15   0    1.47    2.64
 -15  11   0   -3.76    5.59
  15 -11   0   -3.26    7.58
 -11  -4   0    2.85    5.60
 -11  -4   0    1.37    5.69
   3 -15   0    5.21    3.03
 -15  12   0    5.57    6.35
   3 -15   0    1.51    2.82
 -15  12   0    8.12    6.06
  12   3   0   10.81    9.92
 -12  -3   0   -2.35    5.58
 -12  -3   0   11.36    6.56
  15 -12   0    3.57    7.90
  13   2   0   43.57   11.50
   2 -15   0   56.93    5.75
 -15  13   0   39.44    7.69
 -15  13   0   48.85    8.20
   2 -15   0   57.16    5.67
 -13  -2   0   50.70    9.01
 -13  -2   0   32.77    7.85
  15 -13   0   36.18    9.83
 -15  14   0    1.87    5.73
   1 -15   0   -2.37    3.20
 -15  14   0    6.96    5.77
   1 -15   0    0.34    3.33
  14   1   0  -13.93    9.41
  15 -14   0   -3.87    8.21
 -14  -1   0   -4.19    5.72
 -14  -1   0  -15.36    5.28
 -15  15   0   12.62    6.22
 -15  15   0   -1.92    5.39
   0 -15   0   -3.00    3.60
  15   0   0    3.12    8.93
   0 -15   0    4.80    3.94
  15 -15   0   11.40    8.93
 -15   0   0    2.68    7.10
 -15   0   0    7.31    6.84
 -16   1   0    8.71    7.07
 -16   1   0   19.21    8.28
  -1 -15   0   26.37    5.32
  16  -1   0   17.54   11.71
  -1 -15   0   23.37    5.33
 -16   2   0  147.61   13.89
 -16   2   0  146.65   14.28
  -2 -14   0  140.96   10.71
  -2 -14   0  133.93   10.69
 -16   3   0   30.45    8.50
 -16   3   0   28.77    8.66
  16  -3   0   38.14   12.42
  -3 -13   0   33.65    6.08
  -3 -13   0   26.47    5.88
 -16   4   0   14.71    7.11
 -16   4   0    6.41    7.41
  -4 -12   0   29.65    6.21
  -4 -12   0   22.97    5.72
  16  -4   0   28.64   11.31
 -16   5   0   16.26    7.11
 -16   5   0   37.04    8.43
  -5 -11   0    9.34    5.13
  -5 -11   0   22.70    5.75
  16  -5   0   23.99   11.42
 -16   6   0   38.74    8.86
 -16   6   0   45.52    8.41
  -6 -10   0   43.01    7.54
  16  -6   0   42.44   11.21
  -6 -10   0   34.78    6.86
 -16   7   0   -8.16    6.50
 -16   7   0    3.91    6.54
  16  -7   0    4.87    8.88
  -7  -9   0    7.73    5.24
  -7  -9   0    0.93    5.05
 -16   8   0    6.96    6.35
 -16   8   0    0.37    6.42
  -8  -8   0   12.70    5.96
  -8  -8   0    1.54    5.55
  16  -8   0   12.62    9.20
 -16   9   0  171.89   13.42
  16  -9   0   99.29   13.23
  -9  -7   0  137.28   12.11
  -9  -7   0  152.62   12.86
 -16  10   0   -7.06    6.15
 -16  10   0    6.50    6.25
 -10  -6   0    0.35    5.65
 -10  -6   0   -1.38    5.32
  16 -10   0   14.08    9.22
 -16  11   0   36.96    8.42
 -16  11   0   28.70    7.66
 -11  -5   0   40.66    7.87
  16 -11   0   23.16    9.83
 -11  -5   0   48.46    8.39
   4 -16   0   12.39    3.61
  12   4   0    9.85   10.24
   4 -16   0   25.12    3.86
 -16  12   0   12.60    6.60
 -16  12   0   29.48    8.01
 -12  -4   0   19.72    7.02
  16 -12   0   16.92    9.28
 -12  -4   0   13.76    6.61
  13   3   0   -8.85    8.00
 -16  13   0    4.43    6.36
 -16  13   0  -12.00    6.02
 -13  -3   0    2.38    6.33
  16 -13   0   -6.64    8.46
 -13  -3   0   -2.45    5.65
  14   2   0    7.18   10.59
 -16  14   0   30.38    7.64
 -16  14   0   17.58    7.18
  16 -14   0   23.75    9.58
 -14  -2   0   24.24    7.86
 -14  -2   0   17.35    6.95
  15   1   0   -8.48    8.37
 -16  15   0    4.51    6.49
 -16  15   0    1.68    5.65
 -15  -1   0    0.42    6.60
  16 -15   0    2.52    9.30
 -15  -1   0    9.49    6.89
 -16  16   0   -0.75    5.61
  16   0   0    7.69   11.25
 -16  16   0    2.12    6.23
 -16   0   0    0.49    7.22
  16 -16   0   16.51    9.38
 -16   0   0   -2.22    6.46
 -17   1   0   64.71   11.50
 -17   1   0   77.03   11.26
  17  -1   0   60.17   14.72
 -17   2   0   74.22   11.45
 -17   2   0   61.32   10.44
  17  -2   0   22.83   10.74
  -2 -15   0   81.91    8.18
  -2 -15   0   66.13    7.58
 -17   3   0    7.36    7.88
 -17   3   0    6.39    7.03
  -3 -14   0    3.63    4.85
  -3 -14   0    9.51    5.33
  17  -3   0   31.63   11.95
 -17   4   0   -9.65    5.97
 -17   4   0    1.00    7.24
  -4 -13   0    3.51    4.70
  17  -4   0   -6.50    8.70
  -4 -13   0    7.47    5.28
 -17   5   0   49.57   10.04
 -17   5   0   68.05   10.33
  17  -5   0   54.11   13.63
  -5 -12   0   52.44    7.91
  -5 -12   0   65.00    8.14
 -17   6   0  191.33   16.51
 -17   6   0  189.43   15.03
  17  -6   0  176.35   18.26
  -6 -11   0  217.42   14.67
  -6 -11   0  231.34   14.65
 -17   7   0   14.62    8.14
 -17   7   0   24.46    7.95
  -7 -10   0   21.22    6.27
  -7 -10   0   28.38    6.14
  17  -7   0   22.90   10.52
 -17   8   0   80.50   10.79
 -17   8   0   46.69    9.11
  -8  -9   0   59.34    8.69
  17  -8   0   41.86   10.67
  -8  -9   0   52.27    8.64
 -17   9   0  103.49   11.94
 -17   9   0   88.41   10.87
  -9  -8   0  116.24   11.51
  17  -9   0   60.88   11.45
  -9  -8   0   92.15   10.20
 -17  10   0    6.63    6.66
 -17  10   0    2.15    6.95
  17 -10   0    2.84    8.83
 -10  -7   0    2.42    5.67
 -10  -7   0    4.48    6.00
 -17  11   0   -4.35    6.07
 -17  11   0   -1.27    6.88
  17 -11   0   -9.78    8.49
 -11  -6   0    3.90    6.11
 -11  -6   0   -8.70    5.20
 -17  12   0   30.60    8.47
 -17  12   0   18.54    7.45
  17 -12   0   21.10    8.06
 -12  -5   0   35.97    8.33
 -12  -5   0   27.94    7.88
 -17  13   0   83.47   10.12
 -17  13   0   89.63   10.67
  13   4   0   89.99   14.52
 -13  -4   0   54.43    9.22
 -13  -4   0   87.53   11.07
  17 -13   0   67.95   10.84
  14   3   0   22.68   11.65
 -17  14   0   58.88    9.29
 -17  14   0   33.58    7.91
  17 -14   0   29.27   10.85
 -14  -3   0   30.25    8.41
 -14  -3   0   43.51    8.55
 -17  15   0   97.75   10.32
 -17  15   0  103.54   10.57
  15   2   0   97.07   15.80
 -15  -2   0   97.24   11.97
  17 -15   0   65.18   12.30
 -15  -2   0   87.48   11.36
 -17  16   0   14.00    6.67
  16   1   0   28.67   11.13
 -17  16   0    3.11    6.81
  17 -16   0   21.72    9.92
 -16  -1   0    6.44    7.89
 -16  -1   0   18.66    7.93
 -17  17   0   24.38    7.45
 -17  17   0    7.55    6.90
  17   0   0   11.49   12.22
  17 -17   0   24.22   11.11
 -17   0   0    8.92    8.51
 -17   0   0    9.10    7.89
 -18   2   0   -1.28    7.46
 -18   2   0   -9.87    6.46
  18  -2   0    3.19   10.76
 -18   3   0   24.38    8.62
 -18   3   0   19.87    8.71
  18  -3   0   35.09   12.83
 -18   4   0   18.93    8.67
 -18   4   0   -2.93    6.78
  18  -4   0   -8.76    9.72
  -4 -14   0    2.35    5.04
  -4 -14   0   -1.44    5.10
 -18   5   0   -2.79    6.74
 -18   5   0    7.17    8.39
  18  -5   0   15.61   11.18
  -5 -13   0   11.66    5.36
  -5 -13   0   14.95    5.67
 -18   6   0   25.35    9.17
 -18   6   0   15.24    7.89
  -6 -12   0   11.57    5.84
  -6 -12   0   11.20    5.59
  18  -6   0   -6.34   10.27
 -18   7   0   33.79    9.26
 -18   7   0   31.45    8.80
  -7 -11   0   31.16    7.09
  -7 -11   0   31.87    7.29
  18  -7   0   10.19   10.93
 -18   8   0   -6.50    7.28
 -18   8   0    3.29    7.03
  -8 -10   0    1.24    6.01
  18  -8   0   -3.92   10.08
  -8 -10   0    0.98    6.15
 -18   9   0   -6.86    7.21
 -18   9   0   -7.61    6.43
  18  -9   0   -9.15    9.25
  -9  -9   0   -9.12    5.56
  -9  -9   0    4.01    6.08
 -18  10   0   81.58   11.20
 -18  10   0   99.04   11.36
 -10  -8   0   99.13   10.96
  18 -10   0   57.08   11.39
 -10  -8   0  101.68   11.19
 -18  11   0   38.79    9.01
 -18  11   0   29.05    8.99
  18 -11   0   19.50    8.78
 -11  -7   0   37.46    8.22
 -11  -7   0   52.76    8.89
 -18  12   0  103.21   11.89
 -18  12   0   81.71   10.60
 -12  -6   0   86.84   11.23
 -12  -6   0   82.19   10.38
  13   5   0   38.91   12.96
 -18  13   0   51.87    9.55
 -18  13   0   28.86    8.05
 -13  -5   0   31.57    8.42
  18 -13   0   20.40    8.43
 -13  -5   0   33.57    8.04
 -18  14   0   -4.11    6.56
  14   4   0    5.55    9.36
 -18  14   0  -12.40    6.79
  18 -14   0  -14.15    8.60
 -14  -4   0    3.31    6.82
 -14  -4   0    0.44    6.04
 -18  15   0    9.76    7.63
  15   3   0   13.25   11.49
 -18  15   0    2.40    6.80
  18 -15   0   -2.82    9.54
 -15  -3   0    7.93    7.36
 -15  -3   0   -8.31    6.19
 -18  16   0   36.87    8.59
  16   2   0   37.16   13.74
 -18  16   0   51.04    8.83
 -16  -2   0   38.03    9.16
 -16  -2   0   41.43    9.87
  18 -16   0   22.31   11.23
 -19   5   0    4.40    8.80
 -19   5   0   24.37    8.75
  -5 -14   0   12.51    6.04
  -5 -14   0    9.61    5.68
  19  -5   0    6.61   11.43
 -19   6   0   14.91    8.22
 -19   6   0   25.47    9.61
  19  -6   0   25.96   12.16
  -6 -13   0   17.35    6.26
  -6 -13   0   15.44    5.77
 -19   7   0   10.59    8.69
 -19   7   0   11.08    7.95
  -7 -12   0   -2.00    5.21
  -7 -12   0    2.17    5.42
  19  -7   0    7.83   11.20
 -19   8   0  119.12   13.86
 -19   8   0  103.09   12.63
  19  -8   0   94.65   14.15
  -8 -11   0  130.53   12.24
  -8 -11   0  124.24   11.88
 -19   9   0   12.99    8.56
 -19   9   0   17.57    8.14
  -9 -10   0   22.53    7.24
  -9 -10   0   23.19    7.34
  19  -9   0   24.00   10.06
 -19  10   0    3.61    7.83
 -19  10   0   -7.98    6.52
 -10  -9   0   -7.53    6.15
 -10  -9   0   -5.24    5.70
  19 -10   0    8.09   10.36
 -19  11   0   -3.29    7.78
 -19  11   0  -10.14    6.64
 -11  -8   0    0.99    6.60
  19 -11   0    4.60   10.20
 -11  -8   0   -3.37    6.06
 -19  12   0   -4.40    7.74
 -19  12   0   10.35    7.26
 -12  -7   0   10.42    7.24
  19 -12   0   10.82   10.92
 -12  -7   0    3.86    6.67
 -19  13   0    1.16    7.16
 -19  13   0   -2.47    7.74
  13   6   0    0.68   11.38
 -13  -6   0   11.49    7.04
 -13  -6   0    2.59    7.11
  19 -13   0    5.96    9.93
 -19  14   0    4.67    8.08
  14   5   0   20.19   11.75
 -19  14   0   12.92    7.76
  19 -14   0    7.68   10.17
 -14  -5   0   10.44    7.12
 -14  -5   0   27.45    8.43
  -1  -1  -1    2.11    1.44
   2  -1  -1   -0.30    1.31
   2  -1  -1    3.25    1.90
   2  -1  -1    0.61    0.97
   2  -1  -1    4.21    1.48
  -1   2  -1   -0.44    1.75
  -2   1   1    0.55    1.47
   1   1   1    2.79    1.42
   1  -2   1    2.33    2.29
  -2   1   1   -0.49    1.43
   3  -2  -1  153.07    7.81
  -2  -1  -1  165.83    8.25
  -1   3  -1  160.04    9.57
  -2  -1  -1  161.10    7.81
  -2  -1  -1  158.78    7.84
   3  -2  -1  163.04    7.51
   3  -2  -1  154.90    8.01
   3  -2  -1  165.74    9.23
   2   1   1  168.92    8.23
  -3   2   1  156.88    8.92
   1  -3   1  163.97    9.33
  -3   2   1  168.85    7.23
  -3   2   1  156.34    7.87
  -3   2   1  161.33    7.76
   2  -2  -1   69.92    4.17
   2  -2  -1   61.90    4.68
   2  -2  -1   70.57    4.24
   0   2  -1   65.83    3.22
   0   2  -1   65.14    5.11
  -2   0  -1   67.96    4.21
  -2   0  -1   71.59    3.75
  -2   0  -1   72.14    4.19
   0   2  -1   68.69    3.30
  -2   0  -1   59.78    4.52
   2  -2  -1   63.62    4.09
  -2   2   1   69.48    4.06
   0  -2   1   67.70    3.47
  -2   2   1   63.87    4.27
  -2   2   1   72.41    4.22
   2   0   1   70.36    3.70
   2   0   1   76.69    5.32
  -2   2   1   67.58    4.86
   0  -2   1   71.12    3.34
   0  -2   1   74.81    5.18
   1   1  -1    0.36    0.98
   1  -2  -1    2.41    1.59
  -2   1  -1   -0.07    1.64
  -2   1  -1    0.02    1.21
  -2   1  -1    3.03    1.24
   1   1  -1   -0.02    0.96
  -1   2   1    3.63    1.24
  -1   2   1   -0.34    1.14
  -1  -1   1    1.17    1.36
   2  -1   1    3.30    1.28
  -1  -1   1    2.77    1.36
   2  -1   1    2.35    1.25
   2  -1   1   -0.83    2.09
  -2   2  -1   74.40    3.66
   2   0  -1   68.83    4.42
  -2   2  -1   71.41    3.54
  -2   2  -1   70.73    5.24
   2   0  -1   71.06    4.31
  -2   2  -1   69.78    4.53
   2  -2   1   71.62    3.68
   2  -2   1   72.57    3.75
   2  -2   1   75.33    4.88
   0   2   1   71.86    5.15
  -2   0   1   67.63    4.46
   2  -2   1   66.41    5.60
  -2   0   1   73.25    4.39
  -2   3  -1   37.82    2.70
   3  -1  -1   48.79    3.91
  -2   3  -1   59.82    4.76
  -2   3  -1   54.81    4.91
  -2   3  -1   38.28    2.80
   3  -1  -1   47.30    3.84
  -3   1   1   47.81    3.93
   2  -3   1   54.73    2.83
  -3   1   1   55.46    4.19
   2  -3   1   53.28    2.71
   1   2   1   52.45    4.20
   2  -3   1   57.17    4.97
   4  -2  -1   70.36    5.69
   4  -2  -1   69.11    4.05
  -2  -2  -1   59.57    4.78
   4  -2  -1   72.29    5.56
   4  -2  -1   63.17    6.14
  -2  -2  -1   67.94    4.99
  -4   2   1   67.28    5.27
  -4   2   1   73.13    5.94
  -4   2   1   69.93    5.40
   2  -4   1   74.68    6.55
   2   2   1   62.08    5.05
   5  -3  -1   69.88    5.49
  -3  -2  -1   72.65    5.49
   5  -3  -1   71.54    6.69
  -3  -2  -1   64.61    5.26
   5  -3  -1   78.99    5.62
   3   2   1   65.84    5.31
  -5   3   1   73.53    5.72
  -5   3   1   69.76    4.06
  -5   3   1   82.74    5.98
   2  -5   1   69.78    3.37
   2  -5   1   68.22    3.44
  -5   3   1   80.95    6.67
   2  -5   1   84.90    7.47
  -3  -1  -1   12.00    3.01
   4  -3  -1    8.67    2.89
  -3  -1  -1   13.81    3.08
   4  -3  -1   25.01    4.52
   4  -3  -1   11.18    2.89
   3   1   1   12.39    2.84
  -4   3   1    6.36    3.07
  -4   3   1   12.26    3.64
   3   1   1   10.05    2.75
   1  -4   1   10.51    4.31
  -4   3   1    8.56    2.13
   1  -4   1    9.34    1.27
   3   1   1    9.74    2.57
   1  -4   1    8.60    1.30
  -4   3   1   15.22    3.23
   3  -3  -1  339.01   14.77
   3  -3  -1  347.85   14.95
   0   3  -1  356.85   13.97
   0   3  -1  368.48   13.86
  -3   0  -1  361.38   15.10
   0   3  -1  388.90   17.52
  -3   0  -1  360.88   15.26
  -3   0  -1  355.24   17.00
   3  -3  -1  354.00   16.64
  -3   0  -1  342.93   14.81
   3   0   1  342.12   15.00
  -3   3   1  345.10   14.82
  -3   3   1  351.22   15.01
   3   0   1  350.63   17.18
   3   0   1  354.06   14.76
  -3   3   1  355.09   15.28
   0  -3   1  362.79   14.04
   3   0   1  328.83   14.74
  -3   3   1  359.33   16.64
   0  -3   1  361.05   13.93
   0  -3   1  351.75   17.04
   2  -3  -1   50.55    3.86
   2  -3  -1   45.73    3.47
  -3   1  -1   45.24    3.69
  -3   1  -1   45.50    4.53
  -3   1  -1   43.38    3.63
   1   2  -1   54.33    3.80
   2  -3  -1   52.71    3.62
   1   2  -1   54.52    4.87
   1   2  -1   52.35    3.88
  -1  -2   1   50.41    4.78
  -2   3   1   54.46    3.96
   3  -1   1   58.45    5.10
   3  -1   1   43.38    3.57
  -1  -2   1   48.19    3.73
  -1  -2   1   43.19    3.17
  -2   3   1   45.30    3.91
   3  -1   1   42.71    3.54
   2   1  -1  156.85    8.78
  -3   2  -1  173.26    7.71
  -3   2  -1  151.41    8.15
  -3   2  -1  167.68    7.52
   2   1  -1  169.98    7.98
   2   1  -1  165.17    7.81
  -3   2  -1  170.45    9.64
  -2  -1   1  169.33    8.14
   3  -2   1  162.59    7.66
   3  -2   1  165.55    7.68
  -2  -1   1  168.18    7.96
   3  -2   1  146.58    9.88
   3  -2   1  159.38    8.29
  -3   3  -1  356.58   14.15
   3   0  -1  336.10   14.71
   3   0  -1  338.24   15.05
  -3   3  -1  346.08   14.02
  -3   3  -1  343.98   17.09
   3  -3   1  362.62   16.54
   3  -3   1  361.92   14.21
  -3   0   1  339.52   14.83
   3  -3   1  349.28   16.87
   3  -3   1  357.61   14.07
  -3   0   1  357.38   15.04
  -3   4  -1   49.19    5.12
   4  -1  -1   42.46    4.23
   4  -1  -1   43.21    5.60
  -3   4  -1   52.02    3.47
   4  -1  -1   46.40    4.25
  -3   4  -1   54.25    3.59
   3  -4   1   55.50    5.62
   3  -4   1   50.19    3.61
  -4   1   1   40.93    4.33
   3  -4   1   44.83    3.55
  -4   1   1   36.57    4.25
   3  -4   1   50.74    5.32
  -2  -3  -1   54.49    4.78
  -3   5  -1   62.74    3.51
  -3   5  -1   67.45    6.02
  -3   5  -1   62.60    3.65
   5  -2  -1   67.08    3.42
   5  -2  -1   72.54    6.94
   5  -2  -1   65.38    5.23
   5  -2  -1   57.37    5.00
  -2  -3  -1   66.92    5.00
  -5   2   1   63.50    5.34
   3  -5   1   56.80    3.74
   3  -5   1   65.75    6.50
   3  -5   1   58.85    3.61
  -5   2   1   62.23    5.32
  -3  -3  -1    5.68    2.98
  -3  -3  -1    4.18    2.86
   6  -3  -1    7.94    4.77
   6  -3  -1    7.63    2.97
   6  -3  -1    4.92    3.01
  -6   3   1   12.01    4.15
  -6   3   1    9.23    3.44
   3  -6   1   14.19    4.90
  -6   3   1    4.66    3.30
   3  -6   1    6.22    1.49
   7  -4  -1  298.86   17.05
   7  -4  -1  319.96   14.87
  -4  -3  -1  322.73   14.86
   7  -4  -1  314.34   15.14
  -4  -3  -1  303.72   14.96
  -7   4   1  310.19   12.85
  -7   4   1  331.05   17.19
   3  -7   1  312.19   12.45
  -7   4   1  306.56   14.87
   3  -7   1  307.44   12.58
   3  -7   1  312.73   17.43
  -7   4   1  309.95   15.04
  -4  -2  -1   14.70    3.63
   6  -4  -1   14.75    3.45
   6  -4  -1   22.83    5.08
   6  -4  -1   13.89    3.19
  -4  -2  -1   19.55    3.82
   4   2   1   10.46    3.19
  -6   4   1   13.51    2.21
  -6   4   1   17.86    3.77
   4   2   1   16.18    3.45
  -6   4   1   10.70    4.18
   4   2   1   11.83    3.23
   2  -6   1   12.81    5.19
  -6   4   1    5.66    3.36
  -4  -1  -1   30.92    4.04
   5  -4  -1   35.00    4.01
  -4  -1  -1   29.03    4.00
   5  -4  -1   30.06    3.72
   4   1   1   24.51    3.17
   4   1   1   23.71    3.62
   4   1   1   19.53    3.49
   1  -5   1   24.07    2.09
   1  -5   1   21.88    2.04
  -5   4   1   27.27    3.86
  -5   4   1   27.43    5.06
   1  -5   1   19.41    5.20
  -5   4   1   21.28    2.93
  -5   4   1   32.56    3.97
   4  -4  -1  175.62    8.87
  -4   0  -1  168.18    9.22
  -4   0  -1  174.63    8.37
   4  -4  -1  160.67    8.98
  -4   0  -1  174.54    9.02
   4  -4  -1  164.46   10.17
   0  -4   1  168.55    7.69
  -4   4   1  165.56   10.70
  -4   4   1  184.01    8.89
   4   0   1  178.84    8.22
  -4   4   1  156.40    8.95
   4   0   1  177.66    9.01
   4   0   1  176.86    8.94
   0  -4   1  173.10    7.65
   0  -4   1  172.95   10.54
  -4   4   1  176.07    9.19
   4   0   1  169.23   10.53
   1   3  -1   53.22    5.94
   1   3  -1   48.64    3.47
   3  -4  -1   43.52    3.85
  -4   1  -1   43.55    4.25
  -4   1  -1   39.22    4.15
   1   3  -1   46.37    3.42
  -4   1  -1   44.99    3.31
   3  -4  -1   42.66    3.83
   3  -4  -1   48.40    4.53
  -4   1  -1   53.93    5.50
  -1  -3   1   47.89    3.63
  -1  -3   1   43.28    3.59
   4  -1   1   49.65    4.28
  -3   4   1   47.03    4.57
  -1  -3   1   42.64    5.21
   4  -1   1   48.04    4.33
   4  -1   1   47.20    5.69
   2   2  -1   64.54    4.95
  -4   2  -1   64.46    4.77
  -4   2  -1   63.77    4.72
   2   2  -1   76.40    6.11
   2   2  -1   64.47    5.10
  -4   2  -1   70.77    6.55
  -2  -2   1   61.75    4.56
  -2  -2   1   76.29    5.79
   4  -2   1   65.24    6.42
   4  -2   1   60.06    4.59
  -2  -2   1   67.14    4.68
   4  -2   1   61.95    4.55
  -2   4   1   70.09    4.98
   4  -2   1   62.94    4.48
  -4   3  -1   11.50    2.66
  -4   3  -1    8.96    2.59
   3   1  -1   13.32    3.69
  -4   3  -1    7.49    4.13
   4  -3   1    7.39    4.15
   4  -3   1    9.03    2.35
  -3  -1   1   11.39    2.91
  -3  -1   1    9.97    2.88
   4  -3   1    8.27    2.39
   4  -3   1    8.29    3.39
   4   0  -1  175.90    9.41
  -4   4  -1  176.88    8.33
  -4   4  -1  173.93    8.38
  -4   4  -1  217.54   11.90
   4   0  -1  164.38    9.14
   4  -4   1  187.86    8.42
   4  -4   1  194.88   10.56
  -4   0   1  171.32    9.42
   4  -4   1  211.39   11.44
   4  -4   1  175.38    8.54
  -4   0   1  175.00    9.45
  -4   5  -1   37.93    3.00
  -4   5  -1   34.46    5.20
  -4   5  -1   48.96    3.80
   5  -1  -1   34.60    5.96
   5  -1  -1   31.54    4.22
   5  -1  -1   30.91    4.12
   4  -5   1   36.87    3.03
   4  -5   1   37.23    5.23
   4  -5   1   40.31    5.55
  -5   1   1   43.48    4.78
   4  -5   1   34.63    3.06
  -5   1   1   40.48    4.65
   6  -2  -1  194.15   12.95
  -4   6  -1  215.01    9.08
  -4   6  -1  214.92   13.18
   6  -2  -1  212.80    8.68
  -4   6  -1  213.85    9.24
   6  -2  -1  220.04   11.21
  -2  -4  -1  212.99   10.61
  -2  -4  -1  202.71   10.43
   6  -2  -1  203.35   11.25
   4  -6   1  220.74   13.08
   4  -6   1  219.01    9.14
  -6   2   1  209.45   11.17
  -6   2   1  217.86   11.18
   4  -6   1  221.44    9.30
   7  -3  -1  319.02   17.73
  -4   7  -1  329.83   17.93
  -3  -4  -1  307.21   15.03
   7  -3  -1  333.32   15.48
  -3  -4  -1  306.62   15.15
   7  -3  -1  321.62   15.55
  -7   3   1  341.28   15.52
   4  -7   1  329.67   18.10
  -7   3   1  324.30   15.60
  -7   3   1  330.51   18.02
   4  -7   1  339.24   13.45
   4  -7   1  333.79   13.26
  -4   8  -1   21.60    5.15
  -4  -4  -1   19.65    4.28
   8  -4  -1   20.48    6.15
   8  -4  -1   17.04    4.16
  -4  -4  -1   14.57    4.14
   8  -4  -1   24.70    4.50
  -8   4   1   25.18    4.87
   4  -8   1   14.28    2.28
   4  -8   1   16.01    2.29
  -8   4   1   12.29    4.43
  -8   4   1   15.62    5.27
   4  -8   1   25.59    6.43
  -5  -4  -1   31.83    5.03
   9  -5  -1   26.51    7.13
  -5  -4  -1   28.46    4.91
  -5  -4  -1   30.55    5.12
   4  -9   1   27.61    2.83
   4  -9   1   31.17    2.84
  -9   5   1   28.48    5.44
  -9   5   1   29.43    5.39
   8  -5  -1   12.41    5.92
  -5  -3  -1    7.77    3.66
  -5  -3  -1    2.42    3.66
   8  -5  -1    7.92    3.57
  -5  -3  -1    0.96    3.63
   8  -5  -1    7.77    3.48
  -8   5   1    7.36    3.95
   3  -8   1    2.35    1.73
   5   3   1    0.02    3.43
   3  -8   1    1.59    1.78
  -8   5   1    0.16    3.80
  -8   5   1   -2.11    4.54
  -8   5   1   -1.32    1.74
   7  -5  -1  300.34   15.44
   7  -5  -1  325.91   15.28
  -5  -2  -1  332.26   15.44
  -5  -2  -1  319.75   15.42
   7  -5  -1  343.77   17.76
  -5  -2  -1  323.35   15.57
  -7   5   1  345.78   15.82
   5   2   1  341.23   15.36
  -7   5   1  326.74   17.66
   5   2   1  331.15   15.35
   5   2   1  313.15   15.44
   2  -7   1  322.81   17.98
  -7   5   1  331.28   15.48
  -7   5   1  329.09   14.27
  -5  -1  -1   39.24    4.68
   6  -5  -1   39.16    4.36
   6  -5  -1   46.88    6.03
  -5  -1  -1   39.93    3.73
   6  -5  -1   37.23    4.32
  -5  -1  -1   42.53    4.97
   5   1   1   38.69    4.62
   1  -6   1   41.88    6.13
   1  -6   1   32.74    2.81
  -6   5   1   50.34    6.21
   5   1   1   46.46    4.01
   1  -6   1   36.04    2.82
   5   1   1   41.94    4.68
  -6   5   1   40.37    4.62
  -6   5   1   45.15    4.78
  -6   5   1   46.12    3.94
   5   1   1   45.36    6.67
   5  -5  -1   98.94    7.01
   5  -5  -1  107.28    6.93
   5  -5  -1   95.49    8.58
  -5   0  -1  105.78    7.27
  -5   0  -1  106.52    5.44
  -5   0  -1  109.42    7.25
  -5   5   1  111.97    7.15
  -5   5   1  107.19    9.22
   5   0   1  103.81    7.44
   0  -5   1  114.50    8.90
   0  -5   1  105.83    5.76
   0  -5   1  110.39    5.63
   5   0   1  104.66    9.09
  -5   5   1  107.19    7.06
   5   0   1  113.44    7.49
   5   0   1  107.80    6.16
   4  -5  -1   37.02    3.85
   1   4  -1   34.95    3.21
   4  -5  -1   34.78    4.70
  -5   1  -1   33.47    2.84
  -5   1  -1   39.44    5.31
  -5   1  -1   35.88    4.43
  -5   1  -1   35.25    4.35
   4  -5  -1   42.34    3.97
   1   4  -1   38.24    3.39
  -4   5   1   34.99    3.83
  -1  -4   1   40.09    3.48
  -4   5   1   37.45    3.89
   5  -1   1   38.70    5.84
  -1  -4   1   38.43    5.37
  -1  -4   1   40.63    3.47
   5  -1   1   41.58    4.21
  -4   5   1   40.52    5.01
   5  -1   1   31.16    3.92
  -5   2  -1   69.83    5.44
   2   3  -1   65.46    6.81
   3  -5  -1   66.48    4.66
  -5   2  -1   80.35    5.83
  -5   2  -1  100.06    7.89
   2   3  -1   62.73    4.69
   3  -5  -1   66.77    5.43
   2   3  -1   62.34    4.62
   5  -2   1   68.50    5.21
  -2  -3   1   60.69    4.84
  -2  -3   1   63.65    6.08
   5  -2   1   77.53    7.25
   5  -2   1   57.34    4.96
  -2  -3   1   64.37    4.82
  -3   5   1   69.19    5.61
  -5   3  -1   73.56    5.89
  -5   3  -1   65.44    5.19
   3   2  -1   69.52    5.60
  -5   3  -1   75.80    7.18
   3   2  -1   79.60    6.38
   3   2  -1   70.31    5.14
   5  -3   1   71.74    5.62
   5  -3   1   61.45    5.32
  -3  -2   1   67.46    5.19
  -3  -2   1   64.31    5.17
   5  -3   1   71.65    6.97
   5  -3   1   68.33    5.56
  -3  -2   1   75.18    5.99
   4   1  -1   25.24    3.74
  -5   4  -1   32.67    3.42
  -5   4  -1   34.57    5.58
  -5   4  -1   31.89    3.38
   4   1  -1   30.41    4.35
   4   1  -1   38.58    4.09
   5  -4   1   22.77    3.16
  -4  -1   1   21.81    3.64
   5  -4   1   22.39    3.14
  -4  -1   1   18.12    3.62
   5  -4   1   19.93    4.40
   5  -4   1   24.50    5.09
  -5   5  -1  115.60    9.59
   5   0  -1  126.95    7.78
  -5   5  -1  117.45    6.39
   5   0  -1  120.99    7.86
  -5   5  -1  111.17    6.53
   5  -5   1  100.84    6.45
   5  -5   1  111.16    8.66
   5  -5   1   97.01    8.48
  -5   0   1  115.82    7.91
  -5   0   1  124.37    8.14
   5  -5   1  110.03    6.51
  -5   6  -1    9.91    2.35
   6  -1  -1   16.06    5.35
  -5   6  -1    8.33    2.29
   6  -1  -1    3.93    3.13
  -5   6  -1   13.25    4.44
   6  -1  -1   10.35    3.45
   5  -6   1    8.72    2.38
   5  -6   1    2.55    4.16
  -6   1   1    8.53    3.39
  -6   1   1   13.48    3.83
   5  -6   1    9.20    2.36
  -5   7  -1   16.07    2.53
   7  -2  -1    9.74    3.62
   7  -2  -1   13.16    3.70
   7  -2  -1   15.00    6.09
  -5   7  -1   11.94    2.46
  -2  -5  -1   20.12    3.64
  -2  -5  -1   13.40    3.36
  -5   7  -1    9.40    4.78
   5  -7   1   17.82    2.52
  -7   2   1   14.18    4.07
  -7   2   1   15.15    4.07
   5  -7   1   16.28    2.53
  -3  -5  -1  300.98   15.14
  -3  -5  -1  326.79   15.52
  -5   8  -1  327.87   18.04
   8  -3  -1  323.95   16.16
   8  -3  -1  327.10   18.64
   8  -3  -1  318.46   15.85
   5  -8   1  328.97   13.81
   5  -8   1  329.73   13.66
  -8   3   1  340.98   16.37
  -8   3   1  338.82   16.06
  -4  -5  -1    5.60    3.68
   9  -4  -1   -3.81    5.63
  -4  -5  -1    5.05    3.75
  -9   4   1    5.28    4.31
   5  -9   1    1.69    2.11
   5  -9   1    3.89    2.16
  -9   4   1    0.42    4.05
  -5  -5  -1   51.82    6.51
  10  -5  -1   64.43    8.93
  -5  -5  -1   52.82    6.32
  -5  -5  -1   49.56    6.16
   5 -10   1   53.25    3.90
 -10   5   1   68.82    7.45
   5 -10   1   56.99    3.99
 -10   5   1   60.73    6.98
  -6  -5  -1   41.47    6.05
  -6  -5  -1   52.30    6.35
  11  -6  -1   37.74    8.59
  -6  -5  -1   50.31    6.47
   5 -11   1   44.93    3.49
   5 -11   1   45.96    3.60
 -11   6   1   41.73    6.59
 -11   6   1   45.28    6.76
  -6  -4  -1    2.10    3.89
  -6  -4  -1    0.75    4.04
  -6  -4  -1    2.50    3.86
  10  -6  -1   -6.33    5.66
   4 -10   1   -0.73    1.94
   4 -10   1    4.47    2.00
   6   4   1    1.22    3.95
 -10   6   1   -0.62    4.35
 -10   6   1   -7.69    4.04
 -10   6   1   -0.37    1.42
   9  -6  -1   12.84    6.09
  -6  -3  -1   10.86    4.18
  -6  -3  -1   22.83    4.75
  -6  -3  -1   15.48    4.22
   6   3   1   16.90    4.29
  -9   6   1   21.75    4.96
  -9   6   1   22.35    2.82
  -9   6   1   20.37    4.98
   8  -6  -1    0.55    5.32
   8  -6  -1    4.59    3.50
  -6  -2  -1   13.64    3.38
  -6  -2  -1   13.64    3.95
   8  -6  -1    7.12    3.64
  -8   6   1    7.25    2.63
   6   2   1   13.98    3.65
   2  -8   1    3.78    1.86
   2  -8   1    5.46    1.90
   6   2   1   16.05    3.91
  -8   6   1    1.35    4.55
   6   2   1    9.45    3.52
  -8   6   1    6.77    3.97
  -8   6   1    3.88    3.90
  -6  -1  -1   36.31    5.17
   7  -6  -1   50.84    5.18
   7  -6  -1   52.93    6.83
  -6  -1  -1   59.53    4.65
  -6  -1  -1   44.05    5.42
   7  -6  -1   57.80    5.41
   1  -7   1   60.97    7.81
   1  -7   1   51.14    3.73
   6   1   1   54.21    5.61
   6   1   1   55.52    4.70
  -7   6   1   58.11    5.69
  -7   6   1   50.30    6.99
   6   1   1   66.37    8.08
   1  -7   1   47.91    3.66
  -7   6   1   56.23    4.81
   6   1   1   52.51    5.47
  -7   6   1   58.54    5.62
   6  -6  -1  126.03    8.37
   6  -6  -1  133.93   10.13
  -6   0  -1  136.92    9.09
  -6   0  -1  146.87    9.28
   6  -6  -1  143.63    8.49
  -6   6   1  147.59    8.47
   6   0   1  140.57    7.39
   0  -6   1  140.39    7.03
   0  -6   1  136.05    7.19
   6   0   1  147.06    9.09
   6   0   1  123.34   10.87
  -6   6   1  138.52   11.30
  -6   6   1  147.34    8.58
   6   0   1  155.15    8.84
   0  -6   1  151.89   10.93
  -6   1  -1    8.34    3.32
  -6   1  -1    5.49    3.32
   5  -6  -1   12.32    3.00
   5  -6  -1   13.75    4.27
   5  -6  -1    7.34    2.84
  -5   6   1    9.76    4.17
   6  -1   1   10.93    3.24
  -1  -5   1    5.33    2.46
  -5   6   1    6.78    2.96
  -5   6   1    7.75    2.91
  -1  -5   1    8.54    2.60
  -1  -5   1    9.34    4.48
   6  -1   1   10.56    1.89
   6  -1   1   12.26    3.28
   6  -1   1    9.06    5.21
  -6   2  -1  223.45   11.47
  -6   2  -1  195.65    9.05
  -6   2  -1  217.41   11.19
   4  -6  -1  193.59   10.06
  -6   2  -1  207.68   12.56
   2   4  -1  212.24   10.05
   4  -6  -1  205.80   10.01
   2   4  -1  218.93   10.05
  -4   6   1  182.02   11.92
  -2  -4   1  203.16   10.02
  -2  -4   1  217.26   10.32
   6  -2   1  239.04   13.84
   6  -2   1  207.87   10.69
   6  -2   1  216.76   11.06
  -2  -4   1  225.72   12.20
  -6   3  -1    5.20    3.29
  -6   3  -1   -1.04    2.96
  -6   3  -1   -2.93    3.77
   3   3  -1    3.10    2.61
   3   3  -1    4.99    2.67
   3   3  -1   10.08    4.65
   6  -3   1    7.84    4.93
   6  -3   1   10.82    3.10
   6  -3   1   14.74    2.68
  -3  -3   1    5.66    3.85
   6  -3   1    7.26    2.89
  -3  -3   1    3.61    2.86
  -3   6   1    3.17    3.31
  -3  -3   1    3.94    2.86
  -6   4  -1   23.92    3.51
   4   2  -1   19.62    4.27
   4   2  -1   12.13    3.18
   4   2  -1   19.73    3.44
  -6   4  -1   21.65    3.53
  -6   4  -1   20.26    5.41
  -4  -2   1    9.07    3.27
   6  -4   1    9.31    4.79
  -4  -2   1   10.88    3.29
   6  -4   1   15.65    3.21
   6  -4   1    9.38    3.07
   6  -4   1   22.57    3.99
  -6   5  -1   43.98    4.19
   5   1  -1   48.91    5.10
   5   1  -1   43.10    4.67
  -6   5  -1   51.50    6.67
  -6   5  -1   43.13    4.13
   5   1  -1   45.10    4.73
   6  -5   1   44.48    5.32
   6  -5   1   50.11    6.30
  -5  -1   1   37.19    4.62
  -5  -1   1   39.05    4.78
   6  -5   1   34.89    4.05
   6  -5   1   38.63    4.13
   6   0  -1  150.21    8.99
  -6   6  -1  127.26   11.14
  -6   6  -1  141.99    7.79
   6   0  -1  152.87    9.11
  -6   6  -1  137.58    7.67
   6   0  -1  140.98    8.45
  -6   0   1  153.30    8.88
  -6   0   1  150.41    9.04
   6  -6   1  153.21    8.12
   6  -6   1  137.23    8.10
   6  -6   1  141.49   11.40
  -6   7  -1    6.49    2.59
   7  -1  -1   -3.46    3.06
  -6   7  -1    7.45    2.60
   7  -1  -1    1.49    5.68
  -6   7  -1   -1.69    4.46
   7  -1  -1   -4.58    2.98
   6  -7   1    4.23    2.43
   6  -7   1    5.68    4.93
  -7   1   1    0.40    3.62
  -7   1   1    1.80    3.65
   6  -7   1    7.41    2.48
  -2  -6  -1   70.79    6.11
  -2  -6  -1   81.75    6.44
  -6   8  -1   71.73    5.55
  -6   8  -1   71.26    5.41
  -6   8  -1   86.64    8.49
   8  -2  -1   83.82    9.35
  -8   2   1   55.51    6.64
  -8   2   1   69.55    7.10
   6  -8   1   68.39    4.94
   6  -8   1   69.96    5.69
  -3  -6  -1   97.22    7.82
  -3  -6  -1   83.33    7.11
   9  -3  -1   76.86    9.75
  -9   3   1   85.93    7.95
   6  -9   1   92.82    6.22
   6  -9   1  103.37    6.08
  -9   3   1   86.37    7.93
  -4  -6  -1   11.44    4.20
  10  -4  -1   21.43    7.10
  -4  -6  -1    8.18    4.00
   6 -10   1   15.29    2.82
 -10   4   1   15.52    5.07
   6 -10   1   18.36    2.85
 -10   4   1    8.00    4.63
  -5  -6  -1    1.21    3.95
  -5  -6  -1    1.82    4.69
  11  -5  -1   -5.84    6.02
  -5  -6  -1    4.66    4.12
   6 -11   1    0.94    1.98
 -11   5   1   -0.77    4.36
   6 -11   1    3.48    2.13
 -11   5   1   -3.52    4.35
  -6  -6  -1   20.58    5.14
  12  -6  -1   32.54    8.23
  -6  -6  -1   15.25    4.93
   6 -12   1   16.47    2.67
 -12   6   1   18.16    5.70
 -12   6   1   14.97    5.54
   6 -12   1   14.95    2.68
  -7  -6  -1   19.59    5.69
  -7  -6  -1    2.92    5.03
  13  -7  -1   17.47    7.80
 -13   7   1    9.68    5.50
 -13   7   1   12.82    5.77
   6 -13   1    8.82    2.52
   6 -13   1    9.61    2.53
  -7  -5  -1   -2.59    4.13
  12  -7  -1    5.29    6.89
  -7  -5  -1    5.38    4.56
  -7  -5  -1   -4.05    4.05
   5 -12   1    2.22    1.99
 -12   7   1    2.96    4.83
 -12   7   1    4.40    4.86
   5 -12   1    5.25    2.09
  11  -7  -1  129.08   12.08
  -7  -4  -1  105.33    8.48
  -7  -4  -1  102.19    9.29
  -7  -4  -1  126.51    9.72
   4 -11   1  120.84    6.23
 -11   7   1   95.99    9.14
   7   4   1  102.97    8.69
 -11   7   1  115.51    5.82
 -11   7   1  134.29    9.83
   4 -11   1  111.53    6.05
  -7  -3  -1   53.69    6.66
  -7  -3  -1   46.96    5.34
  -7  -3  -1   52.53    6.63
  10  -7  -1   45.05    7.87
   7   3   1   56.85    5.95
 -10   7   1   43.70    3.94
 -10   7   1   51.40    6.60
 -10   7   1   49.72    6.49
  -7  -2  -1   30.21    5.44
  -7  -2  -1   22.10    4.00
  -7  -2  -1   29.64    5.43
   9  -7  -1   18.63    4.39
   9  -7  -1   20.31    6.09
   9  -7  -1   24.44    4.60
  -9   7   1   20.52    3.50
   2  -9   1   21.94    2.62
  -9   7   1   18.56    4.79
   7   2   1   18.14    3.83
   2  -9   1   17.46    2.55
  -9   7   1   19.82    4.90
   8  -7  -1  133.82    9.92
   8  -7  -1  145.59    9.54
  -7  -1  -1  149.62   10.38
   8  -7  -1  130.83   11.18
  -7  -1  -1  143.12    7.97
  -7  -1  -1  151.25   10.20
   1  -8   1  147.26    7.21
  -8   7   1  150.15   11.75
   1  -8   1  143.75    7.28
  -8   7   1  126.20    9.28
   7   1   1  145.24   12.78
   7   1   1  135.75    8.64
  -8   7   1  146.26    9.77
  -8   7   1  129.59    8.83
  -7   0  -1   38.13    5.37
   7  -7  -1   35.13    4.59
  -7   0  -1   35.24    5.23
   7  -7  -1   28.97    4.49
   7  -7  -1   33.21    5.92
   7   0   1   43.24    5.24
  -7   7   1   39.30    5.00
   0  -7   1   31.24    3.48
   7   0   1   44.97    7.54
   0  -7   1   35.79    3.62
  -7   7   1   40.83    6.48
   7   0   1   39.03    3.62
   0  -7   1   29.31    6.54
   7   0   1   49.33    5.45
  -7   7   1   38.00    4.96
  -7   1  -1    1.38    3.57
  -7   1  -1    0.47    3.40
   6  -7  -1    4.37    4.48
   6  -7  -1    2.39    3.06
   6  -7  -1   -1.03    2.89
  -1  -6   1    1.57    2.49
   7  -1   1   -1.46    2.78
  -1  -6   1    3.84    2.55
  -6   7   1   -0.41    3.06
  -1  -6   1   -1.15    4.61
   7  -1   1   -0.28    5.53
   7  -1   1    2.56    1.76
   7  -1   1    1.61    3.21
  -6   7   1    1.17    4.45
  -6   7   1    0.06    2.99
   5  -7  -1   16.28    3.22
  -7   2  -1   11.26    3.87
   2   5  -1   14.41    2.99
   5  -7  -1   20.24    4.67
   5  -7  -1   12.55    3.07
  -7   2  -1   14.25    4.08
  -7   2  -1    6.72    1.94
  -7   2  -1   17.24    4.98
   2   5  -1   11.76    2.92
  -5   7   1   15.47    4.69
  -2  -5   1    9.88    3.10
   7  -2   1   15.41    3.64
  -2  -5   1   18.96    4.90
  -2  -5   1   17.13    3.27
   7  -2   1   11.89    5.79
   3   4  -1  329.31   14.45
  -7   3  -1  303.85   13.05
  -7   3  -1  307.37   17.67
   3   4  -1  320.63   14.38
   4  -7  -1  304.88   13.81
   4  -7  -1  318.20   14.16
  -7   3  -1  342.47   15.06
  -7   3  -1  311.41   15.21
  -3  -4   1  333.00   16.72
  -4   7   1  330.63   16.47
   7  -3   1  333.92   15.25
   7  -3   1  308.40   14.88
  -3  -4   1  323.69   14.69
   7  -3   1  307.16   17.72
  -3  -4   1  320.92   14.42
   7  -3   1  299.14   14.05
  -7   4  -1  337.53   15.05
   4   3  -1  320.02   16.44
  -7   4  -1  320.60   14.52
   4   3  -1  299.71   14.30
   4   3  -1  317.76   14.47
  -7   4  -1  319.82   17.92
  -4  -3   1  302.21   14.51
   7  -4   1  305.19   14.83
  -4  -3   1  309.26   16.10
   7  -4   1  318.86   17.60
   7  -4   1  298.45   14.56
   7  -4   1  306.71   14.47
  -4  -3   1  318.32   14.83
   5   2  -1  325.47   15.46
  -7   5  -1  336.70   18.90
  -7   5  -1  344.17   15.31
   5   2  -1  324.72   15.07
   5   2  -1  326.86   16.49
  -7   5  -1  329.73   14.97
  -5  -2   1  316.47   15.26
   7  -5   1  340.87   14.97
   7  -5   1  332.38   16.23
   7  -5   1  310.97   18.15
   7  -5   1  343.49   15.19
  -5  -2   1  323.00   15.45
   6   1  -1   54.44    5.52
  -7   6  -1   44.99    4.67
   6   1  -1   50.54    5.47
  -7   6  -1   51.22    4.80
   6   1  -1   57.70    5.60
  -7   6  -1   56.34    7.53
   7  -6   1   47.73    4.93
   7  -6   1   55.21    6.97
  -6  -1   1   52.77    5.76
   7  -6   1   57.33    5.06
  -6  -1   1   49.70    5.60
  -7   7  -1   38.81    4.25
   7   0  -1   35.60    4.54
  -7   7  -1   37.82    4.23
  -7   7  -1   38.00    6.78
   7   0  -1   40.68    5.17
   7   0  -1   31.05    4.80
  -7   0   1   33.87    5.23
   7  -7   1   34.63    4.27
   7  -7   1   31.06    4.16
  -7   0   1   31.57    5.21
   7  -7   1   31.15    6.35
  -7   9  -1   22.71    3.63
  -2  -7  -1   23.57    4.25
  -7   9  -1   24.16    3.66
   9  -2  -1   16.64    7.36
  -2  -7  -1   27.78    4.41
  -9   2   1   30.21    5.55
   7  -9   1   29.42    3.62
  -9   2   1   18.73    5.06
   7  -9   1   25.48    3.58
  -3  -7  -1   78.29    6.95
  10  -3  -1   69.42    9.65
  -3  -7  -1   93.01    7.34
 -10   3   1   76.43    7.91
   7 -10   1   76.99    6.04
   7 -10   1   72.74    5.60
 -10   3   1   63.19    7.46
  -4  -7  -1    0.26    3.58
  11  -4  -1   -4.00    6.45
  -4  -7  -1    5.30    3.81
 -11   4   1    3.20    4.54
 -11   4   1    5.64    4.87
   7 -11   1    1.02    2.23
   7 -11   1   -0.57    2.19
  -5  -7  -1   11.75    4.64
  12  -5  -1   11.51    7.29
  -5  -7  -1   18.60    4.88
 -12   5   1   35.64    6.66
   7 -12   1   16.65    2.92
   7 -12   1   24.27    3.06
 -12   5   1   16.90    5.72
  -6  -7  -1   97.66    8.87
  -6  -7  -1   90.72    8.83
  13  -6  -1   92.35   11.89
   7 -13   1   91.52    6.17
 -13   6   1  110.40   10.40
   7 -13   1  104.96    6.40
 -13   6   1  104.07   10.20
  14  -7  -1   -0.10    7.95
  -7  -7  -1   -0.92    4.78
  -7  -7  -1   -8.47    4.44
 -14   7   1   -0.03    5.51
 -14   7   1   10.90    6.39
   7 -14   1    0.82    2.22
   7 -14   1   -2.09    2.15
  -8  -7  -1   -1.56    5.04
  -8  -7  -1    8.04    5.64
  15  -8  -1   -3.06    8.17
 -15   8   1   -0.01    5.91
 -15   8   1    0.87    6.25
  -8  -6  -1   -2.24    4.88
  14  -8  -1   -4.90    7.62
  -8  -6  -1   -3.23    4.69
 -14   8   1   -1.50    5.30
   6 -14   1   -0.16    2.14
 -14   8   1    1.56    5.72
   6 -14   1    3.13    2.18
  13  -8  -1   18.10    7.97
  -8  -5  -1   16.20    5.49
  -8  -5  -1   19.72    5.36
  -8  -5  -1   12.80    5.48
   5 -13   1   16.84    2.69
   5 -13   1   17.82    2.63
 -13   8   1   12.66    5.67
 -13   8   1   21.87    6.39
  12  -8  -1    8.46    6.71
  -8  -4  -1   13.30    5.12
  -8  -4  -1    6.63    4.36
  -8  -4  -1    2.50    4.51
 -12   8   1    7.45    2.24
 -12   8   1    6.22    5.03
   4 -12   1   10.80    2.36
   4 -12   1    9.27    2.34
 -12   8   1    1.06    4.98
  -8  -3  -1   15.77    5.12
  11  -8  -1    9.34    6.53
  -8  -3  -1   10.25    5.03
  -8  -3  -1   14.07    4.29
   8   3   1   20.85    4.33
 -11   8   1   15.92    3.14
   3 -11   1   22.77    2.64
   3 -11   1   18.68    2.58
 -11   8   1   16.02    5.40
 -11   8   1   10.84    4.91
  -8  -2  -1    2.89    3.47
  -8  -2  -1    1.41    4.11
  10  -8  -1   -6.08    5.14
  -8  -2  -1    4.14    4.28
 -10   8   1   14.18    4.72
 -10   8   1    4.58    3.01
 -10   8   1   -2.93    4.04
   2 -10   1    0.78    2.00
   8   2   1   -5.30    2.94
   8   2   1    6.20    6.58
   2 -10   1    2.37    1.99
   9  -8  -1  113.39    8.51
  -8  -1  -1  103.38    9.06
   9  -8  -1  115.53   10.21
   9  -8  -1  112.31    8.63
  -8  -1  -1  123.58    9.67
  -9   8   1  116.92    9.00
  -9   8   1  113.83    8.65
  -9   8   1  103.22    8.29
   8   1   1  126.39   11.67
   1  -9   1  109.01    6.55
   1  -9   1  101.57    6.43
   8   1   1  118.29    7.86
   8  -8  -1   19.09    4.12
   8  -8  -1   14.65    5.49
   8  -8  -1   18.21    3.90
  -8   0  -1   12.05    4.69
  -8   0  -1    8.68    4.46
   8   0   1   10.54    2.64
  -8   8   1    5.90    3.97
   0  -8   1    9.91    2.87
  -8   8   1   13.61    4.16
   8   0   1    8.38    6.58
   0  -8   1   13.75    2.97
  -8   8   1   10.97    5.68
   7  -8  -1   24.80    5.59
  -8   1  -1   35.85    5.45
   7  -8  -1   20.38    3.97
  -8   1  -1   16.89    4.77
   7  -8  -1   29.87    4.50
  -1  -7   1   20.50    3.42
   8  -1   1   21.70    2.54
  -7   8   1   18.01    4.32
  -1  -7   1   17.30    3.30
  -7   8   1   17.36    5.69
  -7   8   1   28.78    4.41
   8  -1   1   17.20    7.06
   6  -8  -1   79.00    6.13
  -8   2  -1   88.20    7.55
  -8   2  -1   68.25    7.06
   6  -8  -1   73.00    7.40
   6  -8  -1   74.14    5.96
  -2  -6   1   78.85    8.14
   8  -2   1   77.41    9.18
  -6   8   1   87.52    7.85
   8  -2   1   65.38    6.48
  -2  -6   1   83.97    6.10
   8  -2   1   76.09    6.67
  -2  -6   1   70.49    5.76
  -8   3  -1  329.36   18.36
   5  -8  -1  314.11   14.90
   3   5  -1  336.49   15.02
  -8   3  -1  340.76   15.88
   5  -8  -1  302.69   14.73
  -8   3  -1  324.73   13.52
  -8   3  -1  353.27   16.07
   3   5  -1  340.72   15.14
  -3  -5   1  335.63   17.53
   8  -3   1  325.11   15.63
  -3  -5   1  317.41   15.18
   8  -3   1  335.33   15.83
   8  -3   1  324.59   18.81
  -5   8   1  296.98   17.49
  -3  -5   1  338.96   15.20
  -8   4  -1   23.05    5.98
   4  -8  -1   24.69    3.54
   4  -8  -1   28.92    3.68
   4   4  -1   13.74    3.69
  -8   4  -1   19.69    4.49
   4   4  -1   23.34    4.11
  -8   4  -1   21.85    4.56
  -4  -4   1   23.13    4.29
   8  -4   1   25.86    4.37
   8  -4   1   17.82    4.13
  -4   8   1   21.23    4.87
   8  -4   1   16.67    6.58
  -4  -4   1   22.35    4.43
  -4  -4   1   21.12    5.15
   8  -4   1   17.83    3.44
   5   3  -1    0.05    3.07
  -8   5  -1    1.54    3.61
   5   3  -1    5.17    4.78
  -8   5  -1    5.96    5.67
   5   3  -1   -4.75    2.90
  -8   5  -1    4.04    3.54
   8  -5   1    1.36    3.23
  -5  -3   1   -0.97    3.55
   8  -5   1    5.67    4.07
  -5  -3   1    0.85    4.26
   8  -5   1    0.96    3.19
   8  -5   1    8.36    5.62
  -5  -3   1   -0.91    3.47
  -8   6  -1    2.12    3.37
   6   2  -1    7.43    3.54
  -8   6  -1    4.15    3.42
   6   2  -1    6.93    4.67
   6   2  -1    3.94    3.38
  -6  -2   1    5.47    3.88
   8  -6   1    4.76    4.53
   8  -6   1    6.11    5.28
   8  -6   1    3.21    3.00
   8  -6   1    4.01    3.07
  -6  -2   1    0.06    3.61
  -8   7  -1  131.16    8.82
   7   1  -1  154.02    9.05
  -8   7  -1  125.64    8.55
   8  -7   1  133.56    8.89
  -7  -1   1  143.48    9.87
   8  -7   1  149.06   12.01
   8  -7   1  139.57    8.82
  -7  -1   1  124.68    9.22
  -8   8  -1   12.35    3.58
  -8   8  -1   18.25    3.85
   8   0  -1   13.75    3.89
   8  -8   1   14.38    3.56
  -8   0   1   16.23    4.58
   8  -8   1   20.47    6.02
  -8   0   1   10.59    4.42
   8  -8   1   18.08    3.62
   9  -1  -1   -1.79    5.14
  -1  -8  -1    8.64    3.52
  -1  -8  -1    5.29    3.28
  -8   9  -1   11.19    3.49
  -8   9  -1    4.77    3.33
   9  -1  -1    2.92    3.35
   8  -9   1    3.63    3.03
   8  -9   1   12.59    5.96
  -9   1   1   11.29    4.83
   8  -9   1    9.29    3.24
  -9   1   1    3.71    4.28
  -2  -8  -1  176.25   10.09
  -8  10  -1  146.45    8.83
  -2  -8  -1  163.45   10.01
  10  -2  -1  158.66   14.24
  -8  10  -1  144.06    8.65
   8 -10   1  167.20    8.92
 -10   2   1  164.30   11.27
 -10   2   1  173.21   11.98
   8 -10   1  138.15    8.90
  -3  -8  -1    8.36    4.13
  -3  -8  -1   11.57    4.26
  11  -3  -1   12.91    7.61
 -11   3   1   18.08    5.51
   8 -11   1   12.86    3.19
 -11   3   1   11.65    5.08
   8 -11   1   12.86    3.30
  12  -4  -1   22.05    8.45
  -4  -8  -1   28.44    5.30
  -4  -8  -1   22.30    4.87
 -12   4   1   24.66    6.23
 -12   4   1   19.09    5.66
   8 -12   1   31.31    3.54
   8 -12   1   23.62    3.37
  -5  -8  -1    4.31    4.45
  -5  -8  -1   -4.02    4.04
  13  -5  -1   -4.83    7.05
   8 -13   1   -3.19    2.20
 -13   5   1    4.48    5.43
 -13   5   1   -0.04    5.29
   8 -13   1    4.38    2.32
  -6  -8  -1  123.35   10.24
  14  -6  -1   79.94   11.99
  -6  -8  -1  108.90    9.93
   8 -14   1  100.24    6.43
 -14   6   1   99.83   10.64
   8 -14   1   98.29    6.55
 -14   6   1   77.71    9.72
  -7  -8  -1   28.94    6.74
  -7  -8  -1   36.83    7.08
  15  -7  -1   22.78    9.46
 -15   7   1   38.51    8.27
 -15   7   1   27.51    7.50
  -8  -8  -1   45.40    7.81
  16  -8  -1   45.36   11.12
  -8  -8  -1   43.72    7.70
 -16   8   1   47.83    8.94
 -16   8   1   43.40    8.47
  -9  -8  -1   52.59    9.00
  17  -9  -1   31.78    9.48
  -9  -8  -1   58.19    8.86
 -17   9   1   47.26    9.13
 -17   9   1   49.34    9.74
  -9  -7  -1    2.07    5.98
  -9  -7  -1   -0.88    5.72
  16  -9  -1   15.89    9.15
 -16   9   1    0.29    6.61
 -16   9   1    2.67    6.37
  15  -9  -1   15.64    8.49
  -9  -6  -1    9.43    6.03
  -9  -6  -1    2.75    5.86
 -15   9   1    7.04    6.65
 -15   9   1   17.68    6.83
  14  -9  -1   12.48    8.12
  -9  -5  -1    3.22    5.47
  -9  -5  -1    5.70    5.62
  -9  -5  -1   12.12    5.64
   5 -14   1    3.02    2.30
 -14   9   1    4.60    6.01
   5 -14   1    6.22    2.38
   5 -14   1    2.83    2.03
   5 -14   1    6.11    2.20
 -14   9   1   12.16    6.22
  13  -9  -1    9.56    7.67
  -9  -4  -1   21.37    6.12
  -9  -4  -1   20.10    6.12
  -9  -4  -1   25.65    5.37
 -13   9   1   22.07    3.09
   4 -13   1   30.15    2.93
 -13   9   1   31.80    6.53
   4 -13   1   27.31    3.11
 -13   9   1   18.59    6.20
   4 -13   1   23.54    3.02
   4 -13   1   23.87    2.91
  -9  -3  -1    5.16    5.05
  -9  -3  -1    0.32    4.54
  -9  -3  -1    3.46    4.19
  12  -9  -1   14.57    6.94
   9   3   1   -6.09    3.68
 -12   9   1    7.92    2.98
   3 -12   1   -0.17    1.96
   3 -12   1   10.39    2.37
 -12   9   1    9.86    5.14
 -12   9   1    4.70    4.67
  -9  -2  -1  147.04   11.27
  11  -9  -1  139.32   12.41
  -9  -2  -1  152.92   11.53
   2 -11   1  125.24    7.09
   9   2   1  133.57    9.36
 -11   9   1  128.62   10.45
 -11   9   1  132.08   10.14
   9   2   1  136.76   13.48
 -11   9   1  126.99    8.84
   2 -11   1  134.56    7.24
  -9  -1  -1  293.57   15.88
  10  -9  -1  277.28   17.20
  -9  -1  -1  289.44   16.08
 -10   9   1  307.81   15.36
   9   1   1  265.21   14.09
   1 -10   1  302.57   12.90
 -10   9   1  293.67   14.81
 -10   9   1  269.55   14.71
   1 -10   1  303.45   13.00
   9   1   1  297.67   19.07
  -9   0  -1    3.26    4.24
   9  -9  -1    4.26    5.42
   9  -9  -1   -0.20    3.28
  -9   0  -1   -6.33    3.63
   9  -9  -1   -5.19    3.15
   0  -9   1    2.55    2.43
   0  -9   1    3.50    2.48
  -9   9   1    4.61    3.90
  -9   9   1    1.20    3.80
   9   0   1   12.59    7.22
   9   0   1    4.59    2.50
   8  -9  -1    8.82    3.50
  -9   1  -1   19.97    5.17
   8  -9  -1    6.89    5.15
  -9   1  -1    6.90    4.50
   8  -9  -1    9.55    3.69
   9  -1   1   13.84    6.97
   9  -1   1   11.10    2.21
  -8   9   1   13.40    4.00
  -1  -8   1    9.37    3.20
  -8   9   1    9.97    3.81
  -1  -8   1   11.40    3.25
  -9   2  -1   24.07    5.37
   7  -9  -1   24.80    5.72
   7  -9  -1   26.66    4.26
  -9   2  -1   26.28    5.58
   7  -9  -1   36.12    4.58
   9  -2   1   20.79    7.60
  -2  -7   1   32.04    4.33
  -2  -7   1   30.13    4.24
   3   6  -1   91.85    7.26
   6  -9  -1   98.64    7.56
  -9   3  -1   92.75    8.12
  -9   3  -1   92.01    8.21
   6  -9  -1  113.80    7.83
   3   6  -1   92.76    7.38
  -3  -6   1   90.09    7.04
  -3  -6   1   88.93    6.96
   9  -3   1   85.92    9.76
  -6   9   1  103.51    8.98
  -3  -6   1   95.34    8.76
   5  -9  -1   -0.38    2.78
  -9   4  -1    5.14    1.45
   4   5  -1    2.55    3.06
   4   5  -1    1.17    3.19
  -9   4  -1    7.81    4.06
  -9   4  -1    2.07    3.98
   5  -9  -1    6.82    2.96
  -4  -5   1    5.48    3.75
  -4  -5   1    3.03    3.51
  -5   9   1    8.61    4.51
   9  -4   1    5.58    2.57
  -4  -5   1   -0.71    4.77
   9  -4   1   11.07    6.56
  -9   5  -1   35.33    5.24
   5   4  -1   33.28    4.75
  -9   5  -1   30.00    5.09
   5   4  -1   23.45    4.27
  -5  -4   1   31.89    5.05
   9  -5   1   28.92    4.65
   9  -5   1   32.23    7.41
  -5  -4   1   26.34    5.54
  -5  -4   1   39.51    5.28
  -4   9   1   23.68    5.22
   9  -5   1   23.48    4.36
  -9   7  -1   22.92    4.40
  -9   7  -1   20.62    4.40
   7   2  -1   19.34    5.03
   9  -7   1   24.13    4.34
  -7  -2   1   24.55    5.10
   9  -7   1   16.00    4.01
   9  -7   1   22.15    6.55
   9  -7   1   27.60    5.73
  -7  -2   1   21.64    5.00
  -9   8  -1  104.35    8.32
   8   1  -1  113.27    8.31
  -9   8  -1  120.53    8.66
   9  -8   1  132.70   11.31
  -8  -1   1  108.32    8.85
  -8  -1   1  115.99    9.40
   9  -8   1  129.42    8.55
   9  -8   1  112.14    8.54
  -9   9  -1    0.80    3.29
   9   0  -1   -1.13    6.37
  -9   9  -1   -2.30    3.22
   9   0  -1    8.23    3.67
   9  -9   1    1.72    3.09
   9  -9   1   -1.31    2.93
   9  -9   1   -6.07    5.30
  -9   0   1    3.98    4.32
  -9   0   1    3.19    4.30
  10  -1  -1   67.34    5.50
  -9  10  -1   73.19    6.26
  10  -1  -1   79.16   10.05
  -1  -9  -1   65.57    6.36
  -9  10  -1   79.33    6.28
  10  -1  -1   61.26    4.77
  -1  -9  -1   65.30    6.27
   9 -10   1   82.90    6.37
 -10   1   1   74.78    8.17
   9 -10   1   78.05    6.36
   9 -10   1   84.32    9.69
 -10   1   1   66.60    8.03
  -2  -9  -1    5.05    3.86
  11  -2  -1    1.18    6.00
  11  -2  -1   -0.15    2.93
  -2  -9  -1    1.01    3.62
  -9  11  -1    8.12    3.45
  -9  11  -1   -2.30    3.16
   9 -11   1    0.54    3.10
 -11   2   1   -0.07    4.61
   9 -11   1    8.82    3.23
 -11   2   1   -3.56    4.35
  12  -3  -1    3.36    2.92
  -3  -9  -1    8.80    4.39
  12  -3  -1   -7.05    7.55
  -3  -9  -1    4.31    3.92
 -12   3   1    1.92    5.06
 -12   3   1    8.38    5.04
   9 -12   1    5.08    2.72
   9 -12   1    1.41    2.73
  -4  -9  -1   11.01    4.79
  13  -4  -1    6.23    8.26
  -4  -9  -1    6.54    4.53
 -13   4   1    0.34    5.56
 -13   4   1   10.04    5.85
   9 -13   1   11.75    2.91
   9 -13   1    9.53    3.08
  -5  -9  -1   54.56    7.19
  -5  -9  -1   49.88    6.94
  14  -5  -1   59.56   11.18
   9 -14   1   44.66    4.51
 -14   5   1   49.87    8.14
   9 -14   1   65.32    5.13
 -14   5   1   39.37    7.91
  -6  -9  -1    7.18    5.30
  -6  -9  -1    7.66    5.24
  15  -6  -1   -4.63    8.27
 -15   6   1   -3.79    6.10
 -15   6   1   -1.48    5.63
  -7  -9  -1   -1.15    5.16
  -7  -9  -1   11.15    5.70
  16  -7  -1    4.01    9.63
 -16   7   1   -3.19    5.89
 -16   7   1    0.83    6.74
  -8  -9  -1   -2.18    5.50
  -8  -9  -1   -1.48    5.43
  17  -8  -1    0.49    9.36
 -17   8   1    4.64    7.24
 -17   8   1    4.25    6.88
  18  -9  -1   22.56   11.11
  -9  -9  -1   33.11    8.37
  -9  -9  -1   27.56    8.02
 -18   9   1   30.95    8.73
 -18   9   1   33.10    9.33
 -10  -9  -1    9.23    7.19
 -10  -9  -1    0.80    6.20
  19 -10  -1   -7.28    9.97
 -19  10   1   -0.73    7.25
 -19  10   1  -21.92    7.02
  18 -10  -1   16.54   10.37
 -10  -8  -1   10.98    6.36
 -10  -8  -1    7.23    6.69
 -18  10   1   10.27    7.17
 -18  10   1   -0.21    7.89
 -10  -7  -1   58.51    9.20
  17 -10  -1   41.15   11.38
 -10  -7  -1   40.62    8.28
 -17  10   1   41.76    9.31
 -17  10   1   40.66    8.49
 -10  -6  -1    2.50    6.03
  16 -10  -1   10.11    9.31
 -10  -6  -1    2.32    5.95
 -16  10   1   -2.15    5.79
 -16  10   1    2.58    6.64
  15 -10  -1   -1.11    8.00
 -10  -5  -1   25.30    6.06
 -10  -5  -1   12.42    6.27
 -10  -5  -1    6.18    5.83
 -15  10   1   13.99    6.48
   5 -15   1   16.08    2.64
   5 -15   1    5.97    2.39
 -15  10   1    6.16    6.56
 -10  -4  -1   65.01    8.84
  14 -10  -1   38.25    8.92
 -10  -4  -1   79.19    9.31
   4 -14   1   61.53    4.54
   4 -14   1   55.97    4.49
 -14  10   1   54.51    4.69
   4 -14   1   63.26    4.98
 -14  10   1   63.79    8.49
 -14  10   1   60.82    8.55
   4 -14   1   60.46    4.85
  13 -10  -1   23.77    7.97
 -10  -3  -1   31.33    6.60
 -10  -3  -1   23.98    6.26
   3 -13   1   23.44    3.11
  10   3   1   15.30    4.64
  10   3   1   23.41    9.49
   3 -13   1   22.66    3.19
 -13  10   1   11.00    5.93
 -13  10   1   13.73    3.55
 -13  10   1   29.40    6.32
  12 -10  -1   60.61    8.94
 -10  -2  -1   67.42    8.51
 -10  -2  -1   57.89    8.21
 -12  10   1   69.28    7.83
   2 -12   1   69.98    5.21
   2 -12   1   69.84    5.25
 -12  10   1   66.34    7.91
  10   2   1   68.11    6.08
 -12  10   1   50.27    5.74
  10   2   1   49.98   10.00
 -10  -1  -1    0.31    4.65
 -10  -1  -1   11.24    5.14
  11 -10  -1   13.60    6.31
   1 -11   1    6.32    2.62
 -11  10   1    5.75    4.68
 -11  10   1    2.08    3.78
  10   1   1    9.33    7.36
 -11  10   1    8.27    4.73
  10   1   1    4.48    2.80
   1 -11   1    8.17    2.63
  10 -10  -1  173.97   13.19
 -10   0  -1  140.73   11.70
 -10   0  -1  166.60   11.47
   0 -10   1  153.58    8.65
   0 -10   1  156.06    8.42
  10   0   1  141.49   13.72
 -10  10   1  158.94   10.42
 -10  10   1  159.77   10.20
  10   0   1  137.62    7.82
 -10   1  -1   56.65    7.31
   9 -10  -1   71.87    6.80
   9 -10  -1   80.41    6.93
 -10   1  -1   61.25    7.65
   9 -10  -1   85.35    8.92
  -9  10   1   78.83    7.18
  -9  10   1   74.88    6.95
  -1  -9   1   81.99    6.11
  -1  -9   1   76.04    6.05
  10  -1   1   61.50    9.90
 -10   2  -1  160.69   11.30
   8 -10  -1  154.10   11.96
 -10   2  -1  145.06   11.48
   8 -10  -1  166.14   10.18
   8 -10  -1  156.15    9.86
  10  -2   1  155.78   13.79
  -2  -8   1  169.02    9.67
  -2  -8   1  161.19    9.48
 -10   3  -1   87.49    8.11
   7 -10  -1   75.79    6.33
   7 -10  -1   81.46    6.37
 -10   3  -1   70.69    7.57
  -3  -7   1   63.51    6.38
  -3  -7   1   67.01    6.46
  10  -3   1   75.77   10.01
 -10   4  -1   15.82    4.98
   4   6  -1   15.14    3.81
   4   6  -1   11.73    3.71
   6 -10  -1   13.89    3.71
 -10   4  -1   14.92    4.57
   6 -10  -1   10.51    3.50
  -4  -6   1   11.77    4.17
  -6  10   1   16.10    5.22
  -4  -6   1   11.47    4.17
  10  -4   1   16.65    7.02
 -10   5  -1   51.42    6.43
   5 -10  -1   48.71    4.96
   5   5  -1   45.97    5.54
   5   5  -1   44.50    5.36
 -10   5  -1   49.51    2.99
   5 -10  -1   47.88    4.87
 -10   5  -1   51.10    6.30
  -5  -5   1   52.27    6.16
  10  -5   1   45.67    8.31
  -5  -5   1   46.17    6.73
  -5  -5   1   43.49    5.82
  10  -5   1   56.56    4.68
  -5  10   1   50.65    6.56
 -10   6  -1    0.50    4.00
 -10   6  -1   12.82    4.44
  -6  -4   1    6.93    4.71
  -4  10   1   -1.18    4.34
  10  -6   1    4.79    5.96
  -6  -4   1    1.85    3.87
  -6  -4   1    2.78    3.91
 -10   7  -1   48.18    6.14
 -10   7  -1   74.22    6.88
  10  -7   1   54.69    8.57
  -7  -3   1   50.61    6.49
  -7  -3   1   57.40    6.65
  10  -7   1   55.25    6.47
 -10   8  -1    2.62    3.87
 -10   8  -1    5.81    3.96
  10  -8   1    5.34    5.60
  10  -8   1   11.26    3.85
  -8  -2   1   -0.05    4.17
  -8  -2   1    3.16    4.13
  10  -8   1    3.76    5.35
  10  -8   1    0.07    3.33
 -10   9  -1  289.58   14.47
   9   1  -1  303.83   15.04
 -10   9  -1  304.02   15.00
  10  -9   1  273.76   18.04
  10  -9   1  292.13   14.84
  10  -9   1  292.32   17.08
  -9  -1   1  308.50   15.76
  -9  -1   1  294.88   16.02
  10  -9   1  285.72   14.70
   0 -10  -1  159.08    9.47
   0 -10  -1  154.51    9.48
 -10  10  -1  157.35    9.78
 -10  10  -1  141.75   10.00
  10   0  -1  145.98   13.87
  10   0  -1  150.96    8.97
  10 -10   1  152.41    9.95
 -10   0   1  168.71   11.69
  10 -10   1  143.40    9.57
 -10   0   1  141.44   10.98
  10 -10   1  146.30   13.32
 -10  11  -1    1.43    3.82
  -1 -10  -1   13.94    3.88
 -10  11  -1   16.21    4.30
  11  -1  -1   12.86    6.80
  11  -1  -1   11.58    2.09
  -1 -10  -1    8.61    3.74
  11  -1  -1   13.87    3.58
  10 -11   1    2.64    6.43
 -11   1   1   16.48    5.71
  10 -11   1   10.32    3.78
 -11   1   1    1.89    5.12
  10 -11   1    8.75    3.88
  12  -2  -1   43.91   10.12
 -10  12  -1   30.79    4.82
 -10  12  -1   34.85    5.11
  -2 -10  -1   49.18    5.91
  -2 -10  -1   40.97    5.39
  12  -2  -1   44.98    4.10
 -12   2   1   41.50    7.21
  10 -12   1   38.04    4.86
 -12   2   1   29.25    6.85
  10 -12   1   41.47    5.00
  13  -3  -1    6.17    8.51
  -3 -10  -1    6.20    3.96
  -3 -10  -1    7.91    4.16
  10 -13   1    0.01    2.98
 -13   3   1    5.81    5.70
 -13   3   1    2.35    5.09
  10 -13   1    5.42    3.23
  14  -4  -1   21.15    9.74
  -4 -10  -1   16.08    4.85
  -4 -10  -1   12.97    4.81
  10 -14   1   18.11    3.64
 -14   4   1    9.94    6.44
 -14   4   1   20.57    6.71
  10 -14   1   16.70    3.76
  -5 -10  -1    3.95    4.74
  15  -5  -1   -7.16    8.35
  -5 -10  -1    7.40    4.68
 -15   5   1    5.71    6.92
 -15   5   1    8.03    6.57
  16  -6  -1   34.62   10.10
  -6 -10  -1   49.85    7.54
  -6 -10  -1   40.46    7.31
 -16   6   1   55.68    9.52
 -16   6   1   37.20    8.26
  17  -7  -1   20.58   10.98
  -7 -10  -1   16.77    6.61
  -7 -10  -1   28.86    7.28
 -17   7   1   29.56    8.80
 -17   7   1   14.92    7.60
  -8 -10  -1    8.33    6.39
  18  -8  -1    7.70   10.16
  -8 -10  -1   -0.55    6.08
 -18   8   1   -9.56    6.82
 -18   8   1    2.71    6.90
  19  -9  -1   19.70   11.56
  -9 -10  -1   31.14    7.92
  -9 -10  -1   29.17    7.77
 -19   9   1   11.12    9.03
 -19   9   1   20.16    8.42
  19 -11  -1    4.30    9.86
 -11  -8  -1    2.24    6.84
 -11  -8  -1    3.27    6.36
 -19  11   1   -3.90    6.45
 -19  11   1    8.28    8.18
  18 -11  -1    4.43    9.47
 -11  -7  -1    7.30    7.10
 -11  -7  -1    1.27    6.03
 -18  11   1    4.34    6.83
 -18  11   1    0.85    7.48
 -11  -6  -1   38.38    8.42
  17 -11  -1   17.35    8.34
 -11  -6  -1   34.29    7.97
 -17  11   1   32.40    8.24
 -17  11   1   39.45    8.86
  16 -11  -1    2.00    8.60
 -11  -5  -1   -2.80    5.94
 -11  -5  -1   -3.49    5.54
 -16  11   1    5.11    6.92
 -16  11   1    1.16    6.23
  11   5   1   -7.23    9.07
 -11  -4  -1   12.42    6.36
  15 -11  -1   -1.59    8.23
 -11  -4  -1    2.84    5.92
   4 -15   1    8.70    2.64
 -15  11   1   16.61    6.76
  11   4   1   11.12    9.54
   4 -15   1   10.56    2.53
 -15  11   1   -4.09    5.64
  14 -11  -1   -0.27    7.32
 -11  -3  -1    8.29    5.97
 -11  -3  -1    4.03    5.92
 -14  11   1    8.50    5.76
   3 -14   1   -0.06    2.44
 -14  11   1   -0.89    3.37
  11   3   1   14.46    9.23
   3 -14   1    1.73    2.33
 -14  11   1    0.91    5.85
  13 -11  -1    5.35    7.25
 -11  -2  -1    9.67    5.78
 -11  -2  -1    1.35    5.55
   2 -13   1    5.55    2.71
 -13  11   1   -0.62    3.71
  11   2   1    8.52    8.70
 -13  11   1    8.64    5.67
  11   2   1    7.72    3.59
 -13  11   1   -2.01    5.08
   2 -13   1    8.08    2.86
  12 -11  -1   16.11    7.29
 -11  -1  -1    6.40    5.44
 -11  -1  -1   12.86    5.82
 -12  11   1   14.31    5.47
   1 -12   1   20.70    3.56
 -12  11   1   11.48    5.55
  11   1   1   16.13    3.49
  11   1   1   21.86    9.15
 -12  11   1    8.55    4.38
   1 -12   1   14.53    3.30
 -11   0  -1   46.10    7.55
 -11   0  -1   50.02    7.46
  11 -11  -1   43.00    8.13
 -11  11   1   55.52    7.04
 -11  11   1   56.48    6.81
  11   0   1   50.79    4.42
   0 -11   1   60.13    5.28
   0 -11   1   50.02    4.96
  11   0   1   52.03   10.46
  10 -11  -1   17.58    6.66
 -11   1  -1   14.27    5.53
 -11   1  -1   10.12    5.49
  -1 -10   1   15.89    3.66
 -10  11   1   14.67    4.81
  -1 -10   1   20.50    3.91
  11  -1   1   18.94    8.44
 -10  11   1   16.11    4.59
 -11   2  -1    5.11    4.68
 -11   2  -1    4.08    4.82
   9 -11  -1    0.53    3.35
   9 -11  -1    3.22    5.73
   9 -11  -1   -2.17    3.48
  -2  -9   1    2.85    3.25
  -2  -9   1    4.14    3.21
  11  -2   1   -7.03    7.24
   8 -11  -1   10.53    3.67
 -11   3  -1    5.19    4.80
   8 -11  -1   12.57    3.83
 -11   3  -1   15.09    5.20
  -3  -8   1   13.76    4.11
  -3  -8   1   21.32    4.54
  11  -3   1    8.38    7.33
   7 -11  -1   -2.44    2.82
 -11   4  -1    7.08    4.65
   7 -11  -1    2.90    3.10
 -11   4  -1    5.14    4.39
  -4  -7   1   -0.62    3.68
  -4  -7   1    4.87    3.98
  11  -4   1    2.27    6.76
   6 -11  -1    5.93    3.10
 -11   5  -1    8.57    4.53
 -11   5  -1    1.10    4.35
   6 -11  -1   -0.69    2.88
  -5  -6   1   -4.93    3.96
  11  -5   1    2.26    2.31
  11  -5   1    0.52    7.02
  -5  -6   1   -1.78    3.95
   5 -11  -1   49.33    4.82
 -11   6  -1   53.47    6.56
 -11   6  -1   41.27    6.54
   5 -11  -1   50.99    4.96
  11  -6   1   50.81    4.87
  -6  -5   1   52.88    7.11
  11  -6   1   54.09    9.18
  -6  -5   1   36.41    5.92
  -6  -5   1   45.90    6.34
 -11   7  -1  117.57    9.49
 -11   7  -1  118.89    9.28
  11  -7   1  113.48    8.48
  -7  -4   1  117.84    9.57
  -7  -4   1  103.08    9.05
  11  -7   1  116.89   11.81
 -11   8  -1   28.96    5.45
 -11   8  -1   12.29    4.72
  -8  -3   1   16.19    5.33
  11  -8   1   19.44    5.08
  -8  -3   1   22.03    5.42
  11  -8   1   26.17    7.22
 -11   9  -1  126.57    9.97
 -11   9  -1  131.57    9.42
  11  -9   1  129.75   10.69
  -9  -2   1  112.89   10.06
  11  -9   1  113.94   11.80
  -9  -2   1  134.67   10.16
  10   1  -1   11.83    7.87
 -11  10  -1    9.38    4.57
 -11  10  -1    2.81    4.24
 -10  -1   1    1.75    4.61
 -10  -1   1    7.75    5.06
  11 -10   1   33.84    7.55
   0 -11  -1   52.63    5.67
 -11  11  -1   61.53    6.53
 -11  11  -1   51.91    6.30
   0 -11  -1   47.42    5.65
  11   0  -1   45.50    9.86
  11   0  -1   49.78    4.42
 -11   0   1   48.01    7.64
 -11   0   1   56.14    7.73
 -11  12  -1   19.50    4.85
  12  -1  -1   14.89    2.10
  -1 -11  -1   15.35    4.26
  12  -1  -1   24.24    9.01
  -1 -11  -1   22.30    4.50
 -11  12  -1   15.69    4.58
  11 -12   1   12.41    4.32
  11 -12   1    8.25    6.94
 -12   1   1   20.72    6.26
  11 -12   1   16.68    4.39
 -12   1   1   11.40    6.22
 -11  13  -1   98.88    7.71
  -2 -11  -1   96.63    8.15
 -11  13  -1   84.12    7.55
  13  -2  -1   98.66   13.48
  -2 -11  -1   92.86    8.18
 -13   2   1   83.10    9.84
 -13   2   1   78.44    9.86
  11 -13   1  102.92    8.18
  11 -13   1   94.94    7.60
  -3 -11  -1   15.04    4.77
  -3 -11  -1   15.59    4.87
  14  -3  -1   17.70   10.04
  11 -14   1   15.26    4.02
  11 -14   1   25.27    4.28
 -14   3   1   17.36    6.53
 -14   3   1   13.31    6.59
  -4 -11  -1    4.87    4.48
  -4 -11  -1   -1.27    4.16
  15  -4  -1    0.69    9.57
 -15   4   1    5.39    6.24
 -15   4   1   14.08    7.13
  -5 -11  -1   73.10    8.30
  -5 -11  -1   63.79    7.75
  16  -5  -1   71.39   13.14
 -16   5   1   60.75    9.97
 -16   5   1   41.84    8.88
  -6 -11  -1    7.95    5.35
  17  -6  -1   14.57   10.20
  -6 -11  -1   -3.97    4.54
 -17   6   1    0.20    6.63
 -17   6   1   -4.93    6.98
  -7 -11  -1    2.73    6.01
  18  -7  -1    2.55   10.73
  -7 -11  -1    0.54    6.10
 -18   7   1   10.06    8.28
 -18   7   1    6.05    7.29
  -8 -11  -1    3.40    6.65
  -8 -11  -1   -2.84    6.30
  19  -8  -1    5.77   10.51
 -19   8   1   -0.92    8.26
 -19   8   1   -2.11    7.04
 -12  -7  -1    4.90    6.44
  19 -12  -1   -2.57    9.90
 -12  -7  -1   -1.30    6.61
  12   7   1    2.37   10.25
 -19  12   1  -10.78    6.73
 -19  12   1   -1.08    7.95
  18 -12  -1    2.56    9.35
 -12  -6  -1    4.73    6.53
 -12  -6  -1    5.85    6.93
  12   6   1   -4.56    9.99
 -18  12   1  -16.63    6.38
 -18  12   1    4.43    6.78
 -12  -5  -1   73.25    9.72
 -12  -5  -1   42.92    9.03
  17 -12  -1   32.21    9.15
  12   5   1   55.62   12.74
 -17  12   1   65.06    9.64
 -17  12   1   64.32    9.96
  16 -12  -1   15.41    8.91
 -12  -4  -1   35.36    7.84
 -12  -4  -1   39.27    8.28
 -16  12   1   33.96    8.18
  12   4   1   21.34   10.84
 -16  12   1   27.39    7.48
 -12  -3  -1    3.69    5.86
 -12  -3  -1    4.46    6.46
  15 -12  -1    4.00    7.99
   3 -15   1    4.81    2.64
 -15  12   1   -3.63    5.44
  12   3   1   -1.81    9.36
   3 -15   1    6.66    2.70
 -15  12   1   -2.17    5.95
  14 -12  -1   22.04    8.72
 -12  -2  -1   28.82    7.30
 -12  -2  -1   21.57    7.06
   2 -14   1   30.09    3.95
  12   2   1   33.58   10.41
 -14  12   1   27.23    6.94
 -14  12   1   16.08    4.62
 -14  12   1   37.49    7.14
   2 -14   1   28.87    3.87
 -12  -1  -1    4.02    5.88
  13 -12  -1    6.54    7.38
 -12  -1  -1    7.13    5.86
 -13  12   1    6.19    5.31
   1 -13   1    5.60    3.04
  12   1   1    1.37    9.08
   1 -13   1   16.77    3.36
 -13  12   1    9.18    4.65
  12   1   1    7.23    3.20
 -13  12   1   11.32    5.45
 -12   0  -1    1.90    5.22
 -12   0  -1   -0.38    5.26
  12 -12  -1    5.71    6.84
  12   0   1    5.85    2.34
 -12  12   1   -2.16    4.84
   0 -12   1    0.75    2.97
   0 -12   1    6.83    3.16
  12   0   1    5.80    7.10
 -12  12   1   -5.15    4.55
 -12   1  -1   23.34    6.53
 -12   1  -1   18.24    5.98
  11 -12  -1   21.87    7.34
  12  -1   1   19.26    9.16
 -11  12   1   21.38    5.20
 -11  12   1   22.56    5.33
  -1 -11   1   13.24    3.59
  -1 -11   1    6.33    3.46
 -12   2  -1   41.66    7.04
  10 -12  -1   36.39    7.70
 -12   2  -1   33.18    6.61
  -2 -10   1   48.54    5.49
  12  -2   1   34.02   10.03
  -2 -10   1   50.67    5.53
 -12   3  -1    0.78    4.56
   9 -12  -1    7.49    4.07
   9 -12  -1    6.18    3.71
 -12   3  -1    0.73    4.93
  12  -3   1    4.26    7.37
  -3  -9   1    2.54    3.58
  -3  -9   1    7.06    3.71
   8 -12  -1   23.80    4.33
   8 -12  -1   19.18    4.30
 -12   4  -1   16.99    5.44
 -12   4  -1   22.56    5.73
  12  -4   1   25.42    8.41
  -4  -8   1   21.43    5.01
  -4  -8   1   32.19    5.26
 -12   5  -1   19.70    5.64
 -12   5  -1   22.99    5.74
   7 -12  -1   21.22    4.12
   7 -12  -1   12.66    3.86
  -5  -7   1   31.78    5.39
  12  -5   1   21.64    8.33
  -5  -7   1   22.36    5.13
   6 -12  -1   16.26    3.83
 -12   6  -1   13.54    5.05
 -12   6  -1   22.96    5.91
   6 -12  -1   18.38    4.05
  12  -6   1   27.14    8.30
  12  -6   1   17.88    3.51
  -6  -6   1   26.96    5.64
  -6  -6   1   23.93    5.46
   5 -12  -1   -1.97    2.98
 -12   7  -1    1.04    4.56
   5 -12  -1    1.42    3.02
 -12   7  -1    2.95    4.43
  -7  -5   1   -2.92    3.95
  -7  -5   1    5.14    4.39
  -7  -5   1    7.32    5.32
  12  -7   1   -4.23    6.32
  12  -7   1    9.23    3.79
 -12   8  -1    9.36    4.60
 -12   8  -1    7.34    4.66
  -8  -4   1    4.81    4.65
  12  -8   1   -7.58    6.12
  -8  -4   1    8.80    4.91
  12  -8   1    5.00    4.32
 -12   9  -1    1.59    4.35
 -12   9  -1    7.67    4.79
  -9  -3   1    2.61    4.72
  -9  -3   1    8.28    4.90
  12  -9   1    9.65    6.88
  12  -9   1   -1.56    4.65
 -12  10  -1   67.72    7.29
 -12  10  -1   69.44    7.53
 -10  -2   1   57.19    7.76
 -10  -2   1   59.62    7.67
  12 -10   1   56.66    9.25
  11   1  -1   12.64    3.75
   1 -12  -1    5.68    3.57
 -12  11  -1   18.41    5.29
   1 -12  -1   12.76    3.81
 -12  11  -1   19.57    5.25
  11   1  -1    3.50    8.29
 -11  -1   1   21.79    6.21
  12 -11   1   15.36    7.56
 -11  -1   1    4.80    5.56
 -12  12  -1   -0.05    4.29
   0 -12  -1   -5.02    3.23
  12   0  -1    7.41    7.17
   0 -12  -1    1.12    3.36
 -12  12  -1    3.75    4.71
  12   0  -1   -3.48    2.42
 -12   0   1    9.45    6.11
  12 -12   1    8.39    7.70
 -12   0   1    4.58    5.61
 -12  13  -1   13.12    5.06
 -12  13  -1    6.40    4.58
  -1 -12  -1    8.57    4.29
  -1 -12  -1    5.49    4.19
  13  -1  -1   19.23    8.45
 -13   1   1   17.00    6.76
  12 -13   1   10.09    7.98
 -13   1   1    2.30    5.68
 -12  14  -1   -0.29    4.32
  14  -2  -1    5.64    7.86
  -2 -12  -1    3.71    4.08
  -2 -12  -1    8.04    4.52
 -12  14  -1    3.18    4.50
 -14   2   1    0.43    6.05
 -14   2   1    9.07    6.18
  -3 -12  -1   -5.65    3.72
  -3 -12  -1   -2.09    4.08
  15  -3  -1  -18.58    8.80
 -15   3   1    1.88    6.58
 -15   3   1   -5.38    5.70
  -4 -12  -1   11.89    4.89
  -4 -12  -1   16.02    5.06
  16  -4  -1   17.64   11.01
 -16   4   1   -3.98    6.74
 -16   4   1    1.10    6.62
  17  -5  -1   21.19   11.64
  -5 -12  -1   25.66    6.57
  -5 -12  -1   23.11    6.37
 -17   5   1   22.39    8.05
 -17   5   1   22.22    8.27
  -6 -12  -1   11.33    6.00
  18  -6  -1    3.35   10.26
  -6 -12  -1   25.47    6.60
 -18   6   1    8.52    8.28
 -18   6   1    9.90    7.47
  19  -7  -1   11.68   11.67
  -7 -12  -1   -0.47    6.01
  -7 -12  -1   14.63    6.64
 -19   7   1    5.06    7.86
 -19   7   1    9.87    8.85
 -13  -6  -1   11.25    7.04
  19 -13  -1   10.37    9.91
 -13  -6  -1   16.03    7.53
  13   6   1   13.15   11.14
 -19  13   1   14.52    7.96
 -19  13   1   18.86    8.92
  18 -13  -1   30.76    8.96
 -13  -5  -1   26.92    8.73
 -13  -5  -1   57.88    9.55
 -18  13   1   47.44    9.37
  13   5   1   28.37   12.30
 -18  13   1   47.00    9.03
  17 -13  -1   -1.92    9.02
 -13  -4  -1    9.67    6.64
 -13  -4  -1   -2.21    6.41
 -17  13   1    4.58    6.94
 -17  13   1   -5.35    6.83
  13   4   1   -6.87    9.34
 -13  -3  -1    4.52    6.29
 -13  -3  -1   -4.21    5.82
  16 -13  -1    8.92    8.85
  13   3   1    5.54    9.86
 -16  13   1    0.02    6.23
 -16  13   1    6.03    6.76
  15 -13  -1    2.33    8.26
 -13  -2  -1    0.26    6.21
 -13  -2  -1    1.76    5.77
 -15  13   1   -5.69    5.87
   2 -15   1   -0.93    2.71
  13   2   1   -2.56    9.37
 -15  13   1    3.41    5.95
   2 -15   1    3.32    2.98
  14 -13  -1   30.33    9.20
 -13  -1  -1   40.34    8.29
 -13  -1  -1   46.97    8.36
   1 -14   1   42.99    4.95
 -14  13   1   40.28    7.36
   1 -14   1   43.53    4.97
  13   1   1   32.14   11.45
 -14  13   1   42.18    7.28
  13 -13  -1    3.35    7.41
 -13   0  -1    2.89    5.98
 -13   0  -1    8.28    6.40
 -13  13   1   14.03    5.67
  13   0   1    3.98    7.98
   0 -13   1    9.37    3.70
   0 -13   1   10.92    3.74
 -13  13   1   13.56    5.65
 -13   1  -1    5.31    5.98
 -13   1  -1    2.41    5.55
  12 -13  -1   19.75    7.67
 -12  13   1    9.65    5.38
  -1 -12   1    3.65    3.61
  -1 -12   1    4.08    3.60
 -12  13   1    2.34    4.65
 -13   2  -1   92.95   10.36
 -13   2  -1  102.21   10.33
  13  -2   1   97.13   13.50
  -2 -11   1  106.50    8.24
  -2 -11   1  107.51    8.30
 -13   3  -1    2.86    5.16
 -13   3  -1   12.31    5.75
  -3 -10   1    0.14    3.72
  13  -3   1   16.55    8.96
  -3 -10   1    8.58    4.08
 -13   4  -1    9.59    5.99
   9 -13  -1    8.30    4.00
 -13   4  -1   19.94    5.84
   9 -13  -1   16.39    4.41
  -4  -9   1   15.15    4.76
  13  -4   1   15.82    8.69
  -4  -9   1    5.73    4.18
   8 -13  -1   -0.11    3.54
 -13   5  -1    1.84    5.04
   8 -13  -1    7.67    3.75
 -13   5  -1    2.82    5.28
  -5  -8   1   -2.70    4.24
  13  -5   1    7.83    8.26
  -5  -8   1   -4.67    3.99
   7 -13  -1   95.36    7.21
   7 -13  -1   96.85    7.32
 -13   6  -1   85.47    9.62
 -13   6  -1   94.07    9.31
  13  -6   1  106.24   12.45
  -6  -7   1   84.81    8.51
  -6  -7   1   91.99    9.04
   6 -13  -1   11.09    3.64
 -13   7  -1    8.72    5.12
 -13   7  -1   13.87    5.77
   6 -13  -1   11.83    3.63
  13  -7   1   19.45    7.95
  13  -7   1   17.10    3.87
  -7  -6   1   11.71    5.26
  -7  -6   1   11.46    4.90
 -13   8  -1   14.27    5.46
   5 -13  -1   18.38    3.71
 -13   8  -1   29.08    6.35
   5 -13  -1   14.26    3.55
  -8  -5   1   19.27    5.63
  13  -8   1   13.91    4.51
  -8  -5   1   16.79    5.61
  13  -8   1    5.89    7.42
 -13   9  -1   22.07    6.04
 -13   9  -1   13.85    5.58
  13  -9   1   28.32    8.33
  -9  -4   1   24.82    6.33
  -9  -4   1   28.93    6.21
  13  -9   1   17.82    5.68
 -13  10  -1   22.46    5.63
 -13  10  -1   15.61    5.70
  13 -10   1   15.10    7.45
 -10  -3   1   12.01    5.30
 -10  -3   1   13.10    5.70
 -13  11  -1    6.61    5.35
 -13  11  -1    2.73    5.02
 -11  -2   1   10.44    5.46
  13 -11   1    4.98    7.49
 -11  -2   1   -6.13    5.00
  12   1  -1    5.54    3.46
   1 -13  -1    6.73    3.60
   1 -13  -1    9.34    3.71
 -13  12  -1    6.22    5.38
 -13  12  -1   18.98    5.57
  12   1  -1   -4.92    8.92
 -12  -1   1    7.66    5.91
  13 -12   1   19.17    8.04
 -12  -1   1    7.61    6.28
 -13  13  -1   17.59    5.56
   0 -13  -1   19.05    4.36
 -13  13  -1   14.58    5.65
   0 -13  -1    6.99    4.00
  13   0  -1   -5.18    7.29
  13 -13   1   22.23    8.79
 -13   0   1   14.82    6.57
 -13   0   1    2.03    6.18
  -1 -13  -1   -9.53    3.09
 -13  14  -1    2.66    4.88
  14  -1  -1   11.36    8.52
 -13  14  -1   -2.38    4.67
  -1 -13  -1    5.07    4.07
 -14   1   1   -1.68    6.21
  13 -14   1    3.42    8.10
 -14   1   1    4.80    6.40
  -2 -13  -1   10.05    4.64
  -2 -13  -1    3.53    4.32
  15  -2  -1   10.77   10.66
 -15   2   1   29.68    7.71
 -15   2   1   11.98    7.17
  -3 -13  -1   12.81    5.10
  -3 -13  -1   13.22    4.78
  16  -3  -1   10.61   10.14
 -16   3   1   13.24    7.77
 -16   3   1    6.77    6.95
  -4 -13  -1   10.07    4.99
  17  -4  -1   24.19   12.21
  -4 -13  -1   19.88    5.65
 -17   4   1   10.46    8.21
 -17   4   1   18.74    8.11
  -5 -13  -1    5.69    5.12
  -5 -13  -1    7.71    5.49
  18  -5  -1    6.22   10.41
 -18   5   1   -1.35    7.62
 -18   5   1   -5.82    6.63
  -6 -13  -1   -0.84    5.32
  -6 -13  -1   -0.53    5.28
  19  -6  -1    7.67   11.25
 -19   6   1   -5.30    8.03
 -19   6   1    1.01    7.52
  19 -14  -1   12.94   10.22
 -14  -5  -1   -1.87    6.62
 -14  -5  -1   -0.03    6.82
 -19  14   1    6.74    8.01
 -19  14   1   -2.01    7.37
  14   5   1   80.08   14.02
 -14  -4  -1   12.90    7.58
  18 -14  -1   21.35   10.31
 -14  -4  -1   26.43    8.26
  14   4   1   32.18   12.14
 -18  14   1   25.39    8.19
 -18  14   1   28.56    8.41
  17 -14  -1   12.17    9.44
 -14  -3  -1    9.82    6.93
 -14  -3  -1    2.30    6.74
 -17  14   1   -4.94    6.10
 -17  14   1    1.42    7.07
  14   3   1   18.99   11.03
  16 -14  -1    5.15    8.98
 -14  -2  -1    3.83    6.28
 -14  -2  -1    7.42    6.69
  14   2   1    2.57    8.65
 -16  14   1    2.75    5.99
 -16  14   1    3.46    6.27
 -14  -1  -1   12.92    6.99
 -14  -1  -1    8.61    7.15
  15 -14  -1   21.27    8.93
   1 -15   1    8.24    3.69
  14   1   1    4.88   11.09
   1 -15   1   21.40    4.01
 -15  14   1    1.24    6.18
 -15  14   1   14.48    6.42
 -14   0  -1    5.18    6.26
 -14   0  -1    6.72    6.89
  14 -14  -1    0.85    8.31
 -14  14   1   -0.96    5.05
   0 -14   1   10.60    3.86
 -14  14   1   14.12    5.97
  14   0   1    5.10   10.48
   0 -14   1    5.63    3.73
  13 -14  -1    6.30    7.45
 -14   1  -1   -1.44    6.06
 -14   1  -1   -5.35    5.14
  -1 -13   1    1.71    3.59
  14  -1   1  -13.86    8.65
  -1 -13   1   -2.30    3.47
 -14   2  -1   10.35    6.53
 -14   2  -1    5.54    5.82
  14  -2   1   15.04    9.63
  -2 -12   1    4.78    4.02
  -2 -12   1    9.35    4.30
 -14   3  -1   22.77    6.89
 -14   3  -1   28.88    7.36
  14  -3   1   27.53   10.61
  -3 -11   1   26.85    5.33
  -3 -11   1   34.83    5.47
 -14   4  -1   16.58    6.58
 -14   4  -1   18.62    6.46
  -4 -10   1   19.68    5.05
  -4 -10   1   18.81    5.09
  14  -4   1   11.59    9.29
 -14   5  -1   64.77    8.91
 -14   5  -1   60.95    8.62
  -5  -9   1   57.16    6.94
  -5  -9   1   56.69    7.14
  14  -5   1   64.52   11.98
   8 -14  -1  115.17    8.70
   8 -14  -1  109.18    8.05
 -14   6  -1   90.26   10.09
 -14   6  -1  103.07   10.83
  -6  -8   1  100.27    9.56
  14  -6   1  113.72   13.48
  -6  -8   1  110.71    9.69
 -14   7  -1   -0.63    4.88
   7 -14  -1    4.52    3.46
   7 -14  -1   -8.02    2.82
 -14   7  -1   -1.54    5.53
  14  -7   1    5.12    8.35
  -7  -7   1   -1.39    4.63
  -7  -7   1    2.28    4.92
  14  -7   1   -4.92    2.82
   6 -14  -1    5.90    3.28
 -14   8  -1   -4.14    4.97
   6 -14  -1    0.75    3.16
 -14   8  -1    0.83    5.68
  14  -8   1   -6.27    7.36
  -8  -6   1    0.56    4.92
  -8  -6   1   -3.55    4.76
  14  -8   1   -2.26    3.86
 -14   9  -1    8.74    5.62
   5 -14  -1   11.21    3.54
   5 -14  -1    9.36    3.53
 -14   9  -1    7.13    5.62
  14  -9   1   -2.30    7.40
  -9  -5   1    4.89    5.23
  14  -9   1    9.36    4.99
  -9  -5   1    6.58    5.47
 -14  10  -1   58.06    7.83
 -14  10  -1   77.35    8.79
  14 -10   1   73.18    8.14
 -10  -4   1   58.82    8.58
  14 -10   1   58.36   10.30
 -10  -4   1   65.09    8.42
 -14  11  -1   -2.14    5.32
 -14  11  -1   -8.03    5.01
 -11  -3   1   -1.98    4.99
 -11  -3   1    5.88    5.67
  14 -11   1   -2.62    7.48
  12   2  -1   26.74   10.75
 -14  12  -1   34.72    6.70
   2 -14  -1   28.99    4.70
 -14  12  -1   26.38    6.58
   2 -14  -1   29.42    4.74
  14 -12   1   21.31    9.01
 -12  -2   1   26.20    7.36
 -12  -2   1   24.58    7.05
 -14  13  -1   41.50    7.12
   1 -14  -1   42.53    5.57
 -14  13  -1   41.54    6.98
   1 -14  -1   53.27    6.07
  13   1  -1   23.65   10.36
  14 -13   1   37.92    9.74
 -13  -1   1   36.63    7.97
 -13  -1   1   35.14    8.36
 -14  14  -1    3.26    5.25
  14   0  -1   -6.51    9.30
   0 -14  -1   10.92    4.33
   0 -14  -1    7.67    3.98
 -14  14  -1   10.61    5.69
 -14   0   1    4.17    6.67
  14 -14   1   12.41    8.57
 -14   0   1   10.82    6.82
 -14  15  -1   18.08    5.64
  -1 -14  -1   18.06    4.98
  -1 -14  -1   15.80    4.79
 -14  15  -1   29.64    6.44
  15  -1  -1   21.09    9.45
 -15   1   1   25.06    8.18
 -15   1   1   32.40    7.92
  16  -2  -1  -10.00   10.08
  -2 -14  -1    1.17    4.01
  -2 -14  -1   11.19    4.75
 -16   2   1    0.74    6.65
 -16   2   1   -5.03    6.61
  17  -3  -1   44.06   11.84
  -3 -14  -1   41.68    6.58
  -3 -14  -1   31.60    6.46
 -17   3   1   36.20    8.85
 -17   3   1   32.92    9.14
  18  -4  -1    0.53   10.19
  -4 -14  -1   -2.51    4.72
  -4 -14  -1    8.94    5.20
 -18   4   1   -7.22    6.80
 -18   4   1    0.34    7.85
  19  -5  -1   26.24   12.34
  -5 -14  -1   25.08    6.57
  -5 -14  -1   11.33    5.92
 -19   5   1   15.24    8.45
 -19   5   1   26.63    9.45
 -15  -3  -1    5.82    7.56
 -15  -3  -1   28.72    8.46
  18 -15  -1   11.28   10.50
 -18  15   1   35.33    8.52
  15   3   1   43.41   13.63
 -18  15   1   16.25    7.42
 -15  -2  -1    3.95    6.65
  17 -15  -1   11.57    9.81
 -15  -2  -1    0.87    7.00
  15   2   1   -3.19   10.96
 -17  15   1    5.30    6.86
 -17  15   1   -0.18    6.29
 -15  -1  -1   14.71    7.22
  16 -15  -1   22.72    9.89
 -15  -1  -1   12.75    6.81
 -16  15   1    2.71    5.87
 -16  15   1   -1.97    6.02
  15   1   1   -2.14   10.87
  15 -15  -1    8.41    8.90
 -15   0  -1    3.02    6.45
 -15   0  -1   -5.82    6.37
  15   0   1   13.45   11.07
 -15  15   1    9.06    6.16
 -15  15   1   13.72    6.50
 -15   1  -1   21.24    7.94
  14 -15  -1   20.04    8.75
 -15   1  -1   22.26    7.16
  -1 -14   1   23.69    4.90
  -1 -14   1   26.75    4.98
  15  -1   1   19.67   10.98
 -15   2  -1    7.33    6.24
 -15   2  -1    9.92    6.66
  -2 -13   1    2.25    4.01
  15  -2   1   27.04   10.65
  -2 -13   1    1.35    4.02
 -15   3  -1    3.84    6.57
 -15   3  -1    3.98    5.89
  15  -3   1   -3.19    8.88
  -3 -12   1    5.58    4.45
  -3 -12   1    3.05    4.13
 -15   4  -1    3.83    6.72
 -15   4  -1    1.77    6.05
  -4 -11   1   10.23    4.68
  -4 -11   1   10.86    4.58
  15  -4   1   22.77   10.26
 -15   5  -1    0.65    5.92
 -15   5  -1    0.93    6.53
  15  -5   1    6.87    8.58
  -5 -10   1    0.27    4.29
  -5 -10   1    8.35    4.75
 -15   6  -1    6.88    6.70
 -15   6  -1    3.86    6.03
  -6  -9   1    7.43    4.88
  -6  -9   1    3.75    4.39
  15  -6   1   10.69    8.99
   8 -15  -1   48.77    5.54
 -15   7  -1   21.43    7.15
 -15   7  -1   25.71    7.10
   8 -15  -1   33.59    5.10
  15  -7   1   36.14   10.42
  -7  -8   1   36.04    6.81
  -7  -8   1   26.21    6.14
   7 -15  -1   -6.43    3.23
   7 -15  -1   -4.65    3.29
 -15   8  -1    6.46    6.32
 -15   8  -1   -1.22    5.51
  15  -8   1   -3.86    8.08
  -8  -7   1   -1.43    4.97
  -8  -7   1    1.11    4.99
 -15   9  -1   -0.48    5.41
 -15   9  -1   -3.32    5.68
  -9  -6   1    4.21    5.60
  -9  -6   1    8.89    5.92
  15  -9   1    0.86    8.17
 -15  10  -1   18.53    6.90
 -15  10  -1   10.20    5.98
 -10  -5   1    7.06    6.16
 -10  -5   1   12.98    6.05
  15 -10   1    6.22    8.65
 -15  11  -1   11.61    5.96
 -15  11  -1    6.55    6.03
 -11  -4   1    9.00    5.68
 -11  -4   1   -4.21    5.26
  15 -11   1  -12.66    7.26
  12   3  -1    5.88    9.83
 -15  12  -1    6.35    5.51
 -15  12  -1    8.30    6.26
 -12  -3   1    8.70    6.27
 -12  -3   1   -4.23    6.06
  15 -12   1   -5.08    8.20
  13   2  -1  -11.94    9.27
   2 -15  -1    2.07    3.56
 -15  13  -1    2.01    5.71
   2 -15  -1   -2.28    3.34
 -15  13  -1   -6.00    5.38
  15 -13   1   14.25    8.81
 -13  -2   1   -0.04    6.24
 -13  -2   1    5.44    6.40
 -15  14  -1   24.27    6.90
   1 -15  -1    9.95    4.34
  14   1  -1   20.06    9.25
   1 -15  -1   12.65    4.33
 -15  14  -1   -2.16    5.68
 -14  -1   1   -4.45    6.59
 -14  -1   1   12.33    6.60
  15 -14   1   11.02    9.20
   0 -15  -1   -2.50    3.69
 -15  15  -1    2.11    5.49
  15   0  -1    1.76    8.63
 -15  15  -1   -3.79    5.68
   0 -15  -1    7.59    4.48
  15 -15   1   -6.02    8.41
 -15   0   1    2.18    6.92
 -15   0   1   -9.51    5.78
  -1 -15  -1   55.35    6.94
  -1 -15  -1   55.03    7.16
 -15  16  -1   57.84    7.65
  16  -1  -1   61.77   14.09
 -15  16  -1   50.24    7.83
 -16   1   1   46.93    9.36
 -16   1   1   54.71   10.38
  17  -2  -1   74.90   14.70
  -2 -15  -1   64.99    7.83
  -2 -15  -1   70.12    8.04
 -17   2   1   67.83   10.79
 -17   2   1   63.72   10.76
  -3 -15  -1    1.87    4.83
  -3 -15  -1   -4.83    4.59
  18  -3  -1   13.40   11.30
 -18   3   1   -1.97    7.68
 -18   3   1   -0.85    7.38
  18 -16  -1   22.24   11.22
 -16  -1  -1   34.11    8.82
  17 -16  -1   37.05   11.10
 -16  -1  -1   29.04    8.98
 -17  16   1   37.07    8.38
 -17  16   1   50.89    8.51
  16   1   1   45.63   13.81
 -16   0  -1    6.43    7.36
 -16   0  -1   14.18    7.28
  16 -16  -1    8.37    8.94
 -16  16   1   15.69    6.60
  16   0   1   -5.06   10.80
 -16  16   1    7.58    6.49
 -16   1  -1   73.67   10.05
  15 -16  -1   45.38   11.59
 -16   1  -1   65.87   10.30
  16  -1   1   33.71   10.40
 -16   2  -1   -4.14    6.01
 -16   2  -1    6.85    7.07
  -2 -14   1   -3.61    3.92
  16  -2   1    7.74    9.60
  -2 -14   1   -0.99    4.06
 -16   3  -1   10.22    7.05
 -16   3  -1   10.62    7.74
  -3 -13   1   -0.71    4.24
  16  -3   1   25.62   10.70
  -3 -13   1    9.17    4.81
 -16   4  -1    5.90    7.29
 -16   4  -1    1.12    6.42
  -4 -12   1   -0.35    4.34
  16  -4   1    5.67    9.64
  -4 -12   1    3.67    4.73
 -16   5  -1   43.63    8.55
 -16   5  -1   48.57    9.64
  16  -5   1   66.80   13.11
  -5 -11   1   72.09    7.98
  -5 -11   1   71.86    7.88
 -16   6  -1   42.13    8.95
 -16   6  -1   38.56    8.05
  -6 -10   1   28.48    6.10
  -6 -10   1   35.50    6.74
  16  -6   1   38.22   11.73
 -16   7  -1   -3.22    5.83
 -16   7  -1    6.62    6.72
  -7  -9   1    1.89    5.12
  16  -7   1   11.16    9.50
  -7  -9   1    4.00    5.15
 -16   8  -1   39.04    8.57
 -16   8  -1   39.98    8.08
  -8  -8   1   37.83    7.25
  16  -8   1   46.42   10.90
  -8  -8   1   37.39    7.14
 -16   9  -1   -1.39    6.44
 -16   9  -1    2.03    6.00
  -9  -7   1   -2.37    5.35
  -9  -7   1   10.81    6.16
  16  -9   1    3.42    8.67
 -16  10  -1   -4.01    6.27
 -16  10  -1    4.70    6.18
 -10  -6   1   -3.56    5.25
  16 -10   1   14.25    9.02
 -10  -6   1   -7.01    5.51
 -16  11  -1   -3.58    5.69
 -16  11  -1    3.04    6.45
  16 -11   1   -1.33    7.95
 -11  -5   1   -6.75    4.92
 -11  -5   1    2.87    5.96
 -16  12  -1   21.30    7.67
 -16  12  -1   24.21    6.83
 -12  -4   1   24.46    7.41
  16 -12   1   21.99    8.55
 -12  -4   1   23.14    7.14
 -16  13  -1   -6.94    5.92
 -16  13  -1   -2.42    5.57
   3 -16  -1   -1.36    3.23
  13   3  -1    5.87   10.14
   3 -16  -1    3.65    3.45
 -13  -3   1   -1.39    6.49
  16 -13   1   -0.54    8.44
 -13  -3   1    9.20    6.78
  14   2  -1   -6.10    7.84
 -16  14  -1    5.62    5.92
   2 -16  -1    0.77    3.56
   2 -16  -1    6.27    3.82
 -16  14  -1   -0.26    6.35
  16 -14   1   -6.31    8.65
 -14  -2   1    4.40    6.68
 -14  -2   1   -4.11    6.49
   1 -16  -1    6.35    4.18
 -16  15  -1    4.99    6.36
  15   1  -1   -2.25   10.42
   1 -16  -1    8.44    4.35
 -16  15  -1    9.37    6.22
 -15  -1   1   17.71    7.66
 -15  -1   1    6.87    6.99
  16 -15   1   10.44    9.70
 -16  16  -1   14.21    6.49
 -16  16  -1    7.68    5.82
  16   0  -1   12.30    9.96
   0 -16  -1    9.60    4.65
   0 -16  -1    8.96    4.50
 -16   0   1   10.40    7.72
  16 -16   1    2.73    9.15
 -16   0   1   -5.53    6.50
  17  -1  -1    6.70   11.71
 -17   1   1   -6.01    6.63
 -17   1   1  -12.18    6.74
  18  -2  -1    3.94   11.09
 -17   0  -1    6.97    7.83
 -17   0  -1   -1.11    6.93
  17 -17  -1    6.70   10.16
  17   0   1    2.32   10.26
 -17   1  -1   -6.48    7.12
 -17   1  -1   -1.11    7.02
  17  -1   1   -8.40    9.82
 -17   2  -1   71.19   10.93
 -17   2  -1   83.74   12.12
  17  -2   1   40.09   11.86
 -17   3  -1   47.74   10.27
 -17   3  -1   48.75    9.38
  17  -3   1   26.76   11.29
  -3 -14   1   36.25    6.39
  -3 -14   1   25.01    5.66
 -17   4  -1   17.16    8.52
 -17   4  -1    6.71    7.14
  17  -4   1   42.80   12.04
  -4 -13   1   17.42    5.62
  -4 -13   1   11.59    5.25
 -17   5  -1   32.83    8.44
 -17   5  -1   19.63    8.31
  -5 -12   1   34.12    6.47
  -5 -12   1   28.17    6.21
  17  -5   1   35.60   11.87
 -17   6  -1    6.06    6.74
 -17   6  -1   13.61    7.73
  -6 -11   1    2.62    4.98
  -6 -11   1    2.54    4.56
  17  -6   1   12.54   10.17
 -17   7  -1    7.14    6.86
 -17   7  -1   32.34    8.70
  -7 -10   1   17.34    5.71
  17  -7   1   22.93   10.83
  -7 -10   1   25.38    5.94
 -17   8  -1    8.70    6.92
 -17   8  -1   -7.80    6.91
  -8  -9   1   -3.25    5.03
  -8  -9   1   -2.54    5.28
  17  -8   1   -6.82    8.91
 -17   9  -1   51.02    9.27
 -17   9  -1   53.65    8.99
  -9  -8   1   54.63    8.30
  17  -9   1   65.34   11.57
  -9  -8   1   46.78    8.21
 -17  10  -1   46.05    8.72
 -17  10  -1   45.69    8.84
 -10  -7   1   52.28    8.79
  17 -10   1   28.42    9.93
 -10  -7   1   41.74    7.86
 -17  11  -1   44.97    8.49
 -17  11  -1   47.71    9.08
  17 -11   1   37.55   11.27
 -11  -6   1   44.80    7.89
 -11  -6   1   41.55    8.09
 -17  12  -1   50.93    8.67
 -17  12  -1   66.85    9.71
 -12  -5   1   59.04    9.11
  17 -12   1   37.31    9.38
 -12  -5   1   71.05    9.77
  13   4  -1    0.77   10.28
 -17  13  -1   -0.61    6.81
 -17  13  -1    6.33    6.19
  17 -13   1    1.25    9.13
 -13  -4   1    4.74    6.63
 -13  -4   1   -0.82    6.75
 -17  14  -1    4.22    6.77
 -17  14  -1   -1.02    6.23
  14   3  -1    1.61   10.24
 -14  -3   1   -0.51    6.74
  17 -14   1    5.53    9.35
 -14  -3   1    8.12    7.39
 -17  15  -1   11.44    7.20
  15   2  -1   -5.44    8.27
 -17  15  -1    7.55    6.88
 -15  -2   1   -8.47    6.71
  17 -15   1    1.07    9.60
 -15  -2   1   -0.35    7.29
 -17  16  -1   33.80    7.84
 -17  16  -1   38.19    7.74
  16   1  -1   40.02   13.33
 -16  -1   1   34.67    9.62
 -16  -1   1   33.21    9.22
  17 -16   1   46.81   11.19
 -17  17  -1   -4.03    5.74
 -17  17  -1   15.29    6.92
  17   0  -1    3.14    9.57
 -17   0   1   10.93    7.73
 -17   0   1    7.99    8.25
  18  -2   1   11.88   11.61
 -18   3  -1    4.17    8.27
 -18   3  -1   -3.30    7.04
  18  -3   1   16.88   11.14
 -18   4  -1   -0.92    7.57
 -18   4  -1    8.05    7.46
  18  -4   1   15.59   11.17
  -4 -14   1    1.24    4.77
  -4 -14   1    5.67    4.80
 -18   5  -1    5.92    8.06
 -18   5  -1   -0.09    6.89
  -5 -13   1    2.86    4.71
  18  -5   1    5.73   10.17
  -5 -13   1    0.51    4.81
 -18   6  -1   22.87    8.73
 -18   6  -1   -1.29    6.54
  -6 -12   1   15.03    5.72
  -6 -12   1   13.50    5.50
  18  -6   1    7.89   10.57
 -18   7  -1    6.11    7.68
 -18   7  -1   -0.97    6.68
  18  -7   1   -0.35    9.98
  -7 -11   1    5.28    5.56
  -7 -11   1   -1.39    5.08
 -18   8  -1   -2.66    6.92
 -18   8  -1    3.89    7.63
  18  -8   1    2.83    9.75
  -8 -10   1   -7.25    4.93
  -8 -10   1    7.06    6.01
 -18   9  -1   27.75    8.71
 -18   9  -1   31.49    8.36
  18  -9   1   34.22   10.53
  -9  -9   1   32.79    7.94
  -9  -9   1   23.73    7.06
 -18  10  -1   -3.68    7.09
 -18  10  -1   11.35    7.13
 -10  -8   1    7.35    5.99
 -10  -8   1   18.10    7.14
  18 -10   1   10.57   10.16
 -18  11  -1   11.51    7.62
 -18  11  -1    6.99    6.99
 -11  -7   1    5.43    6.10
  18 -11   1   -9.69    9.05
 -11  -7   1   -9.87    5.60
 -18  12  -1   -6.93    6.49
 -18  12  -1   -6.62    6.77
 -12  -6   1    4.15    6.26
 -12  -6   1   -8.29    5.86
  18 -12   1    2.02    8.81
 -18  13  -1   48.04    9.45
 -18  13  -1   59.09    9.37
 -13  -5   1   42.83    9.15
  18 -13   1   37.74   11.75
 -13  -5   1   56.46    9.91
 -18  14  -1   23.00    7.82
  14   4  -1   44.19   13.13
 -18  14  -1   33.12    8.56
 -14  -4   1   37.82    9.27
  18 -14   1   25.89   10.70
 -14  -4   1    8.20    7.42
  15   3  -1   19.79   10.00
 -18  15  -1   13.02    7.31
 -18  15  -1   25.74    8.39
  18 -15   1   -1.34    9.63
 -15  -3   1   18.41    8.04
 -15  -3   1   30.80    8.95
  18 -16   1   14.67   11.00
 -19   5  -1   27.65    9.47
 -19   5  -1   18.17    8.03
  19  -5   1   18.27   12.06
 -19   6  -1   -7.90    7.87
 -19   6  -1    7.26    7.81
  19  -6   1    5.61   10.87
  -6 -13   1    6.62    5.44
  -6 -13   1   -4.93    4.89
 -19   7  -1    8.24    7.47
 -19   7  -1    2.57    8.24
  -7 -12   1   11.61    5.90
  -7 -12   1   17.21    6.24
  19  -7   1    3.55   11.16
 -19   8  -1    2.29    7.99
 -19   8  -1    1.26    7.23
  -8 -11   1   20.92    6.56
  19  -8   1   15.77   11.43
  -8 -11   1   -7.99    4.79
 -19   9  -1   13.63    8.87
 -19   9  -1   19.97    7.97
  -9 -10   1   26.56    7.81
  19  -9   1   11.15   10.63
  -9 -10   1   24.78    7.22
 -19  10  -1  -17.00    7.04
 -19  10  -1    0.02    6.76
 -10  -9   1   -6.98    5.45
  19 -10   1    5.44    9.75
 -10  -9   1    4.97    6.62
 -19  11  -1   13.99    8.17
 -19  11  -1    0.19    7.16
 -11  -8   1   -8.81    5.56
 -11  -8   1   -1.35    6.11
  19 -11   1    9.21   10.41
 -19  12  -1  -12.05    7.24
 -19  12  -1   -3.64    6.87
 -12  -7   1   -1.01    6.49
  19 -12   1   -9.74    8.87
 -12  -7   1    0.22    6.14
 -19  13  -1    8.46    7.90
 -19  13  -1   20.56    7.97
 -13  -6   1   -6.32    6.33
 -13  -6   1   13.05    7.93
  19 -13   1    8.94   10.24
  14   5  -1    1.58   11.27
 -19  14  -1    0.84    7.63
 -19  14  -1   -4.14    7.10
 -14  -5   1   -4.19    6.90
 -14  -5   1    2.47    6.90
  19 -14   1   13.65   10.38
   1  -1  -2   29.06    2.84
  -1   0  -2   35.49    3.02
   1   0   2   32.42    3.02
   1   0  -2   32.30    2.81
   1   0  -2   30.03    2.76
   0  -1  -2   28.73    2.10
  -1   1  -2   30.18    3.07
   0  -1  -2   29.60    2.91
   0   1   2   31.52    2.92
   0   1   2   29.03    2.54
  -1  -1  -2   23.72    2.95
   2  -1  -2   21.84    2.95
  -1  -1  -2   25.96    2.71
   2  -1  -2   24.63    3.04
   1   1   2   25.25    2.86
   1   1   2   26.15    3.03
  -2   1   2   21.73    3.11
  -2   1   2   23.38    3.21
  -1   3  -2  128.70    5.85
  -2  -1  -2  150.70    7.77
   3  -2  -2  143.62    6.96
   3  -2  -2  139.88    7.75
  -1   3  -2  141.64    9.20
   3  -2  -2  131.51    7.82
   3  -2  -2  141.87    8.10
  -1   3  -2  131.52    5.94
   1  -3   2  140.01    9.14
   2   1   2  137.49    8.53
  -3   2   2  146.70    8.01
   2   1   2  131.20    7.27
  -3   2   2  133.55    8.15
   2  -2  -2  106.77    6.15
   2  -2  -2  108.91    6.64
  -2   0  -2  117.88    5.98
   2  -2  -2  104.45    6.36
   0   2  -2  125.25    5.68
  -2   0  -2  110.04    7.45
   0   2  -2  113.36    5.59
   2  -2  -2   96.16    6.44
  -2   2   2  116.13    6.02
   2   0   2  106.58    7.43
   1   1  -2   26.83    2.78
  -2   1  -2   28.42    3.58
   1  -2  -2   20.72    2.91
   1   1  -2   22.54    2.63
  -1  -1   2   21.59    2.78
   2  -1   2   26.83    3.70
  -1  -1   2   20.45    2.76
  -1   2   2   22.63    2.82
   2   0  -2  115.87    6.51
   0  -2  -2  122.80    7.07
   2   0  -2  117.87    6.38
  -2   2  -2  111.51    7.78
  -2   0   2  119.75    6.94
  -2   0   2  110.85    6.75
   2  -2   2  109.57    8.05
   0   2   2  112.18    6.63
   3  -1  -2   16.82    3.27
  -2   3  -2   12.21    4.19
  -2   3  -2   14.49    3.64
  -1  -2  -2   15.37    3.28
   3  -1  -2   18.74    3.21
  -3   1   2    9.09    3.33
   1   2   2   13.23    2.91
  -3   1   2   16.47    3.40
   2  -3   2   12.75    4.11
   4  -2  -2   13.66    3.20
  -2   4  -2   16.31    4.94
   4  -2  -2   12.29    4.01
   4  -2  -2   19.13    3.35
  -2   4  -2   15.42    1.37
   4  -2  -2   19.13    2.39
  -2  -2  -2   17.05    3.51
  -2   4  -2   16.82    1.40
  -4   2   2   19.07    3.66
   2  -4   2   15.76    4.53
  -4   2   2   19.59    3.62
   2   2   2   19.02    3.34
   5  -3  -2   14.10    3.53
  -3  -2  -2   19.83    3.71
   5  -3  -2   16.38    2.61
  -2   5  -2   21.71    5.80
   5  -3  -2   11.70    4.36
   5  -3  -2   13.92    3.46
   2  -5   2   12.85    4.76
  -5   3   2   11.28    3.58
  -5   3   2   14.52    3.76
   3   2   2   10.14    3.10
   4  -3  -2   43.56    4.40
  -1   4  -2   55.19    6.23
  -1   4  -2   39.96    2.80
   4  -3  -2   49.94    3.95
  -3  -1  -2   46.35    4.18
   4  -3  -2   59.59    5.40
  -1   4  -2   43.17    2.67
   4  -3  -2   44.01    4.41
  -4   3   2   52.45    4.90
   3   1   2   53.37    5.61
   3   1   2   47.70    4.09
  -4   3   2   48.61    3.87
  -4   3   2   53.86    4.83
  -4   3   2   49.93    4.73
   0   3  -2  259.50   14.24
  -3   0  -2  289.02   12.19
   0   3  -2  271.65   11.04
   3  -3  -2  263.89   12.25
   0   3  -2  272.17   11.21
   3  -3  -2  278.99   12.56
   3  -3  -2  265.68   12.07
   3  -3  -2  255.95   13.05
  -3   0  -2  278.12   13.55
   3   0   2  254.37   14.06
  -3   3   2  276.00   12.33
  -3   3   2  278.48   13.09
   0  -3   2  274.48   14.26
   3   0   2  263.47   12.01
   0  -3   2  283.43   11.07
  -3   3   2  267.33   12.31
   0  -3   2  256.13   11.11
  -3   1  -2   11.49    2.86
  -3   1  -2   12.55    2.91
   1   2  -2   13.37    2.57
   2  -3  -2   13.87    2.32
  -3   1  -2    7.51    3.80
   1   2  -2    9.10    4.08
   1   2  -2   14.46    2.53
   2  -3  -2   13.73    3.17
  -1  -2   2   12.89    2.61
  -2   3   2   15.11    2.56
  -2   3   2   11.06    2.87
   3  -1   2   10.85    4.00
  -1  -2   2    9.32    2.58
   2   1  -2  154.71    7.87
   2   1  -2  141.09    7.85
  -3   2  -2  141.76    7.22
  -3   2  -2  147.15    7.28
   1  -3  -2  140.09    8.60
  -3   2  -2  148.28    9.89
  -1   3   2  145.89    8.75
   3  -2   2  141.72    9.86
  -2  -1   2  142.38    7.66
  -2  -1   2  150.42    7.87
   0  -3  -2  273.00   13.51
  -3   3  -2  273.83   11.53
   3   0  -2  277.62   12.79
  -3   3  -2  275.72   13.77
  -3   3  -2  286.81   11.50
  -3   3  -2  283.71   14.42
   3   0  -2  294.63   12.50
   3  -3   2  263.85   14.56
  -3   0   2  256.29   12.62
  -3   0   2  250.57   12.41
   0   3   2  276.69   13.18
   4  -1  -2   17.72    3.35
   4  -1  -2   25.17    3.73
  -3   4  -2   15.86    2.11
  -3   4  -2   20.98    4.33
  -3   4  -2   18.06    2.07
  -3   4  -2   21.67    4.75
  -1  -3  -2   22.59    3.98
  -4   1   2   19.28    3.76
   1   3   2   17.59    3.47
  -4   1   2   25.89    3.85
   3  -4   2   23.83    4.50
  -3   5  -2    1.04    1.18
  -3   5  -2   -6.37    4.69
   5  -2  -2    9.57    4.37
   5  -2  -2    2.91    1.74
   5  -2  -2    4.69    2.88
   5  -2  -2    3.22    2.84
  -3   5  -2    1.04    1.19
  -3   5  -2    6.77    3.78
  -5   2   2    7.10    3.34
   2   3   2    4.19    2.84
   3  -5   2    6.55    4.38
  -5   2   2    0.54    3.14
   6  -3  -2   19.80    3.81
   6  -3  -2   18.30    3.75
   6  -3  -2   16.40    2.39
   6  -3  -2   11.74    5.06
  -6   3   2   20.51    4.16
  -6   3   2   20.19    4.03
   3  -6   2   26.06    5.58
   3   3   2   18.24    3.79
   7  -4  -2    3.01    2.25
   7  -4  -2   -1.54    4.69
  -4  -3  -2    1.21    3.27
  -4  -3  -2    0.82    3.10
   7  -4  -2   -3.98    3.02
   7  -4  -2   -4.97    2.99
   3  -7   2    4.72    5.19
  -7   4   2    7.24    3.72
   4   3   2    0.94    3.18
  -7   4   2    4.35    4.25
  -7   4   2    1.66    3.60
   6  -4  -2    7.08    3.22
  -4  -2  -2    9.82    3.37
   6  -4  -2    7.59    4.33
   6  -4  -2   10.00    3.43
  -6   4   2    9.49    3.70
   4   2   2   12.04    3.23
  -6   4   2    8.40    3.61
  -6   4   2    7.32    4.08
   4   2   2    6.06    4.70
  -1   5  -2    1.94    1.15
   5  -4  -2    0.56    2.79
  -4  -1  -2    1.16    2.48
   5  -4  -2    1.15    2.70
   5  -4  -2    0.82    3.82
  -4  -1  -2    0.29    2.84
  -1   5  -2  -10.46    4.77
  -4  -1  -2   -3.09    2.73
  -1   5  -2    4.35    1.15
   5  -4  -2    2.64    2.52
   1  -5   2    1.31    1.23
  -5   4   2   -1.25    3.43
   4   1   2    5.45    4.27
   4   1   2    2.28    2.42
  -5   4   2    2.04    3.19
  -5   4   2    2.39    2.17
  -5   4   2    0.44    3.10
   1  -5   2    3.35    4.46
   1  -5   2    0.87    1.22
  -4   0  -2  226.63   10.98
   4  -4  -2  210.30   10.71
  -4   0  -2  244.23   11.13
  -4   0  -2  217.51   10.18
   4  -4  -2  228.52   11.82
   0   4  -2  207.90    9.19
   4  -4  -2  209.63   10.55
  -4   0  -2  221.19   12.00
   0   4  -2  206.57    9.11
   0   4  -2  194.77   12.75
   4  -4  -2  215.86   10.92
   4   0   2  212.58   10.07
   0  -4   2  223.62   12.82
  -4   4   2  225.30   11.91
  -4   4   2  222.64   10.65
   0  -4   2  204.14    9.28
   0  -4   2  213.37    9.14
  -4   4   2  219.45   10.66
  -4   4   2  221.79   10.87
   4   0   2  209.41   12.62
   1   3  -2   22.98    4.97
  -4   1  -2   17.54    3.26
   3  -4  -2   25.43    3.82
   1   3  -2   18.25    2.54
  -4   1  -2   18.39    2.57
   3  -4  -2   22.09    3.27
  -4   1  -2   18.96    4.02
   3  -4  -2   22.33    3.31
  -4   1  -2   18.77    3.31
   3  -4  -2   26.62    3.38
   1   3  -2   18.76    2.59
  -3   4   2   19.21    3.30
  -1  -3   2   21.26    2.72
  -1  -3   2   16.54    2.66
   4  -1   2   18.78    4.97
  -3   4   2   20.94    3.55
  -4   2  -2   21.24    4.67
  -4   2  -2   24.21    3.41
   2   2  -2   24.31    4.69
   2   2  -2   21.45    2.93
  -4   2  -2   13.76    3.00
  -4   2  -2   15.30    3.07
   2   2  -2   15.43    2.74
   2  -4  -2   16.48    3.76
   4  -2   2   20.25    4.48
  -2  -2   2   15.87    2.97
  -2   4   2   16.35    3.42
  -2   4   2   17.72    2.84
  -2  -2   2   16.69    3.09
  -4   3  -2   50.81    4.67
  -4   3  -2   47.52    3.82
  -4   3  -2   47.10    5.81
   3   1  -2   43.94    4.25
  -4   3  -2   45.43    3.85
   3   1  -2   48.95    4.37
   4  -3   2   60.75    6.08
  -3  -1   2   50.38    4.60
  -3  -1   2   49.06    4.51
   4  -3   2   45.70    3.80
  -1   4   2   53.68    5.06
   4  -3   2   47.91    3.89
  -4   4  -2  215.86   11.83
  -4   4  -2  207.96    9.50
   4   0  -2  228.92   11.14
  -4   4  -2  203.27    9.60
  -4   4  -2  228.72   13.38
   4   0  -2  241.30   10.95
   4  -4   2  212.93   11.79
   0   4   2  217.87   11.62
  -4   0   2  229.28   11.12
  -4   0   2  213.81   10.78
   4  -4   2  214.26    9.66
   4  -4   2  211.30    9.54
   4  -4   2  229.29   12.88
   5  -1  -2   14.21    3.47
  -4   5  -2   15.26    4.33
   5  -1  -2   15.94    3.57
  -4   5  -2   15.32    2.20
  -4   5  -2   22.33    5.10
  -4   5  -2   15.49    2.16
  -5   1   2   14.23    3.71
   4  -5   2   15.14    2.11
   1   4   2   12.47    3.66
   4  -5   2   17.12    2.12
   4  -5   2   26.07    5.03
  -5   1   2   11.30    3.53
   4  -5   2   12.97    4.82
   6  -2  -2   -0.04    4.65
   6  -2  -2    6.51    3.28
  -4   6  -2    5.25    1.46
   6  -2  -2    2.16    3.02
  -4   6  -2    4.73    1.48
  -4   6  -2    4.90    3.99
   2   4   2   10.12    3.47
   4  -6   2    7.10    1.53
   4  -6   2   -4.44    4.30
  -6   2   2    7.44    3.42
  -6   2   2    2.76    3.30
   4  -6   2    6.87    1.50
   7  -3  -2   -1.81    3.06
   7  -3  -2    0.25    3.29
  -3  -4  -2   -0.69    2.99
  -4   7  -2    8.72    4.36
   7  -3  -2    0.18    1.81
  -3  -4  -2    2.74    3.13
   7  -3  -2    0.45    5.17
   4  -7   2   -2.18    4.89
   3   4   2   -2.58    3.19
  -7   3   2   -1.35    3.42
  -7   3   2    0.11    3.52
   8  -4  -2    3.57    5.55
  -4  -4  -2    5.21    3.63
   8  -4  -2    7.66    4.01
  -4  -4  -2    3.32    3.58
   8  -4  -2    6.57    3.77
  -8   4   2    6.57    4.29
   4   4   2   -2.43    3.44
  -8   4   2   -0.39    3.95
   9  -5  -2   28.33    5.90
  -5  -4  -2    6.32    3.94
  -5  -4  -2    0.62    3.56
   5   4   2   -6.27    3.48
  -9   5   2   -0.89    4.28
  -9   5   2    8.34    4.42
  -5  -3  -2   21.56    4.52
   8  -5  -2   15.76    4.32
   8  -5  -2   14.58    4.16
   8  -5  -2   15.06    5.71
  -5  -3  -2   15.77    4.30
  -8   5   2   23.35    5.44
  -8   5   2   12.06    2.35
  -8   5   2   21.25    4.84
   5   3   2   15.56    4.04
  -8   5   2   14.69    4.65
  -5  -2  -2   58.72    5.90
  -5  -2  -2   42.94    5.49
   7  -5  -2   55.50    7.19
   7  -5  -2   55.12    5.84
   7  -5  -2   59.47    5.82
  -7   5   2   63.88    6.92
  -7   5   2   60.42    6.20
   5   2   2   63.78    7.71
  -7   5   2   58.47    4.50
   5   2   2   57.01    5.37
  -7   5   2   56.07    6.00
  -5  -1  -2    6.17    2.84
   6  -5  -2    5.76    3.24
  -5  -1  -2    2.57    3.22
  -5  -1  -2   -0.89    3.12
  -1   6  -2    8.47    5.60
   6  -5  -2    2.65    2.99
   6  -5  -2    8.99    4.49
  -6   5   2   -1.85    3.75
  -6   5   2    5.10    3.60
   5   1   2    4.00    2.48
  -6   5   2    2.03    3.55
  -6   5   2    0.26    2.33
   1  -6   2    1.28    4.78
   1  -6   2    5.27    1.53
   5   1   2    4.76    4.92
   1  -6   2    6.32    1.57
   0   5  -2   84.69    8.32
   0   5  -2   69.79    4.33
   5  -5  -2   88.70    6.69
   0   5  -2   67.56    4.37
  -5   0  -2   64.71    5.34
   5  -5  -2   81.39    5.96
   5  -5  -2   69.82    5.72
  -5   0  -2   64.47    5.89
  -5   0  -2   71.31    6.06
   0  -5   2   55.96    4.52
   5   0   2   66.61    7.16
   0  -5   2   79.16    7.48
   0  -5   2   66.53    4.40
  -5   5   2   68.29    5.72
   5   0   2   69.23    4.82
  -5   5   2   78.08    6.00
  -5   5   2   78.11    6.40
   4  -5  -2   16.24    3.33
   1   4  -2   18.92    2.60
  -5   1  -2   14.91    2.51
   1   4  -2   20.10    5.28
   1   4  -2   16.57    2.54
  -5   1  -2   18.02    3.80
  -5   1  -2   25.86    4.41
   4  -5  -2   18.48    3.41
   4  -5  -2   21.09    3.77
  -5   1  -2   13.71    3.53
   5  -1   2   18.38    4.88
  -4   5   2   16.30    3.84
  -1  -4   2   14.80    2.59
  -1  -4   2   15.74    4.71
  -4   5   2   14.58    3.31
   5  -1   2   23.75    3.53
   5  -1   2   19.24    3.42
  -1  -4   2   15.88    2.66
   2   3  -2    2.20    2.34
  -5   2  -2    5.26    2.88
  -5   2  -2    1.34    4.10
   2   3  -2    2.63    2.39
   2   3  -2    5.19    4.44
  -5   2  -2    4.06    2.85
  -5   2  -2    6.93    2.46
  -3   5   2    0.87    2.86
  -2  -3   2    4.87    2.60
  -2  -3   2    5.03    2.58
   5  -2   2    3.35    4.44
   5  -2   2    3.08    2.58
  -3   5   2   -2.00    2.81
   5  -2   2   -0.81    2.41
  -5   3  -2   13.84    3.05
  -5   3  -2   21.77    5.28
  -5   3  -2   13.47    2.95
   3   2  -2   12.57    3.00
   3   2  -2   10.92    2.89
   3   2  -2   14.26    4.40
  -5   3  -2   16.13    3.20
   5  -3   2   15.96    2.95
   5  -3   2    9.43    4.53
  -3  -2   2    7.41    3.00
  -3  -2   2   13.25    3.11
   5  -3   2    9.48    2.74
  -2   5   2   15.96    3.75
  -5   4  -2   12.30    2.54
  -5   4  -2    7.12    4.51
   4   1  -2   -0.39    2.72
   4   1  -2    3.73    2.77
  -5   4  -2    9.77    2.51
  -5   4  -2    9.67    3.46
   5  -4   2    9.64    4.30
  -4  -1   2    9.60    3.30
  -1   5   2    1.68    3.18
  -4  -1   2    2.36    3.02
   5  -4   2    8.71    2.43
   5  -4   2   12.21    2.60
   5  -4   2    8.06    3.82
  -5   5  -2   60.70    4.93
  -5   5  -2   75.96    7.22
   5   0  -2   64.13    5.54
  -5   5  -2   62.43    4.66
   5   0  -2   70.49    5.65
   5  -5   2   85.76    7.02
   0   5   2   55.22    5.83
  -5   0   2   61.18    5.74
   5  -5   2   64.58    5.00
   5  -5   2   74.74    7.16
   5  -5   2   68.95    5.09
  -5   0   2   60.58    5.78
  -5   6  -2   53.11    3.69
  -5   6  -2   53.10    4.31
   6  -1  -2   50.29    5.13
  -5   6  -2   57.23    6.79
   6  -1  -2   51.59    5.18
   5  -6   2   51.40    3.78
   1   5   2   50.05    5.74
  -6   1   2   51.98    5.58
   5  -6   2   52.29    3.78
   5  -6   2   42.94    6.26
  -6   1   2   49.07    5.41
   5  -6   2   51.31    6.45
   7  -2  -2    6.10    3.53
  -5   7  -2    4.52    4.50
  -5   7  -2    9.78    1.99
   7  -2  -2    9.55    3.57
   7  -2  -2   -1.01    5.38
  -5   7  -2    8.43    1.96
   5  -7   2    6.41    1.92
   2   5   2    3.02    3.96
   5  -7   2   10.81    2.04
  -7   2   2   10.69    4.17
   5  -7   2   12.12    5.62
  -7   2   2    4.82    3.70
   8  -3  -2   57.64    8.21
  -3  -5  -2   67.81    6.27
  -3  -5  -2   50.19    5.61
   8  -3  -2   46.62    3.97
   5  -8   2   53.23    3.63
   3   5   2   49.72    6.20
   5  -8   2   53.44    3.56
  -8   3   2   57.48    6.51
   5  -8   2   73.28    8.24
  -8   3   2   48.34    6.23
   9  -4  -2    6.21    5.85
  -4  -5  -2    1.49    3.69
  -4  -5  -2    1.43    3.54
   5  -9   2    2.12    1.21
  -9   4   2   -5.98    3.90
  -9   4   2   -0.77    4.23
   4   5   2    3.01    3.93
   5  -9   2    2.50    1.24
  10  -5  -2    7.07    6.12
  -5  -5  -2   13.43    4.49
  -5  -5  -2   10.35    4.36
 -10   5   2   10.83    4.92
 -10   5   2    9.80    4.67
  -6  -5  -2   -0.93    4.00
  -6  -5  -2    4.92    4.29
  11  -6  -2   -3.80    6.25
 -11   6   2    5.13    4.80
 -11   6   2    2.63    4.69
  10  -6  -2   25.60    6.72
  -6  -4  -2   13.00    4.68
  -6  -4  -2   21.50    5.06
   6   4   2   19.69    4.57
 -10   6   2   26.45    5.47
 -10   6   2   20.07    5.40
  -6  -3  -2   -0.51    3.51
  -6  -3  -2   -4.09    3.49
   9  -6  -2   -9.16    5.23
  -9   6   2   -0.72    1.96
   6   3   2    6.33    3.58
  -9   6   2   -3.18    3.97
  -9   6   2    0.79    4.23
  -6  -2  -2    2.28    3.77
   8  -6  -2    2.19    3.56
  -6  -2  -2   10.91    4.14
   8  -6  -2   -1.68    5.10
   8  -6  -2    0.09    3.43
   6   2   2    0.06    3.31
   2  -8   2    6.75    1.32
  -8   6   2    1.53    2.36
   2  -8   2    4.87    1.32
  -8   6   2   -3.97    3.89
   6   2   2   -0.89    5.65
  -8   6   2   -7.68    3.71
   7  -6  -2   18.68    4.32
   7  -6  -2   14.17    4.05
  -6  -1  -2   14.33    4.01
  -6  -1  -2   20.56    4.46
   7  -6  -2   16.20    5.19
  -7   6   2   16.99    3.41
  -7   6   2   27.11    5.09
   1  -7   2   16.17    2.20
   6   1   2   21.79    6.14
   1  -7   2   13.84    2.11
  -7   6   2   18.97    4.58
   6   1   2   16.11    3.31
  -7   6   2   18.51    4.55
   1  -7   2   11.58    5.72
   6  -6  -2   24.67    4.15
  -6   0  -2   27.33    4.68
   0   6  -2   29.82    2.80
   0   6  -2   22.46    2.69
  -6   0  -2   21.94    4.42
   6  -6  -2   23.72    4.02
   6  -6  -2   26.77    4.92
   0   6  -2   24.72    6.61
  -6   0  -2   25.73    3.54
   6   0   2   23.71    3.15
  -6   6   2   25.29    4.25
   6   0   2   18.22    3.83
  -6   6   2   20.85    4.28
  -6   6   2   28.68    5.26
   0  -6   2   33.86    3.09
   0  -6   2   27.34    6.03
   6   0   2   24.95    4.09
   0  -6   2   26.91    2.83
   6   0   2   31.66    6.53
  -6   6   2   23.20    3.75
   1   5  -2   52.15    3.96
   5  -6  -2   50.97    4.96
  -6   1  -2   41.47    5.25
  -6   1  -2   48.02    4.07
  -6   1  -2   46.80    5.40
   5  -6  -2   62.95    5.21
   1   5  -2   66.41    7.76
  -6   1  -2   47.43    5.88
   5  -6  -2   41.73    5.31
   1   5  -2   56.84    4.10
  -1  -5   2   55.12    6.81
  -1  -5   2   53.17    4.21
   6  -1   2   50.66    5.28
   6  -1   2   59.39    5.57
  -5   6   2   56.31    5.28
  -5   6   2   59.03    5.88
   6  -1   2   53.12    7.16
  -1  -5   2   53.53    4.20
  -6   2  -2    7.15    2.07
  -6   2  -2    0.60    3.16
   4  -6  -2    2.34    3.25
  -6   2  -2   11.62    4.08
  -6   2  -2    5.74    3.16
   2   4  -2    5.02    2.57
  -6   2  -2    5.81    2.07
   4  -6  -2    5.73    2.75
   4  -6  -2    6.55    2.78
   2   4  -2    4.88    2.64
  -2  -4   2    4.79    2.74
   6  -2   2    2.89    2.79
  -4   6   2    7.77    3.29
   6  -2   2    0.32    4.98
  -2  -4   2    9.78    4.28
  -4   6   2    8.30    3.56
  -2  -4   2    6.90    2.83
   6  -2   2   11.03    3.10
   3   3  -2   20.26    3.48
  -6   3  -2   10.79    5.11
   3   3  -2   21.77    5.38
  -6   3  -2   24.47    3.83
   3   3  -2   17.80    3.25
  -6   3  -2   17.67    3.56
  -6   3  -2    7.55    2.95
   6  -3   2   13.17    3.24
   6  -3   2   20.14    3.32
  -3  -3   2   16.77    3.41
  -3   6   2   11.45    3.83
   6  -3   2   14.28    5.35
  -3  -3   2   23.84    3.59
   4   2  -2   13.72    4.50
   4   2  -2    9.91    3.25
  -6   4  -2    9.13    2.87
  -6   4  -2   12.21    2.97
  -6   4  -2   14.76    5.28
   4   2  -2    5.62    2.97
  -2   6   2    9.92    3.86
   6  -4   2   10.00    4.78
  -4  -2   2    6.66    3.26
   6  -4   2    8.25    2.82
  -4  -2   2    5.98    3.19
   6  -4   2   10.72    2.79
   6  -4   2    7.21    3.67
   5   1  -2    4.61    3.14
  -6   5  -2    2.44    2.39
  -6   5  -2    2.36    2.46
   5   1  -2   -1.28    2.94
  -6   5  -2   11.16    5.04
   6  -5   2   12.98    5.00
   6  -5   2    3.82    2.46
  -5  -1   2   -0.25    3.14
  -5  -1   2   -1.41    3.06
   6  -5   2    5.73    4.34
  -1   6   2    4.00    3.77
   6  -5   2    5.10    2.58
  -6   6  -2   23.91    3.03
  -6   6  -2   28.44    3.24
  -6   6  -2   24.82    5.62
   6   0  -2   30.95    4.50
   6   0  -2   33.13    4.58
  -6   0   2   30.46    4.84
   6  -6   2   30.81    5.62
   6  -6   2   27.44    5.67
   6  -6   2   21.89    3.22
   0   6   2   18.46    4.61
  -6   0   2   16.54    4.33
   6  -6   2   23.49    3.18
  -6   7  -2    3.74    2.25
   7  -1  -2    1.07    3.55
  -6   7  -2   -0.78    2.09
  -6   7  -2    6.86    5.09
   7  -1  -2   -6.29    3.18
   6  -7   2    8.06    4.97
   6  -7   2    4.80    2.19
   6  -7   2    1.42    5.22
   1   6   2    2.94    4.12
   6  -7   2    7.23    2.39
  -7   1   2   -2.25    3.80
  -7   1   2    4.45    4.03
  -6   8  -2   21.90    2.80
   8  -2  -2   17.49    6.59
  -6   8  -2   26.23    2.86
   2   6   2   19.91    5.27
  -8   2   2   13.76    4.77
   6  -8   2   22.26    2.85
  -8   2   2   24.02    5.04
   6  -8   2   24.12    2.83
   6  -8   2   20.59    6.08
   9  -3  -2    2.24    1.44
  -3  -6  -2    2.06    3.45
  -6   9  -2    7.47    2.12
   9  -3  -2    5.10    6.49
  -3  -6  -2    2.70    3.48
  -6   9  -2    3.39    2.01
  -9   3   2    3.05    4.35
   6  -9   2    1.44    1.81
  -9   3   2    1.28    4.26
   6  -9   2    3.09    1.90
  -4  -6  -2    7.20    3.87
  -4  -6  -2    2.97    3.58
  10  -4  -2    0.97    6.07
   6 -10   2   -0.86    1.45
   6 -10   2    1.33    1.49
 -10   4   2    0.06    4.42
 -10   4   2    3.77    4.51
  -5  -6  -2   29.06    5.42
  11  -5  -2   46.84    8.42
  -5  -6  -2   36.28    5.88
 -11   5   2   33.77    6.20
 -11   5   2   30.33    6.16
   6 -11   2   32.64    2.54
   6 -11   2   29.02    2.20
  -6  -6  -2   29.38    5.85
  -6  -6  -2   27.43    5.68
  12  -6  -2   35.52    8.32
 -12   6   2   28.92    6.27
 -12   6   2   33.71    6.64
  13  -7  -2   15.18    8.21
  -7  -6  -2   21.26    5.79
  -7  -6  -2   23.84    5.95
 -13   7   2   18.80    6.21
 -13   7   2   19.60    6.43
  -7  -5  -2    8.30    4.72
  -7  -5  -2    7.57    4.75
  12  -7  -2    1.91    6.69
  -7  -5  -2    2.89    4.36
 -12   7   2    3.99    4.99
 -12   7   2    0.59    5.07
  -7  -4  -2   12.99    4.74
  -7  -4  -2   12.40    4.90
  11  -7  -2   10.46    6.68
  -7  -4  -2   19.89    4.50
 -11   7   2   20.51    5.64
 -11   7   2   12.41    5.08
  -7  -3  -2   29.82    4.58
  -7  -3  -2   37.99    5.79
  10  -7  -2   26.23    6.68
  -7  -3  -2   31.73    5.62
 -10   7   2   34.00    5.91
   7   3   2   33.25    7.81
   7   3   2   25.33    4.67
 -10   7   2   29.73    5.73
 -10   7   2   32.75    3.53
  -7  -2  -2   16.02    4.73
  -7  -2  -2    9.93    4.44
   9  -7  -2   16.60    5.84
   2  -9   2   11.43    1.77
   7   2   2   17.71    6.74
  -9   7   2   16.56    4.69
   7   2   2   17.90    3.89
   2  -9   2   10.83    1.83
  -9   7   2   16.58    3.17
  -9   7   2   14.27    4.77
   8  -7  -2   93.81    7.64
  -7  -1  -2   90.33    8.05
   8  -7  -2   99.14    7.86
  -7  -1  -2   85.03    7.97
   8  -7  -2   92.97    8.71
  -8   7   2   96.99    7.95
  -8   7   2  107.46    9.03
  -8   7   2   98.14    7.95
  -8   7   2  101.63    7.57
   1  -8   2   81.74    5.24
   7   1   2   91.22   10.04
   1  -8   2   91.95    5.36
   7   1   2  104.06    7.16
   7  -7  -2   20.00    4.27
   7  -7  -2   27.04    4.56
  -7   0  -2   38.76    5.51
  -7   0  -2   17.22    4.53
   7  -7  -2   21.99    5.38
   7   0   2   33.36    7.18
   0  -7   2   24.29    3.03
  -7   7   2   19.97    3.96
  -7   7   2   29.21    4.73
   7   0   2   30.16    3.53
  -7   7   2   30.57    4.89
  -7   7   2   26.74    5.66
   0  -7   2   26.28    3.02
   5  -7  -2    5.28    3.07
   5  -7  -2    3.42    3.72
   2   5  -2    7.65    2.71
  -7   2  -2    3.61    4.26
  -7   2  -2    3.68    3.51
   2   5  -2    9.86    2.76
   5  -7  -2    6.04    3.21
  -7   2  -2    8.03    3.72
   2   5  -2   -4.97    5.84
  -7   2  -2    4.69    2.11
  -5   7   2    8.65    3.81
  -2  -5   2    6.30    2.91
   7  -2   2    7.01    3.24
   7  -2   2    8.28    5.91
  -5   7   2   13.60    4.37
  -2  -5   2    6.55    5.22
  -2  -5   2    9.38    2.96
   7  -2   2    8.65    3.42
   3   4  -2    3.73    4.86
   4  -7  -2    1.70    2.69
  -7   3  -2   -0.49    3.19
   3   4  -2    0.80    2.71
  -7   3  -2   -2.50    3.01
  -7   3  -2   -3.78    4.00
   4  -7  -2    3.36    2.85
   3   4  -2   -2.03    2.54
  -4   7   2    4.33    3.44
  -4   7   2    5.87    3.80
  -3  -4   2    3.89    4.43
   7  -3   2   -2.79    5.05
   7  -3   2   -0.10    2.75
   7  -3   2    3.02    2.96
  -3  -4   2    3.85    3.05
  -3  -4   2   -0.61    3.02
   4   3  -2    1.29    2.87
  -7   4  -2    5.06    3.18
   4   3  -2    8.42    4.79
  -7   4  -2    1.27    4.82
  -7   4  -2    3.88    3.13
   4   3  -2    2.77    2.91
   7  -4   2    2.78    5.00
  -4  -3   2    4.40    3.30
  -3   7   2    3.05    3.74
   7  -4   2    1.53    2.87
   7  -4   2    0.53    2.83
  -4  -3   2    3.29    3.32
  -3   7   2   -4.82    3.10
   5   2  -2   63.81    5.77
   5   2  -2   59.84    5.73
   5   2  -2   72.13    6.95
  -7   5  -2   63.91    8.03
  -7   5  -2   62.33    5.34
  -7   5  -2   63.64    5.49
   7  -5   2   54.93    5.12
   7  -5   2   52.83    5.17
  -2   7   2   44.41    6.36
  -5  -2   2   50.25    5.67
   7  -5   2   67.38    6.06
  -5  -2   2   57.28    5.81
   7  -5   2   61.75    7.76
   6   1  -2   22.11    4.31
  -7   6  -2   20.77    6.24
  -7   6  -2   12.57    3.10
   6   1  -2   24.07    5.09
  -7   6  -2   18.66    3.29
   6   1  -2   21.36    4.34
   7  -6   2   16.05    3.35
  -6  -1   2   25.99    4.67
  -6  -1   2   22.91    4.63
   7  -6   2   19.64    3.41
   7  -6   2   20.24    5.86
   7  -6   2   21.06    5.19
   7   0  -2   42.51    5.26
  -7   7  -2   23.43    3.54
  -7   7  -2   32.30    3.81
   7   0  -2   39.32    5.21
  -7   0   2   34.80    5.39
   7  -7   2   24.89    3.54
   7  -7   2   26.04    6.16
  -7   0   2   31.80    5.28
   7  -7   2    8.96    5.61
   7  -7   2   29.39    3.79
   9  -2  -2   52.47    8.36
  -7   9  -2   58.23    4.60
  -7   9  -2   65.19    5.01
  -9   2   2   79.18    7.67
  -9   2   2   56.08    7.02
   7  -9   2   53.99    4.55
   7  -9   2   66.76    4.65
  -7  10  -2    8.56    2.53
  -3  -7  -2    4.76    3.79
  -7  10  -2    6.39    2.48
  -3  -7  -2   13.28    4.30
  10  -3  -2    5.71    6.76
   7 -10   2    6.35    2.23
   7 -10   2    9.28    2.25
 -10   3   2   11.27    4.89
 -10   3   2    2.43    4.66
  -4  -7  -2   -2.38    3.73
  -4  -7  -2    1.26    3.92
  11  -4  -2    5.10    6.74
   7 -11   2    1.15    1.83
 -11   4   2   -5.32    4.39
   7 -11   2    0.17    1.71
 -11   4   2    8.16    4.97
  12  -5  -2  -11.86    6.12
  -5  -7  -2    2.48    4.29
  -5  -7  -2    1.86    4.15
   7 -12   2    3.89    1.55
 -12   5   2   11.60    5.40
 -12   5   2   -5.19    4.73
   7 -12   2    1.26    1.54
  -6  -7  -2    6.52    4.63
  -6  -7  -2   -0.83    4.25
  13  -6  -2    4.99    7.08
 -13   6   2    2.43    5.31
 -13   6   2    5.97    5.69
  14  -7  -2    7.54    8.13
  -7  -7  -2    8.56    5.31
  -7  -7  -2   11.57    5.71
 -14   7   2    3.37    6.27
 -14   7   2    9.57    6.22
  -8  -7  -2   24.80    6.75
  15  -8  -2   21.19    9.53
  -8  -7  -2   36.78    7.07
 -15   8   2   23.22    7.31
 -15   8   2   28.15    7.95
  -8  -6  -2   -0.66    4.91
  14  -8  -2    4.56    7.83
  -8  -6  -2   -6.38    4.59
 -14   8   2    9.27    6.15
 -14   8   2    4.86    5.71
  -8  -5  -2   20.74    5.42
  -8  -5  -2   20.75    5.86
  13  -8  -2   19.70    8.05
  -8  -5  -2   14.24    5.62
 -13   8   2   22.90    6.62
 -13   8   2   21.17    6.10
  -8  -4  -2    2.15    4.31
  -8  -4  -2    7.02    4.24
  12  -8  -2    1.14    6.54
  -8  -4  -2   -2.32    4.25
 -12   8   2    3.71    5.19
 -12   8   2    4.85    5.04
 -12   8   2    2.31    2.11
  -8  -3  -2   14.43    4.32
  -8  -3  -2   11.50    4.89
  -8  -3  -2   20.19    5.43
  11  -8  -2   21.12    6.73
   8   3   2   18.14    7.59
   3 -11   2   21.18    1.78
 -11   8   2    9.13    5.14
 -11   8   2   24.53    5.92
   8   3   2   21.64    4.57
 -11   8   2   16.74    3.02
  -8  -2  -2    4.36    4.14
  -8  -2  -2    4.71    3.17
  -8  -2  -2    6.35    4.24
  10  -8  -2    9.24    5.92
 -10   8   2   -2.01    4.28
 -10   8   2   -0.27    2.67
   8   2   2    3.24    3.25
 -10   8   2    0.89    4.27
   2 -10   2    4.23    1.67
   8   2   2   -2.62    6.22
   2 -10   2    2.38    1.71
  -8  -1  -2   37.65    5.78
  -8  -1  -2   37.37    3.68
   9  -8  -2   28.57    6.27
  -8  -1  -2   34.57    5.69
  -9   8   2   30.95    4.43
  -9   8   2   36.88    5.65
   1  -9   2   34.93    3.22
   8   1   2   28.63    7.64
   8   1   2   39.14    4.51
  -9   8   2   35.32    5.65
   1  -9   2   35.81    3.23
  -8   0  -2   -0.02    3.99
   8  -8  -2    3.86    3.62
  -8   0  -2    0.03    3.82
   8  -8  -2   -4.21    4.34
   8  -8  -2    1.07    3.66
   0  -8   2    3.81    2.56
  -8   8   2   11.69    5.14
  -8   8   2    0.86    3.84
   8   0   2   10.69    6.59
   8   0   2    2.07    2.32
  -8   8   2    4.75    3.63
  -8   8   2    1.53    3.76
   0  -8   2    1.71    2.42
  -8   1  -2   35.16    5.64
  -8   1  -2   30.87    3.74
  -8   1  -2   28.72    5.37
   7  -8  -2   28.93    4.76
   7  -8  -2   34.30    5.87
   7  -8  -2   31.32    4.78
  -7   8   2   36.12    6.32
  -1  -7   2   29.06    3.70
  -7   8   2   37.75    4.97
  -1  -7   2   26.51    3.71
   6  -8  -2   20.89    4.94
   2   6  -2   17.50    3.23
  -8   2  -2   22.25    4.92
   6  -8  -2   21.54    4.22
   6  -8  -2   24.91    4.38
  -8   2  -2   22.27    3.03
   2   6  -2   26.64    3.55
   2   6  -2   26.23    6.63
  -8   2  -2   16.45    4.57
  -2  -6   2   28.51    6.16
  -2  -6   2   18.19    3.48
  -6   8   2   14.08    4.88
  -6   8   2   28.87    4.99
  -2  -6   2   18.97    3.63
   3   5  -2   52.78    4.98
  -8   3  -2   53.76    6.25
   3   5  -2   57.98    5.12
  -8   3  -2   50.89    6.16
   3   5  -2   62.84    8.25
  -8   3  -2   61.96    4.24
   5  -8  -2   56.65    5.44
   5  -8  -2   57.67    5.45
   8  -3   2   45.59    5.48
  -3  -5   2   53.17    5.09
   8  -3   2   80.18    9.18
   8  -3   2   58.44    5.85
  -3  -5   2   50.82    5.13
  -5   8   2   55.14    6.56
  -3  -5   2   44.80    6.96
  -5   8   2   55.07    6.36
   4   4  -2   10.19    3.28
  -8   4  -2    8.08    3.94
   4   4  -2    0.59    3.05
  -8   4  -2    3.26    3.79
   4   4  -2   15.48    5.75
  -4  -4   2    7.98    3.55
  -4   8   2    1.81    3.73
   8  -4   2   -0.09    3.11
   8  -4   2   -2.87    5.59
   8  -4   2    1.20    3.08
  -4  -4   2   10.97    3.69
   5   3  -2   20.74    4.05
  -8   5  -2   13.35    3.91
   5   3  -2    9.76    5.19
   5   3  -2   12.89    3.92
  -8   5  -2   13.49    3.81
   8  -5   2    8.77    5.85
  -5  -3   2   19.64    4.48
  -5  -3   2   16.21    4.27
   8  -5   2   14.01    4.32
   8  -5   2    9.29    3.53
   8  -5   2   13.28    3.64
  -8   6  -2    0.82    2.64
   6   2  -2   -1.49    3.12
  -8   6  -2    1.87    2.91
   6   2  -2   -3.73    4.71
   6   2  -2    3.12    3.41
   8  -6   2    7.90    4.71
  -6  -2   2    1.75    3.81
   8  -6   2    4.26    5.36
   8  -6   2   -0.35    2.85
  -6  -2   2   10.06    4.26
   8  -6   2   -2.41    2.76
  -8   7  -2   89.60    6.61
   7   1  -2  110.36    8.11
  -8   7  -2   95.45    7.23
  -7  -1   2   98.27    8.36
   8  -7   2   86.72    6.91
   8  -7   2   87.39    7.23
   8  -7   2  118.58   10.44
   8  -7   2  104.57    8.72
  -7  -1   2   85.55    8.04
  -8   8  -2    5.39    2.83
   8   0  -2   -1.14    4.12
  -8   8  -2    7.80    2.84
   8  -8   2   14.07    5.72
  -8   0   2   -1.27    4.05
   8  -8   2   14.21    5.70
   8  -8   2    5.26    2.86
  -8   0   2    0.41    4.07
   8  -8   2    7.19    2.95
   9  -1  -2   10.34    6.77
  -8   9  -2    1.21    2.63
  -8   9  -2    3.83    2.81
  -9   1   2    2.82    4.25
  -9   1   2   10.51    4.57
   8  -9   2    2.98    2.57
   8  -9   2    4.56    5.33
   8  -9   2    1.27    2.59
  -8  10  -2    7.37    2.84
  -2  -8  -2    7.01    3.80
  -2  -8  -2   -2.38    3.37
  -8  10  -2    8.85    2.80
  10  -2  -2    1.04    6.45
 -10   2   2    1.46    4.65
   8 -10   2   -0.47    2.46
   8 -10   2    7.79    2.64
 -10   2   2    4.96    4.71
  -8  11  -2    4.24    2.65
  -8  11  -2    7.90    2.86
  -3  -8  -2    8.40    4.23
  11  -3  -2   14.29    7.82
  -3  -8  -2    5.74    3.90
 -11   3   2    3.31    4.86
   8 -11   2    6.77    2.25
 -11   3   2    0.56    4.80
   8 -11   2   -0.33    2.13
  12  -4  -2   -0.41    7.18
  -4  -8  -2    4.00    4.26
  -4  -8  -2    6.63    4.29
 -12   4   2    5.74    5.23
   8 -12   2   -2.34    1.85
   8 -12   2    2.56    2.00
 -12   4   2   -4.45    4.85
  13  -5  -2    5.09    7.58
  -5  -8  -2   -3.70    4.16
  -5  -8  -2   11.53    5.01
 -13   5   2    0.31    5.29
   8 -13   2    1.14    1.78
 -13   5   2    1.66    5.22
   8 -13   2    2.19    1.90
  -6  -8  -2   -4.69    4.60
  -6  -8  -2    2.89    4.99
  14  -6  -2    7.82    8.27
   8 -14   2    0.23    1.54
   8 -14   2    3.91    1.62
 -14   6   2    6.57    6.25
 -14   6   2   -3.52    5.58
  -7  -8  -2    0.98    5.25
  -7  -8  -2   13.64    5.68
  15  -7  -2    2.56    8.60
 -15   7   2    7.09    6.94
 -15   7   2   -2.79    5.77
  -8  -8  -2   14.11    6.30
  16  -8  -2    5.66    9.07
  -8  -8  -2    5.66    5.65
 -16   8   2   13.44    7.54
 -16   8   2   14.07    7.01
  -9  -8  -2    0.16    5.86
  -9  -8  -2   13.69    6.56
  17  -9  -2    9.87   10.12
 -17   9   2   -5.78    7.01
 -17   9   2    5.35    7.02
  16  -9  -2    8.67    9.40
  -9  -7  -2    8.19    6.23
  -9  -7  -2   17.42    6.61
 -16   9   2   25.56    7.30
 -16   9   2    9.42    7.41
  15  -9  -2   25.52    9.69
  -9  -6  -2   50.28    8.36
  -9  -6  -2   37.59    7.59
 -15   9   2   42.17    8.03
 -15   9   2   44.90    8.50
  -9  -5  -2   18.98    6.64
  14  -9  -2   24.13    8.86
  -9  -5  -2   24.58    5.64
  -9  -5  -2   25.85    6.94
 -14   9   2   20.67    6.77
 -14   9   2   14.18    6.80
  -9  -4  -2    2.76    5.00
  -9  -4  -2    0.64    5.00
  13  -9  -2    3.97    6.96
  -9  -4  -2    5.58    4.16
 -13   9   2    6.16    5.46
   9   4   2    4.50    7.80
 -13   9   2    2.60    5.54
 -13   9   2    6.66    2.46
  12  -9  -2   11.98    6.97
  -9  -3  -2    6.50    5.29
  -9  -3  -2    8.70    3.96
  -9  -3  -2    8.74    5.15
 -12   9   2    6.33    2.87
   3 -12   2    7.01    1.63
 -12   9   2    2.29    4.91
   9   3   2   -0.05    3.89
   9   3   2    6.98    7.49
   3 -12   2    7.70    1.68
   3 -12   2    6.53    1.59
 -12   9   2    6.76    5.21
   3 -12   2    7.26    1.53
  11  -9  -2    0.00    5.72
  -9  -2  -2   -9.18    4.19
  -9  -2  -2    2.15    3.32
  -9  -2  -2    2.13    4.65
   2 -11   2    2.24    1.86
 -11   9   2    3.67    4.78
 -11   9   2    4.03    4.87
   9   2   2   -6.37    6.72
 -11   9   2    1.20    3.01
   2 -11   2    3.03    1.83
   9   2   2    1.45    3.31
  -9  -1  -2   19.44    5.43
  10  -9  -2   19.72    6.40
  -9  -1  -2   16.85    5.46
  -9  -1  -2   26.68    3.36
   9   1   2   27.74    4.00
 -10   9   2   23.96    5.39
 -10   9   2   25.64    5.27
   1 -10   2   25.20    3.03
 -10   9   2   19.11    4.21
   9   1   2   28.36    8.20
   1 -10   2   24.52    2.99
   9  -9  -2    3.15    5.20
  -9   0  -2    9.76    4.49
  -9   0  -2    2.25    4.17
   0  -9   2    9.97    2.70
   0  -9   2    2.11    2.41
  -9   9   2    7.16    3.72
   9   0   2   12.11    2.92
   9   0   2   11.70    7.01
  -9   9   2    8.85    4.32
  -9   9   2    7.91    4.21
   8  -9  -2    7.68    5.00
  -9   1  -2    4.71    4.29
  -9   1  -2    3.04    4.25
   8  -9  -2    4.67    3.52
   8  -9  -2    2.39    3.37
   9  -1   2    0.98    6.52
  -1  -8   2    2.44    2.78
  -1  -8   2    4.11    2.73
  -8   9   2   -3.56    3.32
  -8   9   2    7.58    5.00
  -9   2  -2   52.19    6.73
   7  -9  -2   50.17    6.72
   7  -9  -2   62.34    5.97
   7  -9  -2   63.92    5.95
   2   7  -2   70.32    5.41
   2   7  -2   63.66    5.21
  -9   2  -2   58.03    4.55
  -9   2  -2   63.42    7.01
  -2  -7   2   53.05    5.28
  -7   9   2   54.25    6.54
   9  -2   2   68.28    9.04
  -7   9   2   56.87    7.08
  -2  -7   2   58.47    5.36
   3   6  -2   -3.12    2.67
   6  -9  -2    0.49    3.37
  -9   3  -2    4.52    4.28
   3   6  -2    1.75    2.79
  -9   3  -2   -4.37    1.99
   6  -9  -2    0.86    3.19
  -9   3  -2    4.61    4.16
  -3  -6   2    2.56    3.09
   9  -3   2    2.66    6.28
  -3  -6   2    4.33    3.31
  -6   9   2    7.79    4.32
  -6   9   2    4.98    4.46
   4   5  -2    3.16    5.76
  -9   4  -2    2.67    4.03
   5  -9  -2    7.97    3.33
  -9   4  -2    0.06    1.93
  -9   4  -2    3.29    4.15
   4   5  -2   -4.44    2.73
   4   5  -2    3.61    3.14
   5  -9  -2    0.44    3.03
  -4  -5   2   -0.67    3.24
  -4  -5   2    5.15    3.44
   9  -4   2    1.70    6.12
  -5   9   2    6.00    4.25
  -9   5  -2    2.60    3.88
   5   4  -2   -0.58    3.08
   5   4  -2   -2.86    2.97
   5   4  -2   -0.10    5.37
  -9   5  -2   -2.96    3.44
   9  -5   2   -2.81    2.95
  -5  -4   2    0.46    3.61
  -5  -4   2    3.94    3.63
   9  -5   2    3.84    5.69
   9  -5   2   -0.68    3.21
  -9   6  -2    2.24    3.19
   6   3  -2   -3.11    4.69
  -9   6  -2    1.78    3.41
   9  -6   2    0.13    4.17
  -6  -3   2    2.16    3.99
  -6  -3   2    1.56    3.95
   9  -6   2   -6.85    5.18
   9  -6   2   -3.06    2.98
   9  -6   2   -0.93    3.07
  -9   7  -2   16.18    3.81
  -9   7  -2   13.97    3.69
   7   2  -2    7.74    4.76
   9  -7   2   20.96    6.36
   9  -7   2   12.58    3.63
   9  -7   2   14.14    5.13
  -7  -2   2    4.06    4.36
  -7  -2   2   11.31    4.51
   9  -7   2   18.45    3.76
  -9   8  -2   30.15    4.57
   8   1  -2   41.68    5.75
  -9   8  -2   36.20    4.75
  -8  -1   2   30.86    5.98
   9  -8   2   39.29    4.76
  -8  -1   2   36.05    5.98
   9  -8   2   32.78    4.46
   9  -8   2   39.54    7.63
   9  -8   2   36.00    6.66
  -9   9  -2   12.39    3.55
  -9   9  -2    7.84    3.31
   9   0  -2    6.75    4.18
   9  -9   2    8.11    3.20
   9  -9   2    5.24    3.06
  -9   0   2    7.97    4.67
   9  -9   2   17.03    6.44
   9  -9   2   15.54    5.90
  -9   0   2    8.00    4.79
  -9  10  -2   15.83    3.47
  -9  10  -2   16.88    3.58
  10  -1  -2    8.36    4.35
  10  -1  -2    3.94    7.14
 -10   1   2    8.17    4.84
   9 -10   2    8.94    3.15
   9 -10   2    8.12    6.11
 -10   1   2   16.50    5.33
   9 -10   2   20.27    3.59
  -9  11  -2    1.94    3.14
  -9  11  -2    3.72    3.14
  -2  -9  -2   -2.15    3.49
  11  -2  -2   -1.72    7.02
  -2  -9  -2    8.95    4.05
   9 -11   2    4.66    2.56
 -11   2   2    2.25    4.83
 -11   2   2   -1.07    4.56
   9 -11   2    1.44    2.33
  -3  -9  -2   -3.95    3.52
  -3  -9  -2   -5.20    3.68
  12  -3  -2   -5.96    7.89
   9 -12   2   -1.76    2.23
 -12   3   2    4.60    5.22
   9 -12   2    0.49    2.18
 -12   3   2   -1.47    5.12
  -4  -9  -2   -0.18    4.25
  -4  -9  -2    4.96    4.56
  13  -4  -2   -3.00    8.03
   9 -13   2    1.65    2.29
   9 -13   2    4.69    2.42
 -13   4   2    2.67    5.58
 -13   4   2   -3.93    5.00
  -5  -9  -2   10.82    5.21
  14  -5  -2    6.49    8.64
  -5  -9  -2    1.08    4.83
   9 -14   2   -0.53    1.97
   9 -14   2    4.55    2.16
 -14   5   2   -0.16    5.81
 -14   5   2    5.91    6.24
  15  -6  -2    9.37    9.44
  -6  -9  -2   23.18    6.01
  -6  -9  -2    5.78    5.27
 -15   6   2    7.84    6.67
 -15   6   2    4.53    6.53
  16  -7  -2    1.82    8.99
  -7  -9  -2    0.76    5.17
  -7  -9  -2    8.75    5.61
 -16   7   2  -10.94    6.23
 -16   7   2   -2.47    6.27
  -8  -9  -2    6.35    6.31
  17  -8  -2   25.67   10.77
  -8  -9  -2   15.60    6.92
 -17   8   2    6.30    7.31
 -17   8   2    8.68    7.84
  -9  -9  -2   10.97    6.70
  -9  -9  -2   12.64    6.80
  18  -9  -2   -3.30    9.85
 -18   9   2   27.73    9.04
 -18   9   2    8.43    7.41
  19 -10  -2   -0.80   10.13
 -10  -9  -2    1.99    6.84
 -10  -9  -2   -1.42    6.57
 -19  10   2    5.42    8.44
 -19  10   2   -3.52    7.34
 -10  -8  -2   12.03    6.92
  18 -10  -2    1.18    9.87
 -10  -8  -2    4.30    6.41
 -18  10   2   -2.47    7.21
 -18  10   2   -1.96    7.50
 -10  -7  -2   15.03    6.77
  17 -10  -2   21.08   10.07
 -10  -7  -2   11.63    6.69
 -17  10   2    5.14    6.94
 -17  10   2    9.61    7.68
 -10  -6  -2   -2.60    5.57
 -10  -6  -2    9.46    6.11
  16 -10  -2    5.29    8.89
 -16  10   2    6.49    6.76
 -16  10   2    4.86    6.81
  10   6   2   -4.28    8.67
 -10  -5  -2   -4.54    5.50
 -10  -5  -2    7.67    5.99
  15 -10  -2   -2.54    7.77
  10   5   2    1.58    8.66
 -15  10   2    8.16    6.75
 -15  10   2   -0.25    5.95
  14 -10  -2   -8.83    7.04
 -10  -4  -2    8.05    5.85
 -10  -4  -2    0.19    4.81
 -10  -4  -2    3.97    5.50
 -14  10   2    1.80    2.41
 -14  10   2   -1.29    5.78
  10   4   2    0.43    8.18
 -14  10   2    0.08    6.21
 -10  -3  -2   15.84    5.64
 -10  -3  -2    0.93    4.10
  13 -10  -2    6.50    7.11
 -10  -3  -2   -0.07    4.94
   3 -13   2    5.50    1.70
 -13  10   2   -2.46    5.15
 -13  10   2    1.32    5.53
   3 -13   2    2.05    1.67
 -13  10   2   -3.91    2.82
  10   3   2   -4.32    7.77
   3 -13   2    5.77    1.80
   3 -13   2    8.53    1.79
 -10  -2  -2   -0.88    4.57
 -10  -2  -2   -1.72    4.70
  12 -10  -2    6.87    6.66
 -12  10   2    3.28    5.09
  10   2   2    0.12    3.21
  10   2   2   -0.24    7.57
   2 -12   2    1.08    2.04
 -12  10   2    0.94    4.90
   2 -12   2    2.32    2.01
 -12  10   2   -3.93    3.03
  11 -10  -2   -4.48    5.38
 -10  -1  -2   -1.55    4.62
 -10  -1  -2    0.12    4.57
 -11  10   2    3.47    4.62
  10   1   2   -5.65    7.44
  10   1   2    1.61    2.82
 -11  10   2   -1.40    4.33
 -11  10   2   -5.26    3.26
   1 -11   2    3.71    2.35
   1 -11   2    2.55    2.32
 -10   0  -2   53.35    7.21
  10 -10  -2   29.97    6.98
 -10   0  -2   45.40    7.03
  10   0   2   59.39    9.83
   0 -10   2   49.15    4.41
 -10  10   2   33.69    5.92
   0 -10   2   42.79    4.18
 -10  10   2   33.97    5.38
  10   0   2   38.59    4.18
 -10  10   2   46.76    6.16
   9 -10  -2    4.60    5.39
 -10   1  -2    7.55    5.00
 -10   1  -2   15.01    5.09
  10  -1   2   30.33    8.54
  -1  -9   2    6.11    3.05
  -1  -9   2   10.97    3.23
  -9  10   2   12.11    4.42
 -10   2  -2    7.25    4.76
   8 -10  -2    1.82    4.77
   8 -10  -2    7.68    3.83
   8 -10  -2    8.01    3.84
 -10   2  -2    7.18    4.83
  -2  -8   2    7.56    3.22
  10  -2   2    6.94    6.84
  -2  -8   2    8.23    3.22
   7 -10  -2   10.15    3.65
 -10   3  -2   14.31    4.94
   3   7  -2   14.25    3.63
   3   7  -2    4.08    3.16
   7 -10  -2   12.64    3.72
 -10   3  -2    4.21    2.30
 -10   3  -2    3.73    4.60
  -3  -7   2    3.36    3.57
  -7  10   2   13.35    4.84
  10  -3   2    4.51    6.92
  -3  -7   2   -0.88    3.27
   4   6  -2    4.60    3.25
 -10   4  -2   -1.30    2.00
   4   6  -2   -1.10    2.89
   6 -10  -2    3.77    3.20
 -10   4  -2    0.46    4.07
   6 -10  -2   -2.11    3.14
 -10   4  -2   -0.96    4.05
  10  -4   2    3.79    6.72
  -6  10   2    7.76    4.56
  -4  -6   2    4.36    3.62
  -4  -6   2    8.36    3.61
   5 -10  -2   17.62    3.82
   5 -10  -2   13.85    3.69
 -10   5  -2   16.76    4.69
 -10   5  -2   17.32    4.97
   5   5  -2   19.46    4.23
   5   5  -2   24.79    4.38
   5   5  -2   17.85    6.06
  -5  -5   2   15.72    4.26
  -5  -5   2   16.53    4.45
  -5  10   2   15.20    4.71
  10  -5   2    7.64    6.54
   6   4  -2   27.58    6.30
 -10   6  -2   24.47    5.02
 -10   6  -2   22.62    4.66
  10  -6   2   16.07    6.68
  -4  10   2   14.95    4.88
  -6  -4   2   24.52    4.95
  10  -6   2   15.65    4.05
  -6  -4   2   23.31    4.86
 -10   7  -2   42.70    5.27
   7   3  -2   30.90    6.20
 -10   7  -2   30.31    5.02
  10  -7   2   23.48    7.12
  -7  -3   2   30.16    5.65
  -7  -3   2   30.59    5.54
  10  -7   2   32.94    5.37
   8   2  -2   14.64    5.08
 -10   8  -2    2.76    3.39
 -10   8  -2    7.06    3.72
  10  -8   2   11.64    5.07
  10  -8   2   -1.43    3.01
  -8  -2   2    3.64    4.26
  10  -8   2    2.99    5.79
  10  -8   2    0.98    3.18
  -8  -2   2   10.99    4.77
 -10   9  -2   20.62    4.23
   9   1  -2   22.06    5.22
 -10   9  -2   20.89    4.37
  10  -9   2   24.96    4.31
  -9  -1   2   18.44    5.55
  10  -9   2   20.89    4.15
  10  -9   2   18.64    6.77
  -9  -1   2   13.76    5.23
  10  -9   2   17.11    6.31
 -10  10  -2   40.87    5.11
  10   0  -2   37.27    9.12
  10   0  -2   41.43    5.89
 -10  10  -2   39.24    4.96
  10 -10   2   42.61    5.11
  10 -10   2   44.21    5.14
 -10   0   2   39.90    6.62
 -10   0   2   34.44    6.57
  10 -10   2   36.73    8.28
 -10  11  -2    4.21    3.63
 -10  11  -2    5.37    3.64
  11  -1  -2    6.67    3.76
  11  -1  -2    4.56    6.34
 -11   1   2    5.72    5.05
 -11   1   2    4.68    5.24
  10 -11   2   10.11    7.01
  10 -11   2    1.99    3.01
  10 -11   2    2.18    2.98
 -10  12  -2    1.72    3.43
  -2 -10  -2   -7.66    3.62
  12  -2  -2   10.39    3.73
  -2 -10  -2    4.48    4.10
 -10  12  -2    1.26    3.44
  12  -2  -2    5.51    8.05
 -12   2   2    1.30    5.09
  10 -12   2    1.16    2.55
 -12   2   2   -3.58    5.14
  10 -12   2   -1.39    2.27
  13  -3  -2    4.94    8.64
  -3 -10  -2    3.18    4.49
  -3 -10  -2   -2.56    4.13
 -13   3   2    0.56    5.61
 -13   3   2    4.43    5.64
  10 -13   2   -0.20    2.58
  10 -13   2    0.63    2.44
  -4 -10  -2   11.04    5.31
  14  -4  -2    7.80    9.23
  -4 -10  -2   18.49    5.48
  10 -14   2    9.65    2.85
 -14   4   2    0.39    5.82
 -14   4   2   14.33    6.73
  10 -14   2    7.12    2.84
  -5 -10  -2    8.99    5.40
  -5 -10  -2    2.42    4.91
  15  -5  -2   -6.76    8.89
 -15   5   2    3.05    6.43
 -15   5   2   -1.70    6.57
  -6 -10  -2    2.56    5.52
  16  -6  -2    5.09    9.46
  -6 -10  -2    4.85    5.49
 -16   6   2   11.83    6.95
 -16   6   2   -2.93    6.73
  17  -7  -2    7.61    9.72
  -7 -10  -2   -4.13    5.27
  -7 -10  -2    0.80    5.49
 -17   7   2    3.19    6.91
 -17   7   2   14.45    7.99
  -8 -10  -2   -5.64    5.95
  18  -8  -2   12.59   10.75
  -8 -10  -2   -4.11    5.56
 -18   8   2    0.99    6.91
 -18   8   2    7.07    7.87
  19  -9  -2   23.24   11.82
  -9 -10  -2    3.73    6.78
  -9 -10  -2    1.74    6.17
 -19   9   2    1.44    7.38
 -19   9   2    0.36    7.88
  19 -11  -2   -0.02   10.12
 -11  -8  -2    5.97    7.10
 -11  -8  -2    2.26    6.86
 -19  11   2    3.72    8.19
  11   8   2   -1.65    9.80
 -19  11   2   -1.58    7.43
 -11  -7  -2    8.89    7.05
 -11  -7  -2   -2.09    6.39
  18 -11  -2  -17.51    8.52
 -18  11   2   -4.41    7.33
 -18  11   2    0.67    6.91
  11   7   2  -12.99    9.24
 -11  -6  -2    5.49    6.62
  17 -11  -2    7.81    9.50
 -11  -6  -2    4.96    6.75
 -17  11   2   12.95    7.79
 -17  11   2    9.65    7.27
  11   6   2   10.54    9.87
 -11  -5  -2   -5.03    5.99
  16 -11  -2    3.00    8.16
 -11  -5  -2   -8.02    5.78
 -16  11   2   -3.36    5.99
  11   5   2    8.08    9.12
 -16  11   2    0.10    6.62
 -11  -4  -2  -12.07    5.49
  15 -11  -2    8.05    7.79
 -11  -4  -2   13.68    6.77
 -15  11   2   -4.69    6.04
 -15  11   2    7.42    6.15
  11   4   2    9.58    9.22
 -11  -3  -2   -0.73    5.67
  14 -11  -2  -10.71    7.15
 -11  -3  -2    4.02    6.11
 -14  11   2   -1.19    2.99
 -14  11   2   13.92    6.42
 -14  11   2   -1.43    5.84
   3 -14   2    1.65    1.84
  11   3   2   17.06    9.34
   3 -14   2   -0.59    1.76
 -11  -2  -2   -2.30    5.50
 -11  -2  -2   -3.30    5.14
  13 -11  -2    6.16    7.03
 -13  11   2   -2.17    5.07
 -13  11   2    7.06    3.70
 -13  11   2    6.95    5.62
   2 -13   2    1.19    2.22
  11   2   2    4.33    3.45
  11   2   2    0.49    8.55
   2 -13   2    2.92    2.24
 -11  -1  -2    1.12    5.25
  12 -11  -2    0.33    6.60
 -11  -1  -2   -4.98    4.99
   1 -12   2    1.64    2.49
  11   1   2    7.97    8.85
 -12  11   2    5.00    4.94
 -12  11   2   -4.46    4.89
   1 -12   2   -2.11    2.35
 -12  11   2   -3.00    3.56
  11   1   2    2.98    2.84
 -11   0  -2    4.82    5.14
  11 -11  -2   -4.92    5.94
 -11   0  -2    5.01    5.16
 -11  11   2   -3.68    4.49
  11   0   2    5.29    2.53
 -11  11   2    4.94    4.44
  11   0   2    4.03    7.91
   0 -11   2   -0.30    2.57
   0 -11   2   -0.57    2.58
 -11  11   2   -3.29    3.78
  10 -11  -2    7.95    5.93
 -11   1  -2    7.16    5.10
 -11   1  -2   12.12    5.37
  11  -1   2   -6.37    6.75
  -1 -10   2    8.03    3.12
  -1 -10   2    7.95    3.16
 -11   2  -2   -1.29    4.63
 -11   2  -2    8.62    4.97
  -2  -9   2   -2.57    2.82
  -2  -9   2    6.49    3.05
  11  -2   2    8.31    7.43
 -11   3  -2    8.38    5.00
 -11   3  -2   10.00    5.14
  11  -3   2    7.10    7.18
  -3  -8   2    7.40    3.50
  -3  -8   2    3.93    3.41
 -11   4  -2   -2.16    4.19
 -11   4  -2   -1.65    4.20
   4   7  -2   -3.83    3.06
 -11   4  -2   -2.31    2.02
   4   7  -2    3.37    3.35
   7 -11  -2    1.22    3.54
   7 -11  -2   -4.95    3.13
  -4  -7   2    3.49    3.78
  -4  -7   2    7.44    3.77
   6 -11  -2   35.10    4.76
 -11   5  -2   28.29    2.88
 -11   5  -2   28.32    5.56
   6 -11  -2   28.80    4.60
 -11   5  -2   39.29    6.14
  -5  -6   2   33.91    5.24
  11  -5   2   38.33    8.55
  -6  11   2   27.08    5.81
  -5  -6   2   29.08    5.08
   5 -11  -2    7.28    3.50
 -11   6  -2    5.40    4.21
   5 -11  -2   -0.03    3.16
 -11   6  -2    0.04    3.89
  -5  11   2    2.61    4.34
  -6  -5   2   -5.03    3.84
  11  -6   2    2.62    6.20
  -6  -5   2    0.88    3.77
   7   4  -2    8.91    5.77
 -11   7  -2    5.61    4.27
 -11   7  -2    4.10    4.35
  11  -7   2   12.31    4.32
  -7  -4   2    5.19    4.58
  11  -7   2    4.82    6.50
  -4  11   2    5.93    4.64
  -7  -4   2    3.43    4.59
 -11   8  -2   25.27    5.05
   8   3  -2   15.99    6.09
 -11   8  -2   12.49    4.66
  -8  -3   2   20.67    5.46
  -8  -3   2   22.17    5.54
  11  -8   2   24.15    5.44
  11  -8   2   21.10    7.24
 -11   9  -2    4.76    4.03
   9   2  -2    3.06    5.05
 -11   9  -2   12.25    4.26
  11  -9   2    1.77    6.38
  -9  -2   2    6.31    5.08
  -9  -2   2    6.14    4.81
  11  -9   2    6.25    5.23
 -11  10  -2   10.85    4.11
  10   1  -2   -1.45    4.32
 -11  10  -2    2.71    3.96
  11 -10   2    2.42    3.37
  11 -10   2    8.22    6.59
 -10  -1   2   -0.81    4.91
 -10  -1   2    5.18    5.04
  11 -10   2    2.64    3.49
  11   0  -2   -0.08    3.95
 -11  11  -2    5.55    4.02
  11   0  -2    7.88    8.02
 -11  11  -2    8.12    4.25
  11 -11   2    1.58    3.33
  11 -11   2   -0.45    3.32
 -11   0   2   -2.75    4.99
 -11   0   2    3.63    5.18
  11 -11   2  -11.76    6.52
  12  -1  -2    9.04    7.10
  -1 -11  -2    7.39    3.94
 -11  12  -2   11.68    4.27
  -1 -11  -2   11.68    4.12
  12  -1  -2   10.39    4.05
 -11  12  -2    8.60    4.10
  11 -12   2   11.02    3.61
  11 -12   2   13.31    3.52
 -12   1   2    3.77    5.31
 -12   1   2   12.05    5.98
  11 -12   2   14.21    7.72
 -11  13  -2    7.80    4.15
  13  -2  -2   17.84    8.02
 -11  13  -2   11.17    4.18
  13  -2  -2   17.65    4.16
  -2 -11  -2    0.08    3.93
  -2 -11  -2   14.35    4.94
  11 -13   2   12.36    3.47
 -13   2   2   15.43    6.73
  11 -13   2   11.56    3.43
 -13   2   2   19.01    6.52
  14  -3  -2    9.03    3.59
  14  -3  -2    5.25    9.56
  -3 -11  -2    2.98    4.48
  -3 -11  -2    9.85    4.69
 -14   3   2   -4.48    5.98
 -14   3   2    7.22    6.37
  -4 -11  -2   19.27    5.55
  -4 -11  -2   36.41    6.18
  15  -4  -2   45.98   11.88
 -15   4   2   24.33    7.50
 -15   4   2   23.84    7.72
  -5 -11  -2    6.97    5.20
  -5 -11  -2   13.53    5.51
  16  -5  -2    7.63   10.16
 -16   5   2    7.54    7.11
 -16   5   2    2.78    6.92
  -6 -11  -2    6.36    5.78
  -6 -11  -2    5.91    5.76
  17  -6  -2    9.17   10.27
 -17   6   2    7.80    7.30
 -17   6   2    6.29    7.53
  -7 -11  -2    1.06    5.72
  18  -7  -2    7.75   10.50
  -7 -11  -2   -1.58    5.66
 -18   7   2   12.65    7.64
 -18   7   2    2.05    7.76
  -8 -11  -2   -5.19    5.72
  -8 -11  -2    1.24    6.07
  19  -8  -2  -16.12    9.89
 -19   8   2   -1.92    8.05
 -19   8   2    8.20    7.97
  19 -12  -2    2.43   10.21
 -12  -7  -2   -1.46    6.67
 -12  -7  -2   -0.52    6.27
 -19  12   2   -4.22    7.00
  12   7   2    1.83    9.61
 -19  12   2   -8.43    7.72
 -12  -6  -2   15.10    7.40
  18 -12  -2    9.78    9.47
 -12  -6  -2   10.09    7.31
  12   6   2   -8.37    9.89
 -18  12   2   15.23    8.16
 -18  12   2   -4.44    6.56
 -12  -5  -2    5.75    6.60
  17 -12  -2    1.39    8.81
 -12  -5  -2    7.29    6.62
 -17  12   2    3.19    7.28
 -17  12   2    0.57    6.56
  12   5   2   -9.71    9.24
 -12  -4  -2    2.35    6.09
 -12  -4  -2  -10.62    5.35
  16 -12  -2   -2.22    8.11
  12   4   2   -0.40    9.20
 -16  12   2    7.07    7.22
 -16  12   2    2.89    6.61
 -12  -3  -2  -11.60    5.37
 -12  -3  -2   -3.96    5.63
  15 -12  -2    0.29    7.82
 -15  12   2    0.31    6.14
 -15  12   2    3.68    6.57
  12   3   2   -1.32    9.24
  14 -12  -2   -3.97    7.26
 -12  -2  -2   -0.05    5.92
 -12  -2  -2   -2.53    5.81
  12   2   2   -6.92    9.39
   2 -14   2   -4.35    2.25
   2 -14   2    0.61    2.39
 -14  12   2    7.63    5.63
 -14  12   2    5.06    5.99
 -12  -1  -2    6.54    5.99
 -12  -1  -2    2.74    5.98
  13 -12  -2   -3.91    6.80
  12   1   2    6.07    3.09
   1 -13   2    5.29    2.78
  12   1   2    8.62    9.46
 -13  12   2    3.95    4.28
 -13  12   2   15.36    6.13
 -13  12   2   -2.16    5.20
   1 -13   2    6.46    2.92
  12 -12  -2    8.33    6.85
 -12   0  -2   -4.99    5.05
 -12   0  -2   -7.38    5.11
 -12  12   2    6.45    4.90
   0 -12   2    3.02    2.98
   0 -12   2    7.69    3.00
 -12  12   2    3.24    5.10
 -12   1  -2    7.93    5.84
  11 -12  -2   12.92    7.06
 -12   1  -2   25.54    6.51
  12  -1   2   13.27    8.25
  -1 -11   2    7.42    3.27
  -1 -11   2    6.05    3.14
 -12   2  -2    8.11    5.40
  10 -12  -2    1.70    5.96
 -12   2  -2    3.04    5.19
  12  -2   2    3.82    8.27
  -2 -10   2   -1.45    3.02
  -2 -10   2   -5.18    2.86
 -12   3  -2    2.69    4.88
 -12   3  -2   -0.04    5.17
  -3  -9   2   -3.42    3.19
  12  -3   2    4.21    7.52
  -3  -9   2   -0.45    3.30
 -12   4  -2   -2.10    4.63
 -12   4  -2    8.18    5.08
  -4  -8   2   -1.53    3.55
  12  -4   2    3.46    7.78
  -4  -8   2   -0.34    3.62
   7 -12  -2    7.63    3.86
   7 -12  -2    6.95    3.99
 -12   5  -2    4.60    4.81
 -12   5  -2    3.91    4.88
  -5  -7   2    1.26    4.13
  -5  -7   2    3.07    3.90
  12  -5   2    2.27    7.25
   6 -12  -2   31.16    4.90
 -12   6  -2   41.15    6.50
   6 -12  -2   40.65    5.31
 -12   6  -2   29.77    2.92
 -12   6  -2   29.20    5.76
  12  -6   2   52.40    9.38
  -6  -6   2   34.40    5.69
  -6  -6   2   37.77    6.00
   5 -12  -2    3.62    3.58
   5 -12  -2    5.72    3.50
 -12   7  -2    9.79    4.72
 -12   7  -2    2.93    4.65
  -7  -5   2    6.59    4.75
  -7  -5   2    8.65    4.61
  12  -7   2    9.92    7.16
  12  -7   2    4.64    3.75
 -12   8  -2   -1.09    4.12
 -12   8  -2    5.34    4.69
  -8  -4   2    2.21    4.74
  -8  -4   2    6.10    4.86
  12  -8   2   -1.75    6.47
  12  -8   2   -1.86    4.17
   9   3  -2    8.29    5.38
 -12   9  -2    7.26    4.55
 -12   9  -2    4.80    4.67
  12  -9   2    4.87    5.03
  -9  -3   2   11.45    5.48
  12  -9   2    9.21    6.85
  -9  -3   2    7.41    4.93
 -12  10  -2   -4.34    3.88
  10   2  -2    5.27    4.97
 -12  10  -2    1.44    4.32
 -10  -2   2    5.21    5.48
 -10  -2   2    1.36    5.11
  12 -10   2    0.87    6.66
 -12  11  -2   -1.57    4.30
 -12  11  -2    1.10    4.43
  11   1  -2   -6.96    4.31
  12 -11   2  -10.42    6.56
 -11  -1   2    8.83    5.65
 -11  -1   2    0.61    5.45
 -12  12  -2    4.51    4.68
  12   0  -2    7.72    8.51
 -12  12  -2    8.82    4.66
 -12   0   2    4.87    5.75
 -12   0   2    6.56    5.90
  12 -12   2    1.95    7.50
  13  -1  -2   -1.22    2.10
  -1 -12  -2    7.22    3.96
  -1 -12  -2   -3.34    3.48
  13  -1  -2    0.76    3.96
 -12  13  -2    5.18    4.59
 -12  13  -2    0.25    4.36
  13  -1  -2    9.20    7.69
  12 -13   2    4.22    7.82
 -13   1   2    0.24    5.69
 -13   1   2    3.70    6.18
  12 -13   2    2.90    3.42
  12 -13   2    2.96    3.21
  14  -2  -2   -2.29    8.05
  14  -2  -2    8.35    3.74
 -12  14  -2   16.96    4.79
  -2 -12  -2    7.46    4.42
  -2 -12  -2    9.08    4.59
 -12  14  -2    8.16    4.34
 -14   2   2    6.64    6.70
 -14   2   2    4.80    6.33
  -3 -12  -2   24.46    5.84
  15  -3  -2   24.33   11.13
  -3 -12  -2   30.79    6.11
 -15   3   2   34.35    8.21
 -15   3   2   28.37    8.07
  -4 -12  -2   -6.96    4.08
  -4 -12  -2   -4.45    4.30
  16  -4  -2   -2.22   10.43
 -16   4   2   -8.28    6.41
 -16   4   2   -7.02    6.35
  -5 -12  -2    4.97    4.99
  17  -5  -2   -3.25   10.38
  -5 -12  -2   -1.22    4.93
 -17   5   2    6.40    7.16
 -17   5   2   -1.57    7.38
  -6 -12  -2    7.76    6.01
  18  -6  -2    4.12   11.46
  -6 -12  -2   11.73    6.16
 -18   6   2    8.91    8.29
 -18   6   2   -0.98    7.30
  19  -7  -2    2.74   11.07
  -7 -12  -2   -5.67    6.09
  -7 -12  -2    2.02    6.36
 -19   7   2    5.48    8.20
 -19   7   2    1.89    7.51
 -13  -6  -2    2.32    6.64
  19 -13  -2   14.96   10.49
 -13  -6  -2    9.21    7.81
  13   6   2  -14.79    8.91
 -19  13   2    4.25    7.57
 -19  13   2   11.37    8.42
 -13  -5  -2   -2.15    6.82
  18 -13  -2    4.91    9.69
 -13  -5  -2    8.15    7.02
 -18  13   2   -3.51    6.76
  13   5   2   -0.55    9.79
 -18  13   2   -4.42    7.08
 -13  -4  -2   -0.63    6.44
  17 -13  -2    3.89    8.87
 -13  -4  -2    1.83    6.50
  13   4   2   -4.16    9.73
 -17  13   2   -7.77    6.39
 -17  13   2   -1.92    7.05
 -13  -3  -2   -2.38    6.18
  16 -13  -2    2.99    8.69
 -13  -3  -2    6.07    6.52
 -16  13   2    8.73    6.24
 -16  13   2    6.73    6.62
  15 -13  -2    0.87    8.34
 -13  -2  -2   -0.81    6.29
 -13  -2  -2    0.88    6.30
 -15  13   2   -2.00    6.11
 -15  13   2    6.05    5.97
  13   2   2    3.87   10.16
 -13  -1  -2    4.57    6.56
  14 -13  -2   10.76    7.97
 -13  -1  -2   19.16    6.90
 -14  13   2    3.34    5.32
  13   1   2   12.87   10.37
 -14  13   2    0.69    5.72
   1 -14   2    8.56    3.12
   1 -14   2    8.05    3.12
 -13   0  -2    3.77    5.97
 -13   0  -2   -1.00    6.03
  13 -13  -2   -1.27    7.05
   0 -13   2    0.48    3.04
   0 -13   2   -2.52    2.92
 -13  13   2   -2.70    5.35
  13   0   2   12.98    9.78
 -13  13   2   -6.57    4.78
 -13   1  -2    5.18    5.71
 -13   1  -2    5.14    5.88
  12 -13  -2   14.05    7.30
  -1 -12   2   -3.13    3.09
  -1 -12   2   -1.05    3.12
  13  -1   2   -3.15    7.88
 -13   2  -2   18.88    6.46
 -13   2  -2   13.59    6.38
  11 -13  -2   10.59    7.09
  -2 -11   2   13.58    4.04
  -2 -11   2   11.58    3.94
  13  -2   2   19.25    9.53
 -13   3  -2    0.68    5.34
 -13   3  -2    2.98    5.27
  -3 -10   2   -3.57    3.49
  13  -3   2   -1.89    8.37
  -3 -10   2    0.14    3.49
 -13   4  -2   -0.82    5.16
 -13   4  -2   -0.77    4.81
  -4  -9   2    5.22    3.97
  13  -4   2   16.25    8.78
  -4  -9   2    4.85    3.75
 -13   5  -2    0.93    4.75
 -13   5  -2    7.02    5.49
  -5  -8   2   -0.96    3.73
  13  -5   2    8.15    7.96
  -5  -8   2    9.24    4.28
 -13   6  -2    1.03    5.08
 -13   6  -2    3.53    4.75
 -13   6  -2   -1.51    1.82
  -6  -7   2    2.52    4.25
  13  -6   2   -0.48    7.69
  -6  -7   2   -0.66    4.38
 -13   7  -2   16.06    5.77
 -13   7  -2   16.46    2.38
 -13   7  -2   15.50    5.66
  -7  -6   2    9.53    5.29
  13  -7   2   19.15    8.17
  -7  -6   2   21.78    5.54
 -13   8  -2   22.93    5.77
 -13   8  -2   22.40    5.98
  13  -8   2   28.91    8.77
  -8  -5   2   30.94    6.18
  -8  -5   2    7.68    5.24
  13  -8   2   34.13    5.02
 -13   9  -2    7.72    5.37
 -13   9  -2    9.42    4.81
  13  -9   2    8.75    7.32
  -9  -4   2    1.29    4.78
  -9  -4   2    5.17    5.07
  13  -9   2   -1.37    4.95
 -13  10  -2    6.84    5.12
 -13  10  -2    4.91    4.87
  13 -10   2   -1.47    5.10
 -10  -3   2    1.39    5.47
  13 -10   2    3.77    7.34
 -10  -3   2   -7.15    4.69
 -13  11  -2    6.02    4.95
 -13  11  -2   -0.61    4.52
 -11  -2   2    1.91    5.37
 -11  -2   2   -7.67    5.22
  13 -11   2    1.02    7.43
 -13  12  -2    2.74    5.09
 -13  12  -2    4.16    4.96
  12   1  -2    0.52    9.00
  13 -12   2   -1.67    7.83
 -12  -1   2    6.61    5.91
 -12  -1   2    6.01    6.22
   0 -13  -2    3.07    3.93
  13   0  -2   -1.97    7.59
 -13  13  -2   -0.16    4.65
   0 -13  -2   -3.61    3.64
 -13  13  -2    3.40    4.90
 -13   0   2    2.99    6.05
 -13   0   2   -7.66    5.81
  13 -13   2   -3.55    7.71
  -1 -13  -2    8.88    4.59
 -13  14  -2    8.22    5.00
  -1 -13  -2    9.73    4.37
  14  -1  -2   11.99   10.05
 -13  14  -2    5.26    4.78
 -14   1   2    8.99    7.01
 -14   1   2    7.10    6.38
  -2 -13  -2   18.90    5.31
 -13  15  -2   19.26    5.26
  -2 -13  -2   20.05    5.43
  15  -2  -2   18.79    9.71
 -13  15  -2   22.75    5.33
 -15   2   2   19.30    7.90
 -15   2   2    6.21    7.02
  -3 -13  -2    9.72    4.91
  -3 -13  -2   -0.12    4.31
  16  -3  -2  -13.29    9.22
 -16   3   2  -12.68    6.17
 -16   3   2   -0.92    6.52
  -4 -13  -2   -2.23    4.56
  -4 -13  -2    0.13    4.75
  17  -4  -2    0.38   10.13
 -17   4   2    3.90    7.66
 -17   4   2   -2.67    6.65
  18  -5  -2    7.02   11.25
  -5 -13  -2   -2.65    4.44
  -5 -13  -2    7.47    5.20
 -18   5   2    9.94    8.50
 -18   5   2    1.12    7.51
  19  -6  -2    0.28   12.59
  -6 -13  -2    0.01    5.62
  -6 -13  -2   -6.41    5.19
 -19   6   2   11.82    8.27
 -19   6   2    5.06    8.25
  18 -14  -2   -6.01    9.14
 -14  -4  -2   -0.14    6.59
 -14  -4  -2   -3.12    6.86
 -18  14   2   -6.20    6.81
 -18  14   2    4.98    6.89
  14   4   2  -17.99    9.90
 -14  -3  -2   -2.53    6.31
  17 -14  -2   -2.28    9.20
 -14  -3  -2   -1.87    6.62
  14   3   2   14.70   11.51
 -17  14   2   -4.10    6.29
 -17  14   2    7.84    7.46
 -14  -2  -2   13.65    7.15
 -14  -2  -2    1.11    6.85
  16 -14  -2    7.22    8.95
 -16  14   2   14.24    7.18
  14   2   2   14.50   11.34
 -16  14   2    8.79    6.52
 -14  -1  -2   15.05    7.28
 -14  -1  -2   -0.83    6.35
  15 -14  -2    3.05    8.27
  14   1   2   25.79   11.22
 -15  14   2    7.85    6.16
 -15  14   2   13.17    6.51
 -14   0  -2    6.10    6.23
  14 -14  -2   -5.41    7.58
 -14   0  -2    9.86    6.81
  14   0   2    9.01   10.17
 -14  14   2    3.66    5.61
 -14  14   2    2.75    5.73
   0 -14   2    7.45    3.39
   0 -14   2    2.42    3.35
 -14   1  -2    9.62    6.21
  13 -14  -2    1.53    7.49
 -14   1  -2   -3.05    5.83
  14  -1   2   -1.74    8.85
  -1 -13   2    7.19    3.78
  -1 -13   2    6.44    3.84
 -14   2  -2    3.95    6.07
 -14   2  -2    6.32    6.47
  -2 -12   2    9.91    4.08
  -2 -12   2    4.64    3.87
  14  -2   2   -4.31    8.37
 -14   3  -2   13.44    6.33
 -14   3  -2   -4.83    5.99
  14  -3   2    1.62    8.36
  -3 -11   2    4.51    4.06
  -3 -11   2   11.19    4.26
 -14   4  -2   10.39    6.07
 -14   4  -2   18.54    6.87
  -4 -10   2    7.12    4.38
  14  -4   2   11.36    8.99
  -4 -10   2    5.64    4.10
 -14   5  -2   11.27    5.81
 -14   5  -2    1.58    5.76
  -5  -9   2    3.65    4.01
  14  -5   2    1.84    8.78
  -5  -9   2    8.86    4.55
 -14   6  -2    0.29    5.04
 -14   6  -2    1.66    5.58
  -6  -8   2    2.25    4.28
  14  -6   2    1.85    8.49
  -6  -8   2   -2.90    4.03
 -14   7  -2   10.93    5.79
 -14   7  -2    6.22    5.93
  -7  -7   2    7.26    4.97
  -7  -7   2    6.99    5.40
  14  -7   2   16.72    9.08
 -14   8  -2    0.56    4.98
 -14   8  -2    8.17    5.74
 -14   8  -2    1.42    1.96
  14  -8   2   -2.70    7.46
  -8  -6   2    0.74    4.83
  -8  -6   2    9.05    5.28
 -14   9  -2   27.78    6.41
 -14   9  -2   24.52    6.49
  14  -9   2   19.63    8.76
  -9  -5   2   22.51    6.61
  14  -9   2   28.66    5.46
  -9  -5   2   34.72    7.29
 -14  10  -2  -10.86    5.18
 -14  10  -2   -0.22    5.09
  14 -10   2   -4.65    5.30
 -10  -4   2   -1.87    5.30
 -10  -4   2    5.53    5.88
  14 -10   2    2.27    7.35
 -14  11  -2    8.56    5.43
 -14  11  -2    8.62    5.81
 -11  -3   2    5.93    6.37
 -11  -3   2   -0.05    5.83
  14 -11   2   -3.04    7.68
 -14  12  -2    1.78    5.18
 -14  12  -2    1.59    5.30
 -12  -2   2   -5.32    6.14
  14 -12   2   -0.99    8.07
 -12  -2   2   13.42    6.77
 -14  13  -2    2.49    5.29
  13   1  -2   10.97    9.86
   1 -14  -2    9.99    4.37
 -14  13  -2    5.76    5.29
   1 -14  -2    2.10    4.08
 -13  -1   2    9.50    6.08
 -13  -1   2   16.82    7.15
  14 -13   2    4.59    8.70
  14   0  -2   12.26    8.56
 -14  14  -2    3.89    5.48
   0 -14  -2    4.89    4.03
 -14  14  -2    6.40    5.53
   0 -14  -2    3.66    4.04
 -14   0   2   -5.04    6.24
 -14   0   2    7.76    6.43
  14 -14   2    9.25    8.57
  -1 -14  -2    9.86    4.32
 -14  15  -2   11.58    5.66
  15  -1  -2   18.02    9.20
 -14  15  -2   -2.52    4.93
  -1 -14  -2    0.55    4.21
 -15   1   2    3.54    6.39
 -15   1   2    2.43    6.81
  -2 -14  -2    7.53    4.80
  -2 -14  -2    7.28    4.74
  16  -2  -2   25.47   11.85
 -16   2   2   -0.93    6.78
 -16   2   2   11.54    7.75
  -3 -14  -2    5.41    5.06
  17  -3  -2  -11.53   10.38
  -3 -14  -2   14.11    5.23
 -17   3   2   -1.19    7.26
 -17   3   2    0.86    6.84
  -4 -14  -2   -3.37    4.88
  18  -4  -2    2.48   11.44
  -4 -14  -2   -3.64    4.47
 -18   4   2    9.33    7.64
 -18   4   2    4.24    8.07
 -15  -3  -2   -0.97    6.63
 -15  -3  -2    1.40    7.30
  18 -15  -2   -8.77    9.48
  15   3   2   18.25   12.16
 -18  15   2   17.37    7.28
 -18  15   2   14.23    7.62
 -15  -2  -2   -4.04    6.48
 -15  -2  -2    2.80    6.88
  17 -15  -2   -5.71    9.11
 -17  15   2   14.94    7.53
  15   2   2    7.54   11.39
 -17  15   2   -3.33    6.19
 -15  -1  -2    6.81    6.91
 -15  -1  -2   -7.74    6.52
  16 -15  -2    4.25    9.36
  15   1   2   -6.19   10.00
 -16  15   2    1.91    6.35
 -16  15   2    5.96    6.43
 -15   0  -2  -12.43    5.72
 -15   0  -2    3.87    6.38
  15 -15  -2   -0.43    8.29
  15   0   2    6.25    9.78
  14 -15  -2   -5.97    7.57
 -15   1  -2   10.26    7.28
 -15   1  -2    3.67    6.23
  -1 -14   2    1.83    3.72
  -1 -14   2    3.24    3.76
  15  -1   2    4.19    9.32
 -15   2  -2    4.15    6.40
 -15   2  -2   24.68    7.92
  -2 -13   2   13.77    4.56
  15  -2   2    8.50    9.69
  -2 -13   2   16.36    4.47
 -15   3  -2   25.34    7.70
 -15   3  -2   42.37    8.05
  15  -3   2   45.70   11.64
  -3 -12   2   41.06    6.01
  -3 -12   2   34.55    5.69
 -15   4  -2   25.96    7.26
 -15   4  -2   21.24    7.35
  -4 -11   2   30.71    5.52
  15  -4   2   21.52    9.87
  -4 -11   2   28.49    5.57
 -15   5  -2   -1.55    5.83
 -15   5  -2   -5.11    5.85
  -5 -10   2    3.88    4.41
  -5 -10   2   -0.94    4.35
  15  -5   2   -6.04    8.56
 -15   6  -2    9.99    7.01
 -15   6  -2   10.08    6.56
  15  -6   2   10.20    9.12
  -6  -9   2   15.91    5.22
  -6  -9   2   10.16    4.94
 -15   7  -2   10.88    6.20
 -15   7  -2   -1.16    6.12
  -7  -8   2    4.95    4.89
  15  -7   2   -8.03    8.13
  -7  -8   2    9.32    4.95
 -15   8  -2   25.12    6.99
 -15   8  -2   33.25    7.69
  15  -8   2   37.82   10.29
  -8  -7   2   29.96    6.70
  -8  -7   2   41.17    7.11
 -15   9  -2   39.42    7.32
 -15   9  -2   48.56    8.35
  15  -9   2   18.27    9.07
  -9  -6   2   41.24    7.41
  -9  -6   2   24.49    6.97
 -15  10  -2    6.31    5.78
 -15  10  -2    6.15    6.00
  15 -10   2   -3.91    7.37
 -10  -5   2    4.80    6.11
 -10  -5   2    3.97    5.79
 -15  11  -2    1.84    5.79
 -15  11  -2   -6.03    5.22
 -11  -4   2   -1.99    5.99
 -11  -4   2    6.08    6.04
  15 -11   2   -5.25    7.64
 -15  12  -2   -0.54    5.51
 -15  12  -2   -6.12    5.55
 -12  -3   2   -3.87    5.66
  15 -12   2    7.27    8.60
 -12  -3   2   -6.34    6.14
  13   2  -2    4.46    9.73
 -15  13  -2    0.50    5.91
 -15  13  -2   12.58    5.69
 -13  -2   2    4.54    6.68
  15 -13   2    8.35    8.70
 -13  -2   2    4.15    6.35
 -15  14  -2    7.01    5.64
   1 -15  -2    8.37    4.49
   1 -15  -2    7.24    4.31
  14   1  -2   15.95    9.05
 -15  14  -2   10.45    6.11
 -14  -1   2    6.89    6.76
  15 -14   2   15.07    9.28
 -14  -1   2   -0.78    6.93
   0 -15  -2    7.88    4.76
  15   0  -2    3.73   10.52
 -15  15  -2    9.69    5.82
 -15  15  -2    2.26    5.75
   0 -15  -2    5.88    4.22
 -15   0   2    8.39    7.16
 -15   0   2    2.36    6.40
  15 -15   2   -8.72    8.70
  -1 -15  -2    3.59    4.54
 -15  16  -2   11.14    5.56
  16  -1  -2   20.33   10.17
 -15  16  -2   11.87    5.63
  -1 -15  -2    3.98    4.71
 -16   1   2    2.80    7.35
 -16   1   2    0.84    6.96
  17  -2  -2   12.79   11.58
  -2 -15  -2   -0.42    4.81
  -2 -15  -2   -4.42    4.16
 -17   2   2   -3.42    7.05
 -17   2   2   -9.44    6.84
  18  -3  -2   -5.17   10.88
  -3 -15  -2    5.44    5.13
  -3 -15  -2   -3.45    4.75
 -18   3   2    3.23    8.05
 -18   3   2   10.15    8.04
 -16  -1  -2    7.33    7.51
 -16  -1  -2    4.70    7.23
  17 -16  -2    2.15    9.85
 -17  16   2    0.15    6.36
 -17  16   2    6.41    6.84
  16   1   2   10.66   11.24
 -16   0  -2   -1.66    6.61
 -16   0  -2    5.12    7.24
  16 -16  -2  -12.79    8.14
  16   0   2    8.75   10.20
 -16   1  -2   11.48    7.13
 -16   1  -2   -1.86    7.08
  15 -16  -2    0.56    8.33
  16  -1   2   18.37   11.12
 -16   2  -2   11.12    7.61
 -16   2  -2    3.97    6.46
  -2 -14   2    3.50    3.87
  16  -2   2   16.52   10.51
  -2 -14   2    5.06    3.95
 -16   3  -2    2.15    6.82
 -16   3  -2    3.83    6.30
  -3 -13   2   -4.28    3.72
  -3 -13   2    1.49    4.28
  16  -3   2    0.28    9.35
 -16   4  -2    6.73    6.47
 -16   4  -2    4.40    6.90
  16  -4   2    7.84    9.56
  -4 -12   2   -0.87    4.12
  -4 -12   2    0.73    4.10
 -16   5  -2    3.97    6.93
 -16   5  -2    2.21    6.19
  -5 -11   2    1.80    4.37
  16  -5   2    1.19    9.51
  -5 -11   2   10.30    5.09
 -16   6  -2    5.67    6.38
 -16   6  -2   -4.11    6.41
  -6 -10   2    3.56    4.55
  -6 -10   2    7.00    4.91
  16  -6   2   -6.56    8.69
 -16   7  -2    2.31    6.84
 -16   7  -2   10.00    6.23
  -7  -9   2    1.61    4.73
  -7  -9   2   -4.20    4.33
  16  -7   2    8.48    9.33
 -16   8  -2   11.81    6.27
 -16   8  -2    9.62    7.15
  -8  -8   2    7.90    5.30
  -8  -8   2    6.40    5.24
  16  -8   2   -2.80    8.36
 -16   9  -2    3.36    6.53
 -16   9  -2    0.90    5.89
  -9  -7   2    2.80    5.91
  -9  -7   2    1.83    6.04
  16  -9   2    9.44    9.00
 -16  10  -2   -6.34    5.37
 -16  10  -2   -2.18    6.03
  16 -10   2   -6.13    8.17
 -10  -6   2    0.13    5.69
 -10  -6   2    0.76    6.26
 -16  11  -2   -4.41    5.87
 -16  11  -2   -3.32    5.51
 -11  -5   2   -0.44    5.53
  16 -11   2    6.03    8.89
 -11  -5   2  -10.07    5.40
 -16  12  -2   -6.34    5.57
 -16  12  -2    9.35    6.60
 -12  -4   2   -2.49    5.76
 -12  -4   2   -5.18    6.06
  16 -12   2    1.35    8.64
 -16  13  -2   -7.86    6.03
 -16  13  -2    1.09    6.01
  13   3  -2    7.45   10.72
 -13  -3   2   -5.72    6.42
 -13  -3   2   -3.13    6.34
  16 -13   2   -4.51    8.23
 -16  14  -2   11.21    6.29
   2 -16  -2   15.91    4.89
   2 -16  -2    9.11    4.43
 -16  14  -2   25.43    7.29
  14   2  -2   -0.74    9.95
 -14  -2   2    5.17    7.15
 -14  -2   2   11.80    7.13
  16 -14   2   26.98   10.00
   1 -16  -2    7.33    4.36
   1 -16  -2   -1.82    4.11
 -16  15  -2    3.31    5.87
  15   1  -2   -0.37    8.34
 -16  15  -2   -0.44    6.03
  16 -15   2   -1.26    8.83
 -15  -1   2   13.14    7.17
 -15  -1   2   -7.16    6.71
 -16  16  -2   -3.55    5.36
  16   0  -2   -2.44    8.86
   0 -16  -2   -1.29    4.19
 -16  16  -2   17.25    6.39
   0 -16  -2   -1.47    4.46
 -16   0   2   10.34    7.67
 -16   0   2   18.03    7.67
  -1 -16  -2   -1.84    4.71
  -1 -16  -2    4.49    4.87
  17  -1  -2    7.41    9.87
 -17   1   2    2.57    7.81
 -17   1   2   -0.29    7.51
 -17   1  -2   -1.45    7.22
 -17   1  -2    3.37    7.12
  17  -1   2   -0.16   10.55
 -17   2  -2    5.15    6.86
 -17   2  -2   10.45    7.69
  17  -2   2    7.25   10.19
 -17   3  -2    9.19    7.64
 -17   3  -2   -0.78    6.21
  17  -3   2    5.15   10.40
 -17   4  -2    9.76    6.82
 -17   4  -2   -7.37    6.91
  17  -4   2   -2.91    9.24
  -4 -13   2   -4.66    4.10
  -4 -13   2    9.27    4.74
 -17   5  -2   16.50    8.22
 -17   5  -2   -1.53    6.76
  -5 -12   2    2.73    4.64
  -5 -12   2    5.46    4.69
  17  -5   2    1.83    9.91
 -17   6  -2   -4.88    6.93
 -17   6  -2    2.21    6.53
  -6 -11   2    8.13    5.28
  17  -6   2   17.41   10.49
  -6 -11   2    7.58    5.11
 -17   7  -2   -3.54    6.20
 -17   7  -2   -0.39    7.13
  17  -7   2   -2.13    9.38
  -7 -10   2    8.43    5.09
  -7 -10   2    1.07    4.77
 -17   8  -2   25.48    7.45
 -17   8  -2   22.86    7.83
  -8  -9   2   16.58    6.19
  17  -8   2   10.76    9.75
  -8  -9   2    6.06    5.60
 -17   9  -2    4.91    6.31
 -17   9  -2    2.36    7.12
  -9  -8   2    9.16    6.50
  17  -9   2   -2.91    9.11
  -9  -8   2    4.61    5.96
 -17  10  -2    5.36    7.12
 -17  10  -2   12.55    6.72
 -10  -7   2   -2.09    5.69
 -10  -7   2   -3.32    6.03
  17 -10   2   -3.59    8.80
 -17  11  -2    3.70    6.23
 -17  11  -2  -12.69    5.94
 -11  -6   2   -2.57    6.38
  17 -11   2   13.90    9.33
 -11  -6   2    2.53    6.10
 -17  12  -2   -1.40    6.34
 -17  12  -2    7.39    6.09
 -12  -5   2    3.24    6.69
 -12  -5   2    5.49    6.48
  17 -12   2   -7.22    8.61
 -17  13  -2   11.09    7.21
 -17  13  -2    1.27    6.17
 -13  -4   2    2.40    6.78
 -13  -4   2    7.00    7.04
  17 -13   2   -1.01    9.16
  14   3  -2    9.50   10.52
   3 -17  -2    5.71    4.13
 -17  14  -2    4.06    6.69
   3 -17  -2    3.67    4.01
 -17  14  -2   10.64    6.52
 -14  -3   2    0.59    7.08
 -14  -3   2    5.20    6.72
  17 -14   2    3.96    9.27
   2 -17  -2    4.62    4.23
 -17  15  -2   -2.89    6.21
 -17  15  -2    4.10    6.20
  15   2  -2    2.90    8.86
 -15  -2   2   13.85    8.04
 -15  -2   2    5.38    7.09
  17 -15   2   -6.65    9.39
 -17  16  -2    1.09    6.25
 -17  16  -2    3.21    6.73
  16   1  -2   10.09   11.61
 -16  -1   2    0.85    7.63
  17 -16   2   -1.46    9.26
 -16  -1   2   -0.46    7.08
 -18   3  -2   -1.91    7.74
 -18   3  -2   -7.97    6.93
  18  -3   2   -5.55   10.20
 -18   4  -2   -2.83    6.86
 -18   4  -2    8.13    8.27
  18  -4   2    7.42   11.23
 -18   5  -2  -11.44    6.18
 -18   5  -2  -13.80    6.97
  -5 -13   2   -3.20    4.53
  18  -5   2   14.62   10.96
  -5 -13   2   -2.30    4.56
 -18   6  -2   -3.18    7.52
 -18   6  -2    4.13    7.01
  -6 -12   2    4.65    5.34
  18  -6   2   23.42   11.03
  -6 -12   2   -1.27    4.95
 -18   7  -2   -3.64    7.60
 -18   7  -2   -4.69    6.55
  -7 -11   2   -1.76    5.11
  -7 -11   2    3.46    5.19
  18  -7   2   -8.08    9.16
 -18   8  -2    6.56    7.79
 -18   8  -2    7.24    6.78
  -8 -10   2    6.04    5.90
  18  -8   2    1.72    9.63
  -8 -10   2   -0.18    5.30
 -18   9  -2   -4.07    6.10
 -18   9  -2   11.13    7.60
  -9  -9   2    2.94    6.40
  18  -9   2    7.56    9.80
  -9  -9   2   -2.58    5.73
 -18  10  -2   -9.72    7.26
 -18  10  -2    1.34    6.62
 -10  -8   2   13.91    6.52
 -10  -8   2    8.45    6.83
  18 -10   2   -2.29    9.14
 -18  11  -2   -5.91    5.97
 -18  11  -2    2.73    7.20
 -11  -7   2   -1.90    5.90
 -11  -7   2    0.27    6.46
  18 -11   2   12.52    9.58
 -18  12  -2   -6.10    6.82
 -18  12  -2    5.73    6.50
  18 -12   2    2.66    9.59
 -12  -6   2   15.47    7.64
 -12  -6   2    6.87    6.67
 -18  13  -2    1.41    7.15
 -18  13  -2    0.56    6.71
  18 -13   2    8.33    9.96
 -13  -5   2   -5.52    6.13
 -13  -5   2    3.65    7.34
 -18  14  -2   -6.21    7.02
 -18  14  -2    4.55    6.50
  14   4  -2    1.53   11.00
 -14  -4   2   11.73    7.30
  18 -14   2   -0.14    9.69
 -14  -4   2   11.03    7.63
 -18  15  -2   18.84    7.20
  15   3  -2    4.13   11.21
 -18  15  -2   12.89    7.31
 -15  -3   2    2.00    7.19
 -15  -3   2   -1.18    7.03
  18 -15   2    7.45   10.39
 -19   6  -2   -3.73    7.69
 -19   6  -2    7.43    7.68
  -6 -13   2   -0.81    5.42
  -6 -13   2    8.98    5.42
  19  -6   2   -2.98   10.21
 -19   7  -2   -3.84    7.78
 -19   7  -2    0.97    6.71
  -7 -12   2    3.26    5.34
  -7 -12   2    1.43    5.11
  19  -7   2    7.54   10.76
 -19   8  -2   -1.81    6.97
 -19   8  -2   -2.33    7.66
  -8 -11   2   15.48    6.58
  -8 -11   2    2.57    5.82
  19  -8   2    4.22    9.95
 -19   9  -2    0.81    7.59
 -19   9  -2   -0.33    6.57
  -9 -10   2   -5.62    5.28
  19  -9   2   20.28   11.23
  -9 -10   2    1.74    6.01
 -19  10  -2    2.41    6.91
 -19  10  -2   -1.73    7.73
 -10  -9   2    4.60    6.50
 -10  -9   2   -1.59    6.73
  19 -10   2    4.91   10.15
 -19  11  -2    7.05    7.80
 -19  11  -2    6.90    7.20
 -11  -8   2   -4.94    6.73
  19 -11   2   -3.43    9.88
 -11  -8   2    4.29    6.50
 -19  12  -2    2.98    6.86
 -19  12  -2   -6.45    7.16
  19 -12   2   -0.18    9.49
 -12  -7   2   -0.85    6.68
 -12  -7   2   -1.73    6.59
 -19  13  -2    9.16    7.30
 -19  13  -2    4.81    7.81
 -13  -6   2   -1.18    7.09
 -13  -6   2    4.51    6.85
  19 -13   2    1.47    9.66
  -1   0  -3  356.30   15.95
   1   0   3  336.70   15.97
  -1   1  -3  374.05   16.69
   0  -1  -3  341.93   15.62
   0  -1  -3  353.69   15.81
  -1  -1  -3   53.93    4.16
   2  -1  -3   45.03    4.30
   2  -1  -3   61.30    4.66
  -1  -1  -3   46.51    4.39
   1   1   3   45.75    3.94
  -2  -1  -3  374.86   16.82
   3  -2  -3  372.86   16.61
  -2  -1  -3  394.27   17.46
  -1   3  -3  387.53   18.90
   3  -2  -3  374.63   16.48
   2   1   3  362.12   17.89
   2   1   3  379.56   16.73
   2  -2  -3   21.24    3.43
  -2   0  -3   29.53    3.60
   0   2  -3   30.48    3.03
  -2   0  -3   39.95    4.48
   0   2  -3   26.70    2.99
   2   0   3   33.76    4.12
   1   1  -3   45.60    3.93
   1  -2  -3   41.05    4.22
  -2   1  -3   50.67    4.96
   1   1  -3   47.17    4.01
  -1   2   3   43.75    4.19
   2  -1   3   49.70    4.75
   2   0  -3   27.11    3.51
   2   0  -3   30.64    3.75
   0  -2  -3   28.29    3.75
  -2   2  -3   30.20    4.12
   0   2   3   28.21    2.24
   0   2   3   26.08    3.47
  -2   0   3   31.07    3.86
  -2   0   3   25.73    3.66
  -2   3  -3   21.17    4.00
  -2   3  -3   15.00    4.57
   3  -1  -3   22.00    3.58
   3  -1  -3   24.98    3.66
  -1  -2  -3   28.14    3.80
   1   2   3   13.06    2.98
   1   2   3   15.07    3.19
  -3   1   3   15.61    3.51
  -3   1   3   16.83    3.52
  -2   4  -3   27.54    5.21
  -2  -2  -3   30.15    4.15
   4  -2  -3   26.72    3.29
   4  -2  -3   27.29    3.87
   4  -2  -3   25.97    3.84
  -4   2   3   29.00    4.22
  -4   2   3   26.24    4.20
   2   2   3   28.29    3.82
   2   2   3   28.06    4.02
  -2   5  -3   -0.49    4.63
  -2   5  -3   -0.89    1.15
  -3  -2  -3    0.04    2.90
   5  -3  -3    2.07    2.85
   5  -3  -3    0.30    2.87
   5  -3  -3    1.48    2.40
   5  -3  -3   -0.18    3.68
  -2   5  -3   -2.27    1.11
   2  -5   3   -0.17    4.54
  -5   3   3    5.13    3.34
  -5   3   3    2.06    3.29
   3   2   3    2.97    2.82
   3   2   3    4.43    3.81
   4  -3  -3  241.01   11.36
  -1   4  -3  229.85   13.35
  -3  -1  -3  229.77   12.00
   4  -3  -3  237.09   11.96
  -3  -1  -3  244.88   11.55
  -1   4  -3  228.12    9.74
   4  -3  -3  236.08   11.35
  -1   4  -3  235.02    9.63
   4  -3  -3  228.97   11.45
   3   1   3  215.78   12.74
  -4   3   3  226.41   11.36
  -4   3   3  225.09   11.51
   3   1   3  236.74   11.28
   3  -3  -3  256.15   12.37
   3  -3  -3  268.03   12.61
  -3   0  -3  271.84   12.47
   3  -3  -3  275.13   12.80
  -3   0  -3  268.46   13.97
   0   3  -3  262.06   11.31
   0   3  -3  253.87   11.47
   3  -3  -3  278.52   12.63
   0   3  -3  270.13   14.60
  -3   3   3  270.80   12.47
   3   0   3  272.76   14.37
   2  -3  -3   19.90    3.59
   1   2  -3   23.27    3.10
  -3   1  -3   35.28    4.77
   2  -3  -3   20.99    2.26
   1   2  -3   24.85    3.11
  -1  -2   3   17.40    2.91
  -2   3   3   18.99    3.33
   3  -1   3   20.77    4.19
  -1  -2   3   22.62    3.12
   1  -3  -3  353.61   17.15
   2   1  -3  402.60   16.50
  -3   2  -3  385.54   18.41
   2   1  -3  379.69   16.17
  -2  -1   3  385.61   16.18
   3  -2   3  367.89   18.53
  -1   3   3  385.93   17.03
  -2  -1   3  378.38   16.43
   3   0  -3  269.23   12.65
   0  -3  -3  276.80   13.16
  -3   3  -3  252.12   13.85
   3   0  -3  280.44   12.87
  -3   3  -3  265.67   14.29
  -3   0   3  262.51   12.40
   0   3   3  261.22   12.99
  -3   0   3  263.41   12.48
   0   3   3  274.74   12.09
   3  -3   3  268.75   14.36
   4  -1  -3   -0.22    2.69
   4  -1  -3    2.89    2.90
  -3   4  -3   -0.33    3.29
  -1  -3  -3    5.58    3.22
  -3   4  -3   10.65    4.33
  -4   1   3    6.11    3.39
   1   3   3    2.66    2.81
  -4   1   3    5.30    3.28
   1   3   3    2.82    2.83
  -3   5  -3    0.99    1.59
  -3   5  -3    3.20    4.63
  -3   5  -3   -0.47    3.67
   5  -2  -3   -1.49    2.72
  -3   5  -3   -0.89    1.52
  -2  -3  -3    4.95    3.57
   5  -2  -3   -1.58    2.72
  -5   2   3    1.68    3.25
   3  -5   3    2.77    4.33
  -5   2   3    0.43    3.23
   2   3   3    2.35    2.83
   2   3   3    7.17    3.52
   6  -3  -3    2.99    2.37
   6  -3  -3   -5.21    4.20
  -3   6  -3   -4.42    5.12
   6  -3  -3    0.17    3.10
  -3  -3  -3    7.29    3.85
   6  -3  -3    0.52    3.21
   3  -6   3    0.14    4.79
  -6   3   3    5.87    3.75
   3   3   3   -1.11    2.91
   3   3   3    3.47    4.22
  -6   3   3    1.50    3.60
   7  -4  -3  178.51   10.89
   7  -4  -3  183.60   11.06
   7  -4  -3  183.17    9.60
   7  -4  -3  169.76   11.80
  -3   7  -3  175.01   13.64
  -7   4   3  167.06   10.86
   4   3   3  200.20   12.39
   4   3   3  177.28   11.18
  -7   4   3  185.47   10.83
   3  -7   3  185.15   12.82
   6  -4  -3    5.01    2.83
  -4  -2  -3   12.45    3.73
   6  -4  -3    7.37    3.53
   6  -4  -3   11.81    4.19
  -2   6  -3   10.06    5.73
   6  -4  -3    1.48    3.28
   4   2   3   10.81    3.38
   2  -6   3    2.58    5.10
   4   2   3    7.47    4.89
  -6   4   3    4.74    3.82
  -6   4   3    8.47    3.89
   5  -4  -3   30.71    4.31
  -1   5  -3   30.37    2.43
   5  -4  -3   27.92    3.78
  -1   5  -3   21.48    5.82
  -1   5  -3   30.28    2.47
   5  -4  -3   34.52    4.68
  -4  -1  -3   28.42    3.81
   5  -4  -3   31.77    4.33
  -5   4   3   25.80    4.30
   4   1   3   26.89    3.70
  -5   4   3   27.78    4.43
  -5   4   3   32.93    3.58
   4   1   3   29.60    5.41
   1  -5   3   30.40    5.73
  -4   0  -3  385.87   16.46
   4  -4  -3  371.89   17.33
  -4   0  -3  365.26   17.81
   4  -4  -3  372.49   16.26
   0   4  -3  360.88   18.77
   0   4  -3  373.46   15.11
   4  -4  -3  376.83   16.70
   4  -4  -3  365.87   16.53
   0   4  -3  364.53   14.89
   0  -4   3  375.93   14.86
  -4   4   3  352.67   17.16
   4   0   3  366.17   18.48
   0  -4   3  372.47   15.07
  -4   4   3  340.32   16.35
  -4   1  -3    9.50    3.90
   1   3  -3   -2.38    2.17
   1   3  -3   -1.19    2.23
   3  -4  -3    4.17    3.06
   1   3  -3   -1.79    4.29
   3  -4  -3    7.63    2.48
  -4   1  -3    5.37    2.35
  -1  -3   3   -0.43    2.36
  -1  -3   3    2.23    2.37
   4  -1   3    6.00    4.07
  -3   4   3   -0.20    2.55
  -3   4   3    2.72    2.34
   2   2  -3   24.04    3.31
   2  -4  -3   13.72    3.75
   2   2  -3   21.58    3.36
  -4   2  -3   28.49    4.74
  -2   4   3   23.24    3.68
  -2   4   3   29.37    2.54
  -2  -2   3   23.69    3.48
   4  -2   3   31.49    5.06
  -2  -2   3   23.84    3.51
   1  -4  -3  224.32   12.34
   3   1  -3  246.30   11.54
   3   1  -3  247.68   11.46
  -4   3  -3  245.08   13.54
  -4   3  -3  232.72   10.88
  -4   3  -3  252.73   10.89
  -4   3  -3  236.91   12.31
  -3  -1   3  234.28   11.57
  -3  -1   3  245.23   11.77
   4  -3   3  223.44   13.49
  -1   4   3  237.28   12.51
   4   0  -3  383.47   16.39
   0  -4  -3  373.51   17.32
  -4   4  -3  351.46   15.20
  -4   4  -3  369.23   17.98
  -4   4  -3  355.02   15.11
   4   0  -3  376.34   16.42
  -4   4  -3  379.32   18.73
  -4   0   3  371.74   16.34
   4  -4   3  344.73   18.47
  -4   0   3  369.93   16.46
   0   4   3  345.73   17.08
  -4   5  -3   90.72    5.31
  -4   5  -3   99.77    5.44
   5  -1  -3   93.06    6.85
  -4   5  -3  106.89    8.28
  -4   5  -3   86.03    7.89
   5  -1  -3  101.84    8.06
  -1  -4  -3   79.76    7.14
  -5   1   3   93.60    7.20
  -5   1   3  105.82    7.78
   1   4   3   79.10    6.94
   4  -5   3   97.90    8.53
   6  -2  -3   33.17    4.63
  -4   6  -3   35.00    5.71
  -4   6  -3   35.73    2.67
  -4   6  -3   32.65    2.63
   6  -2  -3   42.06    5.00
  -4   6  -3   33.04    6.49
  -6   2   3   30.73    4.99
  -6   2   3   22.66    4.64
   2   4   3   34.36    4.91
   4  -6   3   35.16    6.23
   7  -3  -3   87.15    7.38
   7  -3  -3   98.60    8.82
   7  -3  -3   98.04    5.66
   7  -3  -3   88.75    7.40
  -4   7  -3   79.41    8.17
   3   4   3   88.13    7.62
  -7   3   3   80.92    7.63
  -7   3   3   73.57    7.43
   4  -7   3  101.24    9.34
  -4  -4  -3    8.01    4.01
  -4  -4  -3   15.55    4.33
   8  -4  -3   14.46    3.00
   8  -4  -3   10.80    5.80
   4   4   3    7.99    3.90
  -8   4   3   19.70    5.03
  -8   4   3   16.66    4.86
  -5  -4  -3  126.54    9.38
  -5  -4  -3  127.63    9.48
   9  -5  -3  123.81   10.88
   9  -5  -3  125.70    7.70
  -9   5   3  130.27   10.28
   5   4   3  135.29   10.09
  -9   5   3  139.51   10.80
   8  -5  -3   13.39    3.41
  -5  -3  -3   14.71    4.37
   8  -5  -3    8.03    5.25
  -5  -3  -3   10.05    4.23
  -8   5   3   14.71    4.85
  -8   5   3   13.71    4.79
   5   3   3    9.15    5.51
   5   3   3    7.07    3.69
  -5  -2  -3  126.80    8.86
  -5  -2  -3  114.24    8.98
   7  -5  -3  121.00    9.81
  -2   7  -3  118.33   10.78
   7  -5  -3  128.43    8.81
   7  -5  -3  110.90    7.97
   7  -5  -3  106.98    8.73
  -5  -2  -3  118.39    9.14
   5   2   3  105.82    8.14
   5   2   3  130.55   10.64
  -7   5   3  132.48    9.15
  -7   5   3  119.40    6.98
  -7   5   3  122.24    9.33
  -1   6  -3    6.35    5.64
   6  -5  -3    1.64    3.01
   6  -5  -3    2.04    4.28
   6  -5  -3   -0.09    3.21
  -1   6  -3    4.43    1.52
  -5  -1  -3    1.68    2.84
  -5  -1  -3    0.28    3.28
  -1   6  -3    2.12    1.48
  -5  -1  -3    1.15    3.41
   6  -5  -3    1.48    3.27
  -6   5   3   10.99    4.03
   5   1   3    3.05    2.71
   1  -6   3   13.99    5.67
   5   1   3    1.39    4.88
  -6   5   3    5.84    3.77
  -6   5   3    5.83    4.00
  -6   5   3    1.53    2.54
  -5   0  -3  148.13    8.07
   5  -5  -3  151.12    9.01
   0   5  -3  147.74    6.87
  -5   0  -3  162.38    9.66
   5  -5  -3  127.01    8.77
  -5   0  -3  149.10    9.06
   5  -5  -3  145.43    9.07
  -5   0  -3  150.57    9.27
   5  -5  -3  136.06    9.37
   0   5  -3  118.42   10.77
   0   5  -3  142.09    7.04
  -5   5   3  158.49    8.77
   0  -5   3  139.16    7.05
  -5   5   3  133.94    9.25
   0  -5   3  135.77    7.15
   5   0   3  130.36   10.66
   0  -5   3  149.06   11.03
   1   4  -3  111.53    9.40
   4  -5  -3   98.54    7.61
   1   4  -3   92.27    5.90
   4  -5  -3   84.47    6.50
  -5   1  -3   86.06    5.69
   4  -5  -3  106.16    6.78
  -5   1  -3   93.29    7.02
  -5   1  -3   88.82    7.00
   1   4  -3   89.94    5.74
   4  -5  -3   83.49    6.61
  -5   1  -3   93.82    7.57
   5  -1   3  111.04    8.74
  -4   5   3   82.96    6.86
  -1  -4   3   96.86    5.83
  -1  -4   3   89.84    6.06
  -4   5   3   87.22    7.06
  -5   2  -3   -0.54    2.73
   3  -5  -3    1.83    3.33
   2   3  -3    1.92    2.47
  -5   2  -3    0.31    3.76
  -5   2  -3    4.71    2.98
   2   3  -3   -0.28    4.51
   2   3  -3   -0.35    2.45
  -3   5   3    2.39    2.58
  -2  -3   3    1.47    2.59
  -2  -3   3    2.03    2.53
  -3   5   3    6.65    3.20
   5  -2   3   -3.26    4.15
   3   2  -3    4.18    2.74
   2  -5  -3    0.51    3.33
  -5   3  -3    4.28    3.96
  -5   3  -3    0.12    3.09
  -5   3  -3   -2.99    2.23
   3   2  -3   -0.89    2.68
  -5   3  -3    1.14    2.38
  -3  -2   3    1.63    2.90
  -2   5   3   -0.09    2.98
  -3  -2   3    4.27    3.07
   1  -5  -3   23.12    4.66
  -5   4  -3   28.18    3.39
   4   1  -3   31.38    4.15
  -5   4  -3   40.73    5.62
  -5   4  -3   32.87    4.52
  -5   4  -3   26.37    3.38
   4   1  -3   32.67    4.29
  -4  -1   3   27.47    4.39
  -1   5   3   26.20    4.44
  -4  -1   3   29.63    4.33
   5  -4   3   30.12    5.73
  -5   5  -3  148.82    7.33
   5   0  -3  137.20    8.69
  -5   5  -3  130.36    9.52
  -5   5  -3  138.33    7.40
  -5   5  -3  147.44   10.98
   5   0  -3  141.18    8.88
  -5   0   3  134.14    9.29
   0   5   3  162.34   10.37
  -5   0   3  144.70    8.92
   5  -5   3  147.82   11.18
   6  -1  -3   49.93    5.60
  -5   6  -3   70.65    7.34
   6  -1  -3   50.44    5.76
  -5   6  -3   64.44    7.26
  -5   6  -3   53.49    3.98
  -5   6  -3   56.33    4.32
   5  -6   3   69.03    7.56
   1   5   3   46.14    5.83
  -6   1   3   48.21    5.86
  -6   1   3   50.59    5.94
  -5   7  -3   -1.98    1.69
   7  -2  -3   -1.94    3.44
  -5   7  -3   -1.69    1.71
  -5   7  -3    2.03    5.88
   7  -2  -3    1.69    3.65
   7  -2  -3    9.91    5.79
  -7   2   3   -2.04    4.01
   2   5   3   -3.99    3.56
  -7   2   3   -6.84    3.83
   5  -7   3   -2.44    5.16
   8  -3  -3  119.45    6.87
  -5   8  -3  134.19    5.75
   8  -3  -3  144.01   11.44
  -5   8  -3  135.47    5.67
  -8   3   3  114.94    9.35
  -8   3   3  133.07    9.92
  -4  -5  -3    5.56    4.01
   9  -4  -3    6.23    2.43
   9  -4  -3    3.65    5.82
  -4  -5  -3    0.54    3.73
  -9   4   3   10.05    4.88
  -9   4   3   -0.90    4.26
  10  -5  -3  182.14   13.80
  -5  -5  -3  182.23   11.34
  -5  -5  -3  177.04   11.34
 -10   5   3  181.29   12.46
 -10   5   3  169.99   11.91
  11  -6  -3  229.03   16.45
  -6  -5  -3  252.38   14.04
  -6  -5  -3  240.41   13.88
 -11   6   3  248.10   14.88
 -11   6   3  220.74   14.37
  10  -6  -3    3.17    5.59
  -6  -4  -3    3.76    4.21
  -6  -4  -3    1.57    4.34
   6   4   3    4.76    6.02
 -10   6   3   -2.08    4.62
 -10   6   3   -0.65    4.45
  -6  -3  -3   53.00    6.58
   9  -6  -3   61.52    8.01
  -6  -3  -3   57.35    6.69
  -9   6   3   55.43    7.05
   6   3   3   62.63    8.22
   6   3   3   45.48    5.54
  -9   6   3   52.56    6.95
  -6  -1  -3  451.97   20.18
   7  -6  -3  444.57   20.35
   7  -6  -3  420.28   21.66
  -6  -1  -3  426.44   20.26
  -6  -1  -3  437.57   19.97
   7  -6  -3  456.33   20.18
   6   1   3  447.22   19.64
  -7   6   3  428.34   21.75
   6   1   3  437.73   22.80
  -7   6   3  444.95   19.51
  -7   6   3  440.06   19.75
   1  -7   3  440.85   17.29
  -7   6   3  450.02   20.26
   1  -7   3  427.37   17.09
   0   6  -3  106.27    9.87
   0   6  -3   94.91    5.28
   6  -6  -3  108.23    8.32
   0   6  -3   94.13    5.33
  -6   0  -3   85.06    8.03
   6  -6  -3   93.65    8.06
   6  -6  -3   98.65    7.42
  -6   0  -3   94.90    7.79
  -6   0  -3  107.89    7.96
  -6   0  -3   79.94    6.53
   6   0   3  105.60    9.51
  -6   6   3   87.18    7.41
  -6   6   3   91.35    6.84
   0  -6   3   91.27    5.67
   0  -6   3   81.32    5.54
   0  -6   3  106.66    9.47
   5  -6  -3   63.11    5.87
   5  -6  -3   70.80    5.79
   1   5  -3   55.87    4.31
  -6   1  -3   59.52    6.00
   5  -6  -3   66.54    5.91
   1   5  -3   72.00    8.01
  -6   1  -3   49.59    5.74
  -6   1  -3   54.67    4.69
   1   5  -3   60.53    4.43
  -6   1  -3   60.32    6.46
  -5   6   3   55.87    5.53
  -1  -5   3   49.90    4.39
  -1  -5   3   51.06    4.44
   6  -1   3   61.18    7.81
  -5   6   3   61.01    5.90
   4  -6  -3   38.52    4.07
  -6   2  -3   49.45    6.45
  -6   2  -3   31.70    4.70
   4  -6  -3   24.03    4.05
   2   4  -3   33.36    3.76
   2   4  -3   30.17    3.65
   4  -6  -3   40.08    4.53
  -6   2  -3   35.82    4.78
   2   4  -3   37.64    6.58
  -6   2  -3   34.56    3.59
   6  -2   3   33.11    6.38
  -2  -4   3   33.13    3.92
  -2  -4   3   31.33    3.87
  -4   6   3   37.46    4.84
  -4   6   3   37.23    4.44
   3   3  -3    5.83    4.90
  -6   3  -3    6.41    3.16
   3   3  -3    6.84    2.85
  -6   3  -3    5.96    3.00
  -6   3  -3    3.11    4.39
  -6   3  -3    0.34    2.80
   3   3  -3    0.00    2.68
  -3  -3   3    3.94    3.06
  -3   6   3   -3.19    3.20
  -3  -3   3    4.14    3.10
   6  -3   3   -5.25    4.52
  -3   6   3   -0.14    2.83
  -6   4  -3   10.40    3.47
  -6   4  -3    9.68    4.76
   4   2  -3    9.73    3.13
  -6   4  -3    6.35    2.80
  -6   4  -3   11.95    2.99
   4   2  -3   10.79    3.18
  -4  -2   3   10.94    3.66
  -4  -2   3    5.23    3.49
  -2   6   3   -0.46    3.45
   6  -4   3    4.53    4.75
   5   1  -3   -1.09    3.12
   5   1  -3    4.60    3.27
  -6   5  -3    1.54    2.42
  -6   5  -3    4.05    3.90
  -6   5  -3    1.60    2.36
  -6   5  -3   -0.62    4.47
  -1   6   3   -2.50    3.64
  -5  -1   3    5.81    3.66
   6  -5   3    0.04    4.90
  -5  -1   3    4.97    3.75
   6   0  -3  111.36    8.64
  -6   6  -3  106.07    9.64
   6   0  -3  116.31    8.73
  -6   6  -3   94.31    6.14
  -6   6  -3   98.62    6.44
  -6   6  -3  109.74    8.91
  -6   0   3  112.00    8.40
  -6   0   3  115.84    8.79
   6  -6   3   94.55    9.28
   6  -6   3  114.81    9.37
   0   6   3   90.32    8.06
  -6   7  -3   59.75    4.79
  -6   7  -3   68.31    5.01
   6  -7   3   75.67    8.00
  -7   1   3   66.66    6.99
  -7   1   3   84.18    7.45
  -6   8  -3    1.74    1.92
  -6   8  -3    4.81    1.99
   8  -2  -3    5.32    6.25
  -8   2   3    1.77    4.15
  -8   2   3    0.14    4.15
   9  -3  -3  134.24    6.84
  -6   9  -3  129.52    6.08
  -6   9  -3  135.23    6.13
   9  -3  -3  138.76   12.02
  -9   3   3  130.42   10.50
  -9   3   3  125.32   10.09
  -4  -6  -3   55.58    6.67
  -4  -6  -3   61.45    6.78
  10  -4  -3   57.97    4.67
  10  -4  -3   76.86    9.68
 -10   4   3   56.63    7.49
 -10   4   3   54.30    7.40
  -5  -6  -3   11.34    4.56
  -5  -6  -3   13.62    4.69
  11  -5  -3   13.71    6.85
 -11   5   3    4.08    5.18
 -11   5   3   -1.38    4.86
  -6  -6  -3   15.87    5.25
  12  -6  -3    5.90    6.58
  -6  -6  -3    6.20    4.83
 -12   6   3    4.51    5.23
 -12   6   3   14.49    5.86
  -7  -6  -3   12.79    5.67
  13  -7  -3   -3.20    6.87
  -7  -6  -3    3.50    4.91
 -13   7   3    9.67    6.20
 -13   7   3    5.59    5.89
  -7  -5  -3   22.07    5.82
  -7  -5  -3   17.54    5.57
  12  -7  -3   20.82    7.16
 -12   7   3   21.01    6.37
 -12   7   3   29.17    6.52
   7   5   3   36.61    8.45
  -7  -4  -3  186.00   12.57
  -7  -4  -3  206.23   13.07
  11  -7  -3  177.23   14.04
 -11   7   3  171.26   11.98
   7   4   3  186.88   14.72
 -11   7   3  176.02   12.33
  10  -7  -3  158.42   12.73
  -7  -3  -3  170.64   11.94
  -7  -3  -3  170.69   12.16
 -10   7   3  180.71   11.86
   7   3   3  173.32   10.68
   7   3   3  173.34   13.56
 -10   7   3  176.54    8.95
 -10   7   3  161.50   11.56
  -7  -2  -3   10.96    4.45
   9  -7  -3   -0.55    5.07
  -7  -2  -3   11.89    4.50
  -9   7   3    2.31    4.37
   7   2   3   -4.93    6.01
  -9   7   3   -0.38    2.62
   7   2   3   11.13    3.65
  -9   7   3    0.19    4.61
  -9   7   3    6.46    4.50
  -7  -1  -3  117.31    8.47
   8  -7  -3  106.97    9.32
  -7  -1  -3  121.82    9.61
  -7  -1  -3  110.56    8.90
  -1   8  -3  122.22   11.38
   7   1   3  118.00    7.56
  -8   7   3  119.24    9.76
   7   1   3  109.53   10.84
   1  -8   3  117.91    5.69
   1  -8   3  120.59    5.85
  -8   7   3  128.64    8.85
  -8   7   3  116.18    9.31
  -8   7   3  110.00    7.88
   0   7  -3   56.92    4.72
  -7   0  -3   70.15    7.15
   7  -7  -3   77.43    7.14
  -7   0  -3   62.80    5.77
   7  -7  -3   68.12    6.56
  -7   0  -3   61.15    6.91
   0   7  -3   68.26    9.06
   0   7  -3   60.14    4.62
   7  -7  -3   62.85    6.36
   0  -7   3   65.66    5.23
  -7   7   3   86.11    7.27
   7   0   3   55.10    5.13
   0  -7   3   63.80    4.95
  -7   7   3   80.89    7.26
  -7   7   3   87.58    7.42
  -7   7   3   70.27    6.01
   7   0   3   67.51    8.95
   1   6  -3   67.29    4.86
   6  -7  -3   73.96    6.44
   1   6  -3   92.09    9.27
  -7   1  -3   67.09    7.20
  -7   1  -3   65.94    6.76
   1   6  -3   63.18    4.70
   6  -7  -3   69.77    6.32
  -7   1  -3   61.52    6.63
  -7   1  -3   58.98    5.27
   6  -7  -3   73.57    6.75
  -6   7   3   73.84    6.55
  -6   7   3   78.56    7.07
  -1  -6   3   83.60    5.67
  -1  -6   3   60.47    4.88
   5  -7  -3   -0.62    3.46
   2   5  -3   -6.21    5.49
   2   5  -3    1.40    2.87
  -7   2  -3    7.41    3.71
  -7   2  -3    9.50    3.90
   2   5  -3   -3.20    2.60
   5  -7  -3    3.60    3.44
  -7   2  -3    2.21    2.37
  -7   2  -3    6.29    4.30
   5  -7  -3   -0.94    3.20
  -2  -5   3    1.55    2.92
   7  -2   3   20.90    6.45
  -5   7   3    3.35    3.74
  -2  -5   3   -2.57    2.83
  -5   7   3   -1.77    3.44
  -7   3  -3   77.20    8.33
  -7   3  -3   85.31    7.03
  -7   3  -3   88.79    7.28
   3   4  -3   84.24    6.33
   3   4  -3   85.80    8.99
  -7   3  -3   80.75    6.15
   3   4  -3  101.09    7.25
  -4   7   3   92.55    6.71
  -4   7   3   90.49    7.68
  -3  -4   3   84.04    6.68
   7  -3   3   90.31    9.22
  -3  -4   3   81.23    6.47
   4   3  -3  174.54   11.99
  -7   4  -3  180.54   10.11
   4   3  -3  184.90   10.32
  -7   4  -3  185.97   12.96
   4   3  -3  187.55   10.14
  -7   4  -3  169.96   10.01
  -7   4  -3  175.93    9.74
  -3   7   3  182.33   10.42
   7  -4   3  190.41   13.19
  -3   7   3  188.37   11.66
  -4  -3   3  182.11   10.35
  -4  -3   3  182.28   10.31
  -7   5  -3  112.51    7.43
  -7   5  -3  122.04    8.41
  -7   5  -3  116.46    7.32
   5   2  -3  120.93    8.70
  -7   5  -3  124.15   10.75
   5   2  -3  129.13    9.91
   5   2  -3  131.70    8.68
   7  -5   3  116.00    7.93
  -5  -2   3  122.15    8.60
  -2   7   3  114.32    9.33
  -5  -2   3  126.42    8.89
   7  -5   3  117.64    7.93
   7  -5   3  139.14   12.11
  -7   6  -3  432.75   18.76
   6   1  -3  450.59   20.38
   6   1  -3  443.64   20.06
  -7   6  -3  450.65   19.03
   7  -6   3  444.41   18.82
  -6  -1   3  450.00   20.42
  -6  -1   3  442.76   20.58
   7  -6   3  437.47   19.07
   7  -6   3  446.91   21.73
  -7   7  -3   66.15    5.33
  -7   7  -3   81.35    5.69
   7  -7   3   66.70    8.43
   7  -7   3   83.57    5.93
  -7   0   3   68.26    7.22
   7  -7   3   76.79    5.93
   7  -7   3   70.98    7.97
  -7   0   3   62.45    7.02
  -7   8  -3   -4.12    2.19
  -7   8  -3   -2.15    2.23
   7  -8   3    0.44    2.16
  -8   1   3    1.40    4.21
   7  -8   3    0.64    2.22
  -8   1   3   -2.89    4.09
   7  -8   3    5.04    5.58
   7  -8   3    4.35    5.67
  -7   9  -3    0.55    2.13
   9  -2  -3    2.91    6.22
  -7   9  -3   -1.89    2.14
  -9   2   3    1.12    4.27
  -9   2   3    6.82    4.46
  -7  10  -3  248.65   10.42
  -7  10  -3  251.68   10.57
  10  -3  -3  252.13   10.99
  10  -3  -3  251.18   16.83
 -10   3   3  235.44   14.89
 -10   3   3  221.12   14.10
  11  -4  -3   45.47    8.80
  -4  -7  -3   30.44    5.70
  -4  -7  -3   36.01    5.94
  11  -4  -3   37.44    3.07
 -11   4   3   31.43    6.58
 -11   4   3   34.77    6.65
  12  -5  -3   24.28    8.38
  -5  -7  -3   35.16    6.18
  -5  -7  -3   24.76    5.64
 -12   5   3   31.57    6.71
 -12   5   3   36.32    7.22
  -6  -7  -3   14.81    5.43
  -6  -7  -3   15.84    5.69
  13  -6  -3   15.71    7.67
 -13   6   3   19.49    6.44
 -13   6   3   19.63    6.67
  14  -7  -3   -0.30    7.66
  -7  -7  -3    5.09    5.40
  -7  -7  -3    5.34    5.44
 -14   7   3   -7.36    5.51
 -14   7   3    3.94    6.15
  15  -8  -3    6.45    8.77
  -8  -7  -3    7.86    5.85
  -8  -7  -3    7.41    5.80
 -15   8   3   22.48    7.37
 -15   8   3    0.68    6.87
  -8  -6  -3   45.13    7.60
  -8  -6  -3   39.58    7.34
  14  -8  -3   43.32    8.81
 -14   8   3   33.42    7.95
 -14   8   3   32.22    7.72
   8   6   3   52.54   10.45
  13  -8  -3    1.92    7.21
  -8  -5  -3   15.41    5.59
  -8  -5  -3    8.07    5.37
   8   5   3    2.69    7.26
 -13   8   3   -0.90    5.30
 -13   8   3    2.35    5.75
  -8  -4  -3   69.90    8.32
  12  -8  -3   45.69    8.49
  -8  -4  -3   61.04    7.88
 -12   8   3   48.15    7.52
   8   4   3   77.16   10.46
 -12   8   3   63.02    8.28
  -8  -3  -3   -0.29    4.27
  -8  -3  -3   -4.05    3.93
  11  -8  -3   -5.91    5.81
 -11   8   3    3.22    2.62
 -11   8   3   -0.91    4.72
   8   3   3    3.49    6.72
 -11   8   3   -5.71    4.49
  10  -8  -3   25.24    6.55
  -8  -2  -3   27.39    5.89
  -8  -2  -3   25.71    5.82
 -10   8   3   25.32    4.16
 -10   8   3   23.85    5.59
   8   2   3   31.14    8.07
   8   2   3   29.02    4.59
 -10   8   3   41.41    6.14
   9  -8  -3   13.93    5.56
  -8  -1  -3   15.36    4.75
  -8  -1  -3    8.29    4.40
  -9   8   3    5.20    4.52
   1  -9   3    8.10    1.90
  -9   8   3   14.21    5.22
   1  -9   3    9.15    1.97
   8   1   3    8.94    3.20
   8   1   3   24.48    7.16
  -9   8   3    4.68    4.43
  -9   8   3    7.72    3.46
   8  -8  -3  113.70    9.72
  -8   0  -3  121.69    9.19
  -8   0  -3  110.08    8.18
  -8   0  -3  117.20    9.42
   0   8  -3  125.39   11.66
  -8   8   3  118.98    9.29
  -8   8   3  122.76   10.34
   0  -8   3  111.10    6.47
  -8   8   3  118.35    9.12
   0  -8   3  111.27    6.58
   8   0   3  113.11    7.21
  -8   8   3  119.61    9.10
   8   0   3  113.31   11.46
   1   7  -3    1.81    2.39
   1   7  -3    3.87    6.43
  -8   1  -3    0.76    2.64
   7  -8  -3   -7.74    3.92
   1   7  -3    3.10    2.44
  -8   1  -3   -0.83    3.78
  -8   1  -3    0.99    3.87
  -1  -7   3    2.44    2.70
  -7   8   3   -0.80    3.46
  -1  -7   3   -0.42    2.60
  -7   8   3   -0.89    4.19
   8  -1   3    0.67    5.64
   2   6  -3    0.78    2.51
  -8   2  -3    0.37    2.29
   2   6  -3   -3.78    2.57
  -8   2  -3    3.28    3.83
  -8   2  -3    5.17    4.04
   6  -8  -3   -3.33    3.21
   6  -8  -3   -0.41    3.28
   6  -8  -3    2.93    3.94
  -8   2  -3    1.51    2.37
   2   6  -3   -5.98    6.18
  -2  -6   3   -3.48    2.85
  -6   8   3    8.35    3.87
   8  -2   3   -3.41    6.08
  -2  -6   3    0.68    2.93
   3   5  -3  141.53    8.16
  -8   3  -3  130.67    7.30
  -8   3  -3  124.07    7.32
   3   5  -3  133.30   11.34
   3   5  -3  141.57    8.37
  -8   3  -3  132.79    9.31
   5  -8  -3  144.13    9.03
   5  -8  -3  128.31    9.16
  -8   3  -3  132.30    9.06
  -5   8   3  128.05   10.23
  -5   8   3  139.84    9.87
   8  -3   3  139.00   11.94
  -3  -5   3  121.59    8.31
  -3  -5   3  120.02    8.39
   4   4  -3   14.28    3.81
  -8   4  -3   22.77    4.33
  -8   4  -3    5.53    3.35
   4   4  -3   12.68    3.73
  -8   4  -3   14.95    4.08
   8  -4   3   21.82    4.03
  -4  -4   3   14.76    4.14
  -4   8   3   16.03    4.07
  -4  -4   3   14.87    4.12
   8  -4   3   12.64    6.36
   8  -4   3    9.72    3.50
   5   3  -3   10.17    3.83
   5   3  -3   17.33    5.82
  -8   5  -3   17.03    3.84
   5   3  -3   20.24    4.14
  -8   5  -3   13.84    3.70
  -5  -3   3   12.72    4.28
  -3   8   3   13.54    3.91
  -5  -3   3   11.17    4.38
   8  -5   3    5.38    6.16
   8  -5   3   12.41    3.54
   8  -5   3   12.83    3.55
  -8   6  -3   21.32    3.73
   6   2  -3    7.06    5.34
   6   2  -3   16.41    4.26
  -8   6  -3   13.92    3.60
   6   2  -3   16.42    4.20
   8  -6   3   16.53    3.60
   8  -6   3   23.57    3.89
   8  -6   3   17.87    6.47
  -6  -2   3   13.23    4.66
  -6  -2   3   14.71    4.76
  -8   7  -3  129.10    7.49
  -8   7  -3  125.58    7.81
   8  -7   3  135.62   11.57
   8  -7   3  115.97    7.83
  -7  -1   3  118.61    9.20
   8  -7   3  121.09    9.92
  -7  -1   3  120.77    9.72
   8  -7   3  113.41    7.91
  -8   8  -3  111.20    7.12
  -8   8  -3  114.61    7.50
   8  -8   3  126.48   10.52
  -8   0   3  128.72    9.97
   8  -8   3  117.35    7.54
  -8   0   3  121.54    9.92
   8  -8   3  128.24    7.66
   8  -8   3  127.90   11.44
  -8   9  -3   47.21    4.36
  -8   9  -3   49.58    4.45
  -9   1   3   43.97    6.83
   8  -9   3   54.31    4.55
  -9   1   3   50.19    6.98
   8  -9   3   50.11    8.39
   8  -9   3   45.16    4.32
  -8  10  -3  199.97    9.36
  -8  10  -3  218.23    9.72
  10  -2  -3  186.00   15.14
   8 -10   3  184.63    9.33
   8 -10   3  188.76    9.25
 -10   2   3  188.06   12.69
 -10   2   3  208.38   13.19
  11  -3  -3    0.36    7.17
  -8  11  -3   12.15    2.45
  -8  11  -3    3.23    2.29
  -3  -8  -3    4.45    4.19
  -3  -8  -3    6.93    4.24
  11  -3  -3    5.47    1.85
 -11   3   3   -3.40    4.55
 -11   3   3    4.85    5.19
  12  -4  -3   22.72    8.26
  -4  -8  -3   19.82    5.25
  -4  -8  -3    7.34    4.74
 -12   4   3   15.67    6.07
 -12   4   3   16.52    5.91
  13  -5  -3   -1.86    7.83
  -5  -8  -3    7.27    4.76
  -5  -8  -3    8.70    4.90
 -13   5   3   12.08    6.36
 -13   5   3    3.70    5.58
  -6  -8  -3   73.30    8.84
  14  -6  -3   85.40   11.97
  -6  -8  -3   76.18    8.89
 -14   6   3   70.03    9.64
 -14   6   3   68.79    9.51
  15  -7  -3   28.17   10.12
  -7  -8  -3   27.32    6.81
  -7  -8  -3   14.88    6.18
 -15   7   3   19.69    7.81
 -15   7   3   28.55    7.57
  -8  -8  -3   55.08    8.52
  -8  -8  -3   46.77    8.28
  16  -8  -3   56.42   12.10
 -16   8   3   44.28    8.81
 -16   8   3   43.40    9.36
  -9  -8  -3  121.22   12.25
  -9  -8  -3  141.94   12.88
 -17   9   3  114.15   13.03
 -17   9   3  114.61   12.77
  16  -9  -3   -5.43    8.48
  -9  -7  -3   11.81    6.38
  -9  -7  -3    7.76    6.21
 -16   9   3    3.50    7.25
 -16   9   3   14.66    7.32
   9   7   3    6.30    8.88
  -9  -6  -3    1.38    5.77
  -9  -6  -3    4.69    5.97
  15  -9  -3   12.03    8.69
   9   6   3    4.12    8.55
 -15   9   3    2.97    6.76
 -15   9   3    3.57    6.58
  -9  -5  -3   11.67    5.84
  -9  -5  -3   23.48    5.69
  14  -9  -3   16.58    7.80
  -9  -5  -3   25.67    6.75
 -14   9   3   30.61    7.14
   9   5   3   29.37    9.17
 -14   9   3   21.68    6.96
  -9  -4  -3   96.80   10.15
  13  -9  -3   79.51   10.21
  -9  -4  -3  104.38    8.71
  -9  -4  -3   98.55   10.43
 -13   9   3  121.63   10.96
   9   4   3  118.66   12.56
 -13   9   3  101.45   10.35
  12  -9  -3   45.65    7.76
  -9  -3  -3   26.43    4.86
  -9  -3  -3   24.39    6.23
  -9  -3  -3   37.18    6.74
 -12   9   3   34.26    7.02
 -12   9   3   37.09    4.30
 -12   9   3   31.68    6.95
   9   3   3   42.46    9.32
  -9  -2  -3   69.63    6.47
  -9  -2  -3   81.56    8.74
  -9  -2  -3   87.22    8.62
  11  -9  -3   82.39    9.46
   9   2   3   71.81    6.89
 -11   9   3   72.37    8.25
   9   2   3  108.77   12.03
 -11   9   3   78.62    8.71
 -11   9   3   81.36    6.44
  -9  -1  -3  135.79   10.72
  10  -9  -3  154.46   11.94
  -9  -1  -3  152.45   11.51
   1 -10   3  132.24    6.62
 -10   9   3  146.46    9.42
   9   1   3  129.72    8.38
   1 -10   3  134.54    6.78
 -10   9   3  130.67    9.97
 -10   9   3  126.69   10.31
   9   1   3  134.35   13.08
   9  -9  -3    4.69    5.12
  -9   0  -3   -1.74    4.15
  -9   0  -3   -5.18    3.86
   0  -9   3    5.44    2.36
  -9   9   3   -0.58    3.50
   9   0   3    3.73    6.79
   0  -9   3    2.47    2.39
  -9   9   3   -1.00    4.53
  -9   9   3    0.47    4.22
  -9   9   3    1.08    4.25
   1   8  -3   59.79    4.59
   1   8  -3   51.78    4.45
   8  -9  -3   54.50    6.82
  -9   1  -3   47.67    5.05
  -9   1  -3   41.67    6.28
  -9   1  -3   60.86    7.00
  -1  -8   3   48.45    4.57
   9  -1   3   44.80    8.68
  -8   9   3   46.60    5.93
  -8   9   3   62.85    7.28
  -1  -8   3   57.08    4.74
   2   7  -3   -3.25    6.34
  -9   2  -3    2.96    4.08
  -9   2  -3   -0.48    2.52
  -9   2  -3    0.47    3.92
   2   7  -3    0.20    2.62
   2   7  -3    1.09    2.62
   7  -9  -3   -2.18    4.03
  -7   9   3    0.77    3.60
  -2  -7   3    2.02    3.07
  -2  -7   3   -0.30    2.95
   9  -2   3    0.78    6.27
  -7   9   3   -0.40    4.40
   6  -9  -3  141.65    9.45
  -9   3  -3  119.40    9.62
   6  -9  -3  139.28    9.63
   3   6  -3  137.75   12.37
  -9   3  -3  120.24    7.28
  -9   3  -3  138.91   10.01
   3   6  -3  122.97    8.13
   3   6  -3  129.75    8.37
  -3  -6   3  127.47    8.53
  -6   9   3  138.95   10.60
   9  -3   3  156.71   12.96
  -3  -6   3  128.28    8.68
  -9   4  -3    7.81    2.54
  -9   4  -3    6.49    4.06
   4   5  -3    7.70    5.83
   4   5  -3    5.37    3.39
  -9   4  -3    7.62    4.14
   5  -9  -3   -1.24    3.15
   5  -9  -3    6.98    3.53
   4   5  -3    6.75    3.42
   9  -4   3    7.27    5.89
  -4  -5   3    5.42    3.66
  -4  -5   3    3.39    3.69
  -5   9   3    4.20    3.83
  -9   5  -3  115.59    8.82
   5   4  -3  125.17    8.66
   5   4  -3  116.27   10.43
  -9   5  -3  141.26    8.90
   5   4  -3  124.02    8.85
  -4   9   3  123.87    9.66
   9  -5   3  136.73   11.93
  -5  -4   3  132.42    9.07
  -5  -4   3  116.70    9.25
  -9   6  -3   46.38    5.63
   6   3  -3   69.96    7.87
  -9   6  -3   57.24    6.12
   9  -6   3   52.46    5.73
  -6  -3   3   50.78    6.50
   9  -6   3   62.79    8.45
  -6  -3   3   41.20    6.18
   9  -6   3   54.74    5.79
  -3   9   3   58.90    6.10
   7   2  -3   12.51    5.24
  -9   7  -3    5.45    3.31
  -9   7  -3    4.29    3.12
  -7  -2   3    4.63    4.46
   9  -7   3   10.63    6.30
  -7  -2   3    5.32    4.46
   9  -7   3    6.58    3.21
   9  -7   3    7.85    5.12
   9  -7   3    9.25    3.41
   8   1  -3   10.88    5.18
  -9   8  -3    6.77    3.16
  -9   8  -3   12.92    3.30
   9  -8   3   11.55    3.43
   9  -8   3   22.49    5.83
  -8  -1   3    2.82    4.55
  -8  -1   3   11.02    4.75
   9  -8   3   12.69    3.27
   9  -8   3   12.56    6.22
  -9   9  -3    4.26    2.77
  -9   9  -3    6.82    2.94
   9  -9   3    5.14    3.02
   9  -9   3    2.60    2.86
   9  -9   3   -4.15    5.74
  -9   0   3    0.55    4.66
  -9   0   3    3.80    4.81
  -9  10  -3   17.26    3.38
  -9  10  -3   17.32    3.39
  10  -1  -3    5.97    7.28
   9 -10   3   15.57    3.11
   9 -10   3    3.16    6.59
   9 -10   3   13.66    3.09
 -10   1   3    7.81    5.14
 -10   1   3    8.17    5.16
  -9  11  -3   54.87    4.47
  11  -2  -3   47.19    9.19
  -9  11  -3   32.70    3.95
 -11   2   3   35.09    6.89
   9 -11   3   34.81    3.65
   9 -11   3   32.43    3.53
 -11   2   3   24.81    6.52
  -3  -9  -3   -6.93    3.92
  -9  12  -3    9.22    2.72
  -3  -9  -3    4.80    4.55
  12  -3  -3    9.20    8.21
  12  -3  -3    1.17    1.56
  -9  12  -3    8.33    2.81
   9 -12   3    0.41    1.87
   9 -12   3    4.24    2.17
 -12   3   3    1.88    5.28
 -12   3   3    5.93    5.56
  -4  -9  -3    7.75    5.08
  13  -4  -3   10.15    8.34
  -4  -9  -3    6.38    4.83
 -13   4   3    8.39    6.17
 -13   4   3    9.31    5.92
  -5  -9  -3   48.24    7.29
  -5  -9  -3   42.48    7.27
  14  -5  -3   47.42   10.90
 -14   5   3   37.97    7.95
 -14   5   3   48.93    8.88
  15  -6  -3    9.17    8.82
  -6  -9  -3    3.47    5.35
  -6  -9  -3   -3.15    4.96
 -15   6   3    4.24    6.88
 -15   6   3   -6.62    6.00
  -8  -9  -3    7.21    6.32
  17  -8  -3   10.08   10.22
  -8  -9  -3   -1.32    5.60
 -17   8   3   18.67    7.77
 -17   8   3    4.56    7.54
  -9  -9  -3   45.86    8.62
  18  -9  -3   28.05    9.27
  -9  -9  -3   44.05    8.48
 -18   9   3   50.47   10.33
 -18   9   3   51.78   10.00
 -10  -9  -3    1.63    6.96
 -10  -9  -3   -1.66    6.27
  19 -10  -3    1.35   10.21
  10   9   3    1.55    9.57
 -19  10   3   10.09    8.76
 -19  10   3    2.32    7.56
  18 -10  -3    9.13    9.78
 -10  -8  -3   -3.76    6.31
 -10  -8  -3    7.47    6.87
 -18  10   3    0.68    7.38
  10   8   3   -1.92    8.62
 -18  10   3  -17.22    6.88
  17 -10  -3   25.94    8.57
 -10  -7  -3   58.53    9.55
 -10  -7  -3   56.36    9.59
 -17  10   3   52.13   10.07
 -17  10   3   64.21   10.17
  10   7   3   59.15   11.63
  16 -10  -3    5.63    9.10
 -10  -6  -3   25.66    7.49
 -10  -6  -3   13.12    6.78
 -16  10   3   11.72    7.55
  10   6   3   27.94    9.80
 -16  10   3    9.21    6.88
 -10  -5  -3   66.80    9.27
  15 -10  -3   43.85    9.13
 -10  -5  -3   85.82    9.98
 -15  10   3   90.62   10.58
  10   5   3   66.72   11.70
 -15  10   3   82.68   10.48
 -10  -4  -3   58.17    8.86
 -10  -4  -3   89.52    9.85
 -10  -4  -3   85.48    7.39
  14 -10  -3   52.03    9.51
 -14  10   3   77.41    9.66
 -14  10   3   93.49   10.52
  10   4   3   84.41   12.36
 -10  -3  -3    2.83    5.32
 -10  -3  -3    8.93    4.13
 -10  -3  -3   -0.30    5.30
  13 -10  -3   -8.43    6.72
 -13  10   3   12.89    6.42
 -13  10   3    7.65    3.32
 -13  10   3    6.14    5.89
  10   3   3    0.75    8.23
 -10  -2  -3   25.36    6.65
 -10  -2  -3   26.42    4.05
  12 -10  -3   20.84    7.59
 -10  -2  -3   21.13    6.21
 -12  10   3   38.69    7.01
 -12  10   3   25.39    6.48
  10   2   3   28.31    9.34
 -12  10   3   28.31    4.58
 -10  -1  -3   11.34    5.13
 -10  -1  -3    6.49    4.92
 -10  -1  -3    5.72    2.71
  11 -10  -3    1.52    5.65
  10   1   3    9.13    7.67
 -11  10   3    8.36    4.92
 -11  10   3    0.22    4.82
 -11  10   3   10.79    3.74
   1 -11   3    9.49    2.24
  10   1   3    7.17    3.33
   1 -11   3    6.02    2.13
 -10   0  -3  151.61   11.17
  10 -10  -3  144.29   11.54
 -10   0  -3  162.16   11.76
 -10  10   3  122.47    9.99
   0 -10   3  145.98    7.98
  10   0   3  152.81   13.83
   0 -10   3  140.65    7.78
 -10  10   3  153.91   10.88
 -10  10   3  133.00   10.32
   9 -10  -3   11.39    5.62
 -10   1  -3    9.59    5.02
 -10   1  -3    6.67    4.93
  -1  -9   3   13.42    3.20
  10  -1   3    1.89    7.38
  -1  -9   3    8.13    3.04
   2   8  -3  207.24   10.28
   8 -10  -3  181.73   12.57
 -10   2  -3  183.10   12.24
 -10   2  -3  204.81   10.59
 -10   2  -3  183.23   12.19
   2   8  -3  187.34   10.30
  -2  -8   3  203.17   10.31
  10  -2   3  210.87   15.53
  -2  -8   3  210.86   10.58
  -8  10   3  178.13   13.53
   3   7  -3  243.57   16.60
 -10   3  -3  247.68   11.94
 -10   3  -3  270.91   14.60
   3   7  -3  240.32   12.43
   3   7  -3  234.94   12.12
 -10   3  -3  252.91   14.08
  -3  -7   3  261.20   12.83
  -7  10   3  238.11   15.01
  -3  -7   3  240.98   12.54
  10  -3   3  260.39   17.70
   4   6  -3   55.67    8.58
 -10   4  -3   61.90    4.92
   4   6  -3   66.25    5.97
 -10   4  -3   50.87    6.70
   4   6  -3   48.39    5.43
 -10   4  -3   63.61    7.13
  -6  10   3   55.96    6.60
  10  -4   3   71.74    9.79
  -4  -6   3   56.08    6.15
  -4  -6   3   54.81    6.03
   5   5  -3  181.26   10.44
   5   5  -3  175.34   12.84
 -10   5  -3  161.54   11.40
 -10   5  -3  171.84   11.36
   5   5  -3  173.94   10.37
  -5  -5   3  190.66   10.90
  -5  -5   3  176.29   10.55
  10  -5   3  149.81   14.05
  -5  10   3  176.56   11.85
   6   4  -3   -2.72    5.29
 -10   6  -3    6.59    3.87
 -10   6  -3    5.87    3.92
  -6  -4   3    1.29    4.02
  -6  -4   3   -1.92    3.94
  -4  10   3    6.75    4.03
  10  -6   3   -2.83    5.84
 -10   7  -3  148.63    9.64
   7   3  -3  163.05   11.62
 -10   7  -3  173.33   10.25
  -7  -3   3  172.35   11.08
  10  -7   3  155.89   13.81
  -7  -3   3  163.41   11.29
   8   2  -3   32.08    6.39
 -10   8  -3   30.69    4.76
 -10   8  -3   31.27    4.60
  10  -8   3   20.96    7.28
  -8  -2   3   32.96    5.98
  10  -8   3   27.14    4.59
  -8  -2   3   26.34    5.84
  10  -8   3   29.74    4.48
  10  -8   3   27.01    6.01
   9   1  -3  144.40   10.59
 -10   9  -3  143.93    9.18
 -10   9  -3  146.30    8.84
  10  -9   3  145.71    9.31
  10  -9   3  149.83    9.49
  10  -9   3  161.45   13.64
  10  -9   3  138.39   11.22
  -9  -1   3  123.49   10.77
  -9  -1   3  140.74   11.14
 -10  10  -3  147.28    8.91
 -10  10  -3  169.84    9.36
  10   0  -3  142.85   10.72
  10 -10   3  137.83    9.01
 -10   0   3  167.49   11.77
  10 -10   3  131.65   13.25
 -10   0   3  143.18   11.25
  10 -10   3  142.04    9.15
  11  -1  -3   19.77    8.74
 -10  11  -3   13.96    3.61
 -10  11  -3   22.44    3.89
  10 -11   3   18.73    3.33
  10 -11   3   16.64    3.26
 -11   1   3   17.92    5.99
 -11   1   3   10.41    5.75
 -10  12  -3   61.25    5.46
 -10  12  -3   74.11    5.72
  12  -2  -3   49.95   10.03
  10 -12   3   64.02    5.11
  10 -12   3   67.97    5.35
 -12   2   3   61.39    8.86
 -12   2   3   67.27    8.64
 -10  13  -3   -1.29    2.97
  -3 -10  -3   -0.03    4.70
  -3 -10  -3   -0.38    4.43
 -10  13  -3   -2.96    2.89
  13  -3  -3   -3.52    8.54
  10 -13   3    4.13    2.32
 -13   3   3   -1.69    5.55
  10 -13   3   -2.24    2.14
 -13   3   3    1.66    5.62
  14  -4  -3   12.42    9.59
  -4 -10  -3   18.41    5.75
  -4 -10  -3    9.32    5.66
 -14   4   3   18.84    7.15
 -14   4   3   16.28    7.01
  -5 -10  -3   -1.14    5.02
  15  -5  -3   10.20    9.59
  -5 -10  -3    4.55    5.12
 -15   5   3    1.25    6.31
 -15   5   3    7.76    7.19
  16  -6  -3   38.07   11.23
  -6 -10  -3   50.59    8.09
  -6 -10  -3   43.24    7.75
 -16   6   3   49.87    9.68
 -16   6   3   33.08    8.82
  -7 -10  -3    0.04    5.61
  -7 -10  -3   12.30    6.47
  17  -7  -3   -0.60   10.00
 -17   7   3   14.09    8.16
 -17   7   3    1.90    7.22
  18  -8  -3    3.13   10.67
  -8 -10  -3    2.10    5.98
  -8 -10  -3   -2.40    5.60
 -18   8   3    6.66    7.66
 -18   8   3    2.37    7.91
  -9 -10  -3    2.23    6.69
  19  -9  -3   26.64   11.65
  -9 -10  -3   17.74    7.66
 -19   9   3    4.70    8.22
 -19   9   3   12.95    8.33
 -11  -8  -3    0.38    6.85
 -11  -8  -3   13.19    7.11
  19 -11  -3   10.00   10.12
  11   8   3    5.32    9.63
 -19  11   3    9.21    7.94
 -19  11   3    0.94    8.03
  18 -11  -3  -10.65    9.28
 -11  -7  -3   11.05    6.92
 -11  -7  -3   -2.71    6.34
 -18  11   3   -1.55    7.47
 -18  11   3   -9.74    6.32
  11   7   3   -0.16    9.28
 -11  -6  -3   21.28    7.63
 -11  -6  -3    6.66    6.90
  17 -11  -3   18.95    8.02
 -17  11   3   20.53    8.22
  11   6   3   -5.41    8.80
 -17  11   3   30.62    8.94
  16 -11  -3    7.77    8.84
 -11  -5  -3   -5.88    5.82
 -11  -5  -3   -2.69    5.80
 -16  11   3    6.23    6.84
  11   5   3  -11.00    8.33
 -16  11   3    5.08    7.24
  15 -11  -3    0.82    8.27
 -11  -4  -3    8.31    6.42
 -11  -4  -3    1.95    6.18
  11   4   3  -11.66    8.36
 -15  11   3   14.52    7.45
 -15  11   3   -2.64    6.07
 -11  -3  -3   25.54    7.06
 -11  -3  -3   20.34    6.82
  14 -11  -3    8.54    8.14
  11   3   3   20.14    9.86
 -14  11   3   12.81    6.39
 -14  11   3   14.45    6.69
  13 -11  -3   10.72    7.52
 -11  -2  -3   25.15    6.71
 -11  -2  -3   19.98    6.75
 -11  -2  -3   23.41    3.89
  11   2   3   17.74    9.50
 -13  11   3   10.94    4.07
 -13  11   3    8.27    6.01
 -13  11   3   23.97    6.98
 -11  -1  -3   12.09    5.97
 -11  -1  -3    9.73    5.83
  12 -11  -3   11.43    6.48
 -12  11   3   -0.51    4.90
   1 -12   3   16.81    2.60
  11   1   3   17.59    9.16
 -12  11   3   11.94    4.29
   1 -12   3    9.30    2.52
 -12  11   3   18.09    5.86
  11   1   3    8.60    3.57
  11 -11  -3   12.58    6.49
 -11   0  -3   16.57    5.84
 -11   0  -3    4.34    5.07
   0 -11   3   16.60    3.12
 -11  11   3    5.17    5.11
   0 -11   3   13.19    3.08
 -11  11   3   16.80    5.38
  11   0   3   15.71    8.11
  10 -11  -3   11.25    5.87
 -11   1  -3   13.87    5.34
 -11   1  -3   15.43    5.72
  11  -1   3   22.06    8.54
  -1 -10   3   15.85    3.43
  -1 -10   3   12.07    3.23
 -11   2  -3   32.62    6.45
 -11   2  -3   27.55    6.17
   9 -11  -3   34.56    6.53
  -2  -9   3   37.03    4.46
  11  -2   3   45.64    9.39
  -2  -9   3   39.29    4.67
 -11   3  -3   -2.94    4.72
   3   8  -3    6.96    3.27
 -11   3  -3    3.62    2.81
   3   8  -3    5.44    3.26
 -11   3  -3    1.21    4.50
  -3  -8   3    4.97    3.31
  11  -3   3    2.35    7.77
  -8  11   3    2.11    4.54
  -3  -8   3    2.51    3.30
 -11   4  -3   29.65    3.73
   4   7  -3   37.73    4.95
 -11   4  -3   40.17    6.55
   4   7  -3   37.22    8.05
 -11   4  -3   40.32    6.67
   4   7  -3   40.04    5.10
  -4  -7   3   31.51    5.09
  -7  11   3   29.05    5.83
  11  -4   3   34.15    8.86
  -4  -7   3   44.87    5.41
 -11   5  -3    7.98    4.72
 -11   5  -3    4.03    4.61
 -11   5  -3    7.90    2.66
   5   6  -3    3.58    6.30
  11  -5   3    6.66    7.17
  -6  11   3   15.56    5.03
  -5  -6   3    4.30    4.26
  -5  -6   3   15.48    4.64
 -11   6  -3  237.18   13.42
   6   5  -3  248.19   15.71
 -11   6  -3  240.94   14.35
  -6  -5   3  242.20   13.31
  11  -6   3  229.00   16.90
  -6  -5   3  265.36   13.91
  -5  11   3  222.09   14.33
 -11   7  -3  203.68   11.39
 -11   7  -3  196.10   11.80
   7   4  -3  157.35   12.70
  11  -7   3  185.55   14.71
  -4  11   3  190.76   12.75
  -7  -4   3  152.81   11.24
  -7  -4   3  175.72   11.84
 -11   8  -3   -2.09    3.28
   8   3  -3   -4.29    4.98
 -11   8  -3    8.90    3.98
  -8  -3   3   -0.13    4.49
  -8  -3   3   -0.87    4.45
  11  -8   3    3.82    6.50
  11  -8   3   -2.90    4.35
   9   2  -3   74.28    8.18
 -11   9  -3   85.16    7.55
 -11   9  -3   85.04    7.35
  -9  -2   3   80.00    8.86
  11  -9   3   96.15    8.81
  -9  -2   3   84.53    8.92
  11  -9   3   85.25   10.88
 -11  10  -3    5.75    3.61
 -11  10  -3   13.84    4.00
  10   1  -3    9.43    5.42
 -10  -1   3    6.22    5.46
  11 -10   3   10.59    3.72
 -10  -1   3   12.97    5.60
  11 -10   3    8.95    6.96
  11 -10   3    4.13    3.51
 -11  11  -3   22.16    4.34
  11   0  -3   14.17    5.10
 -11  11  -3   17.84    4.33
  11 -11   3   16.99    7.74
 -11   0   3    2.51    5.52
  11 -11   3    8.80    3.63
 -11   0   3   13.85    6.15
  11 -11   3   14.67    3.72
  12  -1  -3   -3.82    4.24
 -11  12  -3    1.54    3.82
  12  -1  -3    6.02    8.36
 -11  12  -3   10.36    3.87
 -12   1   3    7.93    5.97
  11 -12   3    1.67    2.81
 -12   1   3    1.49    5.58
  11 -12   3   -0.59    2.85
  13  -2  -3  109.94    5.48
 -11  13  -3  125.39    8.65
  13  -2  -3  128.61   14.59
 -11  13  -3  107.72    8.14
  13  -2  -3   99.15    8.75
  -2 -11  -3  108.64    9.60
  -2 -11  -3  117.56   10.05
 -13   2   3  111.68   11.28
  11 -13   3  109.99    7.49
 -13   2   3   98.94   11.08
  11 -13   3  109.67    7.38
  -3 -11  -3  118.20   10.66
  -3 -11  -3  133.44   10.92
  14  -3  -3  128.34   15.77
 -14   3   3  132.25   12.71
 -14   3   3  130.33   12.83
  -4 -11  -3   31.17    6.71
  -4 -11  -3   26.78    6.45
  15  -4  -3   49.55   11.27
 -15   4   3    9.31    7.59
 -15   4   3   41.41    8.44
  -5 -11  -3   61.91    8.80
  -5 -11  -3   62.07    9.06
  16  -5  -3   63.46   13.31
 -16   5   3   74.81   10.90
 -16   5   3   81.96   10.73
  -6 -11  -3    4.88    5.86
  17  -6  -3   -2.18    9.12
  -6 -11  -3    0.18    5.61
 -17   6   3   -1.30    7.56
 -17   6   3    7.90    7.46
  -7 -11  -3   15.45    6.86
  18  -7  -3   24.63   11.92
  -7 -11  -3    1.25    5.99
 -18   7   3    5.79    7.54
 -18   7   3    7.18    8.39
  19  -8  -3    5.19   11.52
  -8 -11  -3    0.20    5.97
  -8 -11  -3    1.04    6.40
 -19   8   3   -6.13    7.19
 -19   8   3    4.74    8.64
 -12  -7  -3   -6.90    6.85
 -12  -7  -3   11.85    7.59
  19 -12  -3   -1.27   10.29
 -19  12   3   -3.72    7.50
  12   7   3   -7.08    9.02
 -19  12   3   -3.31    7.39
 -12  -6  -3   -1.86    6.54
 -12  -6  -3   -2.18    6.46
  18 -12  -3   -7.62    9.51
 -18  12   3   -4.52    7.34
  12   6   3    8.50    9.90
 -18  12   3   -0.59    6.96
 -12  -5  -3   47.61    9.03
  17 -12  -3   19.01    8.17
 -12  -5  -3   34.03    8.42
 -17  12   3   29.28    7.92
 -17  12   3   25.55    8.29
  12   5   3   36.16   11.35
 -12  -4  -3    8.30    6.68
  16 -12  -3    9.38    8.88
 -12  -4  -3    6.07    6.86
 -16  12   3   10.61    6.72
  12   4   3    1.21    9.59
 -16  12   3    6.77    6.64
  15 -12  -3   13.04    8.45
 -12  -3  -3   12.47    6.78
 -12  -3  -3    6.08    6.15
 -15  12   3    3.66    6.26
 -15  12   3    5.15    6.67
  12   3   3   13.94   10.47
 -12  -2  -3  111.24   11.23
 -12  -2  -3   80.42   10.17
  14 -12  -3   70.34    9.96
  12   2   3   90.67   13.79
 -14  12   3   94.17    9.99
 -14  12   3  105.37   10.60
  13 -12  -3  -12.19    6.73
 -12  -1  -3   -3.07    5.80
 -12  -1  -3   -0.36    5.67
 -13  12   3   -8.33    5.41
  12   1   3    7.04    8.86
  12   1   3    4.45    2.98
   1 -13   3   -1.42    2.25
 -13  12   3  -10.18    4.93
 -12   0  -3   -2.37    5.16
 -12   0  -3    0.04    5.51
  12 -12  -3   -0.03    6.42
  12   0   3   -5.95    7.65
   0 -12   3   -0.93    2.77
   0 -12   3    0.32    2.72
 -12   1  -3    4.17    5.40
  11 -12  -3   -6.87    5.97
 -12   1  -3    6.41    5.63
  -1 -11   3    2.42    3.10
  -1 -11   3    2.13    3.08
  12  -1   3    7.73    8.29
 -12   2  -3   53.12    8.20
  10 -12  -3   64.02    8.57
 -12   2  -3   60.97    8.38
  -2 -10   3   64.26    6.00
  12  -2   3   86.33   11.93
  -2 -10   3   67.13    6.10
 -12   3  -3    2.03    4.90
 -12   3  -3    5.85    5.36
  -3  -9   3    6.17    3.57
  12  -3   3   -1.77    8.23
  -3  -9   3   -1.88    3.16
 -12   4  -3   19.75    5.96
 -12   4  -3   14.86    5.77
 -12   4  -3    9.13    2.98
   4   8  -3   10.78    3.79
  12  -4   3   35.89    9.29
  -4  -8   3    8.42    4.19
  -4  -8   3   12.17    4.45
 -12   5  -3   37.42    6.79
 -12   5  -3   35.44    6.53
 -12   5  -3   27.87    3.61
  -5  -7   3   31.32    5.51
  -5  -7   3   21.41    5.07
  12  -5   3   27.81    8.79
 -12   6  -3    1.88    4.57
 -12   6  -3    7.65    2.74
   6   6  -3   11.84    6.76
 -12   6  -3   12.87    5.31
  -6  -6   3   14.06    4.98
  -6  -6   3    8.05    4.95
  12  -6   3    4.92    7.03
  -6  12   3    3.45    4.77
 -12   7  -3   17.70    5.50
   7   5  -3   27.61    7.38
 -12   7  -3   22.80    5.49
  -7  -5   3   18.74    5.50
  12  -7   3   32.52    8.51
  -7  -5   3   24.25    5.50
  -5  12   3   31.16    5.88
 -12   8  -3   56.63    6.68
 -12   8  -3   74.14    7.49
   8   4  -3   66.53    8.73
  12  -8   3   74.34   10.28
  -8  -4   3   54.51    7.48
  -8  -4   3   66.64    7.91
   9   3  -3   44.85    7.34
 -12   9  -3   43.12    6.14
 -12   9  -3   38.60    5.86
  -9  -3   3   41.35    6.99
  -9  -3   3   19.77    6.13
  12  -9   3   42.35    6.53
  12  -9   3   35.78    8.58
 -12  10  -3   27.80    5.20
  10   2  -3   18.57    6.10
 -12  10  -3   37.14    5.45
 -10  -2   3   18.13    6.27
 -10  -2   3   28.39    7.01
  12 -10   3   30.37    9.00
 -12  11  -3   14.57    4.49
 -12  11  -3   12.50    4.60
  11   1  -3    5.01    4.92
 -11  -1   3   19.86    6.55
 -11  -1   3    3.18    5.81
  12 -11   3    6.89    8.04
  12   0  -3    0.34    8.82
 -12  12  -3    0.60    4.22
 -12  12  -3   -1.57    4.18
  12   0  -3   -2.87    4.62
  12 -12   3    3.25    7.33
 -12   0   3    7.20    6.07
 -12   0   3    1.41    5.82
 -12  13  -3   78.91    6.92
 -12  13  -3   59.05    6.51
  13  -1  -3   64.36    7.10
  13  -1  -3   57.55   11.55
 -13   1   3   55.96    9.08
 -13   1   3   64.44    9.35
  -2 -12  -3   17.52    5.47
  -2 -12  -3   19.09    5.55
 -12  14  -3   27.16    4.87
 -12  14  -3   22.16    4.66
  14  -2  -3   17.78    4.88
  14  -2  -3   10.92    9.88
 -14   2   3   14.94    7.12
 -14   2   3   16.20    7.16
  -3 -12  -3    8.60    5.23
  -3 -12  -3    7.00    4.93
  15  -3  -3   12.32   10.51
 -15   3   3   -3.45    6.53
 -15   3   3    1.02    6.55
  16  -4  -3   -6.35    9.56
  -4 -12  -3    3.48    5.30
  -4 -12  -3    9.80    5.55
 -16   4   3    3.51    7.24
 -16   4   3   -7.96    6.15
  -5 -12  -3   71.51    9.31
  -5 -12  -3   81.12    9.82
  17  -5  -3  101.04   15.78
 -17   5   3   83.01   11.57
 -17   5   3   68.06   11.57
  -6 -12  -3   32.46    7.82
  -6 -12  -3   27.40    7.41
  18  -6  -3   19.19   11.67
 -18   6   3   28.41    8.95
 -18   6   3   25.36    9.36
  -7 -12  -3   -3.17    5.50
  -7 -12  -3   -1.28    5.88
  19  -7  -3   13.02   11.25
 -19   7   3    2.44    8.54
 -19   7   3    2.96    7.72
  18 -13  -3    1.26    9.82
 -13  -5  -3   14.48    7.91
 -13  -5  -3   16.26    7.69
 -18  13   3   14.39    7.67
  13   5   3    6.79   10.33
 -18  13   3   12.03    7.85
 -13  -4  -3   -0.53    6.82
 -13  -4  -3    0.70    6.39
  17 -13  -3   -2.05    8.86
 -17  13   3   -0.01    7.24
  13   4   3    1.59   10.23
 -17  13   3    0.57    6.65
 -13  -3  -3   -3.44    6.05
 -13  -3  -3    8.52    7.12
  16 -13  -3   -5.16    8.19
 -16  13   3    4.98    6.88
 -16  13   3   -3.46    6.12
  13   3   3   -6.34    9.85
 -13  -2  -3   10.16    6.74
 -13  -2  -3   29.41    7.92
  15 -13  -3    5.94    8.17
 -15  13   3   12.88    6.94
  13   2   3   14.82   10.91
 -15  13   3   13.25    6.47
 -13  -1  -3   62.66    9.39
 -13  -1  -3   70.25   10.16
  14 -13  -3   70.53   10.76
 -14  13   3   81.47    9.69
 -14  13   3   62.81    8.80
  13   1   3   71.31   12.90
  13 -13  -3   24.95    8.07
 -13   0  -3   27.27    7.57
 -13   0  -3   27.12    7.49
   0 -13   3   33.61    4.21
   0 -13   3   31.84    4.08
  13   0   3   14.55    8.02
  12 -13  -3   62.64    9.29
 -13   1  -3   56.82    8.91
 -13   1  -3   61.32    9.05
  13  -1   3   49.01   11.53
  -1 -12   3   63.57    5.62
  -1 -12   3   55.28    5.45
 -13   2  -3  120.33   11.62
 -13   2  -3  142.85   12.42
  11 -13  -3  106.60   11.16
  -2 -11   3  104.69    8.15
  -2 -11   3  122.40    8.28
  13  -2   3  107.20   14.06
 -13   3  -3   -4.13    5.37
 -13   3  -3   -1.92    5.65
  -3 -10   3    3.64    3.77
  13  -3   3    0.13    7.55
  -3 -10   3   10.60    4.17
 -13   4  -3   14.87    6.51
 -13   4  -3   13.93    5.96
  13  -4   3    4.27    8.77
  -4  -9   3    5.62    4.25
  -4  -9   3   11.37    4.25
 -13   5  -3    4.32    5.36
 -13   5  -3   -4.28    2.64
 -13   5  -3    6.86    5.38
  -5  -8   3    2.94    4.24
  13  -5   3    2.36    8.20
  -5  -8   3   13.38    4.65
 -13   6  -3   14.28    5.74
 -13   6  -3   18.37    3.00
 -13   6  -3   13.46    5.77
  -6  -7   3   19.19    5.26
  13  -6   3   29.69    9.28
  -6  -7   3   20.57    5.16
 -13   7  -3    7.05    5.35
 -13   7  -3    4.73    2.54
 -13   7  -3    7.38    4.82
  -7  -6   3   18.40    5.50
  13  -7   3   12.89    8.25
  -7  -6   3    5.00    5.17
 -13   8  -3   -1.52    4.55
   8   5  -3    4.69    6.52
 -13   8  -3   -1.52    4.84
  -8  -5   3    7.36    5.40
  -8  -5   3    3.93    4.87
  13  -8   3   -3.05    7.32
   9   4  -3  109.72   10.35
 -13   9  -3   92.98    9.21
 -13   9  -3  101.06    8.96
  -9  -4   3   99.42    9.76
  -9  -4   3  113.50   10.54
  13  -9   3   96.42   12.25
 -13  10  -3    9.55    4.94
 -13  10  -3   15.00    5.21
  10   3  -3   12.38    6.30
  13 -10   3    5.75    7.77
 -10  -3   3    6.43    5.65
  13 -10   3   13.32    5.79
 -10  -3   3    2.17    5.77
  11   2  -3   16.10    6.00
 -13  11  -3   21.32    5.56
 -13  11  -3   15.28    5.36
  13 -11   3   28.71    9.18
 -11  -2   3   21.68    7.03
 -11  -2   3   16.43    6.69
  12   1  -3    3.72    4.91
 -13  12  -3   -1.86    4.33
 -13  12  -3   12.90    5.08
  13 -12   3    0.48    8.28
 -12  -1   3    3.69    6.41
 -12  -1   3   -2.13    5.96
 -13  13  -3   37.07    6.30
 -13  13  -3   39.52    6.15
  13   0  -3   27.25    5.73
  13   0  -3   20.00   10.45
 -13   0   3   32.26    8.05
  13 -13   3   27.89    9.86
 -13   0   3   33.50    7.89
  -1 -13  -3    4.11    4.45
  14  -1  -3    0.53    4.27
 -13  14  -3    9.32    4.75
  14  -1  -3   -1.06    7.80
 -13  14  -3    7.75    4.78
  -1 -13  -3    5.12    4.66
 -14   1   3    3.43    6.38
 -14   1   3   -3.49    6.21
 -13  15  -3    8.28    4.56
  -2 -13  -3    0.84    4.34
 -13  15  -3    6.59    4.31
  -2 -13  -3    9.59    4.82
  15  -2  -3    7.85   10.67
 -15   2   3    2.58    7.12
 -15   2   3   14.52    7.30
  -3 -13  -3    1.95    4.87
  -3 -13  -3   -0.14    5.00
  16  -3  -3    9.16   10.82
 -16   3   3    1.91    6.59
 -16   3   3   -0.12    7.01
  -4 -13  -3   31.15    7.37
  -4 -13  -3   32.29    7.40
  17  -4  -3   24.31   12.48
 -17   4   3   33.02    9.31
 -17   4   3   23.50    8.37
  18  -5  -3   -2.20   10.99
  -5 -13  -3    1.96    6.13
  -5 -13  -3    5.99    5.98
 -18   5   3    9.30    8.40
 -18   5   3    5.25    7.98
 -14  -4  -3    5.34    7.04
  18 -14  -3  -10.43    8.82
 -14  -4  -3  -13.84    6.46
 -18  14   3    1.44    7.69
 -18  14   3    0.93    6.86
  14   4   3    7.14   10.62
 -14  -3  -3   -1.83    6.94
  17 -14  -3   11.29    9.73
 -14  -3  -3   -0.80    6.64
 -17  14   3    6.52    7.29
  14   3   3   11.16   10.82
 -17  14   3    7.19    6.74
 -14  -2  -3   -0.20    6.41
 -14  -2  -3   -1.54    6.72
  16 -14  -3    6.26    8.57
 -16  14   3    1.19    6.94
 -16  14   3   -9.44    5.86
  14   2   3    5.63   10.00
  15 -14  -3   59.47   10.42
 -14  -1  -3   39.84    9.05
 -14  -1  -3   50.76   10.00
  14   1   3   35.99   11.67
 -15  14   3   53.06    8.86
 -15  14   3   50.89    8.68
 -14   0  -3    2.39    6.29
  14 -14  -3   -3.82    7.30
 -14   0  -3   -0.85    6.51
  14   0   3   11.67    9.72
 -14   1  -3    5.24    6.72
 -14   1  -3   15.96    7.15
  13 -14  -3    0.53    7.10
  14  -1   3    2.37    9.01
  -1 -13   3   -1.86    3.38
  -1 -13   3   -2.07    3.35
 -14   2  -3   22.75    7.74
 -14   2  -3   22.04    7.35
  -2 -12   3   20.23    4.63
  14  -2   3   32.36   10.59
  -2 -12   3   20.65    4.51
 -14   3  -3  127.51   12.66
 -14   3  -3  140.78   12.48
  -3 -11   3  134.07    9.64
  14  -3   3  158.62   16.42
  -3 -11   3  121.58    9.65
 -14   4  -3   19.78    6.91
 -14   4  -3   23.36    7.28
  14  -4   3   29.73   11.12
  -4 -10   3   18.94    5.09
  -4 -10   3   20.84    5.18
 -14   5  -3   41.40    8.06
 -14   5  -3   35.91    7.50
  -5  -9   3   37.43    6.08
  14  -5   3   59.24   11.41
  -5  -9   3   41.64    6.35
 -14   6  -3   70.04    5.91
 -14   6  -3   62.59    8.50
 -14   6  -3   81.36    9.56
  -6  -8   3   72.77    7.97
  -6  -8   3   59.29    7.57
  14  -6   3   89.09   12.78
 -14   7  -3   -2.07    4.95
 -14   7  -3    1.71    2.64
 -14   7  -3    0.05    5.48
  14  -7   3   -1.71    7.88
  -7  -7   3   -1.19    4.51
  -7  -7   3    4.03    4.95
 -14   8  -3   57.79    8.19
 -14   8  -3   34.57    6.89
  -8  -6   3   48.63    7.48
  14  -8   3   41.07   10.21
  -8  -6   3   51.99    7.75
 -14   9  -3   27.81    6.42
 -14   9  -3   28.38    6.95
  14  -9   3   26.36    8.85
  -9  -5   3   24.08    6.30
  -9  -5   3   23.93    6.66
 -14  10  -3   93.58    9.26
 -14  10  -3   66.80    8.08
  10   4  -3   78.27    9.48
 -10  -4   3   66.68    8.90
  14 -10   3   77.19   11.91
 -10  -4   3   78.38    9.48
 -14  11  -3    6.01    5.18
  11   3  -3    6.21    6.15
 -14  11  -3   11.62    5.64
 -11  -3   3   12.80    6.66
  14 -11   3    7.53    8.67
 -11  -3   3   11.83    6.27
 -14  12  -3   82.49    8.59
  12   2  -3   87.66    9.10
 -14  12  -3  100.33    9.26
 -12  -2   3  135.82   12.01
  14 -12   3   94.50   13.02
 -12  -2   3   95.04   11.02
  13   1  -3   71.16    7.86
 -14  13  -3   78.80    8.52
 -14  13  -3   80.95    8.25
  13   1  -3   79.06   13.47
 -13  -1   3   62.64    9.74
 -13  -1   3   58.79    9.83
  14 -13   3   83.71   12.71
   0 -14  -3    2.33    4.27
  14   0  -3   -0.14    8.11
  14   0  -3    5.06    4.93
 -14  14  -3    0.85    5.05
 -14  14  -3    3.47    5.35
   0 -14  -3    5.38    4.38
 -14   0   3   -4.46    6.53
  14 -14   3   -3.97    8.30
 -14   0   3    2.84    6.74
 -14  15  -3   -1.75    4.94
  15  -1  -3   -7.86    9.71
  -1 -14  -3    1.07    4.44
 -14  15  -3    1.59    4.93
  -1 -14  -3   10.09    4.98
 -15   1   3    4.78    6.95
 -15   1   3    2.94    6.88
  -2 -14  -3    0.01    4.72
  -2 -14  -3   -0.03    4.49
  16  -2  -3    9.28    9.56
 -16   2   3    9.42    7.35
 -16   2   3   -6.49    6.76
  17  -3  -3   24.29   12.06
  -3 -14  -3   11.83    5.75
  -3 -14  -3   19.41    6.19
 -17   3   3    6.64    7.62
 -17   3   3    9.48    8.10
  -4 -14  -3    3.96    5.42
  -4 -14  -3    1.92    5.00
  18  -4  -3   -7.41   10.05
 -18   4   3  -16.57    6.99
 -18   4   3    8.90    8.02
  18 -15  -3   36.29   11.86
 -15  -3  -3   29.58    9.16
 -15  -3  -3   33.68    9.34
  15   3   3   38.86   12.58
 -18  15   3   25.05    7.99
 -18  15   3   21.10    8.54
 -15  -2  -3   -9.02    6.37
  17 -15  -3    7.29    9.33
 -15  -2  -3   -4.04    7.18
  15   2   3   -6.24   10.12
 -17  15   3    1.36    7.09
 -17  15   3    3.47    6.60
  16 -15  -3   12.67    9.40
 -15  -1  -3   29.90    8.96
 -15  -1  -3   27.12    8.18
  15   1   3   14.37    7.83
 -15   0  -3   -0.33    7.09
  15 -15  -3    1.58    8.34
 -15   0  -3   15.24    7.15
  15   0   3    6.94   10.17
 -15   1  -3    2.32    6.38
  14 -15  -3   -8.92    7.27
 -15   1  -3    8.76    7.37
  15  -1   3   -0.39    9.12
 -15   2  -3   -6.96    5.76
 -15   2  -3    7.35    7.30
  -2 -13   3    7.74    3.96
  -2 -13   3    9.19    4.06
  15  -2   3   -3.02    9.10
 -15   3  -3   14.47    7.48
 -15   3  -3   -7.10    5.70
  -3 -12   3   -0.88    3.90
  15  -3   3    6.03    9.65
  -3 -12   3    8.83    4.31
 -15   4  -3   18.48    7.11
 -15   4  -3   33.39    8.25
  -4 -11   3   34.62    5.98
  15  -4   3   21.66   10.24
  -4 -11   3   18.00    5.39
 -15   5  -3    3.75    6.44
 -15   5  -3   -1.03    5.69
  -5 -10   3    4.90    4.77
  -5 -10   3   -8.21    4.05
  15  -5   3    3.90    8.65
 -15   6  -3    3.12    6.50
 -15   6  -3   -2.24    5.29
  -6  -9   3   -5.15    4.32
  -6  -9   3   -7.92    3.95
  15  -6   3   -2.08    8.09
 -15   7  -3   20.57    3.14
 -15   7  -3    7.29    5.99
 -15   7  -3   20.85    7.13
  -7  -8   3   22.99    6.20
  15  -7   3   22.85    9.56
  -7  -8   3   13.43    5.52
 -15   8  -3    2.66    5.55
 -15   8  -3   20.37    6.98
 -15   8  -3    6.68    2.72
  15  -8   3    3.57    8.74
  -8  -7   3    8.64    5.66
  -8  -7   3    0.87    5.08
 -15   9  -3    7.35    5.78
 -15   9  -3   11.54    6.48
  -9  -6   3   21.10    6.66
  -9  -6   3   17.67    6.12
  15  -9   3   16.90    9.40
 -15  10  -3   83.37    9.02
 -15  10  -3   72.72    9.24
  15 -10   3   61.51   11.66
 -10  -5   3   93.04    9.95
 -10  -5   3   78.57    9.76
 -15  11  -3    3.76    5.61
 -15  11  -3   -0.64    5.04
 -11  -4   3    7.29    6.19
 -11  -4   3    0.23    6.16
  15 -11   3    2.68    8.36
 -15  12  -3   10.99    5.95
 -15  12  -3   17.89    5.90
 -12  -3   3   17.18    7.14
 -12  -3   3    5.77    6.84
  15 -12   3    6.61    8.92
 -15  13  -3   18.66    6.28
 -15  13  -3   17.33    6.26
 -13  -2   3   25.80    7.72
  15 -13   3    6.24    8.99
 -13  -2   3   29.93    8.25
 -15  14  -3   62.26    7.95
 -15  14  -3   59.22    7.94
  14   1  -3   44.78   12.52
 -14  -1   3   62.87    9.96
  15 -14   3   49.69   11.32
 -14  -1   3   53.52    9.65
   0 -15  -3   11.56    5.21
   0 -15  -3   12.31    5.36
 -15  15  -3    8.80    5.77
 -15  15  -3    6.86    5.40
  15   0  -3    9.69    9.11
 -15   0   3   11.97    7.45
 -15   0   3    8.23    7.39
  -1 -15  -3   18.13    5.72
  16  -1  -3   32.63   12.51
  -1 -15  -3   21.95    5.87
 -16   1   3   25.41    8.72
 -16   1   3   17.98    8.34
  17  -2  -3   43.79   13.40
  -2 -15  -3   34.02    7.05
  -2 -15  -3   34.32    7.00
 -17   2   3   27.93    9.32
 -17   2   3   19.64    8.54
  -3 -15  -3   -5.16    4.60
  18  -3  -3    2.87   11.32
  -3 -15  -3   -1.17    5.14
 -18   3   3   -2.00    7.61
 -18   3   3   -1.18    7.39
 -16  -1  -3   73.48   11.93
  17 -16  -3   81.14   12.78
 -16  -1  -3   84.63   11.59
  16   1   3   37.14   12.44
 -16   0  -3    7.54    7.65
  16 -16  -3   -3.64    8.67
 -16   0  -3    2.95    6.62
  16   0   3    0.09   10.18
 -16   1  -3   30.87    8.93
 -16   1  -3   49.00    9.31
  15 -16  -3   14.09    9.43
  16  -1   3   41.44   12.02
 -16   2  -3   -2.48    6.44
 -16   2  -3   -6.64    6.70
  16  -2   3   -8.62    9.21
 -16   3  -3    5.95    7.50
 -16   3  -3  -10.92    5.72
  -3 -13   3   -5.30    3.94
  -3 -13   3   -0.89    4.14
  16  -3   3   -6.62    9.39
 -16   4  -3    8.52    7.11
 -16   4  -3    8.68    6.83
  -4 -12   3   -4.54    4.01
  16  -4   3   -1.01    9.92
  -4 -12   3    4.44    4.73
 -16   5  -3   46.11    9.41
 -16   5  -3   52.02    8.76
  -5 -11   3   61.78    7.72
  -5 -11   3   54.95    7.28
  16  -5   3   42.10   12.47
 -16   6  -3   40.78    8.07
 -16   6  -3   46.94    9.02
  16  -6   3   50.89   11.90
  -6 -10   3   54.77    7.46
  -6 -10   3   38.43    6.82
 -16   7  -3   -5.24    6.34
 -16   7  -3    4.74    6.06
  16  -7   3    3.68    8.84
  -7  -9   3    6.41    5.64
  -7  -9   3   13.05    5.60
 -16   8  -3   44.15    8.06
 -16   8  -3   39.98    8.53
  16  -8   3   53.12   11.90
  -8  -8   3   43.37    7.36
  -8  -8   3   41.54    7.70
 -16   9  -3    3.11    6.49
 -16   9  -3    5.64    6.07
  -9  -7   3    7.48    5.93
  16  -9   3   -0.59    8.20
  -9  -7   3    2.34    5.59
 -16  10  -3   18.30    6.71
 -16  10  -3   14.08    6.41
 -10  -6   3   17.78    6.58
  16 -10   3    4.03    8.25
 -10  -6   3   26.12    7.06
 -16  11  -3    5.88    5.96
 -16  11  -3   -1.26    5.99
 -11  -5   3   -9.25    5.76
 -11  -5   3    5.46    6.22
  16 -11   3   -5.88    8.32
 -16  12  -3   15.50    6.99
 -16  12  -3    5.15    6.25
  16 -12   3    4.32    9.87
 -12  -4   3    4.26    6.95
 -12  -4   3   -2.81    6.09
 -16  13  -3    1.50    6.19
 -16  13  -3    1.59    5.76
 -13  -3   3    4.64    6.94
 -13  -3   3   -9.11    5.81
  16 -13   3    8.51    9.55
  14   2  -3   -3.74   10.56
 -16  14  -3   -0.39    5.56
 -16  14  -3   -0.08    6.05
 -14  -2   3   -7.98    6.43
 -14  -2   3    6.79    7.25
  16 -14   3   -0.91    9.36
   1 -16  -3   23.83    5.82
  15   1  -3   -1.79    8.50
   1 -16  -3   31.17    6.15
 -16  15  -3   28.38    6.81
 -16  15  -3   16.68    6.81
 -15  -1   3   40.84    9.13
 -15  -1   3   22.69    8.20
  16 -15   3   17.55   10.13
   0 -16  -3   -1.91    4.43
   0 -16  -3    2.32    4.45
  16   0  -3   28.21   12.05
 -16   0   3   -0.89    7.58
 -16   0   3    8.65    7.89
  -1 -16  -3   -6.75    4.65
  -1 -16  -3    2.44    4.70
  17  -1  -3    9.83   10.63
 -17   1   3   10.87    8.29
 -17   1   3   -2.25    7.51
 -17   1  -3    1.63    7.16
 -17   1  -3    2.80    7.84
  17  -1   3   -7.88   10.13
 -17   2  -3   37.02    9.73
 -17   2  -3   33.68    9.04
  17  -2   3   31.76   12.14
 -17   3  -3   21.23    8.57
 -17   3  -3   11.16    7.65
  17  -3   3    2.15   10.54
 -17   4  -3   38.76    9.39
 -17   4  -3   21.19    7.88
  17  -4   3   31.43   11.83
  -4 -13   3   26.90    5.89
  -4 -13   3   22.89    5.85
 -17   5  -3   87.74   11.58
 -17   5  -3   86.60   10.86
  -5 -12   3   92.52    8.66
  17  -5   3   54.77   13.34
  -5 -12   3   69.45    8.44
 -17   6  -3   -4.13    6.63
 -17   6  -3    3.13    6.22
  17  -6   3   -6.37    9.11
  -6 -11   3    2.55    5.10
  -6 -11   3    0.80    4.69
 -17   7  -3   14.70    7.29
 -17   7  -3    3.31    7.55
  17  -7   3   13.64    9.84
  -7 -10   3   -7.69    4.58
  -7 -10   3    6.14    5.53
 -17   8  -3    5.47    7.40
 -17   8  -3    3.40    6.54
  -8  -9   3    6.87    5.97
  -8  -9   3   15.16    5.94
  17  -8   3    7.78    9.40
 -17   9  -3  134.86   12.99
 -17   9  -3  112.76   11.84
  17  -9   3  113.94   15.27
  -9  -8   3  118.31   11.40
  -9  -8   3  113.24   10.90
 -17  10  -3   38.54    8.21
 -17  10  -3   60.05    9.63
  17 -10   3   44.79   11.62
 -10  -7   3   69.11    9.48
 -10  -7   3   54.45    8.70
 -17  11  -3   17.08    7.45
 -17  11  -3   13.43    6.88
  17 -11   3    3.51    9.45
 -11  -6   3   14.78    6.98
 -11  -6   3   15.09    7.26
 -17  12  -3   21.07    7.12
 -17  12  -3   18.78    7.39
 -12  -5   3   35.38    8.19
 -12  -5   3   31.22    8.16
  17 -12   3   28.24   10.68
 -17  13  -3    4.45    6.34
 -17  13  -3    9.58    6.88
  17 -13   3  -10.09    9.13
 -13  -4   3   -9.48    6.02
 -13  -4   3  -11.42    6.37
 -17  14  -3   -2.63    5.88
 -17  14  -3   -1.63    6.78
  14   3  -3    7.82   10.88
 -14  -3   3    0.78    7.30
  17 -14   3    4.93    9.67
 -14  -3   3    1.77    7.08
  15   2  -3   -5.76   10.39
 -17  15  -3    6.55    6.69
 -17  15  -3   -6.98    6.02
   2 -17  -3    2.49    4.14
   2 -17  -3    9.36    4.95
 -15  -2   3    2.06    7.46
  17 -15   3  -14.83    8.63
 -15  -2   3   11.28    7.83
   1 -17  -3   81.77    8.91
  16   1  -3   48.56   13.78
   1 -17  -3   82.96    8.96
 -16  -1   3   50.20   10.62
  17 -16   3   80.04   13.97
 -16  -1   3   90.04   12.02
 -18   3  -3   -1.61    6.73
 -18   3  -3    8.26    8.31
  18  -3   3    6.91   11.13
 -18   4  -3    2.26    7.78
 -18   4  -3    0.22    6.59
  18  -4   3    8.98   10.82
 -18   5  -3    1.18    6.70
 -18   5  -3    0.62    7.71
  18  -5   3   14.48   11.24
 -18   6  -3   24.62    8.39
 -18   6  -3   17.08    8.41
  -6 -12   3    5.31    5.52
  18  -6   3    4.23   10.40
  -6 -12   3   13.15    5.80
 -18   7  -3   14.11    8.31
 -18   7  -3    6.04    7.01
  18  -7   3   17.72   10.75
  -7 -11   3    2.79    5.08
  -7 -11   3   14.22    6.05
 -18   8  -3   -6.10    6.03
 -18   8  -3    3.97    7.64
  -8 -10   3    1.03    5.07
  18  -8   3   -5.66    9.10
  -8 -10   3   -5.26    5.09
 -18   9  -3   46.04    9.70
 -18   9  -3   31.66    8.29
  -9  -9   3   43.79    7.72
  18  -9   3   26.81   11.09
  -9  -9   3   39.63    7.78
 -18  10  -3   -1.39    7.00
 -18  10  -3   -7.23    6.29
 -10  -8   3   -0.83    6.28
 -10  -8   3   -4.60    5.94
  18 -10   3   -6.47    8.92
 -18  11  -3   -6.24    6.98
 -18  11  -3   -7.35    6.28
  18 -11   3   12.86   10.26
 -11  -7   3    1.14    6.62
 -11  -7   3    5.52    6.44
 -18  12  -3   -8.31    6.68
 -18  12  -3   -8.41    6.13
 -12  -6   3    3.90    6.58
  18 -12   3  -17.89    8.30
 -12  -6   3   -4.71    6.50
 -18  13  -3    2.83    6.39
 -18  13  -3   24.25    7.88
 -13  -5   3   14.55    7.76
 -13  -5   3   11.07    7.49
  18 -13   3  -15.76    9.14
 -18  14  -3   -0.26    6.94
 -18  14  -3    2.48    6.84
 -14  -4   3   -5.62    6.90
  18 -14   3   -5.01    9.64
 -14  -4   3    6.90    7.39
 -18  15  -3   41.41    8.24
 -18  15  -3   52.17    8.88
  15   3  -3   20.01   12.43
 -15  -3   3   26.51    9.06
 -15  -3   3   25.38    8.79
  18 -15   3   46.39   13.17
 -19   7  -3   -0.61    7.05
 -19   7  -3   10.42    8.73
  -7 -12   3    2.69    5.36
  -7 -12   3   -7.15    4.98
  19  -7   3    7.28   10.48
 -19   8  -3   -7.42    7.64
 -19   8  -3   -9.01    6.39
  -8 -11   3   -0.25    5.55
  19  -8   3    1.21   10.25
  -8 -11   3    2.57    5.68
 -19   9  -3   10.15    8.36
 -19   9  -3    8.67    7.13
  -9 -10   3   17.98    6.74
  19  -9   3    1.46   10.20
  -9 -10   3    9.75    6.15
 -19  10  -3   -3.31    6.76
 -19  10  -3    4.62    7.97
  19 -10   3    1.98    9.92
 -10  -9   3    6.10    6.50
 -10  -9   3    8.08    6.22
 -19  11  -3   23.82    8.05
 -19  11  -3   14.67    8.54
 -11  -8   3    0.12    6.59
  19 -11   3    1.38    9.76
 -11  -8   3   11.72    7.46
 -19  12  -3   -6.98    7.14
 -19  12  -3    2.60    7.05
 -12  -7   3   10.91    7.25
  19 -12   3   -9.17    8.99
 -12  -7   3   -7.39    6.37
  -1   0  -4   63.02    5.06
   0  -1  -4   59.97    5.32
  -1   1  -4   50.06    4.99
   0  -1  -4   57.47    4.12
  -1  -1  -4   38.89    4.48
  -1  -1  -4   45.44    4.14
   2  -1  -4   47.94    4.62
   2  -1  -4   44.33    4.54
   1   1   4   44.36    3.92
   3  -2  -4  144.73    8.30
   3  -2  -4  131.68    7.86
   3  -2  -4  131.09    8.34
  -2  -1  -4  132.89    8.51
   2   1   4  133.06    8.58
  -2   0  -4   85.65    6.44
   2  -2  -4   90.24    6.35
  -2   0  -4   91.28    6.67
   2   0   4   86.68    7.16
   1  -2  -4   39.70    4.55
   1   1  -4   45.15    4.24
   1   1  -4   47.48    4.41
  -2   1  -4   44.99    4.91
   2   0  -4   83.35    6.60
   2   0  -4   80.88    6.41
   0  -2  -4   86.90    6.42
  -2   2  -4   81.55    7.28
   0  -2  -4   88.60    5.13
   0   2   4   85.35    6.27
   3  -1  -4    3.33    2.94
   3  -1  -4    1.41    2.96
  -2   3  -4    2.13    3.13
  -1  -2  -4    1.48    2.96
  -1  -2  -4   -0.45    2.22
   1   2   4    3.18    2.74
   1   2   4    0.81    2.52
   4  -2  -4   19.93    3.54
  -2   4  -4   46.46    6.08
  -2  -2  -4   26.39    4.21
   4  -2  -4   25.47    4.08
   4  -2  -4   33.74    4.38
   2   2   4   21.54    3.90
  -4   2   4   34.48    4.70
  -4   2   4   25.36    4.34
   2   2   4   22.56    4.01
   5  -3  -4   58.98    5.93
  -2   5  -4   46.36    3.82
  -2   5  -4   62.83    3.89
   5  -3  -4   53.57    5.10
   5  -3  -4   37.20    5.06
   5  -3  -4   54.38    5.60
  -3  -2  -4   48.66    5.61
  -2   5  -4   55.61    6.91
   3   2   4   51.49    5.55
  -5   3   4   43.12    5.49
  -5   3   4   53.43    5.72
   3   2   4   55.07    5.45
  -1   4  -4  431.96   22.41
   4  -3  -4  456.06   19.64
  -1   4  -4  456.38   18.22
   4  -3  -4  458.88   20.60
  -3  -1  -4  432.35   20.80
   4  -3  -4  447.79   19.94
   4  -3  -4  445.30   19.88
  -1   4  -4  453.17   18.00
  -3  -1  -4  445.47   20.09
   3   1   4  457.14   21.50
   0   3  -4  139.03    7.26
   3  -3  -4  148.70    8.58
   3  -3  -4  133.34    8.59
   3  -3  -4  125.18    7.24
  -3   0  -4  140.09    7.97
  -3   0  -4  142.47    9.11
   3  -3  -4  118.76    7.66
   0   3  -4  134.54    7.15
   3   0   4  117.85    9.13
   1   2  -4   -1.07    2.53
   1   2  -4    4.68    2.53
   2  -3  -4    1.51    1.50
   2  -3  -4    5.57    3.03
  -3   1  -4    0.44    3.66
  -2   3   4   -2.33    2.51
   3  -1   4    7.54    3.92
   2   1  -4  119.68    7.53
   2   1  -4  135.30    7.87
  -3   2  -4  122.59    9.05
   1  -3  -4  120.44    8.11
  -1   3   4  129.39    7.84
   3  -2   4  110.89    8.99
   0  -3  -4  132.04    8.87
   3   0  -4  124.77    8.01
  -3   3  -4  136.29    8.90
   3   0  -4  124.35    8.20
  -3   0   4  133.55    8.18
   0   3   4  115.54    6.27
  -3   0   4  121.86    7.81
   0   3   4  132.46    7.98
   4  -1  -4  305.28   14.24
  -3   4  -4  284.05   15.80
  -1  -3  -4  316.74   15.31
  -3   4  -4  316.87   16.35
   4  -1  -4  298.89   14.09
  -4   1   4  317.39   14.34
   1   3   4  273.47   14.14
  -4   1   4  304.03   14.54
  -3   5  -4  234.83   13.60
  -3   5  -4  219.66   13.07
   5  -2  -4  219.24   11.78
   5  -2  -4  216.69   12.03
  -2  -3  -4  216.64   12.31
   2   3   4  201.22   11.71
   2   3   4  221.83   11.85
  -5   2   4  214.39   12.11
  -5   2   4  232.46   11.99
  -3  -3  -4  155.57   10.54
   6  -3  -4  147.89   10.26
   6  -3  -4  153.81    8.35
   6  -3  -4  141.84   10.17
  -3   6  -4  159.15   11.84
   6  -3  -4  140.82   10.17
   3   3   4  150.17   10.23
   3   3   4  153.14    9.47
  -6   3   4  135.22    9.77
  -6   3   4  121.21   10.15
  -3   7  -4    6.60    1.31
  -4  -3  -4    2.03    4.25
  -3   7  -4    5.68    1.31
   7  -4  -4    3.55    3.10
   7  -4  -4    6.71    4.84
   4   3   4    4.35    3.40
   4   3   4    5.11    4.79
  -7   4   4    7.74    4.44
  -7   4   4    3.40    4.42
   6  -4  -4   33.53    4.42
   6  -4  -4   49.73    5.83
   6  -4  -4   38.12    5.12
  -2   6  -4   49.57    7.50
  -4  -2  -4   34.80    5.04
  -2   6  -4   39.86    2.86
  -2   6  -4   31.97    2.77
   6  -4  -4   36.10    5.13
   4   2   4   39.26    6.13
   4   2   4   37.03    4.82
  -6   4   4   45.91    5.95
  -6   4   4   42.34    5.60
  -4  -1  -4  326.34   16.46
   5  -4  -4  335.67   15.66
  -1   5  -4  334.91   13.61
  -1   5  -4  329.53   18.10
  -4  -1  -4  339.79   15.76
   5  -4  -4  341.87   16.16
  -1   5  -4  336.98   13.79
   5  -4  -4  324.82   15.64
   5  -4  -4  317.09   15.78
   4   1   4  307.23   17.36
   4   1   4  320.95   15.56
   4  -4  -4   88.00    6.97
   4  -4  -4   74.48    6.60
   4  -4  -4   92.97    7.35
  -4   0  -4   97.23    6.59
   4  -4  -4   91.18    6.95
   0   4  -4   90.76    5.82
   0   4  -4   96.90    8.77
  -4   0  -4  106.91    7.84
   0   4  -4   91.00    6.00
  -4   4   4   88.35    6.46
   4   0   4   99.30    7.94
   1   3  -4  296.30   13.17
   1   3  -4  287.85   12.99
  -4   1  -4  319.90   13.99
   3  -4  -4  292.84   13.23
   3  -4  -4  278.75   14.37
  -4   1  -4  292.55   15.34
  -3   4   4  289.80   14.11
   4  -1   4  268.01   15.67
   2   2  -4   28.51    3.77
  -4   2  -4   37.59    5.34
   2  -4  -4   26.30    4.38
   2   2  -4   27.31    3.85
  -2  -2   4   26.92    3.90
  -2   4   4   27.85    4.23
  -2  -2   4   20.21    3.68
   4  -2   4   27.35    5.19
   3   1  -4  440.94   19.20
   3   1  -4  458.04   19.06
  -4   3  -4  464.27   21.66
   1  -4  -4  423.50   20.20
  -3  -1   4  443.03   19.47
  -1   4   4  435.02   20.23
   4  -3   4  405.86   21.93
  -3  -1   4  463.23   19.26
   4   0  -4   94.14    7.26
  -4   4  -4   96.08    7.73
  -4   4  -4   92.21    7.71
   4   0  -4   99.52    7.52
   0  -4  -4   73.95    6.89
  -4   0   4   86.79    6.84
   0   4   4   74.50    5.34
  -4   0   4   91.01    7.35
   0   4   4   84.47    7.04
  -4   5  -4    1.26    4.88
  -1  -4  -4    1.71    3.79
  -4   5  -4    0.16    3.68
   5  -1  -4    0.69    3.15
   5  -1  -4    6.76    3.50
  -5   1   4   -0.68    3.60
  -5   1   4   -1.51    3.60
   1   4   4   -1.68    3.19
   6  -2  -4    5.11    3.77
  -4   6  -4    2.09    5.55
  -4   6  -4    0.86    2.02
  -4   6  -4    3.25    2.14
  -2  -4  -4    4.97    4.23
  -4   6  -4    0.85    4.18
   6  -2  -4    9.51    3.86
   2   4   4    5.69    3.68
   2   4   4    4.09    3.52
  -6   2   4    7.42    4.38
  -6   2   4   11.35    4.61
  -4   7  -4   83.20    4.40
   7  -3  -4  110.71    9.37
   7  -3  -4   83.64    5.95
  -4   7  -4   78.43    4.49
  -3  -4  -4   68.30    7.56
  -4   7  -4   83.55    9.42
  -7   3   4   70.17    7.53
  -7   3   4   72.81    7.42
   3   4   4   85.91    7.35
   3   4   4   91.68    7.63
   8  -4  -4   41.91    6.91
  -4  -4  -4   42.60    6.43
  -4   8  -4   51.90    8.67
   8  -4  -4   44.92    4.59
   4   4   4   45.24    6.48
  -8   4   4   40.89    6.30
  -8   4   4   42.61    6.48
   9  -5  -4   10.40    5.36
  -4   9  -4   10.60    7.48
  -5  -4  -4    8.66    4.34
   9  -5  -4   11.68    3.26
  -5  -4  -4   11.36    4.50
  -9   5   4   14.15    5.23
  -9   5   4   20.69    5.36
   5   4   4   10.96    5.34
  -3   8  -4    9.19    6.98
   8  -5  -4   -2.66    4.46
   8  -5  -4    3.75    3.22
  -5  -3  -4   -1.34    4.23
  -8   5   4    0.67    4.17
  -8   5   4    3.47    4.42
   5   3   4   -1.89    3.26
   5   3   4   -2.56    5.27
   7  -5  -4   14.24    3.77
   7  -5  -4   10.95    4.88
  -2   7  -4   10.47    1.65
  -5  -2  -4   11.83    4.20
  -2   7  -4   14.28    1.73
  -2   7  -4    3.52    6.33
  -7   5   4   21.41    4.81
  -7   5   4   16.56    4.82
   5   2   4   17.17    3.96
   5   2   4   12.13    5.67
  -1   6  -4  295.66   17.85
  -1   6  -4  311.41   12.97
   6  -5  -4  300.59   15.18
  -1   6  -4  313.25   12.81
   6  -5  -4  321.44   16.10
  -5  -1  -4  311.72   15.32
   5   1   4  287.55   17.23
   5   1   4  318.37   15.04
  -6   5   4  320.06   14.77
   0   5  -4  153.49    7.83
   5  -5  -4  138.68    9.44
  -5   0  -4  136.81   10.08
   5  -5  -4  155.49    9.51
   0   5  -4  139.59    7.65
   0   5  -4  153.12   11.82
   5  -5  -4  148.20    9.40
  -5   0  -4  158.94    8.83
   5  -5  -4  147.47    9.32
   5   0   4  171.30   11.57
  -5   5   4  154.73    8.94
   4  -5  -4    9.54    3.43
   4  -5  -4    4.16    3.23
   1   4  -4    5.76    2.64
   4  -5  -4    4.31    2.81
   1   4  -4    2.63    5.37
  -5   1  -4    1.22    3.96
   1   4  -4   -0.31    2.53
   4  -5  -4    0.85    3.42
  -5   1  -4    0.26    2.49
  -4   5   4   -0.38    2.97
  -1  -4   4    0.38    2.62
  -1  -4   4   -2.17    2.59
  -5   2  -4  232.68   13.28
   3  -5  -4  223.85   12.45
   2   3  -4  200.73   10.79
   2   3  -4  224.08   10.84
  -2  -3   4  209.24   10.79
  -2  -3   4  226.94   11.03
  -3   5   4  218.30   11.76
   5  -2   4  226.05   14.02
  -5   3  -4   57.87    5.06
   2  -5  -4   52.63    5.99
  -5   3  -4   43.22    4.65
  -5   3  -4   58.38    6.53
   3   2  -4   48.40    4.90
   3   2  -4   50.62    4.96
   5  -3   4   50.83    6.74
  -3  -2   4   48.43    5.26
  -3  -2   4   45.20    5.15
  -2   5   4   54.26    5.75
  -5   4  -4  348.28   14.98
   4   1  -4  337.61   15.82
   4   1  -4  314.65   15.51
  -5   4  -4  362.42   14.84
   1  -5  -4  341.82   16.94
  -5   4  -4  356.95   17.07
  -5   4  -4  306.85   17.68
   5  -4   4  340.29   18.65
  -4  -1   4  328.34   15.72
  -4  -1   4  323.54   15.94
  -1   5   4  331.17   16.66
  -5   5  -4  149.70    7.89
  -5   5  -4  146.60   10.50
   0  -5  -4  135.68   10.27
   5   0  -4  141.04    9.70
  -5   5  -4  139.57   10.74
   5   0  -4  139.44    9.65
  -5   5  -4  153.04    7.82
   5  -5   4  158.10   12.23
   0   5   4  146.14   10.06
  -5   0   4  149.31    9.49
  -5   0   4  149.00    9.69
   6  -1  -4    9.97    4.03
  -5   6  -4    6.05    2.54
  -5   6  -4    3.80    2.40
  -1  -5  -4    1.69    4.31
  -5   6  -4    6.44    5.20
   6  -1  -4   12.00    3.96
  -6   1   4    4.07    4.11
  -6   1   4    0.06    4.11
  -5   7  -4  175.01    8.10
  -2  -5  -4  179.26   12.41
  -5   7  -4  174.62    8.23
  -5   7  -4  170.73   13.18
  -7   2   4  186.76   11.65
  -7   2   4  172.10   11.75
  -5   8  -4    5.75    1.71
   8  -3  -4    9.88    5.93
  -5   8  -4    0.87    1.64
  -5   8  -4    1.52    6.32
   8  -3  -4   12.03    2.95
  -8   3   4    5.99    4.57
  -8   3   4   10.39    4.92
  -5   9  -4   11.09    7.07
   9  -4  -4    8.61    5.99
   9  -4  -4    8.19    2.95
  -9   4   4   11.92    5.02
  -9   4   4    7.01    4.80
   4   5   4   19.29    5.67
  -5  -5  -4   90.43    8.52
  10  -5  -4   77.99    9.24
  10  -5  -4   93.31    6.79
  -5  -5  -4   85.26    8.31
 -10   5   4   92.41    8.88
   5   5   4  108.99    9.83
 -10   5   4   80.94    8.79
  -6  -5  -4   72.49    8.01
  -6  -5  -4   72.19    8.09
  11  -6  -4   76.67    6.37
  11  -6  -4   66.39    9.16
 -11   6   4   69.71    8.44
 -11   6   4   59.18    8.20
   6   5   4   81.04    9.58
  -6  -4  -4  487.41   22.64
  10  -6  -4  452.13   25.00
  10  -6  -4  490.10   21.33
  -6  -4  -4  496.19   23.03
 -10   6   4  491.33   23.42
 -10   6   4  483.91   22.94
   6   4   4  475.23   25.06
  -3   9  -4  160.66   14.62
  -6  -3  -4  159.24   11.17
   9  -6  -4  180.21   12.52
   9  -6  -4  169.53   10.15
  -6  -3  -4  169.43   11.37
  -9   6   4  179.38   11.75
   6   3   4  169.10   13.40
  -9   6   4  189.72   12.18
   8  -6  -4  212.87   11.86
   8  -6  -4  211.14   13.16
  -6  -2  -4  219.32   12.44
  -2   8  -4  188.93   15.66
  -6  -2  -4  224.91   12.65
  -6  -2  -4  203.87   12.23
   6   2   4  193.85   14.16
   6   2   4  216.67   11.72
  -8   6   4  219.56   12.96
  -8   6   4  222.43   12.74
  -1   7  -4  176.03    7.95
  -6  -1  -4  189.30   11.55
  -6  -1  -4  186.05   10.67
   7  -6  -4  181.04   10.71
   7  -6  -4  175.97   11.55
  -6  -1  -4  179.99   11.28
  -1   7  -4  171.36    8.05
  -1   7  -4  165.63   13.94
  -7   6   4  172.38   11.25
   6   1   4  169.96   12.97
  -7   6   4  185.00    9.95
   6   1   4  185.02   10.10
  -7   6   4  189.65   11.32
  -6   0  -4  304.91   15.07
   6  -6  -4  334.82   15.97
   0   6  -4  306.35   13.31
  -6   0  -4  305.94   16.86
   0   6  -4  280.21   18.26
  -6   0  -4  332.26   15.91
  -6   0  -4  328.63   15.70
   6  -6  -4  306.90   16.04
   0   6  -4  302.36   13.54
   0  -6   4  308.52   13.53
   6   0   4  367.26   18.66
  -6   6   4  310.82   16.19
   0  -6   4  317.87   13.41
  -6   6   4  335.21   15.46
   5  -6  -4    4.29    4.04
   5  -6  -4    3.27    3.75
  -6   1  -4    2.27    3.61
  -6   1  -4   -2.53    3.64
  -6   1  -4    2.08    3.73
   5  -6  -4    9.38    3.83
   5  -6  -4    5.16    3.24
   1   5  -4   -2.39    5.36
  -6   1  -4    1.67    2.70
   1   5  -4    6.51    2.75
   1   5  -4    7.52    2.73
  -1  -5   4   -3.83    2.65
   6  -1   4    5.46    5.39
  -1  -5   4   -0.93    2.68
  -5   6   4    3.88    3.34
  -5   6   4    4.18    3.18
  -6   2  -4   -0.91    4.48
  -6   2  -4    2.17    3.47
   4  -6  -4    3.04    3.46
  -6   2  -4    5.61    3.49
   2   4  -4   -3.85    5.14
  -6   2  -4   -1.40    2.44
   2   4  -4    4.04    2.83
   4  -6  -4    3.25    3.96
   4  -6  -4    1.08    3.26
   2   4  -4    3.32    2.91
  -4   6   4    4.99    2.84
   6  -2   4    7.94    5.24
  -4   6   4    5.50    3.51
  -2  -4   4    0.31    3.01
  -2  -4   4   -0.11    3.16
  -6   3  -4  131.89   11.57
   3   3  -4  168.43    9.49
  -6   3  -4  160.80    9.17
  -6   3  -4  152.55    8.99
   3  -6  -4  163.95   10.71
   3   3  -4  150.63   11.75
   3   3  -4  138.73    8.85
  -3   6   4  152.25    8.36
  -3  -3   4  165.05    9.36
  -3   6   4  145.23   10.45
   6  -3   4  139.00   11.97
  -3  -3   4  154.23    9.49
   4   2  -4   39.26    4.83
   4   2  -4   53.56    5.25
   2  -6  -4   50.97    6.36
  -6   4  -4   39.65    4.55
  -6   4  -4   35.06    4.96
  -6   4  -4   35.62    4.39
   6  -4   4   38.49    6.65
  -4  -2   4   46.41    5.44
  -2   6   4   38.02    5.38
  -4  -2   4   50.40    5.49
  -2   6   4   40.63    3.47
  -6   5  -4  302.26   14.27
  -6   5  -4  316.42   14.13
  -6   5  -4  317.85   17.61
   1  -6  -4  319.39   16.74
  -6   5  -4  309.18   16.48
   5   1  -4  315.02   15.25
   5   1  -4  326.76   15.10
   6  -5   4  309.45   18.02
  -5  -1   4  325.52   15.77
  -5  -1   4  324.88   15.57
   6   0  -4  304.53   16.11
   6   0  -4  346.20   16.05
  -6   6  -4  312.44   17.25
  -6   6  -4  321.08   14.34
  -6   6  -4  305.52   14.06
  -6   0   4  329.15   16.45
  -6   0   4  345.62   16.35
   6  -6   4  343.04   18.82
  -6   7  -4   11.67    6.07
  -6   7  -4   14.94    2.83
  -6   7  -4   16.17    2.92
  -7   1   4   12.76    4.92
  -7   1   4   19.03    5.04
  -6   8  -4    0.62    2.18
  -6   8  -4   10.48    6.58
  -6   8  -4    4.00    2.19
  -8   2   4   11.69    4.84
  -8   2   4    7.52    4.65
  -6   9  -4   33.36    2.58
  -6   9  -4   26.08    2.41
   9  -3  -4   30.80    3.62
   9  -3  -4   42.66    7.56
  -9   3   4   31.60    6.11
  -9   3   4   34.92    6.29
  10  -4  -4   45.99    8.19
  10  -4  -4   38.69    3.98
 -10   4   4   46.42    7.08
 -10   4   4   36.49    6.61
  -5  -6  -4   45.58    6.47
  11  -5  -4   27.30    3.76
  11  -5  -4   31.88    7.68
  -5  -6  -4   31.43    6.01
 -11   5   4   35.19    6.97
 -11   5   4   22.84    6.24
  -6  -6  -4    9.62    4.90
  -6  -6  -4    2.97    4.93
  12  -6  -4    8.46    6.87
 -12   6   4    6.75    5.74
   6   6   4    0.52    6.16
 -12   6   4    8.10    5.91
  13  -7  -4   11.50    7.37
  -7  -6  -4   23.47    6.36
  -7  -6  -4   11.25    5.69
 -13   7   4   27.97    7.07
 -13   7   4   17.19    6.46
   7   6   4   25.08    8.13
  -7  -5  -4   85.38    9.18
  -7  -5  -4   82.01    9.01
  12  -7  -4   86.78   10.64
 -12   7   4   77.90    9.27
   7   5   4   82.58   10.26
 -12   7   4   74.07    9.27
  -7  -4  -4  100.03    9.57
  11  -7  -4  107.80   10.35
  -7  -4  -4   99.00    9.45
   7   4   4  121.85   11.53
 -11   7   4  121.54   10.55
 -11   7   4   97.64    9.71
  -7  -3  -4   50.37    6.71
  10  -7  -4   34.88    7.13
  -7  -3  -4   38.48    6.34
 -10   7   4   45.85    7.26
 -10   7   4   52.55    7.30
   7   3   4   47.48    8.58
  -2   9  -4   23.15    8.05
  -7  -2  -4   18.77    4.93
  -7  -2  -4   25.88    5.34
   9  -7  -4   22.30    6.00
  -7  -2  -4   23.08    5.18
  -9   7   4   23.34    3.81
   7   2   4   21.64    6.65
  -9   7   4   14.07    5.06
  -9   7   4   23.48    5.57
   7   2   4   28.06    4.42
  -7  -1  -4   84.04    7.89
  -1   8  -4   84.77    4.63
  -1   8  -4   87.05   10.86
   8  -7  -4   73.81    7.69
  -7  -1  -4   78.46    7.96
  -7  -1  -4   83.32    7.25
  -1   8  -4   83.90    4.64
  -8   7   4   89.95    8.15
   7   1   4   87.64    9.75
  -8   7   4   81.02    8.02
   7   1   4   91.75    6.84
  -8   7   4   80.95    7.89
  -8   7   4   75.10    6.50
   7  -7  -4  618.97   29.85
  -7   0  -4  704.53   28.94
   0   7  -4  654.59   25.59
  -7   0  -4  687.23   28.56
   0   7  -4  662.55   32.43
   7  -7  -4  674.42   28.92
  -7   0  -4  649.46   28.23
   0   7  -4  643.04   25.85
  -7   0  -4  684.79   31.24
  -7   7   4  619.02   28.39
   0  -7   4  628.68   25.60
   7   0   4  632.78   31.57
  -7   7   4  653.88   30.01
   0  -7   4  643.83   25.94
   6  -7  -4   24.50    4.49
  -7   1  -4    7.84    4.28
  -7   1  -4   17.40    4.84
   1   6  -4   16.85    3.18
  -7   1  -4   23.55    3.71
   1   6  -4   13.16    3.06
  -7   1  -4   14.18    4.52
   1   6  -4   10.25    6.38
   6  -7  -4   29.31    5.28
  -6   7   4    8.36    4.10
   7  -1   4   15.09    6.46
  -1  -6   4   19.86    3.59
  -6   7   4    5.74    3.62
  -1  -6   4   13.58    3.23
  -7   2  -4  179.09   10.68
   5  -7  -4  172.93   10.01
  -7   2  -4  167.38   10.55
  -7   2  -4  175.45    9.56
   2   5  -4  180.44    9.40
   5  -7  -4  175.34   11.73
   2   5  -4  178.53   13.38
  -7   2  -4  180.67   12.13
   2   5  -4  182.70    9.78
  -2  -5   4  179.82    9.66
  -5   7   4  180.92   10.70
   7  -2   4  193.72   13.72
  -5   7   4  173.76   11.27
  -2  -5   4  174.34    9.78
  -7   3  -4   67.00    6.68
   3   4  -4   95.74    6.87
  -7   3  -4   74.95    6.83
   3   4  -4   85.61    8.81
  -7   3  -4   71.93    6.54
   3   4  -4   73.85    6.10
  -7   3  -4   87.48    8.88
  -4   7   4   90.83    7.71
   7  -3   4   79.95    9.01
  -3  -4   4  103.36    7.26
  -3  -4   4   81.58    6.61
  -4   7   4   79.66    7.17
  -7   4  -4    5.45    3.31
   4   3  -4   13.26    3.63
  -7   4  -4   12.25    3.49
   4   3  -4    4.70    3.24
  -7   4  -4    5.53    3.75
   4   3  -4    2.41    5.59
  -4  -3   4    5.70    3.77
  -3   7   4    1.66    2.68
  -4  -3   4    8.15    3.94
   7  -4   4    4.58    5.29
  -7   5  -4   15.14    3.48
  -7   5  -4   18.43    3.56
  -7   5  -4    4.41    4.03
   5   2  -4   13.00    4.10
   5   2  -4   15.33    4.10
   7  -5   4    6.52    5.86
  -2   7   4   15.99    2.98
  -5  -2   4   10.89    4.58
  -5  -2   4   15.58    4.54
  -7   6  -4  183.80    9.38
  -7   6  -4  167.34    9.09
   7  -6   4  173.38   13.04
  -6  -1   4  198.10   11.23
  -6  -1   4  154.12   11.07
  -7   7  -4  615.23   30.77
  -7   7  -4  638.92   26.11
  -7   7  -4  646.79   26.46
  -7   0   4  673.68   28.71
   7  -7   4  669.61   31.96
  -7   0   4  660.11   28.12
  -7   8  -4  128.05   10.60
  -7   8  -4   96.85    6.69
  -7   8  -4  106.99    6.38
  -8   1   4  111.42    9.37
  -8   1   4  117.79    9.71
  -7   9  -4  310.90   12.97
  -7   9  -4  308.14   13.19
   9  -2  -4  296.68   18.44
  -9   2   4  310.24   16.32
  -9   2   4  297.17   16.67
  10  -3  -4   44.86    8.21
  -7  10  -4   46.42    3.50
  -7  10  -4   39.00    3.04
  10  -3  -4   37.83    3.82
 -10   3   4   37.53    6.66
 -10   3   4   27.35    6.26
  11  -4  -4   39.43    8.50
  11  -4  -4   28.90    3.61
 -11   4   4   40.60    7.22
 -11   4   4   37.27    7.11
  12  -5  -4    5.02    2.71
  -5  -7  -4    4.50    4.78
  12  -5  -4   -6.31    6.32
  -5  -7  -4   -0.37    4.38
 -12   5   4    3.12    5.46
 -12   5   4    2.20    5.66
  -6  -7  -4   53.73    7.78
  -6  -7  -4   51.86    7.60
  13  -6  -4   43.60    9.52
 -13   6   4   48.31    8.20
 -13   6   4   47.03    8.39
  -7  -7  -4   57.71    8.68
  14  -7  -4   58.84   10.46
  -7  -7  -4   62.76    8.89
 -14   7   4   65.06    9.37
   7   7   4   66.78   10.46
 -14   7   4   58.18    9.60
  -8  -7  -4   22.44    6.94
  -8  -7  -4   30.81    7.18
  15  -8  -4   22.90    9.85
 -15   8   4   32.76    8.48
 -15   8   4   14.86    7.18
   8   7   4   36.74    8.72
  14  -8  -4    8.90    8.55
  -8  -6  -4    9.24    6.00
  -8  -6  -4   17.66    6.51
 -14   8   4   13.17    7.01
 -14   8   4   17.32    7.27
   8   6   4   -7.36    7.36
  -8  -5  -4   75.37    8.99
  -8  -5  -4   74.21    9.07
  13  -8  -4   77.57   10.20
   8   5   4   70.26   10.45
 -13   8   4   94.47   10.33
 -13   8   4   73.03    9.59
  -8  -4  -4   32.54    6.53
  -8  -4  -4   19.24    6.09
  12  -8  -4   30.14    7.53
 -12   8   4   28.35    6.80
   8   4   4   17.22    7.92
 -12   8   4   17.77    6.21
  -8  -3  -4   11.53    5.21
  -8  -3  -4    9.47    5.01
  11  -8  -4   15.10    6.36
 -11   8   4   13.03    5.80
 -11   8   4   11.81    5.52
   8   3   4   21.51    7.68
  10  -8  -4   48.22    7.25
  -8  -2  -4   34.85    6.40
  -8  -2  -4   51.08    7.01
   8   2   4   57.11    8.99
 -10   8   4   57.36    5.56
 -10   8   4   50.10    6.88
 -10   8   4   35.58    6.53
  -8  -1  -4   -0.43    4.16
  -8  -1  -4    6.78    3.71
  -8  -1  -4    7.04    4.45
   9  -8  -4    0.45    4.94
  -1   9  -4   18.08    7.74
  -9   8   4    5.46    3.33
   8   1   4    5.85    3.27
   8   1   4    4.47    6.48
  -9   8   4    0.92    4.43
  -9   8   4    2.52    4.62
  -9   8   4   -6.23    4.03
   0   8  -4   70.64    4.80
  -8   0  -4   50.76    6.85
   8  -8  -4   68.35    7.28
  -8   0  -4   61.36    6.02
   0   8  -4   76.29   10.14
   0   8  -4   62.99    4.73
  -8   0  -4   65.78    7.38
   0  -8   4   67.09    4.93
  -8   8   4   67.35    6.63
   0  -8   4   55.22    4.32
   8   0   4   84.03    9.67
  -8   8   4   67.35    7.10
  -8   1  -4  122.88    9.37
   1   7  -4  113.12   11.19
   1   7  -4  112.29    6.70
  -8   1  -4  125.46    9.57
   7  -8  -4  107.93    8.82
  -8   1  -4  127.72    7.92
   1   7  -4  113.45    6.85
  -1  -7   4   97.45    6.73
  -7   8   4  107.17    8.49
  -1  -7   4   88.36    6.79
   8  -1   4  140.11   12.16
  -7   8   4  107.80    9.39
   6  -8  -4    5.37    3.71
   2   6  -4    8.60    3.10
   2   6  -4    9.84    3.24
  -8   2  -4   19.01    4.82
   2   6  -4   14.27    6.41
  -8   2  -4    9.61    3.08
  -8   2  -4   14.94    4.83
   8  -2   4    7.34    6.43
  -6   8   4   11.32    4.05
  -2  -6   4    4.03    3.21
  -2  -6   4    7.49    3.23
  -8   3  -4    8.53    4.08
  -8   3  -4    2.50    3.82
   3   5  -4    7.93    6.14
   3   5  -4    2.45    3.23
  -8   3  -4    4.12    2.73
   3   5  -4   10.94    3.49
  -8   3  -4   11.94    3.62
  -3  -5   4   12.48    3.76
  -5   8   4   12.27    3.83
   8  -3   4   -0.78    5.72
   4   4  -4   46.43    5.22
  -8   4  -4   40.20    5.39
   4   4  -4   47.19    5.28
  -8   4  -4   39.03    5.42
   4   4  -4   45.16    7.26
  -8   4  -4   50.88    5.07
   8  -4   4   40.98    7.69
  -4  -4   4   53.68    5.82
  -4   8   4   41.61    4.68
  -4  -4   4   56.59    5.85
  -8   5  -4    1.64    2.92
   5   3  -4    1.33    5.30
  -8   5  -4    4.35    3.04
   5   3  -4    4.27    3.54
   5   3  -4   -0.96    3.30
  -8   5  -4   13.72    3.94
  -3   8   4   -0.08    2.85
   8  -5   4    3.93    5.60
  -5  -3   4   -5.58    3.62
  -5  -3   4    3.18    4.05
  -8   6  -4  217.19   12.54
  -8   6  -4  206.59   11.15
  -8   6  -4  218.63   11.08
   8  -6   4  206.00   14.86
  -6  -2   4  213.40   12.21
  -6  -2   4  219.36   12.68
  -8   7  -4   89.74    6.38
  -8   7  -4   82.63    8.02
  -8   7  -4   85.95    6.55
   8  -7   4   83.34    9.97
  -7  -1   4   81.42    8.02
  -7  -1   4   87.79    8.14
  -8   8  -4   61.78    5.38
  -8   8  -4   63.14    5.31
   8  -8   4   74.63    9.28
  -8   0   4   57.57    7.36
  -8   0   4   69.81    7.90
  -8   9  -4   12.11    2.88
  -8   9  -4   10.95    2.79
  -9   1   4    5.55    4.92
  -9   1   4   16.63    5.57
  -8  10  -4  147.81    7.59
  10  -2  -4  152.79   13.40
  -8  10  -4  138.27    7.30
 -10   2   4  147.27   11.52
 -10   2   4  111.43   10.74
  11  -3  -4  245.83   11.60
  -8  11  -4  254.39   10.66
  -8  11  -4  255.35   10.83
  11  -3  -4  238.19   17.23
 -11   3   4  241.46   14.95
 -11   3   4  240.65   15.26
  12  -4  -4   26.87    8.66
  12  -4  -4   40.29    3.86
  -4  -8  -4   34.30    6.40
  -4  -8  -4   48.79    6.89
 -12   4   4   36.45    7.32
 -12   4   4   33.91    7.22
  -5  -8  -4  103.08   10.22
  13  -5  -4  135.33   13.76
  -5  -8  -4  118.29   10.38
 -13   5   4  105.62   11.52
 -13   5   4  123.96   11.81
  -6  -8  -4   38.21    7.34
  -6  -8  -4   35.53    7.13
  14  -6  -4   24.78    9.21
 -14   6   4   29.46    8.20
 -14   6   4   22.50    7.50
  -7  -8  -4   17.94    6.56
  -7  -8  -4   11.00    6.28
  15  -7  -4   14.04    8.68
 -15   7   4   26.94    8.12
 -15   7   4    8.98    7.03
  -8  -8  -4   10.13    6.41
  16  -8  -4   18.23    9.98
  -8  -8  -4   13.96    6.72
   8   8   4    2.20    7.76
 -16   8   4   11.16    7.27
 -16   8   4   17.59    8.11
  17  -9  -4   22.84    8.62
  -9  -8  -4   24.69    7.67
  -9  -8  -4   31.26    7.94
 -17   9   4   31.85    8.55
 -17   9   4   28.30    9.00
   9   8   4   33.82   10.24
  -9  -7  -4   54.18    8.80
  16  -9  -4   21.21   10.09
  -9  -7  -4   45.24    8.36
   9   7   4   37.09    9.83
 -16   9   4   51.01    9.84
 -16   9   4   46.00    9.18
  -9  -6  -4   40.96    8.16
  -9  -6  -4   29.99    7.39
  15  -9  -4   24.78    8.43
 -15   9   4   48.83    9.15
   9   6   4   43.14    9.83
 -15   9   4   68.76    9.73
  -9  -5  -4  176.12   13.76
  -9  -5  -4  192.67   14.21
 -14   9   4  191.88   14.40
   9   5   4  162.23   15.59
 -14   9   4  166.14   14.32
  -9  -4  -4    9.88    5.62
  -9  -4  -4    4.71    5.51
  13  -9  -4   22.35    7.61
 -13   9   4   16.53    6.57
 -13   9   4    4.90    6.05
   9   4   4   15.43    8.32
  -9  -3  -4    1.41    4.90
  12  -9  -4    4.33    6.65
  -9  -3  -4    1.68    5.08
   9   3   4   -0.96    7.26
 -12   9   4   -3.23    5.38
 -12   9   4   -0.62    5.29
  -9  -2  -4   20.87    5.69
  -9  -2  -4   12.33    5.51
  11  -9  -4   12.26    6.75
 -11   9   4   22.08    5.98
   9   2   4   58.26    9.00
 -11   9   4   18.41    3.94
 -11   9   4   11.62    5.59
  10  -9  -4   86.83    8.88
  -9  -1  -4   72.61    8.52
  -9  -1  -4   75.40    8.59
 -10   9   4   88.72    7.27
   9   1   4   69.59   10.33
   9   1   4   75.85    6.83
 -10   9   4   83.24    8.43
 -10   9   4   83.96    8.57
  -9   0  -4  152.75   11.09
  -9   0  -4  137.50    9.74
   9  -9  -4  143.43   11.00
   0   9  -4  168.53   14.62
  -9   0  -4  132.49   10.59
   0  -9   4  155.70    7.63
  -9   9   4  152.79   11.89
  -9   9   4  142.57    9.98
   0  -9   4  139.06    7.55
   9   0   4  152.15   13.59
   1   8  -4   12.38    7.62
   1   8  -4    8.36    2.82
  -9   1  -4   12.50    4.69
  -9   1  -4   12.40    4.91
  -9   1  -4   11.91    3.49
   8  -9  -4   13.55    4.98
   1   8  -4   11.12    2.85
  -1  -8   4    7.16    2.96
   9  -1   4    9.88    7.19
  -1  -8   4    5.14    2.87
  -8   9   4    7.73    4.53
  -9   2  -4  303.77   14.36
   2   7  -4  305.19   13.94
  -9   2  -4  331.22   16.26
   2   7  -4  297.65   13.70
   7  -9  -4  312.05   15.95
   2   7  -4  294.21   18.78
  -9   2  -4  316.43   15.97
  -2  -7   4  284.64   14.04
  -7   9   4  293.64   16.51
   9  -2   4  268.75   18.33
  -2  -7   4  303.21   13.90
   3   6  -4   26.17    4.11
  -9   3  -4   35.64    5.78
   3   6  -4   25.74    4.26
   3   6  -4   16.85    7.05
  -9   3  -4   33.00    4.03
  -9   3  -4   31.89    5.47
  -6   9   4   39.63    5.23
   9  -3   4   38.34    8.00
  -3  -6   4   31.77    4.82
  -3  -6   4   23.53    4.44
  -9   4  -4   13.31    4.17
   4   5  -4   11.19    6.45
  -9   4  -4   11.46    3.56
   4   5  -4    3.02    3.55
  -9   4  -4   10.06    4.26
   4   5  -4    8.44    3.65
   9  -4   4   18.63    6.78
  -5   9   4   12.96    3.80
  -4  -5   4    5.49    3.79
  -4  -5   4   14.51    4.21
   5   4  -4   11.94    3.99
  -9   5  -4   10.71    3.87
  -9   5  -4   12.21    4.04
  -9   5  -4   12.73    3.92
   5   4  -4   20.29    4.43
   5   4  -4   16.74    6.20
  -5  -4   4   16.96    4.65
  -4   9   4   13.48    3.62
   9  -5   4    9.61    6.56
  -5  -4   4   21.65    4.68
  -9   6  -4  157.17    9.75
  -9   6  -4  171.82    9.73
   6   3  -4  154.31   11.91
  -9   6  -4  153.41   10.34
  -3   9   4  173.76   10.43
  -6  -3   4  167.56   10.62
  -6  -3   4  172.54   11.12
   9  -6   4  166.30   14.11
  -9   7  -4   23.72    4.25
   7   2  -4   26.89    6.50
  -9   7  -4   21.62    4.08
  -7  -2   4   26.89    5.71
   9  -7   4   29.39    7.09
  -7  -2   4   20.36    5.34
  -9   8  -4    6.09    3.07
  -9   8  -4    2.52    3.06
  -8  -1   4    9.30    4.92
   9  -8   4    5.12    6.28
  -8  -1   4   -3.51    4.25
  -9   9  -4  145.49    8.27
  -9   9  -4  131.26    7.82
  -9   0   4  146.63   10.98
  -9   0   4  128.14   10.96
  -9  10  -4   33.05    3.99
  -9  10  -4   45.72    4.36
 -10   1   4   37.46    7.02
 -10   1   4   35.46    6.92
  11  -2  -4   36.81    8.66
  -9  11  -4   21.69    3.29
  -9  11  -4   17.57    3.15
 -11   2   4   13.44    6.13
 -11   2   4   17.48    6.07
  -9  12  -4    8.86    2.40
  -9  12  -4   10.75    2.50
  12  -3  -4    2.40    2.23
  12  -3  -4   -0.21    7.35
 -12   3   4    3.24    5.63
 -12   3   4    4.98    5.62
  13  -4  -4   47.38    3.85
  -4  -9  -4   51.64    7.47
  13  -4  -4   45.05   10.53
  -4  -9  -4   42.29    7.23
 -13   4   4   53.13    8.75
 -13   4   4   50.66    8.33
  14  -5  -4    7.23    8.33
  -5  -9  -4   -9.01    4.43
  -5  -9  -4    0.28    5.05
 -14   5   4   -0.26    6.33
 -14   5   4   -7.20    6.25
  15  -6  -4   -0.91    8.37
  -6  -9  -4   -0.84    5.36
  -6  -9  -4   10.30    6.09
 -15   6   4    2.47    6.84
 -15   6   4    6.27    6.58
  -7  -9  -4   -3.20    5.48
  16  -7  -4    0.80    8.58
  -7  -9  -4    7.25    6.29
 -16   7   4   14.16    7.57
 -16   7   4  -11.77    6.23
  -8  -9  -4   89.40   10.74
  -8  -9  -4   70.01   10.19
 -17   8   4   79.98   11.77
   8   9   4   90.55   12.93
 -17   8   4   70.39   10.92
  18  -9  -4   13.36   10.96
  -9  -9  -4    2.76    6.21
  -9  -9  -4    8.38    6.92
   9   9   4   22.70    9.53
 -18   9   4   15.67    8.71
 -18   9   4   13.53    7.87
 -10  -8  -4   49.15    9.38
  18 -10  -4   34.06    9.68
 -10  -8  -4   42.74    8.96
  10   8   4   64.35   11.26
 -18  10   4   53.95   10.63
 -18  10   4   35.38    9.51
  17 -10  -4   12.13   10.24
 -10  -7  -4   10.10    6.65
 -10  -7  -4   15.33    7.15
 -17  10   4   14.02    8.28
 -17  10   4    5.52    7.27
  10   7   4    2.76    8.37
 -10  -6  -4   15.60    6.50
  16 -10  -4   23.32    9.85
 -10  -6  -4    1.26    6.37
  10   6   4    0.41    8.22
 -16  10   4    5.96    7.43
 -16  10   4    4.09    7.09
 -10  -5  -4    8.67    6.30
  15 -10  -4    3.36    8.26
 -10  -5  -4    6.29    6.01
 -15  10   4    6.41    6.72
 -15  10   4   11.49    6.94
  10   5   4   12.47    9.07
 -10  -4  -4  124.68   11.65
 -10  -4  -4  120.93   11.74
 -14  10   4  110.93   11.22
 -14  10   4  115.91   11.90
  10   4   4   99.17   13.37
 -10  -3  -4   51.98    8.20
 -10  -3  -4   45.32    8.07
  13 -10  -4   44.20    8.64
 -13  10   4   71.94    9.23
  10   3   4   71.97   11.44
 -13  10   4   75.21    9.07
 -10  -2  -4   44.91    7.55
 -10  -2  -4   47.87    7.73
  12 -10  -4   35.24    7.76
 -12  10   4   39.35    5.26
 -12  10   4   44.23    7.61
  10   2   4   41.63    9.67
 -12  10   4   44.21    7.28
  11 -10  -4  309.17   18.29
 -10  -1  -4  323.84   17.67
 -10  -1  -4  301.58   17.67
 -11  10   4  313.66   15.97
  10   1   4  307.31   20.14
 -11  10   4  311.63   16.91
 -10   0  -4  112.28   10.34
 -10   0  -4  121.64   10.48
  10 -10  -4  117.08   10.37
   0 -10   4  119.33    6.78
  10   0   4  137.04   13.48
   0 -10   4  112.81    6.63
   1   9  -4   39.05    4.06
 -10   1  -4   34.66    6.47
   9 -10  -4   33.41    6.27
 -10   1  -4   32.28    5.04
 -10   1  -4   36.58    6.35
   1   9  -4   40.03    4.09
   1   9  -4   49.75    9.38
  -9  10   4   36.76    6.43
  10  -1   4   44.58    9.58
  -1  -9   4   38.65    4.18
  -1  -9   4   39.18    4.20
 -10   2  -4  139.00    8.69
 -10   2  -4  142.12   10.33
   2   8  -4  134.65    8.18
 -10   2  -4  135.85   10.74
   8 -10  -4  121.69   10.26
   2   8  -4  149.68   13.79
   2   8  -4  139.40    8.37
  10  -2   4  147.43   13.91
  -8  10   4  135.21   11.62
  -2  -8   4  134.38    8.49
  -2  -8   4  132.77    8.29
   3   7  -4   46.70    4.92
 -10   3  -4   43.58    4.59
 -10   3  -4   46.89    6.57
   3   7  -4   42.19    4.93
 -10   3  -4   40.32    3.93
   3   7  -4   45.70    8.95
 -10   3  -4   37.18    6.21
  -3  -7   4   45.93    5.17
  -7  10   4   48.45    6.12
  -3  -7   4   46.50    5.12
  10  -3   4   37.11    8.78
   4   6  -4   39.75    7.96
   4   6  -4   37.26    4.98
 -10   4  -4   21.18    5.36
 -10   4  -4   23.27    5.47
   4   6  -4   34.36    4.99
 -10   4  -4   31.03    4.08
  -4  -6   4   31.05    5.22
  -4  -6   4   28.49    5.01
  -6  10   4   36.84    5.56
  10  -4   4   37.97    8.55
   5   5  -4  106.70   10.30
 -10   5  -4   96.50    8.23
 -10   5  -4   78.48    7.77
  -5  -5   4   91.97    7.86
  10  -5   4   84.78   10.88
  -5  10   4   87.67    7.34
  -5  -5   4   90.35    7.91
 -10   6  -4  462.26   21.39
 -10   6  -4  449.96   21.03
   6   4  -4  463.27   24.40
  -4  10   4  481.37   22.49
  -6  -4   4  492.42   22.07
  -6  -4   4  454.75   21.50
  10  -6   4  463.22   25.62
 -10   7  -4   40.86    5.53
 -10   7  -4   46.83    5.67
   7   3  -4   40.86    7.36
  -3  10   4   54.73    5.71
  10  -7   4   43.49    8.70
  -7  -3   4   40.92    6.52
  -7  -3   4   35.82    6.24
 -10   8  -4   47.77    5.44
 -10   8  -4   40.55    5.24
   8   2  -4   40.13    7.06
  -8  -2   4   50.81    6.98
  10  -8   4   55.21    9.15
  -8  -2   4   43.04    6.76
   9   1  -4   75.42    8.69
 -10   9  -4   99.38    6.81
 -10   9  -4   98.46    7.26
  -9  -1   4   86.67    8.95
  10  -9   4   81.96   11.15
  -9  -1   4   94.74    9.32
 -10  10  -4  121.07    8.00
 -10  10  -4  125.58    7.74
  10 -10   4  107.56   12.26
 -10   0   4  103.87   10.37
 -10   0   4   99.82    9.81
 -10  11  -4   17.86    3.65
 -10  11  -4   15.27    3.69
  11  -1  -4   22.13    8.63
 -11   1   4    6.90    5.96
 -11   1   4   17.66    6.08
  12  -2  -4   38.71    9.68
 -10  12  -4   31.61    4.16
 -10  12  -4   29.12    4.05
 -12   2   4   34.30    7.45
 -12   2   4   42.85    7.88
  13  -3  -4  169.34    8.32
  -3 -10  -4  176.25   12.62
 -10  13  -4  164.02    8.51
  13  -3  -4  173.29   16.55
 -10  13  -4  174.45    8.80
  -3 -10  -4  136.91   12.04
 -13   3   4  188.48   14.31
 -13   3   4  117.93   12.34
  -4 -10  -4    6.84    5.46
  -4 -10  -4   17.01    6.05
  14  -4  -4    8.03    9.24
 -14   4   4   10.06    6.90
 -14   4   4    4.36    6.71
  -5 -10  -4   47.56    7.78
  -5 -10  -4   43.15    7.76
  15  -5  -4   24.80   10.70
 -15   5   4   49.86    9.02
 -15   5   4   34.45    8.93
  -6 -10  -4    0.22    5.79
  16  -6  -4   12.76    9.51
  -6 -10  -4   10.85    6.63
 -16   6   4  -10.86    6.36
 -16   6   4    5.14    6.85
  -7 -10  -4   25.74    7.32
  -7 -10  -4   46.56    8.56
  17  -7  -4   31.66   10.88
 -17   7   4   25.63    8.88
 -17   7   4   33.82    9.30
  -8 -10  -4    1.68    6.09
  18  -8  -4    6.26   10.41
  -8 -10  -4    5.26    6.46
 -18   8   4    1.60    7.63
 -18   8   4    6.32    8.32
  18 -11  -4   -0.19    9.50
 -11  -7  -4   13.77    7.36
 -11  -7  -4    9.19    7.02
 -18  11   4   -5.12    7.68
  11   7   4   12.98    9.01
 -18  11   4   -0.55    7.29
 -11  -6  -4   -3.25    6.18
 -11  -6  -4   -6.53    6.08
  17 -11  -4    1.43    9.44
  11   6   4    7.62    9.17
 -17  11   4   -6.19    6.54
 -17  11   4    1.97    7.28
 -11  -5  -4   -0.59    6.17
 -11  -5  -4   -3.34    5.73
  16 -11  -4    3.24    8.81
 -16  11   4   -6.50    6.40
  11   5   4    4.72    8.71
 -16  11   4   -4.60    6.31
  15 -11  -4   43.72    8.95
 -11  -4  -4   48.69    8.43
 -11  -4  -4   45.09    8.42
 -15  11   4   46.12    9.07
  11   4   4   66.30   11.96
 -15  11   4   52.18    8.72
  14 -11  -4   13.54    7.90
 -11  -3  -4   13.91    6.50
 -11  -3  -4    8.85    6.08
 -14  11   4    5.73    6.16
 -14  11   4   18.12    7.23
  11   3   4   16.65    9.31
 -11  -2  -4   11.36    6.15
 -11  -2  -4   24.03    6.81
  13 -11  -4   13.88    7.58
 -13  11   4   12.19    4.16
  11   2   4    6.67    8.76
 -13  11   4   10.79    6.36
 -13  11   4    7.84    6.06
 -11  -1  -4   18.78    3.34
 -11  -1  -4   21.92    6.57
 -11  -1  -4   21.36    6.24
  12 -11  -4   23.67    7.24
 -12  11   4   36.29    7.16
 -12  11   4   18.03    6.44
   1 -12   4   18.10    2.13
  11   1   4   17.23    8.93
   1 -12   4   24.25    2.15
  11 -11  -4   29.31    7.28
 -11   0  -4   36.79    7.23
 -11   0  -4   46.16    7.31
   0 -11   4   33.91    3.69
  11   0   4   26.21    9.00
   0 -11   4   43.26    3.93
 -11   1  -4   16.31    5.89
 -11   1  -4   20.29    4.65
  10 -11  -4   18.91    6.23
 -11   1  -4   10.56    5.45
  11  -1   4   26.02    9.00
  -1 -10   4   14.68    3.49
  -1 -10   4   12.44    3.36
   2   9  -4   15.25    8.42
 -11   2  -4   23.25    5.92
   2   9  -4   19.35    3.78
 -11   2  -4   22.98    6.02
   2   9  -4   25.66    3.79
 -11   2  -4   11.50    3.93
   9 -11  -4   19.83    5.81
  11  -2   4   27.67    9.34
  -2  -9   4   16.51    3.90
  -9  11   4   24.95    6.06
  -2  -9   4   18.27    3.86
   3   8  -4  241.86   12.47
 -11   3  -4  240.42   14.77
   3   8  -4  239.90   12.47
 -11   3  -4  255.95   12.73
 -11   3  -4  228.40   14.38
   3   8  -4  232.09   17.33
  -3  -8   4  256.32   12.77
  -8  11   4  236.80   15.51
  -3  -8   4  259.98   12.62
  11  -3   4  229.64   17.95
 -11   4  -4   29.76    4.03
   4   7  -4   43.07    8.62
   4   7  -4   37.27    5.07
   4   7  -4   37.13    5.01
 -11   4  -4   25.64    5.89
 -11   4  -4   37.48    6.22
  -4  -7   4   46.40    5.64
  11  -4   4   27.97    8.38
  -4  -7   4   37.84    5.42
  -7  11   4   38.51    6.00
 -11   5  -4   29.57    4.15
 -11   5  -4   23.97    5.70
   5   6  -4   22.49    7.32
 -11   5  -4   33.51    6.00
  -6  11   4   38.81    5.51
  11  -5   4   18.64    8.15
  -5  -6   4   33.78    5.68
  -5  -6   4   34.08    5.64
 -11   6  -4   70.00    7.50
 -11   6  -4   70.17    7.48
   6   5  -4   77.01    9.43
  11  -6   4  102.99   11.50
  -6  -5   4   63.17    7.44
  -6  -5   4   73.38    7.72
  -5  11   4   63.47    6.71
 -11   7  -4   98.95    8.70
   7   4  -4  121.93   10.74
 -11   7  -4  112.72    9.01
  -7  -4   4   92.81    8.94
  11  -7   4  103.28   11.78
  -4  11   4  109.53    8.34
  -7  -4   4   96.14    9.08
   8   3  -4    5.51    6.02
 -11   8  -4   12.64    4.19
 -11   8  -4   11.17    4.02
  -8  -3   4    6.71    5.19
  11  -8   4    8.39    7.28
  -8  -3   4    6.10    5.12
  -3  11   4   23.51    4.65
 -11   9  -4   21.77    4.44
 -11   9  -4   21.19    4.36
   9   2  -4   16.70    6.15
  11  -9   4   21.57    7.83
  -9  -2   4   26.66    6.37
  -9  -2   4   30.02    6.40
  10   1  -4  296.67   17.67
 -11  10  -4  321.80   15.60
 -11  10  -4  307.43   15.06
 -10  -1   4  313.76   17.92
 -10  -1   4  321.82   17.70
  11 -10   4  344.45   21.24
 -11  11  -4   43.79    5.06
  11   0  -4   38.41    7.24
 -11  11  -4   41.80    5.17
 -11   0   4   27.13    7.08
 -11   0   4   30.06    7.23
  11 -11   4   42.51    9.74
 -11  12  -4  111.67    8.23
  12  -1  -4  141.36   14.93
 -11  12  -4  108.22    7.88
 -12   1   4  105.95   11.09
 -12   1   4  119.66   11.23
  13  -2  -4  126.16    6.74
 -11  13  -4  117.15    8.42
 -11  13  -4  122.75    8.01
  13  -2  -4  120.81   14.00
 -13   2   4  128.57   12.12
 -13   2   4   99.68   11.48
 -11  14  -4    3.94    3.17
  -3 -11  -4   -3.46    4.93
  -3 -11  -4    1.18    4.92
  14  -3  -4   -5.43    8.98
 -11  14  -4    7.57    3.05
 -14   3   4   -3.62    6.06
 -14   3   4    8.64    7.12
  -4 -11  -4   12.41    5.61
  -4 -11  -4    4.62    5.48
  15  -4  -4    1.94    9.15
 -15   4   4    7.85    6.89
 -15   4   4    4.05    7.09
  -5 -11  -4   30.55    7.43
  16  -5  -4   51.03   12.23
  -5 -11  -4   36.61    7.63
 -16   5   4   25.54    8.13
 -16   5   4   24.06    8.40
  -6 -11  -4  122.82   12.44
  -6 -11  -4  143.77   13.17
  17  -6  -4  125.00   16.29
 -17   6   4  151.51   14.77
 -17   6   4  132.52   13.92
  -7 -11  -4   -3.64    5.95
  -7 -11  -4   -7.14    6.12
  18  -7  -4    2.13   10.16
 -18   7   4  -10.16    7.40
 -18   7   4   -3.84    7.11
 -12  -6  -4   77.51   11.06
 -12  -6  -4   67.53   10.68
 -18  12   4   68.70   10.59
 -18  12   4   77.49   11.73
  12   6   4   95.32   14.28
 -12  -5  -4   27.74    8.35
 -12  -5  -4   29.59    8.47
  17 -12  -4   23.27   10.48
 -17  12   4   18.56    8.69
 -17  12   4   11.80    7.63
  12   5   4   23.03   10.39
 -12  -4  -4   15.89    7.27
  16 -12  -4   -7.14    8.24
 -12  -4  -4    1.83    6.62
 -16  12   4    2.55    6.59
 -16  12   4    2.71    6.93
  12   4   4   10.79    9.63
 -12  -3  -4   37.47    8.48
 -12  -3  -4   30.74    8.02
  15 -12  -4   42.51    8.83
 -15  12   4   37.24    7.82
 -15  12   4   45.38    8.75
  12   3   4   33.02   10.39
 -12  -2  -4   -6.97    5.93
  14 -12  -4    1.74    7.04
 -12  -2  -4   10.72    6.58
  12   2   4    7.71    9.32
 -14  12   4   15.54    6.57
 -14  12   4   -0.31    6.10
  13 -12  -4   88.31    9.97
 -12  -1  -4   65.39    9.65
 -12  -1  -4   77.73   10.02
  12   1   4   73.92   12.40
 -12   0  -4    7.18    5.85
 -12   0  -4    0.45    5.77
  12 -12  -4   -0.08    6.57
   0 -12   4    4.17    2.67
  12   0   4    4.22    8.31
   0 -12   4    0.62    2.58
 -12   1  -4  127.58   11.63
  11 -12  -4  118.08   11.46
 -12   1  -4  124.76   11.56
  -1 -11   4  120.36    8.04
  12  -1   4  122.77   14.44
  -1 -11   4  126.81    7.86
 -12   2  -4   30.81    5.21
  10 -12  -4   55.63    7.57
 -12   2  -4   31.43    6.98
 -12   2  -4   35.41    7.24
  -2 -10   4   35.92    4.69
  -2 -10   4   32.48    4.76
  12  -2   4   43.29   10.93
 -12   3  -4   -2.20    4.72
   3   9  -4    3.46    3.37
 -12   3  -4    3.52    5.38
 -12   3  -4    1.92    3.28
   3   9  -4   -2.64    3.22
  -3  -9   4   -1.88    3.47
  -3  -9   4    0.59    3.54
  12  -3   4    4.78    7.69
 -12   4  -4   35.11    6.98
 -12   4  -4   39.70    4.69
   4   8  -4   28.44    8.75
 -12   4  -4   42.68    7.18
  -4  -8   4   32.59    5.24
  -8  12   4   33.32    6.29
  -4  -8   4   32.64    5.37
  12  -4   4   38.67    9.95
 -12   5  -4    5.36    5.07
   5   7  -4    9.17    7.50
 -12   5  -4   -4.83    4.42
 -12   5  -4    3.36    3.01
  12  -5   4   10.67    7.98
  -5  -7   4   10.67    4.36
  -7  12   4    0.93    4.35
  -5  -7   4   -3.40    3.86
 -12   6  -4   10.05    5.47
 -12   6  -4    5.53    5.01
 -12   6  -4    6.75    2.96
   6   6  -4   -9.41    6.62
  -6  -6   4    2.69    4.50
  -6  -6   4    0.99    4.47
  12  -6   4   18.01    8.12
  -6  12   4    6.10    4.27
   7   5  -4   81.84    9.78
 -12   7  -4   89.90    8.50
 -12   7  -4   89.63    8.89
  12  -7   4   75.19   11.32
  -5  12   4   81.87    7.83
  -7  -5   4  103.89    9.36
  -7  -5   4   86.42    8.93
   8   4  -4   32.04    7.29
 -12   8  -4   34.54    5.69
 -12   8  -4   25.88    5.19
  -8  -4   4   35.06    6.56
  -4  12   4   20.84    4.93
  12  -8   4   25.31    8.44
  -8  -4   4   21.99    6.28
 -12   9  -4    5.58    3.96
 -12   9  -4    0.04    3.59
   9   3  -4   26.43    6.69
  -9  -3   4   -3.23    5.16
  12  -9   4   -5.14    7.21
  -9  -3   4   -0.62    5.05
 -12  10  -4   42.00    6.00
 -12  10  -4   42.26    5.82
  10   2  -4   38.33    7.58
  12 -10   4   42.53    9.88
 -10  -2   4   38.09    7.37
 -10  -2   4   47.99    8.06
  11   1  -4   23.05    6.48
 -12  11  -4   19.16    4.49
 -12  11  -4   23.78    4.84
 -11  -1   4   16.43    6.86
 -11  -1   4   21.57    6.83
  12 -11   4   23.80    9.05
 -12  12  -4    1.33    3.94
  12   0  -4   -2.28    5.24
 -12  12  -4    6.30    4.10
  12 -12   4    1.74    8.05
 -12   0   4    4.77    6.36
 -12   0   4   -2.45    5.73
 -12  13  -4   15.34    4.25
  13  -1  -4   12.16    5.35
 -12  13  -4   15.31    4.35
  13  -1  -4   -1.71    8.88
 -13   1   4   15.29    7.06
 -13   1   4    9.52    6.66
  14  -2  -4  130.54   15.29
 -12  14  -4  128.40    8.64
  -2 -12  -4  124.44   11.03
  -2 -12  -4  118.18   10.97
  14  -2  -4  119.46    9.77
 -12  14  -4  125.75    8.76
 -14   2   4   97.36   11.59
 -14   2   4  131.47   13.11
  -3 -12  -4   15.81    6.24
  -3 -12  -4   11.85    6.13
  15  -3  -4    5.07   10.08
 -15   3   4   22.59    8.26
 -15   3   4    6.57    7.08
  16  -4  -4   98.64   14.48
  -4 -12  -4   85.84   10.31
  -4 -12  -4   82.55    9.89
 -16   4   4  107.19   12.21
 -16   4   4   74.02   11.23
  -5 -12  -4   48.32    8.47
  17  -5  -4   40.86   12.63
  -5 -12  -4   44.58    8.31
 -17   5   4   47.28    9.54
 -17   5   4   43.37    9.98
  -6 -12  -4   20.70    7.19
  18  -6  -4   15.98   11.26
  -6 -12  -4   17.17    7.05
 -18   6   4    9.08    8.12
 -18   6   4   24.88    8.63
  18 -13  -4   36.15   11.44
 -13  -5  -4   43.68    9.36
 -13  -5  -4   38.83    9.41
 -18  13   4   30.08    9.07
 -18  13   4   34.92    8.74
  13   5   4   30.65   11.75
 -13  -4  -4   55.17    9.84
 -13  -4  -4   66.87   10.21
  17 -13  -4   29.32    8.70
 -17  13   4   60.52    9.97
 -17  13   4   47.95    9.27
  13   4   4   53.51   12.34
 -13  -3  -4   11.32    7.28
  16 -13  -4    7.18    8.95
 -13  -3  -4   22.24    7.44
 -16  13   4   12.10    6.76
  13   3   4   10.47    9.60
 -16  13   4   16.29    8.00
 -13  -2  -4  129.80   12.64
  15 -13  -4   82.64   11.10
 -13  -2  -4  107.39   12.24
 -15  13   4  113.28   11.41
 -13  -1  -4   74.81   10.10
 -13  -1  -4   71.35    9.82
  13   1   4   58.13   12.15
  13 -13  -4   -0.68    6.83
 -13   0  -4    1.65    5.99
 -13   0  -4   -0.01    5.71
  13   0   4    4.03    8.80
  12 -13  -4    9.84    7.10
 -13   1  -4   26.16    7.33
 -13   1  -4   10.22    6.04
  -1 -12   4   13.89    3.65
  -1 -12   4    7.06    3.36
  13  -1   4   -1.02    8.78
  11 -13  -4  105.36   10.88
 -13   2  -4  129.28   11.72
 -13   2  -4  114.89   11.49
  13  -2   4  103.57   13.88
  -2 -11   4  108.82    8.19
  -2 -11   4  118.26    8.55
 -13   3  -4  177.39   13.34
 -13   3  -4  160.33   10.47
 -13   3  -4  155.13   12.55
  13  -3   4  172.83   16.54
  -3 -10   4  173.11   10.44
  -3 -10   4  152.22   10.50
 -13   4  -4   50.73    8.29
 -13   4  -4   51.08    5.51
 -13   4  -4   52.83    8.24
  -4  -9   4   47.24    6.25
  13  -4   4   47.68   11.07
  -4  -9   4   42.81    6.03
   5   8  -4  114.87   12.53
 -13   5  -4  105.37   10.99
 -13   5  -4  104.03    7.96
 -13   5  -4  115.09   11.12
  -5  -8   4  123.45    9.44
  13  -5   4  152.14   14.89
  -5  -8   4  124.79    9.59
 -13   6  -4   63.58    8.51
 -13   6  -4   42.09    7.58
 -13   6  -4   46.74    4.98
   6   7  -4   58.61    9.70
  -6  -7   4   46.82    6.91
  13  -6   4   62.38   11.05
  -6  -7   4   54.32    6.95
 -13   7  -4   18.32    6.18
 -13   7  -4    6.85    5.36
   7   6  -4   16.11    7.62
  -7  -6   4   17.43    5.74
  -6  13   4    8.93    5.11
  13  -7   4   27.80    9.52
  -7  -6   4   17.58    5.74
 -13   8  -4   86.80    8.55
 -13   8  -4   89.25    9.13
   8   5  -4   79.03   10.16
  -8  -5   4   76.21    9.11
  13  -8   4   93.59   12.26
  -8  -5   4   75.88    8.96
  -5  13   4   83.35    8.30
 -13   9  -4   16.50    4.79
   9   4  -4    5.55    6.42
 -13   9  -4   14.33    5.29
  -9  -4   4    8.10    5.93
  13  -9   4   15.41    8.44
  -9  -4   4   12.25    6.18
  10   3  -4   57.30    8.54
 -13  10  -4   63.08    7.33
 -13  10  -4   70.90    7.66
 -10  -3   4   59.35    8.79
  13 -10   4   53.28   10.74
 -10  -3   4   73.06    9.29
 -13  11  -4   19.01    4.95
  11   2  -4    7.71    6.46
 -13  11  -4   21.80    5.18
 -11  -2   4   10.13    6.50
 -11  -2   4    7.78    6.44
  13 -11   4   23.93    9.36
  12   1  -4   81.43    9.07
 -13  12  -4   88.65    7.84
 -13  12  -4   97.66    8.26
 -12  -1   4   71.93    9.92
  13 -12   4   71.77   11.85
 -12  -1   4   83.40   10.33
 -13  13  -4    5.77    4.57
  13   0  -4    1.49    5.16
 -13  13  -4    8.46    4.45
  13   0  -4    5.42    9.56
 -13   0   4    0.92    6.17
 -13   0   4    3.49    6.29
 -13  14  -4   19.41    5.05
  14  -1  -4   -0.57    9.42
 -13  14  -4   10.86    4.77
  14  -1  -4    0.23    4.99
 -14   1   4    8.55    7.18
 -14   1   4    8.90    6.89
  15  -2  -4   13.65   10.85
  -2 -13  -4   20.29    6.14
  -2 -13  -4   22.64    6.16
 -15   2   4   20.08    8.13
 -15   2   4   19.61    7.81
  -3 -13  -4    8.94    6.00
  16  -3  -4    6.53   10.74
  -3 -13  -4    2.97    5.65
 -16   3   4   -1.95    7.05
 -16   3   4    1.61    7.18
  -4 -13  -4   17.02    6.71
  17  -4  -4   -4.99    9.71
  -4 -13  -4   12.75    6.68
 -17   4   4    5.23    8.07
 -17   4   4    5.77    7.36
  18  -5  -4   50.03   13.80
  -5 -13  -4   31.38    8.15
  -5 -13  -4   48.02    8.87
 -18   5   4   19.73    9.21
 -18   5   4   49.38   10.23
 -14  -4  -4    2.55    7.40
 -14  -4  -4   -2.47    6.72
  18 -14  -4   -8.47    9.70
 -18  14   4    3.68    7.07
 -18  14   4    4.27    7.67
  14   4   4   10.02   10.03
  17 -14  -4   22.41   10.04
 -14  -3  -4   17.95    8.29
 -14  -3  -4   11.05    7.73
 -17  14   4   11.34    7.60
 -17  14   4    8.17    8.01
  14   3   4   17.11   11.09
 -14  -2  -4   -1.52    6.53
  16 -14  -4    7.23    8.81
 -14  -2  -4   -6.66    5.98
  14   2   4   16.53   10.12
 -14  -1  -4   25.06    7.52
 -14  -1  -4   10.21    7.39
  15 -14  -4   11.75    8.28
  14   1   4    8.74    9.96
 -14   0  -4   33.87    8.31
  14 -14  -4   50.16    9.50
 -14   0  -4   53.57    9.56
  14   0   4   44.68   11.67
 -14   1  -4   14.36    7.55
  13 -14  -4   12.57    7.47
 -14   1  -4   -6.68    5.81
  14  -1   4   -5.09    8.90
 -14   2  -4  121.63   12.85
 -14   2  -4  128.31   12.56
  -2 -12   4  145.34    9.34
  -2 -12   4  127.15    8.75
  14  -2   4   93.89   14.35
 -14   3  -4    4.02    6.33
 -14   3  -4    4.98    6.67
  -3 -11   4   -0.50    3.94
  -3 -11   4    3.33    4.09
  14  -3   4    1.37    8.79
 -14   4  -4    1.28    3.67
 -14   4  -4   11.35    6.49
 -14   4  -4    8.37    6.67
  -4 -10   4    7.83    4.69
  14  -4   4    2.35    8.57
  -4 -10   4   -2.91    4.33
 -14   5  -4   -7.26    5.58
 -14   5  -4   -3.37    5.87
 -14   5  -4   -8.00    3.15
  -5  -9   4   -0.38    4.42
  -5  -9   4   -0.02    4.37
  14  -5   4   -1.93    8.43
 -14   6  -4   56.86    8.82
 -14   6  -4   30.20    4.62
 -14   6  -4   54.08    8.23
  -6  -8   4   42.54    6.94
  14  -6   4   33.76   10.71
  -6  -8   4   45.68    6.94
 -14   7  -4   47.74    7.81
   7   7  -4   55.19    9.67
 -14   7  -4   79.84    9.45
 -14   7  -4   77.11    6.01
  -7  -7   4   76.79    8.65
  14  -7   4   50.05   11.41
  -7  -7   4   60.33    7.96
   8   6  -4    2.51    7.38
 -14   8  -4    5.28    5.85
 -14   8  -4    9.98    5.57
  14  -8   4    1.71    8.51
  -8  -6   4    4.94    5.20
  -8  -6   4    2.52    5.24
   9   5  -4  170.03   14.27
 -14   9  -4  147.38   11.49
 -14   9  -4  188.28   12.96
  -9  -5   4  169.47   12.91
  14  -9   4  195.53   16.80
  -9  -5   4  177.03   13.40
 -14  10  -4  109.28    9.87
 -14  10  -4  119.85   10.75
  10   4  -4  122.10   11.80
 -10  -4   4  112.32   11.26
 -10  -4   4  116.78   11.16
  14 -10   4  125.48   14.42
 -14  11  -4    6.03    5.40
 -14  11  -4   18.44    5.31
  11   3  -4   21.85    7.01
 -11  -3   4   15.24    6.69
 -11  -3   4    9.21    6.48
  14 -11   4   21.54    9.59
 -14  12  -4    8.16    4.94
  12   2  -4    4.86    5.95
 -14  12  -4    4.64    5.09
  14 -12   4    0.72    9.12
 -12  -2   4   11.04    6.99
 -12  -2   4   -3.35    6.41
  13   1  -4   66.92    8.29
 -14  13  -4   78.91    8.06
 -14  13  -4   74.88    7.88
 -13  -1   4   74.98   10.27
  14 -13   4   65.53   12.11
 -13  -1   4   69.57   10.24
 -14  14  -4   63.19    7.12
  14   0  -4   49.31    7.18
  14   0  -4   65.47   13.03
 -14  14  -4   73.13    7.61
 -14   0   4   70.15   10.59
 -14   0   4   46.87    9.13
  -1 -14  -4    2.63    5.23
 -14  15  -4    6.93    4.86
 -14  15  -4    8.93    5.10
  -1 -14  -4   -3.62    4.51
  15  -1  -4   -5.25    9.77
 -15   1   4   -2.92    6.76
 -15   1   4    5.08    6.73
  -2 -14  -4   59.98    8.71
  -2 -14  -4   70.81    9.14
  16  -2  -4   67.53   14.19
 -16   2   4   64.95   10.71
 -16   2   4   76.43   11.45
  17  -3  -4   10.88   11.41
  -3 -14  -4   -6.41    5.59
  -3 -14  -4   -1.84    5.84
 -17   3   4   15.58    8.53
 -17   3   4   12.09    7.92
  18  -4  -4   15.88   12.92
  -4 -14  -4    0.06    6.10
  -4 -14  -4   -7.70    5.47
 -18   4   4   -3.92    7.39
 -18   4   4    9.19    8.78
 -15  -2  -4   67.60   11.04
  17 -15  -4   56.92   11.17
 -15  -2  -4   43.35   10.26
  15   2   4   67.73   12.73
 -15  -1  -4   -2.29    6.95
  16 -15  -4    3.64    8.54
 -15  -1  -4    6.19    7.10
  15   1   4   -3.12    9.67
 -15   0  -4    8.59    7.65
 -15   0  -4   -9.76    6.13
  15 -15  -4    3.44    8.04
  15   0   4  -11.79    9.01
 -15   1  -4    9.85    7.55
 -15   1  -4    8.34    6.98
  14 -15  -4    0.28    7.41
  15  -1   4    7.16    9.67
 -15   2  -4    3.47    7.34
 -15   2  -4   12.88    7.45
  15  -2   4   18.37   10.61
 -15   3  -4   20.67    7.66
 -15   3  -4   16.74    7.89
  -3 -12   4    6.04    4.50
  -3 -12   4   25.75    5.09
  15  -3   4   17.13   10.23
 -15   4  -4    8.02    6.59
 -15   4  -4   -0.34    6.91
  -4 -11   4   -0.36    4.40
  -4 -11   4    1.56    4.28
  15  -4   4    8.98    9.61
 -15   5  -4   50.42    8.56
 -15   5  -4   46.38    9.09
  -5 -10   4   40.89    6.61
  15  -5   4   30.07   10.33
  -5 -10   4   38.84    6.47
 -15   6  -4  -13.71    3.13
 -15   6  -4    2.95    6.11
 -15   6  -4    0.54    6.40
  -6  -9   4    5.63    5.12
  15  -6   4    5.27    8.80
  -6  -9   4    2.50    4.85
 -15   7  -4   15.85    3.73
 -15   7  -4   23.12    6.87
 -15   7  -4   17.55    7.15
  -7  -8   4   13.56    5.58
  -7  -8   4    8.42    5.38
  15  -7   4   20.02   10.04
 -15   8  -4   19.65    6.39
 -15   8  -4   15.98    3.65
 -15   8  -4   29.03    7.32
  -8  -7   4   30.72    6.71
  -8  -7   4   18.47    6.21
  15  -8   4   32.36   10.38
 -15   9  -4   39.54    7.70
   9   6  -4   45.32    8.96
 -15   9  -4   40.71    7.44
  -9  -6   4   41.06    7.68
  15  -9   4   47.29   11.23
  -9  -6   4   42.36    7.81
  10   5  -4    9.27    7.13
 -15  10  -4    8.22    6.08
 -15  10  -4    0.61    5.53
  15 -10   4   29.57   10.36
 -10  -5   4   10.54    6.77
 -10  -5   4    4.94    6.44
  11   4  -4   50.04    8.75
 -15  11  -4   42.75    7.50
 -15  11  -4   46.33    7.16
  15 -11   4   38.31   11.10
 -11  -4   4   44.02    8.49
 -11  -4   4   48.61    8.59
 -15  12  -4   44.87    7.11
  12   3  -4   33.91    7.94
 -15  12  -4   38.23    7.28
  15 -12   4   42.72   11.39
 -12  -3   4   35.19    8.45
 -12  -3   4   39.92    8.63
 -15  13  -4  131.13   10.56
 -15  13  -4  125.82   10.51
  13   2  -4  107.18   10.99
  15 -13   4  102.17   14.59
 -13  -2   4   92.30   11.75
 -13  -2   4  103.49   11.84
  14   1  -4    6.72   10.53
 -15  14  -4   14.15    6.00
 -15  14  -4   22.30    6.12
  14   1  -4   12.33    5.77
 -14  -1   4    5.55    7.03
 -14  -1   4   17.61    7.84
  15 -14   4    5.23    9.70
  15   0  -4   -3.55    8.50
 -15  15  -4   -1.92    5.15
 -15  15  -4   -2.64    5.18
 -15   0   4  -10.45    6.76
 -15   0   4    2.94    7.08
  -1 -15  -4   26.51    6.64
  -1 -15  -4   22.42    6.50
  16  -1  -4   17.90   11.63
 -16   1   4   31.82    8.69
 -16   1   4   41.27    9.78
  -2 -15  -4   17.62    6.01
  -2 -15  -4   13.76    6.17
  17  -2  -4   -5.99   11.60
 -17   2   4    2.97    7.57
 -17   2   4   22.97    9.04
  16 -16  -4   19.78    9.26
 -16   0  -4   18.56    8.49
 -16   0  -4   33.32    9.60
  16   0   4   23.22   11.74
 -16   1  -4   53.91    9.75
 -16   1  -4   21.57    8.38
  15 -16  -4    2.47    8.53
  16  -1   4   12.90   10.84
 -16   2  -4   56.28   10.04
 -16   2  -4   67.29   11.26
  16  -2   4   50.91   12.70
 -16   3  -4  -13.02    6.72
 -16   3  -4    1.85    6.65
  16  -3   4   -2.81    9.97
 -16   4  -4   64.56   10.14
 -16   4  -4  102.77   12.32
  16  -4   4   67.91   13.42
  -4 -12   4   95.96    8.63
  -4 -12   4   94.99    8.78
 -16   5  -4   34.64    8.40
 -16   5  -4   36.66    8.98
  -5 -11   4   38.21    6.54
  16  -5   4   15.96   10.60
  -5 -11   4   40.49    6.52
 -16   6  -4   -1.57    6.47
 -16   6  -4   17.37    7.87
  -6 -10   4   11.44    5.44
  16  -6   4    7.66    9.49
  -6 -10   4   10.47    5.61
 -16   7  -4    1.29    6.49
 -16   7  -4   20.89    6.62
  16  -7   4   13.88    9.55
  -7  -9   4    0.76    5.06
  -7  -9   4   -6.76    4.80
 -16   8  -4    7.46    6.79
 -16   8  -4    5.79    5.80
  -8  -8   4   17.64    6.30
  -8  -8   4   12.20    6.02
  16  -8   4   19.93    9.69
 -16   9  -4   32.19    7.54
 -16   9  -4   41.71    8.68
  16  -9   4   50.27   11.69
  -9  -7   4   40.43    7.74
  -9  -7   4   39.19    7.53
 -16  10  -4    8.26    7.02
 -16  10  -4   11.20    6.23
 -10  -6   4    6.76    6.56
  16 -10   4    8.61    9.40
 -10  -6   4    4.88    6.33
 -16  11  -4   -4.42    5.99
 -16  11  -4    2.82    5.52
  16 -11   4    7.48    9.14
 -11  -5   4    1.80    6.45
 -11  -5   4   -3.60    6.29
  12   4  -4    3.66    6.60
 -16  12  -4   -7.13    5.31
 -16  12  -4    1.92    6.28
 -12  -4   4   -2.23    6.21
  16 -12   4    3.30    9.17
 -12  -4   4   12.80    6.93
  13   3  -4   18.06    6.87
 -16  13  -4   12.03    6.04
 -16  13  -4   14.26    6.32
 -13  -3   4   15.66    7.86
 -13  -3   4    5.51    7.08
  16 -13   4    5.39   10.19
 -16  14  -4   12.87    6.20
 -16  14  -4    0.67    5.38
  14   2  -4    1.35   10.63
  16 -14   4    9.30   10.18
 -14  -2   4   -8.49    6.64
 -14  -2   4    5.50    7.50
  15   1  -4   -4.58   10.52
 -16  15  -4    0.46    5.41
 -16  15  -4   15.87    6.33
  16 -15   4    9.34   10.33
 -15  -1   4  -11.69    6.47
 -15  -1   4   -9.19    6.40
   0 -16  -4   25.97    6.67
   0 -16  -4   35.34    7.21
  16   0  -4   17.22   11.55
 -16   0   4   21.45    8.75
 -16   0   4   32.38    9.07
 -17   2  -4   19.53    8.03
 -17   2  -4   15.62    8.95
  17  -2   4   13.86   11.74
 -17   3  -4   11.81    8.51
 -17   3  -4   10.23    7.55
  17  -3   4   -2.43   10.36
 -17   4  -4   15.61    7.70
 -17   4  -4   15.13    8.52
  17  -4   4   10.37   10.78
 -17   5  -4   39.53    9.03
 -17   5  -4   53.30   10.23
  -5 -12   4   51.15    7.20
  17  -5   4   34.11   11.68
  -5 -12   4   54.31    7.45
 -17   6  -4  110.37   11.95
 -17   6  -4  115.42   12.99
  -6 -11   4  138.93   10.80
  -6 -11   4  121.36   10.71
  17  -6   4   94.17   14.97
 -17   7  -4   35.33    8.00
 -17   7  -4   28.36    8.58
  17  -7   4   69.29   12.96
  -7 -10   4   41.52    7.49
  -7 -10   4   38.47    7.28
 -17   8  -4   74.67   10.07
 -17   8  -4   63.68   10.53
  -8  -9   4   88.81    9.82
  -8  -9   4   77.33    9.34
  17  -8   4   92.91   14.37
 -17   9  -4   33.66    7.92
 -17   9  -4   37.07    8.97
  17  -9   4   28.49   11.16
  -9  -8   4   28.21    7.22
  -9  -8   4   20.47    6.70
 -17  10  -4    0.36    6.81
 -17  10  -4    3.01    6.18
 -10  -7   4   -0.51    6.56
  17 -10   4   16.01    9.73
 -10  -7   4    6.65    6.72
 -17  11  -4    3.50    6.75
 -17  11  -4   10.54    6.36
  17 -11   4   -5.26    8.68
 -11  -6   4   -6.02    5.97
 -11  -6   4   -0.43    6.29
 -17  12  -4   31.08    7.94
 -17  12  -4   24.92    7.10
 -12  -5   4   21.64    7.89
  17 -12   4   33.83   11.74
 -12  -5   4   20.55    8.01
 -17  13  -4   67.36    9.28
 -17  13  -4   73.97    9.18
 -13  -4   4   46.82    9.74
 -13  -4   4   54.98    9.93
  17 -13   4   48.82   12.51
 -17  14  -4   18.10    6.68
 -17  14  -4   10.06    6.88
 -14  -3   4   16.76    8.07
 -14  -3   4    6.65    7.85
  17 -14   4   11.72   10.90
  15   2  -4   64.39   14.23
 -17  15  -4   81.15    9.50
 -17  15  -4   81.90    9.26
 -15  -2   4   45.65   10.28
  17 -15   4   55.29   13.07
 -15  -2   4   67.69   10.90
 -18   4  -4    4.52    8.32
 -18   4  -4    1.99    7.41
  18  -4   4   12.79   11.37
 -18   5  -4   32.06    9.78
 -18   5  -4   41.47    9.20
  18  -5   4   39.51   12.97
 -18   6  -4   33.12    8.45
 -18   6  -4   17.58    8.79
  18  -6   4   31.47   12.26
  -6 -12   4   25.38    6.62
  -6 -12   4   31.72    6.73
 -18   7  -4    7.89    6.78
 -18   7  -4   -4.74    7.25
  -7 -11   4    2.52    5.42
  -7 -11   4    9.17    5.67
  18  -7   4   12.87   10.30
 -18   8  -4    0.34    6.79
 -18   8  -4   -2.70    7.45
  -8 -10   4    2.04    5.48
  18  -8   4    1.83    9.88
  -8 -10   4   15.60    6.25
 -18   9  -4   13.10    8.15
 -18   9  -4   19.59    7.32
  -9  -9   4   27.17    7.05
  -9  -9   4   15.25    6.70
  18  -9   4   -5.23    9.63
 -18  10  -4   44.06    8.78
 -18  10  -4   22.79    8.81
  18 -10   4   42.65   11.75
 -10  -8   4   37.53    8.59
 -10  -8   4   53.49    9.02
 -18  11  -4   -2.50    6.25
 -18  11  -4    5.07    7.20
 -11  -7   4    6.30    7.04
  18 -11   4    7.15    9.70
 -11  -7   4   -3.03    6.60
 -18  12  -4   70.45    9.78
 -18  12  -4   88.83   10.93
  18 -12   4   60.47   13.12
 -12  -6   4   67.58   10.62
 -12  -6   4   79.60   10.80
 -18  13  -4   38.99    8.15
 -18  13  -4   36.04    8.46
 -13  -5   4   42.76    9.75
 -13  -5   4   30.84    9.15
  18 -13   4   31.25   11.70
 -18  14  -4   -5.99    6.10
 -18  14  -4   -0.30    6.63
 -14  -4   4    7.07    7.52
  18 -14   4    3.66   10.56
 -14  -4   4   -6.06    7.08
  -1   0  -5    6.38    3.41
  -1   1  -5   16.06    3.82
   0  -1  -5    7.03    2.94
   0  -1  -5    7.40    3.36
   2  -1  -5    5.50    3.16
   2  -1  -5    4.19    3.07
  -1  -1  -5    7.28    3.38
  -1  -1  -5    7.82    3.18
  -2  -1  -5   78.12    6.01
   3  -2  -5   65.21    6.13
   3  -2  -5   74.71    6.32
   3  -2  -5   64.52    6.10
  -2  -1  -5   71.61    6.56
   2   1   5   68.93    5.85
   2  -2  -5    3.85    3.19
  -2   0  -5   -2.20    2.93
  -2   0  -5   -5.00    3.50
   2   0   5    1.12    3.45
   1   1  -5    4.36    2.95
   1   1  -5    3.98    2.99
   1  -2  -5    0.00    3.01
  -2   1  -5    5.88    3.75
   1  -2  -5    0.26    2.19
   0  -2  -5    2.38    2.34
   0  -2  -5    0.34    3.21
  -2   2  -5   -0.84    3.48
   2   0  -5   -1.26    2.93
   2   0  -5   -3.92    2.68
   3  -1  -5   66.13    5.79
  -2   3  -5   56.65    5.87
  -1  -2  -5   54.32    5.87
   3  -1  -5   59.10    5.66
  -1  -2  -5   54.79    4.91
   1   2   5   50.80    4.33
  -2  -2  -5   10.00    3.82
   4  -2  -5    1.62    3.56
   4  -2  -5    6.30    3.34
   4  -2  -5    7.01    3.55
  -2  -2  -5    6.35    3.06
   5  -3  -5   -1.60    2.96
  -3  -2  -5   -0.43    3.58
  -2   5  -5   -7.25    5.04
   3   2   5    5.35    3.32
   3   2   5    7.41    3.99
  -3  -1  -5    5.12    3.58
  -1   4  -5    3.42    2.39
   4  -3  -5   -3.59    3.19
  -3  -1  -5    6.59    3.50
  -1   4  -5    6.52    2.52
   4  -3  -5    0.42    3.37
   4  -3  -5    1.82    3.24
   3   1   5   -1.17    3.72
   3  -3  -5  238.23   12.52
   3  -3  -5  227.02   12.32
   0   3  -5  225.51   11.10
   3  -3  -5  252.85   12.59
  -3   0  -5  238.12   13.15
  -3   0  -5  237.89   12.55
   0   3  -5  246.63   11.38
   3   0   5  214.68   13.15
  -3   1  -5   66.81    6.27
   1   2  -5   57.98    5.20
   2  -3  -5   50.46    5.70
   1   2  -5   56.70    5.17
   3  -1   5   58.36    6.05
   1  -3  -5   79.55    6.95
  -3   2  -5   78.39    6.97
   2   1  -5   70.70    6.02
   2   1  -5   74.29    6.05
   3   0  -5  227.82   12.03
   3   0  -5  240.11   12.05
  -3   3  -5  218.82   13.09
   0  -3  -5  237.05   13.02
   0   3   5  206.07   11.94
  -1  -3  -5   20.44    4.49
  -3   4  -5   15.00    4.48
   4  -1  -5   18.72    4.25
   4  -1  -5    9.02    3.90
   1   3   5   17.04    4.08
   1   3   5   14.68    2.90
  -2  -3  -5    4.75    4.04
  -3   5  -5   -1.11    3.55
  -3   5  -5   -6.85    5.03
  -5   2   5    1.12    4.00
  -5   2   5    8.62    4.18
   2   3   5   -5.17    3.31
  -3   6  -5   10.42    5.87
  -3  -3  -5   10.99    4.48
   6  -3  -5   14.06    3.69
  -6   3   5   18.05    4.96
  -6   3   5   15.48    4.62
   3   3   5    1.15    4.20
  -3   7  -5    1.03    6.23
  -4  -3  -5   12.58    4.64
  -3   7  -5    6.70    2.01
   7  -4  -5   10.82    3.89
   7  -4  -5    5.22    4.55
  -3   7  -5    2.85    1.79
  -7   4   5    9.47    4.49
   4   3   5   11.36    4.73
  -7   4   5    1.82    4.21
  -2   6  -5   -3.01    1.96
   6  -4  -5    8.69    4.36
  -4  -2  -5    2.15    3.83
  -2   6  -5   -0.44    2.01
   6  -4  -5    9.21    3.52
   4   2   5   -0.11    4.42
  -1   5  -5   17.62    2.96
   5  -4  -5   18.99    4.00
  -4  -1  -5   11.55    3.78
  -1   5  -5    9.29    2.84
  -1   5  -5   18.36    6.21
  -4  -1  -5   11.20    3.83
   5  -4  -5   20.32    4.21
   4   1   5   16.69    4.76
   4  -4  -5  172.12    9.35
  -4   0  -5  176.90   11.45
   0   4  -5  178.59    9.41
   4  -4  -5  193.56   11.11
   0   4  -5  192.59    9.25
  -4   0  -5  176.14   10.24
   4   0   5  156.54   11.86
   3  -4  -5   13.75    4.20
   3  -4  -5   17.75    2.49
   1   3  -5   14.94    3.55
  -4   1  -5   20.18    5.15
   1   3  -5   15.61    3.48
  -3   4   5   12.70    3.60
   4  -1   5   21.56    4.99
   2   2  -5    8.68    3.31
  -4   2  -5    7.34    4.33
   2  -4  -5    4.09    3.85
   2   2  -5    6.56    3.34
  -2   4   5    5.47    3.53
   4  -2   5    9.87    4.80
   1  -4  -5    2.68    3.82
   3   1  -5    7.42    3.57
  -4   3  -5    5.95    3.96
   3   1  -5   -0.77    3.25
   4  -3   5    0.40    4.55
  -3  -1   5    2.56    3.69
  -3  -1   5    1.26    3.59
  -1   4   5    4.17    3.20
   4   0  -5  173.18   10.72
   0  -4  -5  160.00   11.02
   4   0  -5  168.34   10.44
  -4   4  -5  184.83   11.55
  -4   0   5  174.15   10.84
  -4   0   5  181.91   10.66
   5  -1  -5   80.74    7.22
  -4   5  -5   81.01    8.55
   5  -1  -5   91.50    7.51
  -1  -4  -5   93.84    8.21
  -4   5  -5   86.48    8.06
  -5   1   5   82.53    7.68
  -5   1   5   83.46    7.50
   1   4   5   81.73    6.63
  -2  -4  -5   49.28    6.45
  -4   6  -5   52.64    7.99
  -6   2   5   55.73    6.68
  -6   2   5   48.27    6.34
   2   4   5   53.53    5.52
   7  -3  -5   12.97    5.15
   7  -3  -5    3.31    3.13
  -4   7  -5   13.44    6.52
  -3  -4  -5    8.06    4.78
  -7   3   5    9.73    4.65
  -7   3   5   14.17    4.92
   3   4   5    2.94    4.34
   8  -4  -5   15.39    5.21
  -4   8  -5   10.81    1.95
  -4  -4  -5   11.01    5.04
  -4   8  -5    6.22    6.95
  -4   8  -5   10.44    1.70
  -4   8  -5   10.69    1.91
   8  -4  -5   20.68    3.83
  -4   8  -5   11.60    1.73
   4   4   5   16.91    5.11
  -8   4   5   15.98    5.21
  -8   4   5   12.26    4.94
   9  -5  -5   28.21    4.43
   9  -5  -5   24.99    6.10
  -4   9  -5   40.09    9.06
  -5  -4  -5   31.75    6.32
  -9   5   5   31.86    6.14
   5   4   5   28.57    6.28
  -9   5   5   29.83    6.21
   8  -5  -5    6.93    3.65
   8  -5  -5    1.18    4.31
  -3   8  -5    8.29    6.68
  -5  -3  -5    9.49    4.86
  -3   8  -5   -0.25    1.47
  -3   8  -5    1.87    1.54
  -8   5   5    5.55    4.40
   5   3   5    7.55    5.32
  -8   5   5    1.26    4.43
  -2   7  -5   16.83    2.51
  -5  -2  -5   24.77    4.78
   7  -5  -5   20.42    4.30
  -2   7  -5   10.99    6.73
  -2   7  -5   19.44    2.59
   7  -5  -5   15.29    4.55
   5   2   5   20.25    5.77
  -5  -1  -5   40.00    5.44
  -1   6  -5   44.48    3.88
  -5  -1  -5   46.71    5.42
   6  -5  -5   41.94    5.30
   6  -5  -5   42.53    5.50
  -1   6  -5   36.51    7.79
  -1   6  -5   52.29    4.05
   5   1   5   48.62    6.93
   5  -5  -5   35.47    4.46
   0   5  -5   30.75    3.62
   0   5  -5   32.68    3.80
  -5   0  -5   21.98    4.78
   5  -5  -5   24.48    4.90
  -5   0  -5   29.30    4.47
   0   5  -5   27.69    6.63
   5   0   5   29.29    5.86
  -5   5   5   30.87    4.49
   1   4  -5   74.76    5.94
   1   4  -5   88.31    9.22
  -5   1  -5   84.20    6.77
   4  -5  -5  103.32    8.20
   1   4  -5   94.02    7.09
  -5   1  -5   87.50    8.04
   4  -5  -5   82.57    5.93
  -4   5   5   86.74    7.33
   5  -1   5   95.82    8.70
   2   3  -5    2.84    3.21
   2   3  -5   -2.34    3.11
  -5   2  -5   -3.81    4.07
   3  -5  -5    1.10    3.84
  -3   5   5    5.71    3.55
   5  -2   5    8.01    4.97
   3   2  -5   -1.21    3.18
  -5   3  -5   -1.33    4.18
   3   2  -5    4.99    3.30
   2  -5  -5   -1.50    3.74
  -3  -2   5    0.43    3.42
   5  -3   5    2.26    4.88
  -3  -2   5    8.17    3.79
  -5   4  -5   15.97    4.69
   1  -5  -5   13.49    4.65
   4   1  -5   15.14    4.02
   4   1  -5   10.51    3.90
  -4  -1   5   25.67    4.74
   5  -4   5   20.33    5.57
  -4  -1   5   17.40    4.57
   5   0  -5   31.16    4.88
   5   0  -5   33.57    4.93
   0  -5  -5   26.59    5.41
  -5   5  -5   25.13    5.44
  -5   0   5   32.90    5.51
   0   5   5   27.64    2.97
  -5   0   5   34.45    5.49
  -5   6  -5    8.20    2.77
  -5   6  -5   14.26    5.94
  -5   6  -5    9.93    2.78
  -1  -5  -5   11.44    4.86
  -6   1   5    9.83    4.63
   1   5   5    8.88    3.25
  -6   1   5    9.48    4.48
  -5   7  -5    4.48    2.42
  -5   7  -5    5.97    2.45
  -5   7  -5    3.23    5.69
  -2  -5  -5    8.16    4.87
  -7   2   5    5.63    4.38
  -7   2   5   10.44    4.66
   2   5   5    0.90    3.61
  -3  -5  -5    3.45    4.69
  -5   8  -5   -0.58    1.94
  -5   8  -5    1.42    2.04
  -5   8  -5    5.31    5.94
   8  -3  -5    4.12    3.02
   8  -3  -5    8.43    5.40
   3   5   5    5.76    4.11
  -8   3   5    2.09    4.45
  -8   3   5    3.96    4.54
   9  -4  -5    4.50    5.42
  -5   9  -5    5.70    7.52
   9  -4  -5    1.18    2.79
  -4  -5  -5    5.64    5.20
  -9   4   5    1.57    4.75
   4   5   5   10.99    5.09
  -9   4   5    0.73    4.54
  10  -5  -5   34.54    4.72
  10  -5  -5   31.33    7.10
  -5  10  -5   50.42    9.92
   5   5   5   42.32    6.83
 -10   5   5   36.58    6.79
 -10   5   5   38.46    6.82
  -6  -5  -5   49.78    7.36
  11  -6  -5   41.81    7.94
  -6  -5  -5   37.92    6.91
  11  -6  -5   54.22    5.48
   6   5   5   46.08    7.87
 -11   6   5   51.85    7.80
 -11   6   5   38.67    7.25
  -6  -4  -5    0.02    4.24
  10  -6  -5   -0.29    3.19
  10  -6  -5    5.53    5.35
  -4  10  -5   -7.54    7.92
  -6  -4  -5    0.78    4.32
 -10   6   5   -3.27    4.73
 -10   6   5    8.12    5.27
   6   4   5    7.00    5.61
  -6  -3  -5   10.96    4.67
  -3   9  -5    1.66    7.31
  -6  -3  -5    4.01    4.74
   9  -6  -5   14.45    5.55
   9  -6  -5   16.79    4.20
  -6  -3  -5   13.52    4.96
  -9   6   5    7.47    4.77
  -9   6   5   14.68    5.35
   6   3   5   10.21    6.21
  -2   8  -5    6.30    7.03
  -2   8  -5    0.37    1.71
  -6  -2  -5    6.15    4.10
   8  -6  -5    4.83    4.53
  -6  -2  -5    4.41    4.20
  -6  -2  -5    6.63    4.39
  -2   8  -5   -0.60    1.75
   8  -6  -5    8.62    3.87
  -8   6   5    1.43    4.37
   6   2   5    1.49    5.54
  -8   6   5   15.12    5.01
  -1   7  -5  304.51   13.13
  -1   7  -5  296.96   18.69
  -1   7  -5  305.35   13.30
   7  -6  -5  329.23   16.03
  -6  -1  -5  307.72   15.95
   7  -6  -5  319.76   16.38
   6   1   5  307.69   18.11
   6  -6  -5  105.24    9.24
   0   6  -5  115.39    7.33
   6  -6  -5  127.96    8.93
  -6   0  -5  138.91    9.77
   0   6  -5  116.42   11.41
   0   6  -5  131.49    7.47
  -6   0  -5  131.11    8.65
  -6   6   5  122.31    8.54
   6   0   5  138.65   11.28
   5  -6  -5   10.58    4.40
  -6   1  -5    8.63    3.27
   1   5  -5   15.14    3.37
   1   5  -5   18.20    6.15
   1   5  -5   12.64    3.29
   5  -6  -5   13.63    3.37
  -6   1  -5    9.07    4.26
   6  -1   5   11.16    5.40
  -5   6   5    5.57    3.55
   2   4  -5   42.34    4.83
  -6   2  -5   44.81    5.09
   4  -6  -5   56.28    6.43
   2   4  -5   55.53    5.16
  -6   2  -5   60.24    6.12
  -6   2  -5   55.59    6.95
  -6   2  -5   47.66    5.68
   6  -2   5   56.98    7.42
  -2  -4   5   59.04    5.54
  -2  -4   5   46.01    5.08
  -6   3  -5    9.01    3.41
   3   3  -5   13.80    3.57
   3  -6  -5    6.70    4.59
  -6   3  -5    9.89    3.57
   3   3  -5   10.25    3.78
   6  -3   5   12.24    5.57
  -3  -3   5    5.88    3.85
  -3  -3   5    8.51    3.85
  -6   4  -5    0.75    2.62
  -6   4  -5    3.16    2.88
   4   2  -5    0.14    3.33
   2  -6  -5   -1.90    4.22
   4   2  -5   -6.11    3.24
  -6   4  -5   -1.31    3.71
  -4  -2   5    4.25    3.80
   6  -4   5    5.67    5.14
  -4  -2   5    4.50    3.83
  -6   5  -5   47.12    4.84
  -6   5  -5   48.05    6.33
  -6   5  -5   55.85    5.03
   5   1  -5   48.96    5.78
   1  -6  -5   43.30    6.40
   5   1  -5   46.09    5.58
   6  -5   5   56.32    7.48
  -5  -1   5   48.72    6.17
  -1   6   5   46.51    3.68
  -5  -1   5   42.43    5.83
  -6   6  -5  112.13    6.94
  -6   6  -5  101.06    9.39
  -6   6  -5  120.07    6.94
   0  -6  -5  103.12    9.42
  -6   0   5  114.69    9.26
  -6   0   5  108.42    8.97
   0   6   5  100.59    6.74
  -6   7  -5   29.90    3.83
  -6   7  -5   32.03    6.61
  -1  -6  -5   31.60    6.31
  -6   7  -5   32.16    3.94
  -7   1   5   47.97    6.77
  -7   1   5   29.87    5.91
   1   6   5   42.33    4.53
  -6   8  -5   21.01    3.03
  -6   8  -5   15.94    6.68
  -2  -6  -5   11.78    5.44
  -6   8  -5   19.79    3.04
  -8   2   5   17.83    5.59
   2   6   5   23.04    4.56
  -8   2   5   22.76    5.66
   9  -3  -5   12.04    3.26
  -6   9  -5   16.39    2.63
  -6   9  -5   14.97    2.51
   9  -3  -5   19.38    6.46
  -6   9  -5   21.29    7.78
  -9   3   5   14.32    5.51
  -9   3   5   10.55    5.59
   3   6   5   15.51    4.78
  10  -4  -5   22.67    6.96
  10  -4  -5   20.98    3.81
  -6  10  -5   13.70    7.98
 -10   4   5   10.37    5.49
 -10   4   5   19.08    6.02
   4   6   5   13.77    5.04
  11  -5  -5    4.42    3.37
  11  -5  -5   13.67    6.87
 -11   5   5   10.83    5.94
 -11   5   5    6.48    5.88
   5   6   5    8.94    5.53
  -6  -6  -5    4.43    5.18
  -6  -6  -5   15.12    5.47
  12  -6  -5    8.58    3.64
  12  -6  -5   11.49    7.00
 -12   6   5   10.41    6.15
 -12   6   5   14.48    6.45
   6   6   5    4.14    5.71
  -7  -6  -5   11.01    5.57
  -7  -6  -5   -2.57    5.23
  13  -7  -5   -2.90    6.52
 -13   7   5    9.57    6.63
 -13   7   5    3.64    6.24
   7   6   5   -5.28    5.85
  12  -7  -5    1.24    3.76
  -7  -5  -5    1.40    4.95
  -7  -5  -5    0.02    4.95
  12  -7  -5    9.18    6.74
 -12   7   5   -1.22    5.40
 -12   7   5   -8.13    5.13
   7   5   5   -6.31    5.76
  -7  -4  -5   42.53    7.09
  11  -7  -5   39.14    7.88
  -7  -4  -5   43.33    7.01
  11  -7  -5   45.07    5.56
 -11   7   5   33.79    7.37
   7   4   5   46.24    8.24
 -11   7   5   33.59    7.09
  -7  -3  -5   49.47    7.32
  -3  10  -5   71.59   11.03
  10  -7  -5   43.64    7.22
  10  -7  -5   42.27    5.50
  -7  -3  -5   45.09    6.77
  -7  -3  -5   39.76    6.57
 -10   7   5   40.36    7.07
 -10   7   5   51.01    7.27
   7   3   5   42.08    8.30
   9  -7  -5   19.08    4.63
  -2   9  -5    6.59    7.59
  -7  -2  -5    8.90    4.83
  -7  -2  -5   14.85    5.14
   9  -7  -5    9.35    5.61
  -7  -2  -5   15.85    5.09
  -9   7   5    9.76    5.11
   7   2   5   12.74    6.71
  -9   7   5   23.81    5.84
   8  -7  -5  175.14   10.94
  -7  -1  -5  179.27   10.71
   8  -7  -5  159.35   11.14
  -1   8  -5  154.13    7.87
  -1   8  -5  171.01   14.13
  -7  -1  -5  170.52   11.23
  -1   8  -5  153.30    7.77
  -7  -1  -5  160.09   11.13
  -8   7   5  160.99    9.90
   7   1   5  170.49   13.23
   7  -7  -5   15.95    4.75
   0   7  -5    6.24    2.69
  -7   0  -5   25.65    5.05
  -7   0  -5   15.23    4.70
   7  -7  -5   13.03    4.24
  -7   0  -5   11.51    3.77
   0   7  -5    4.41    6.66
   0   7  -5    7.98    2.73
   7   0   5   14.63    6.42
  -7   7   5    8.10    3.59
  -7   1  -5   42.81    6.00
  -7   1  -5   43.10    6.10
   6  -7  -5   41.63    4.81
  -7   1  -5   32.36    4.68
   1   6  -5   33.27    4.00
   1   6  -5   32.42    4.09
   1   6  -5   36.87    7.72
   6  -7  -5   33.54    5.78
   7  -1   5   47.12    7.73
  -1  -6   5   34.48    4.23
  -1  -6   5   30.15    4.13
   5  -7  -5    6.43    4.63
  -7   2  -5    0.80    2.59
   2   5  -5    1.11    3.02
  -7   2  -5    6.97    4.01
   2   5  -5    5.37    3.27
   5  -7  -5    5.45    2.79
   2   5  -5   -6.92    5.41
  -7   2  -5    6.27    4.15
  -2  -5   5    4.40    3.41
  -2  -5   5    8.61    3.49
   7  -2   5    6.78    5.79
   3   4  -5    8.47    5.96
  -7   3  -5    8.82    3.63
   3   4  -5    8.13    3.61
   4  -7  -5    7.32    4.72
  -7   3  -5   10.68    3.76
   3   4  -5    3.66    3.54
  -3  -4   5    2.74    3.63
  -4   7   5    7.85    2.48
   7  -3   5   13.48    5.77
  -3  -4   5    6.66    3.73
  -7   4  -5    9.84    3.54
   4   3  -5    1.00    3.40
  -7   4  -5    9.03    3.49
   3  -7  -5    7.35    4.85
  -7   4  -5    4.56    3.94
   4   3  -5    7.00    3.71
   7  -4   5    4.83    5.52
  -4  -3   5    5.78    4.02
  -4  -3   5    4.45    4.11
  -7   5  -5   19.62    3.76
   2  -7  -5   14.58    5.14
  -7   5  -5   24.19    3.91
  -7   5  -5   19.19    4.69
  -5  -2   5   14.64    4.73
   7  -5   5   18.64    6.61
  -5  -2   5   12.98    4.67
  -2   7   5   19.08    2.35
  -7   6  -5  301.32   16.71
  -7   6  -5  304.69   14.44
  -7   6  -5  312.28   14.32
   1  -7  -5  313.66   17.16
  -6  -1   5  332.07   16.09
  -6  -1   5  310.11   16.25
   7  -6   5  299.17   18.38
  -7   7  -5    1.35    2.62
  -7   7  -5    9.45    3.00
  -7   7  -5   11.90    5.34
  -7   0   5   13.87    4.95
  -7   0   5   15.73    5.15
  -7   8  -5   -3.40    2.50
  -7   8  -5   -2.53    2.38
  -7   8  -5   -3.50    5.71
  -8   1   5    1.45    4.62
  -8   1   5    2.42    4.58
  -7   9  -5   19.10    7.67
  -7   9  -5   10.82    2.84
  -7   9  -5   14.69    2.90
  -9   2   5   31.33    6.07
  -9   2   5   15.94    5.49
  -7  10  -5  126.24    6.71
  -7  10  -5  135.65    6.61
  10  -3  -5  136.65    7.95
  10  -3  -5  135.72   12.47
 -10   3   5  131.68   11.04
 -10   3   5  141.18   11.46
   3   7   5  139.60   10.84
  11  -4  -5   49.46    5.05
  11  -4  -5   36.33    8.30
 -11   4   5   40.00    7.23
   4   7   5   38.52    6.73
 -11   4   5   41.72    7.46
  -5  -7  -5    8.98    5.24
  12  -5  -5    6.60    3.39
  -5  -7  -5   11.16    5.39
  12  -5  -5    1.02    6.91
   5   7   5   13.23    6.14
 -12   5   5    8.43    6.16
 -12   5   5    1.97    5.82
  -6  -7  -5   44.91    7.77
  13  -6  -5   30.96    8.65
  13  -6  -5   34.00    4.56
  -6  -7  -5   45.49    7.59
   6   7   5   40.90    7.81
 -13   6   5   44.55    8.48
 -13   6   5   28.55    7.83
  -7  -7  -5   14.30    6.01
  -7  -7  -5   -1.40    5.44
  14  -7  -5   -2.31    7.17
 -14   7   5   -4.83    6.34
 -14   7   5    6.84    6.87
   7   7   5   -0.11    5.91
  -8  -7  -5    6.07    6.08
  15  -8  -5   -0.13    8.87
  -8  -7  -5    5.38    6.33
 -15   8   5   15.37    7.63
   8   7   5    0.78    6.76
 -15   8   5    1.52    6.77
  -8  -6  -5   12.82    6.35
  -8  -6  -5   22.25    6.81
  14  -8  -5   10.53    8.34
 -14   8   5   -5.03    6.41
 -14   8   5   -1.94    6.15
   8   6   5    8.48    6.99
  -8  -5  -5    4.66    5.48
  13  -8  -5    0.55    7.89
  -8  -5  -5    5.45    5.49
 -13   8   5    8.55    6.59
 -13   8   5   14.15    6.75
   8   5   5   -3.00    6.62
  -8  -3  -5   -3.23    4.65
  11  -8  -5    2.31    6.24
  -8  -3  -5   -5.28    4.19
   8   3   5  -10.03    6.31
 -11   8   5    6.01    5.40
 -11   8   5    6.22    5.68
  -2  10  -5   14.59    8.78
  10  -8  -5   10.00    5.74
  -8  -2  -5    3.94    4.69
  -8  -2  -5   14.14    5.09
  -8  -2  -5    6.66    4.73
 -10   8   5    9.99    5.39
   8   2   5    5.24    7.03
 -10   8   5   11.57    5.58
  -1   9  -5   26.12    2.61
  -8  -1  -5   29.97    5.79
  -1   9  -5   32.71    9.02
  -8  -1  -5   19.85    4.92
  -1   9  -5   23.74    2.59
   9  -8  -5   23.08    5.68
  -8  -1  -5   21.08    5.56
   9  -8  -5   25.55    5.72
   8   1   5   46.63    8.36
   8  -8  -5   58.53    7.04
  -8   0  -5   40.01    5.50
   8  -8  -5   51.51    6.26
   0   8  -5   36.09    3.85
  -8   0  -5   48.58    6.76
   0   8  -5   52.25    9.34
   0   8  -5   47.17    4.00
  -8   0  -5   52.03    6.97
   8   0   5   52.98    9.08
  -8   1  -5   -1.12    3.97
   1   7  -5    0.62    6.38
  -8   1  -5   -2.47    3.90
   1   7  -5   -1.65    2.61
  -8   1  -5    4.04    3.24
   7  -8  -5   -0.50    3.74
   7  -8  -5   -4.67    4.30
   1   7  -5   -0.81    2.69
  -1  -7   5    3.81    2.77
  -7   8   5   -2.54    3.59
   8  -1   5    2.58    6.25
  -1  -7   5   -0.18    2.46
   6  -8  -5   19.71    5.54
   2   6  -5   18.07    7.18
   6  -8  -5   20.41    3.77
  -8   2  -5   21.25    4.90
   2   6  -5   17.48    3.69
  -8   2  -5   15.01    4.61
  -8   2  -5   21.57    3.82
   2   6  -5   13.30    3.61
   8  -2   5   26.98    7.04
  -2  -6   5   17.25    3.60
  -2  -6   5   11.94    3.53
  -6   8   5   13.71    3.68
  -8   3  -5    4.59    3.88
  -8   3  -5    0.85    3.82
   5  -8  -5   -0.07    4.56
   3   5  -5    3.89    5.96
   3   5  -5    5.30    3.19
   3   5  -5    0.42    3.08
  -8   3  -5    3.49    2.90
  -3  -5   5    5.70    3.71
   8  -3   5    7.23    5.89
  -3  -5   5    7.13    3.76
  -5   8   5   -0.64    2.58
  -8   4  -5    9.59    3.84
   4   4  -5   10.26    3.70
   4   4  -5   19.45    6.39
   4   4  -5    9.10    3.71
  -8   4  -5    3.81    3.47
  -8   4  -5   10.21    3.98
  -4  -4   5   15.60    4.23
  -4  -4   5    9.16    4.05
  -4   8   5    9.22    2.70
   8  -4   5    5.78    5.95
  -8   5  -5    5.14    3.22
  -8   5  -5    2.48    3.07
   5   3  -5   -4.61    5.40
  -8   5  -5    2.44    3.94
   8  -5   5    7.51    6.22
  -5  -3   5    6.84    4.39
  -3   8   5    3.44    2.18
  -5  -3   5    0.93    4.02
  -8   6  -5    2.29    2.96
  -8   6  -5   11.00    3.45
  -8   6  -5   16.88    4.82
  -6  -2   5   10.61    4.67
   8  -6   5   13.46    6.50
  -6  -2   5    7.10    4.54
  -2   8   5    7.33    2.44
  -8   7  -5  156.57   11.37
  -8   7  -5  180.07    9.58
  -8   7  -5  171.48    9.32
   8  -7   5  197.39   14.10
  -7  -1   5  165.57   11.37
  -7  -1   5  142.51   10.93
  -8   8  -5   45.05    7.14
  -8   8  -5   38.75    4.38
  -8   8  -5   48.10    4.67
  -8   0   5   34.91    6.64
  -8   0   5   27.10    6.31
  -8   9  -5   30.96    4.03
  -8   9  -5   34.54    4.02
  -8   9  -5   42.51    7.71
  -9   1   5   36.03    6.71
  -9   1   5   32.75    6.57
  -8  10  -5   69.53    5.21
  -8  10  -5   73.66    5.39
 -10   2   5   75.71    8.83
 -10   2   5   70.31    8.58
  -8  11  -5    3.00    2.06
  11  -3  -5   -0.27    2.60
  -8  11  -5    1.38    2.04
  11  -3  -5    1.79    6.71
 -11   3   5    5.08    5.60
 -11   3   5   -0.20    5.40
  12  -4  -5   -2.48    7.16
  12  -4  -5   -1.78    2.68
 -12   4   5    9.87    6.00
 -12   4   5   -0.64    5.99
  -5  -8  -5    2.23    5.29
  -5  -8  -5   -0.23    5.25
  13  -5  -5   -4.85    2.79
  13  -5  -5    2.59    7.57
 -13   5   5    9.58    6.41
   5   8   5    2.39    5.94
 -13   5   5   -3.97    6.00
  -6  -8  -5   11.82    5.80
  -6  -8  -5    2.87    5.59
  14  -6  -5    5.81    8.17
 -14   6   5    3.99    6.53
 -14   6   5   12.39    7.20
   6   8   5    3.41    6.32
  -7  -8  -5   -1.02    5.62
  -7  -8  -5    5.16    5.96
  15  -7  -5   11.08    8.19
   7   8   5   -7.67    6.22
 -15   7   5    2.56    6.81
 -15   7   5   -2.33    6.72
  -8  -8  -5   29.19    7.74
  -8  -8  -5   30.91    8.05
  16  -8  -5   22.88    8.59
   8   8   5   24.60    8.05
 -16   8   5   17.94    8.26
 -16   8   5   27.98    8.52
  17  -9  -5   19.41   10.80
  -9  -8  -5   34.31    8.47
  -9  -8  -5   38.70    8.74
 -17   9   5   32.39    9.45
   9   8   5   34.32    9.50
 -17   9   5   46.97    9.64
  -9  -7  -5   16.53    6.96
  -9  -7  -5   -4.84    6.36
  16  -9  -5    0.28    9.47
   9   7   5    0.71    7.30
 -16   9   5    3.80    7.45
 -16   9   5    6.97    7.11
  -9  -6  -5   13.18    6.60
  15  -9  -5    3.66    8.48
  -9  -6  -5    7.67    6.25
 -15   9   5    2.07    6.41
   9   6   5   -3.00    7.01
 -15   9   5    2.81    6.63
  -9  -5  -5   33.66    7.69
  14  -9  -5   26.21    8.01
  -9  -5  -5   27.02    7.28
 -14   9   5   25.01    7.57
   9   5   5   28.49    8.53
 -14   9   5   24.87    7.94
  -9  -4  -5  114.29   11.12
  -9  -4  -5  107.98   10.88
  13  -9  -5   79.27   10.29
   9   4   5  103.33   12.28
 -13   9   5  102.00   10.89
 -13   9   5  105.24   10.65
  12  -9  -5   13.86    7.23
  -9  -3  -5   15.62    5.99
  -9  -3  -5    9.63    5.71
   9   3   5   28.99    8.48
 -12   9   5   20.50    6.31
 -12   9   5   10.41    6.26
  -9  -2  -5   15.77    5.82
  -9  -2  -5   24.06    6.27
  11  -9  -5   14.92    6.71
 -11   9   5   25.72    6.37
   9   2   5   12.84    7.73
 -11   9   5   15.46    6.04
  10  -9  -5  112.55   10.23
  -9  -1  -5   97.00    9.92
  -1  10  -5  153.32   14.68
  -9  -1  -5  119.54   10.58
  -9  -1  -5  111.53    9.62
   9   1   5  132.31   12.88
  -9   0  -5    6.81    4.82
   0   9  -5    1.48    2.29
   0   9  -5    7.06    7.97
  -9   0  -5    8.08    4.90
   0   9  -5    4.58    2.40
   9  -9  -5    0.73    4.53
  -9   0  -5    7.96    3.98
   9   0   5    4.81    7.33
  -9   9   5    5.06    4.83
   1   8  -5   30.65    3.96
  -9   1  -5   26.13    5.79
  -9   1  -5   31.13    6.11
  -9   1  -5   34.47    5.06
   1   8  -5   34.63    4.05
   1   8  -5   36.31    8.45
   8  -9  -5   37.79    5.77
  -1  -8   5   34.05    4.12
  -8   9   5   29.74    5.57
   9  -1   5   36.94    8.72
  -1  -8   5   38.20    4.12
   2   7  -5   11.26    3.63
   2   7  -5   25.66    4.02
   7  -9  -5   21.90    4.49
  -9   2  -5   23.72    5.51
  -9   2  -5   22.78    5.60
   2   7  -5   16.09    7.23
  -9   2  -5   17.27    3.69
  -2  -7   5   11.54    3.56
   9  -2   5   16.36    7.41
  -7   9   5   19.23    4.33
  -2  -7   5   12.98    3.67
  -9   3  -5   20.84    5.35
  -9   3  -5   16.78    4.30
   3   6  -5   27.66    7.85
   3   6  -5   17.94    4.12
   3   6  -5    9.90    3.74
  -9   3  -5   16.37    5.13
  -9   3  -5   13.39    3.53
   9  -3   5   18.51    7.44
  -3  -6   5    7.19    3.86
  -3  -6   5   15.61    4.07
  -6   9   5   28.51    4.08
   4   5  -5    1.67    3.64
   4   5  -5   12.22    3.90
   4   5  -5    4.91    6.09
  -9   4  -5    3.19    3.70
  -9   4  -5    5.46    3.80
  -9   4  -5    4.44    3.93
  -5   9   5    3.99    2.94
  -4  -5   5    8.25    4.22
   9  -4   5    0.03    6.37
  -4  -5   5    1.38    3.74
  -9   5  -5   19.70    4.51
  -9   5  -5   41.47    5.24
  -9   5  -5   25.31    4.57
   5   4  -5   27.82    7.08
   9  -5   5   29.12    7.76
  -5  -4   5   22.62    5.33
  -5  -4   5   25.66    5.51
  -9   6  -5   30.13    5.10
   6   3  -5    4.33    5.99
   9  -6   5   23.94    7.36
  -6  -3   5   10.85    4.78
  -6  -3   5   14.71    5.13
  -3   9   5   14.25    3.10
  -9   7  -5   14.96    3.85
  -9   7  -5   18.09    3.95
  -9   7  -5   16.77    5.50
  -2   9   5   21.34    3.48
   9  -7   5   23.89    7.55
  -7  -2   5   12.07    5.18
  -7  -2   5   12.30    5.23
  -9   8  -5   20.46    4.00
  -9   8  -5   22.62    4.13
  -9   8  -5   19.97    6.27
  -8  -1   5   31.86    6.28
   9  -8   5   34.40    8.08
  -8  -1   5   30.24    6.35
  -9   9  -5    0.04    2.99
  -9   9  -5    4.92    3.05
  -9   0   5   -0.41    5.21
  -9   0   5    7.04    5.33
  -9  10  -5   31.42    3.84
  -9  10  -5   31.03    3.95
 -10   1   5   25.99    6.72
 -10   1   5   20.75    6.46
  -9  11  -5   18.42    3.28
  11  -2  -5   26.15    8.47
  -9  11  -5   26.66    3.50
 -11   2   5   20.74    6.55
 -11   2   5   19.65    6.51
  -9  12  -5   -0.35    2.15
  12  -3  -5    0.19    2.49
  -9  12  -5   -3.92    2.08
  12  -3  -5    3.37    7.54
 -12   3   5    4.15    6.35
 -12   3   5   -5.88    5.42
  13  -4  -5    1.64    2.82
  13  -4  -5   11.24    8.50
 -13   4   5   -1.79    6.07
 -13   4   5   -4.62    5.91
  14  -5  -5   -3.96    7.70
  -5  -9  -5    5.79    5.54
  14  -5  -5    5.04    3.04
  -5  -9  -5    9.86    5.64
 -14   5   5    2.00    6.49
 -14   5   5   -4.07    6.49
  -6  -9  -5   -3.78    5.10
  -6  -9  -5    9.40    6.06
  15  -6  -5    1.01    8.12
 -15   6   5   -4.19    6.37
 -15   6   5   -0.13    6.78
   6   9   5    0.17    6.61
  -7  -9  -5   16.35    6.97
  16  -7  -5    8.89    8.65
  -7  -9  -5    9.74    6.42
 -16   7   5   20.85    8.66
 -16   7   5    9.12    7.36
   7   9   5   13.47    7.47
  -8  -9  -5   -0.32    6.33
  -8  -9  -5   -5.81    6.07
  17  -8  -5    8.34    9.98
   8   9   5    0.49    6.85
 -17   8   5    1.89    7.52
 -17   8   5   -1.51    7.54
  -9  -9  -5   20.32    7.54
  18  -9  -5   18.07   11.24
  -9  -9  -5   18.37    7.45
 -18   9   5   10.24    8.30
 -18   9   5   15.75    8.90
   9   9   5   10.59    8.00
 -10  -8  -5   -2.08    6.19
  18 -10  -5   -1.64    9.87
 -10  -8  -5   -1.64    6.35
  10   8   5    9.71    8.66
 -18  10   5    3.83    7.40
 -18  10   5  -16.64    6.97
 -10  -7  -5   14.42    7.02
 -10  -7  -5    8.72    7.10
  17 -10  -5   10.52   10.39
  10   7   5    8.15    8.72
 -17  10   5   10.59    7.84
 -17  10   5    3.60    6.87
  16 -10  -5    5.76    9.05
 -10  -6  -5   -3.98    6.17
 -10  -6  -5    4.55    6.26
 -16  10   5   -0.64    6.65
 -16  10   5    0.58    7.22
  10   6   5    3.69    8.14
 -10  -5  -5   41.35    8.12
 -10  -5  -5   54.87    9.04
  15 -10  -5   25.42    8.06
  10   5   5   43.70   10.06
 -15  10   5   42.66    9.11
 -15  10   5   40.24    8.63
 -10  -4  -5   12.31    6.46
  14 -10  -5   23.11    8.69
 -10  -4  -5   15.68    6.45
  10   4   5   23.51    8.91
 -14  10   5   22.18    7.25
 -14  10   5   27.33    7.91
 -10  -3  -5    7.38    5.82
  13 -10  -5   12.87    7.73
 -10  -3  -5   20.10    6.62
 -13  10   5    9.40    6.32
 -13  10   5   16.11    6.84
  10   3   5   24.78    8.78
 -10  -2  -5   -0.03    5.47
  12 -10  -5   -1.96    6.65
 -10  -2  -5   -8.69    4.83
 -12  10   5   -3.47    5.64
  10   2   5   -0.22    7.47
 -12  10   5   14.18    6.25
 -10  -1  -5    5.93    5.40
  11 -10  -5   -5.85    5.63
 -10  -1  -5    3.92    5.07
  10   1   5   -3.15    7.09
   0  10  -5   79.93    5.69
   0  10  -5   90.62    5.64
 -10   0  -5   78.04    7.97
   0  10  -5   97.91   12.80
  10 -10  -5   93.08    8.93
 -10   0  -5   75.32    9.05
 -10   0  -5   87.70    9.19
  10   0   5   97.62   11.97
 -10   1  -5   21.11    4.74
 -10   1  -5   22.19    6.10
 -10   1  -5   29.21    6.15
   1   9  -5   26.80    3.68
   9 -10  -5   32.77    5.98
   1   9  -5   27.04    3.73
   1   9  -5   27.72    9.16
  -9  10   5   23.21    5.38
  -1  -9   5   21.78    3.66
  10  -1   5   15.98    8.34
  -1  -9   5   29.73    3.86
   8 -10  -5   82.15    7.43
 -10   2  -5   75.65    7.04
   2   8  -5   75.87    6.12
 -10   2  -5   86.92    8.76
   2   8  -5   87.78   10.96
   2   8  -5   88.79    6.57
 -10   2  -5   67.47    8.11
  10  -2   5   72.74   10.90
  -2  -8   5   75.04    6.20
  -2  -8   5   80.21    6.40
  -8  10   5   72.96    7.22
   3   7  -5  118.32    8.62
 -10   3  -5  127.01   10.26
 -10   3  -5  134.25    8.45
 -10   3  -5  128.57   10.02
   3   7  -5  117.24    9.03
 -10   3  -5  125.45    8.42
   3   7  -5  138.37   13.00
  10  -3   5  152.67   13.64
  -3  -7   5  135.41    9.14
  -7  10   5  182.91    9.98
  -3  -7   5  128.66    8.87
   4   6  -5   30.40    4.88
   4   6  -5   16.87    4.38
 -10   4  -5   19.02    3.78
 -10   4  -5   19.08    5.39
   4   6  -5   10.33    6.92
 -10   4  -5   19.23    4.39
 -10   4  -5   18.36    5.18
  -4  -6   5   15.67    4.39
  -6  10   5   28.97    4.25
  -4  -6   5   15.13    4.46
  10  -4   5   26.07    8.11
   5   5  -5   32.63    7.78
 -10   5  -5   36.95    5.10
 -10   5  -5   25.40    5.14
 -10   5  -5   26.43    4.85
  -5  -5   5   41.12    5.88
  -5  -5   5   29.26    5.57
  -5  10   5   31.34    4.46
  10  -5   5   42.24    8.62
 -10   6  -5    4.65    3.52
 -10   6  -5    7.99    3.75
 -10   6  -5    7.02    4.52
   6   4  -5   -1.76    5.96
  10  -6   5   -4.28    6.25
  -6  -4   5   -2.01    4.46
  -4  10   5   -0.16    2.92
  -6  -4   5   -0.40    4.34
   7   3  -5   39.19    7.81
 -10   7  -5   46.07    6.40
 -10   7  -5   51.41    5.86
 -10   7  -5   51.71    5.76
  -7  -3   5   41.35    6.77
  -7  -3   5   38.82    6.43
  10  -7   5   49.03    9.03
   8   2  -5    2.46    6.02
 -10   8  -5    6.32    3.62
 -10   8  -5    6.14    3.46
  -8  -2   5    7.10    5.12
  -8  -2   5    4.87    5.26
  10  -8   5   19.81    8.01
 -10   9  -5  110.51    8.28
 -10   9  -5  118.34    8.05
  -9  -1   5  110.44   10.43
  10  -9   5  126.26   12.90
  -9  -1   5  113.30   10.33
 -10  10  -5   86.86    6.45
 -10  10  -5   76.67    6.32
 -10   0   5   77.31    8.95
 -10   0   5   51.52    8.36
 -10  11  -5    1.78    3.06
 -10  11  -5    1.68    2.95
 -11   1   5    0.44    5.71
 -11   1   5    2.42    5.75
 -10  12  -5   39.35    4.36
  12  -2  -5   43.93    9.96
 -10  12  -5   36.95    4.25
 -12   2   5   24.50    7.47
 -12   2   5   35.55    8.06
 -10  13  -5   14.18    2.76
  13  -3  -5    7.63    8.25
 -10  13  -5   18.20    2.79
  13  -3  -5    4.66    2.84
 -13   3   5    3.02    6.59
 -13   3   5   16.36    6.95
  -4 -10  -5    7.02    5.47
  -4 -10  -5    8.18    5.83
  14  -4  -5    4.79    8.85
 -14   4   5    0.43    6.49
 -14   4   5   13.37    7.37
  -5 -10  -5   -5.11    5.25
  15  -5  -5    0.83    8.10
  -5 -10  -5    2.87    5.69
 -15   5   5    1.75    6.69
 -15   5   5   -3.19    6.64
  -6 -10  -5   30.54    7.71
  -6 -10  -5   27.78    7.56
  16  -6  -5   24.92   10.32
 -16   6   5   24.26    8.39
 -16   6   5   34.27    8.84
  -7 -10  -5   -4.07    5.89
  17  -7  -5   -0.29    8.64
  -7 -10  -5   -0.68    6.36
 -17   7   5   -5.07    7.27
 -17   7   5    2.44    7.25
   7  10   5   -0.35    6.80
  -8 -10  -5    4.87    6.94
  -8 -10  -5   19.70    7.44
  18  -8  -5   -8.09   10.27
   8  10   5   11.10    8.16
 -18   8   5   19.67    8.79
 -18   8   5    6.13    8.00
 -11  -7  -5   -2.02    6.36
 -11  -7  -5    0.01    6.49
  18 -11  -5   -0.56    9.46
 -18  11   5    9.67    7.90
 -18  11   5  -12.52    7.21
  11   7   5   10.87    9.26
 -11  -6  -5   14.50    7.54
  17 -11  -5   11.56    9.82
 -11  -6  -5   24.62    7.52
 -17  11   5    3.15    7.27
 -17  11   5    9.90    7.93
  11   6   5   14.15    9.46
 -11  -5  -5    7.37    6.80
  16 -11  -5   -0.14    8.56
 -11  -5  -5    0.91    6.21
 -16  11   5    8.95    7.03
 -16  11   5   13.34    7.53
  11   5   5    7.20    8.51
  15 -11  -5    9.49    8.29
 -11  -4  -5   -2.17    5.67
 -11  -4  -5    0.31    6.00
  11   4   5    2.19    8.29
 -15  11   5    0.89    6.32
 -15  11   5   11.79    7.36
  14 -11  -5   22.69    7.80
 -11  -3  -5   37.73    7.99
 -11  -3  -5   26.98    7.19
 -14  11   5   22.66    7.56
 -14  11   5   16.39    7.26
  11   3   5   34.94   10.32
 -11  -2  -5    8.99    5.93
 -11  -2  -5    9.88    6.16
  13 -11  -5    5.78    7.29
  11   2   5    2.30    8.47
 -11  -1  -5    6.74    6.03
  12 -11  -5   -2.73    6.09
 -11  -1  -5   -5.04    4.92
  11   1   5   -8.45    7.65
 -11   0  -5    8.68    4.97
  11 -11  -5   15.07    6.49
 -11   0  -5    9.36    5.86
 -11   0  -5   16.29    6.05
  11   0   5   11.07    8.20
 -11   1  -5   -0.87    4.76
   1  10  -5    3.17    2.87
 -11   1  -5    4.16    5.41
  10 -11  -5    4.32    5.38
 -11   1  -5   -0.33    4.10
   1  10  -5    2.88    2.93
   1  10  -5   -4.02    8.70
  -1 -10   5   -0.82    2.59
  11  -1   5    7.06    8.04
  -1 -10   5   -1.30    2.73
 -11   2  -5   24.47    6.38
   2   9  -5   24.90    4.06
 -11   2  -5   19.18    5.83
   9 -11  -5   19.79    5.61
 -11   2  -5   24.00    4.88
 -11   2  -5   25.56    3.54
   2   9  -5   12.73    8.91
   2   9  -5   15.95    3.78
  -2  -9   5   17.48    3.87
  -2  -9   5   13.66    3.68
  -9  11   5   14.89    5.15
  11  -2   5   24.83    9.14
 -11   3  -5    3.46    3.29
   3   8  -5    3.43    3.21
 -11   3  -5    3.43    5.07
 -11   3  -5    1.56    4.65
   3   8  -5   -2.22    3.33
 -11   3  -5   -0.57    3.21
   3   8  -5    0.59    7.57
  -3  -8   5    0.60    3.61
  -8  11   5    1.32    3.89
  11  -3   5   -6.82    6.91
  -3  -8   5    2.66    3.47
 -11   4  -5   36.46    6.49
   4   7  -5   37.34    5.52
 -11   4  -5   35.53    4.88
 -11   4  -5   37.08    6.49
   4   7  -5   41.94    5.69
   4   7  -5   41.47    9.33
 -11   4  -5   56.66    5.28
  -4  -7   5   36.39    5.77
  -7  11   5   43.81    5.61
  11  -4   5   53.90    9.99
  -4  -7   5   40.95    5.73
 -11   5  -5    2.12    4.48
 -11   5  -5   18.05    5.23
 -11   5  -5    6.32    3.33
   5   6  -5    5.14    6.89
  -6  11   5    9.81    3.92
  11  -5   5   13.12    7.83
  -5  -6   5   11.30    4.47
  -5  -6   5    4.70    4.38
 -11   6  -5   30.78    5.79
 -11   6  -5   43.19    6.11
   6   5  -5   45.71    8.76
  11  -6   5   49.56    9.55
  -6  -5   5   41.15    6.58
  -5  11   5   49.24    5.20
  -6  -5   5   54.94    7.01
   7   4  -5   60.52    8.96
 -11   7  -5   39.25    5.82
 -11   7  -5   45.42    5.99
  -7  -4   5   45.41    6.89
  -4  11   5   40.89    5.03
  11  -7   5   53.68    9.95
  -7  -4   5   36.11    6.52
   8   3  -5    0.54    5.88
 -11   8  -5    0.53    3.65
 -11   8  -5    1.72    3.71
  -8  -3   5    6.37    5.43
  -3  11   5   -4.23    3.16
  -8  -3   5    0.80    4.97
  11  -8   5   -6.93    7.03
 -11   9  -5   29.42    4.82
 -11   9  -5   19.78    4.60
   9   2  -5   17.95    6.89
  11  -9   5   13.45    8.22
  -9  -2   5   20.35    6.13
  -9  -2   5   13.93    6.28
 -11  10  -5    0.16    3.14
  10   1  -5    3.63    6.12
 -11  10  -5    1.41    3.35
 -10  -1   5   -1.20    5.52
  11 -10   5   10.05    7.96
 -10  -1   5    0.89    5.71
 -11  11  -5    8.23    3.99
 -11  11  -5    9.98    3.86
 -11   0   5    1.97    5.90
 -11   0   5   11.85    6.49
  12  -1  -5   -1.04    8.25
 -11  12  -5    2.19    3.39
 -11  12  -5    7.24    3.45
 -12   1   5    6.61    6.29
 -12   1   5   -5.97    5.86
 -11  13  -5   33.15    4.37
 -11  13  -5   42.92    4.61
  13  -2  -5   37.63   10.48
  13  -2  -5   41.63    4.34
 -13   2   5   35.14    7.99
 -13   2   5   24.62    8.04
  14  -3  -5   46.98   11.02
 -14   3   5   46.17    9.13
 -14   3   5   37.81    8.44
  -4 -11  -5   32.60    7.18
  15  -4  -5   29.49   10.69
  -4 -11  -5   23.77    6.89
 -15   4   5   21.39    8.55
 -15   4   5   15.65    7.70
  -5 -11  -5   43.58    8.10
  16  -5  -5   35.98   10.68
  -5 -11  -5   52.32    8.73
 -16   5   5   37.34    9.22
 -16   5   5   44.36    9.43
  -6 -11  -5   -4.03    5.83
  17  -6  -5    1.45    9.06
  -6 -11  -5    1.49    6.10
 -17   6   5   10.74    7.99
 -17   6   5    3.58    8.07
  -7 -11  -5   -1.40    6.40
  18  -7  -5    2.64    9.65
  -7 -11  -5    4.67    6.62
 -18   7   5   24.28    8.98
 -18   7   5    5.89    8.44
   7  11   5   14.43    8.11
 -12  -6  -5    4.56    7.08
  18 -12  -5   -1.17    9.72
 -12  -6  -5   22.02    7.99
 -18  12   5    6.91    7.57
  12   6   5    0.20    8.92
 -18  12   5    2.92    7.76
 -12  -5  -5   24.70    7.62
  17 -12  -5   27.01    8.61
 -12  -5  -5   28.80    8.18
  12   5   5   38.97   10.77
 -17  12   5   14.90    8.35
 -17  12   5   28.43    8.32
 -12  -4  -5   -5.83    5.94
 -12  -4  -5   -6.35    5.76
  16 -12  -5    2.55    8.75
 -16  12   5    8.70    6.94
  12   4   5    1.53    9.30
 -16  12   5    5.50    7.36
 -12  -3  -5   11.10    6.34
 -12  -3  -5    0.88    6.24
  15 -12  -5   -1.63    8.13
  12   3   5   16.09    9.28
 -15  12   5    0.45    6.83
 -15  12   5    7.02    6.97
 -12  -2  -5   46.78    8.38
 -12  -2  -5   45.94    8.50
  14 -12  -5   40.40    8.33
  12   2   5   51.38   11.65
 -12  -1  -5   -3.41    5.20
  13 -12  -5    5.65    7.14
 -12  -1  -5   11.58    6.35
  12   1   5   -1.78    8.46
  12 -12  -5   -1.29    6.30
 -12   0  -5    1.21    5.51
 -12   0  -5    4.75    5.99
  12   0   5  -14.56    7.67
 -12   1  -5    1.66    5.60
 -12   1  -5   -8.48    4.36
 -12   1  -5   -4.94    5.00
  11 -12  -5    2.04    6.03
  -1 -11   5    3.97    3.04
  -1 -11   5    1.59    2.94
  12  -1   5    8.64    8.67
   2  10  -5   30.36    4.43
   2  10  -5   29.67    4.49
 -12   2  -5   43.74    6.20
 -12   2  -5   52.15    7.84
   2  10  -5   49.10   10.87
  10 -12  -5   49.20    7.52
 -12   2  -5   40.25    7.47
  12  -2   5   47.69   10.53
  -2 -10   5   39.62    4.96
  -2 -10   5   25.65    4.57
 -12   3  -5   -2.95    4.94
   3   9  -5    7.65    8.72
 -12   3  -5    3.78    5.47
   3   9  -5   -3.77    3.38
   3   9  -5    2.38    3.48
 -12   3  -5    3.23    3.77
  -3  -9   5    0.19    3.70
  -3  -9   5   -5.89    3.57
  -9  12   5   -0.42    4.37
  12  -3   5  -10.44    7.26
 -12   4  -5    1.04    5.34
 -12   4  -5   -3.66    3.22
 -12   4  -5    5.74    5.23
   4   8  -5    4.89    8.04
  -8  12   5   -0.51    4.03
  12  -4   5    2.24    7.70
  -4  -8   5    2.20    4.09
  -4  -8   5    2.82    4.10
 -12   5  -5   14.02    5.49
 -12   5  -5    4.49    3.48
   5   7  -5   31.39    8.36
 -12   5  -5   11.26    5.67
  -7  12   5    3.52    3.96
  12  -5   5   11.84    8.74
  -5  -7   5    3.79    4.62
  -5  -7   5   18.00    4.88
 -12   6  -5   15.76    5.48
 -12   6  -5   15.52    5.16
 -12   6  -5    8.41    3.58
   6   6  -5   11.95    7.31
  -6  -6   5    5.65    4.91
  12  -6   5   12.37    8.31
  -6  12   5    7.08    3.95
  -6  -6   5   16.51    5.28
 -12   7  -5    9.25    4.78
   7   5  -5   -1.73    6.59
 -12   7  -5    2.66    4.35
  -5  12   5    3.32    3.49
  -7  -5   5    1.69    5.09
  -7  -5   5  -10.10    4.89
  12  -7   5    2.79    7.99
 -12   8  -5   31.87    5.95
 -12   8  -5   22.29    5.47
   8   4  -5   31.91    7.92
  -8  -4   5   16.36    6.08
  -4  12   5   48.64    5.50
  12  -8   5   31.84    9.30
  -8  -4   5   21.14    6.48
 -12   9  -5    8.28    4.44
 -12   9  -5   14.98    4.58
   9   3  -5   12.80    6.99
  -3  12   5   17.31    4.54
  -9  -3   5   16.53    6.43
  12  -9   5   20.08    9.18
  -9  -3   5   13.82    6.18
 -12  10  -5    2.66    4.05
  10   2  -5   10.59    6.54
 -12  10  -5   -0.95    3.55
 -10  -2   5    3.78    6.17
  12 -10   5   -1.12    8.37
 -10  -2   5    3.95    5.80
 -12  11  -5    2.17    4.01
 -12  11  -5    9.15    4.06
  11   1  -5    5.23    6.25
 -11  -1   5   -0.55    6.21
 -11  -1   5    1.69    6.49
  12 -11   5    0.17    7.99
 -12  12  -5    1.76    3.86
  12   0  -5    7.68    6.39
 -12  12  -5    1.50    3.83
 -12   0   5    1.32    6.67
 -12   0   5   15.84    6.79
  13  -1  -5   20.78    9.73
 -12  13  -5   24.94    4.62
 -12  13  -5   29.30    4.70
 -13   1   5   35.03    8.49
 -13   1   5   40.34    8.28
 -12  14  -5   11.30    3.74
 -12  14  -5    7.77    3.75
  14  -2  -5   16.54    9.40
 -14   2   5    3.89    7.11
 -14   2   5   -0.50    6.40
  15  -3  -5   10.17   10.03
  -3 -12  -5   -3.00    5.54
  -3 -12  -5   -5.88    5.62
 -15   3   5    7.93    7.48
 -15   3   5   -1.44    6.68
  -4 -12  -5   -3.53    5.70
  -4 -12  -5   -7.63    4.85
  16  -4  -5   -7.34    9.45
 -16   4   5    0.56    7.13
 -16   4   5   -4.22    7.26
  17  -5  -5   33.92   11.77
  -5 -12  -5   52.20    9.14
  -5 -12  -5   41.96    8.56
 -17   5   5   52.45   10.54
 -17   5   5   51.58   10.14
  18  -6  -5    5.90    9.77
  -6 -12  -5   -0.94    6.29
  -6 -12  -5    3.83    6.82
 -18   6   5    8.48    8.23
 -18   6   5   16.41    9.33
 -13  -4  -5   10.45    7.66
  17 -13  -5   -5.94    8.53
 -13  -4  -5   -6.37    6.37
 -17  13   5    1.01    7.21
 -17  13   5    1.68    6.98
  13   4   5   16.73   10.74
 -13  -3  -5   -3.60    6.12
 -13  -3  -5  -13.28    6.10
  16 -13  -5    8.47    8.39
  13   3   5    8.95    9.21
  15 -13  -5    2.21    7.90
 -13  -2  -5   -2.87    5.69
 -13  -2  -5    6.66    7.10
  13   2   5   11.48    9.76
 -13  -1  -5   32.12    7.92
  14 -13  -5   15.89    8.12
 -13  -1  -5   28.14    8.02
  13   1   5   33.55   10.92
 -13   0  -5   26.82    7.64
 -13   0  -5   35.87    8.05
  13 -13  -5   18.87    7.64
  13   0   5   24.22   10.17
 -13   1  -5   33.56    7.79
 -13   1  -5   25.40    7.73
  12 -13  -5   34.32    8.00
  13  -1   5   25.28   10.40
  -1 -12   5   32.48    4.18
  -1 -12   5   29.48    4.08
 -13   2  -5   27.41    7.57
 -13   2  -5   42.36    8.18
 -13   2  -5   42.85    6.41
  13  -2   5   42.28   10.74
  -2 -11   5   35.13    4.95
  -2 -11   5   39.35    5.05
 -13   3  -5    3.27    4.21
   3  10  -5    7.77    3.71
   3  10  -5   13.80    9.79
   3  10  -5    6.99    3.92
 -13   3  -5    5.30    6.28
 -13   3  -5    1.61    5.77
  13  -3   5    8.59    8.84
  -3 -10   5   11.28    4.30
  -3 -10   5   11.17    4.39
 -13   4  -5   -7.74    3.58
 -13   4  -5    3.08    5.72
   4   9  -5   10.14    8.73
 -13   4  -5    8.29    5.80
  -4  -9   5    7.59    4.55
  13  -4   5   -3.67    7.85
  -4  -9   5    0.55    4.04
 -13   5  -5   -3.84    3.35
   5   8  -5    8.95    8.25
 -13   5  -5    9.51    6.03
 -13   5  -5    9.86    5.64
  -8  13   5    4.77    4.36
  13  -5   5   -3.96    7.65
  -5  -8   5    4.26    4.79
  -5  -8   5   -7.78    4.01
   6   7  -5   52.71    9.91
 -13   6  -5   36.05    5.02
 -13   6  -5   43.31    7.36
 -13   6  -5   47.09    7.80
  13  -6   5   37.41   10.37
  -6  -7   5   50.91    7.09
  -6  -7   5   43.68    6.81
  -7  13   5   41.15    5.98
 -13   7  -5    1.68    5.07
   7   6  -5    0.06    7.08
 -13   7  -5    7.66    5.77
  13  -7   5   -1.21    7.74
  -7  -6   5    2.14    4.91
  -6  13   5   -2.24    3.65
  -7  -6   5    4.36    5.06
 -13   8  -5    9.54    4.99
 -13   8  -5    2.84    4.99
   8   5  -5   -0.03    6.81
  -8  -5   5    0.35    5.58
  -5  13   5    4.95    4.16
  -8  -5   5   -5.37    5.03
  13  -8   5   -0.61    7.83
   9   4  -5   87.77   10.89
 -13   9  -5  104.57    9.30
 -13   9  -5  107.83    9.56
  13  -9   5  110.67   14.12
  -9  -4   5  102.63   10.40
  -9  -4   5  115.70   11.06
 -13  10  -5   15.18    4.90
 -13  10  -5    3.39    4.28
  10   3  -5    7.61    6.95
 -10  -3   5    7.89    6.51
 -10  -3   5   18.13    6.86
  13 -10   5   18.00    9.35
 -13  11  -5    1.84    4.17
 -13  11  -5   -0.02    3.84
  11   2  -5    4.30    6.66
  13 -11   5    0.79    8.48
 -11  -2   5   -3.93    6.23
 -11  -2   5    2.94    6.29
  12   1  -5    8.44    6.29
 -13  12  -5    5.53    4.39
 -13  12  -5    4.46    4.07
 -12  -1   5    3.88    6.48
 -12  -1   5   16.93    7.37
  13 -12   5   22.68    9.59
  13   0  -5   17.13    6.70
 -13  13  -5   25.61    5.17
 -13  13  -5   25.89    5.09
  13   0  -5   24.63   10.44
 -13   0   5   21.60    8.02
 -13   0   5   11.37    7.34
  14  -1  -5   11.70    9.98
 -13  14  -5    5.20    4.21
  14  -1  -5    0.53    5.88
 -13  14  -5    8.70    4.26
 -14   1   5    2.88    7.17
 -14   1   5    5.80    7.13
  15  -2  -5    5.20    5.57
  15  -2  -5    2.39    9.61
 -15   2   5  -14.77    6.42
 -15   2   5    1.32    6.71
  -3 -13  -5    6.23    6.12
  -3 -13  -5   -4.60    5.57
  16  -3  -5    9.34   10.60
 -16   3   5    5.85    7.22
 -16   3   5   -9.25    6.76
  -4 -13  -5    6.79    6.47
  17  -4  -5  -16.33    9.21
  -4 -13  -5    4.39    5.83
 -17   4   5    5.42    8.22
 -17   4   5   12.44    8.07
 -14  -3  -5  -12.47    6.47
  17 -14  -5   12.60    9.44
 -14  -3  -5   13.21    7.37
  14   3   5   20.44   10.95
 -14  -2  -5    6.21    6.82
 -14  -2  -5   15.02    7.88
  16 -14  -5    8.45    8.82
  14   2   5    6.35    9.85
 -14  -1  -5   20.00    7.47
  15 -14  -5   15.09    8.79
 -14  -1  -5   27.57    8.37
  14   1   5   20.61   10.53
 -14   0  -5   11.80    7.47
  14 -14  -5    5.24    7.94
 -14   0  -5    8.77    6.73
  14   0   5    7.40    9.31
  13 -14  -5    3.02    7.02
 -14   1  -5    6.70    6.31
 -14   1  -5    3.79    6.57
  14  -1   5   -0.17    9.32
 -14   2  -5   -6.61    5.56
 -14   2  -5    4.51    6.56
  14  -2   5   -3.96    8.94
  -2 -12   5    2.01    3.64
  -2 -12   5   -4.11    3.32
 -14   3  -5   35.59    5.91
 -14   3  -5   32.12    7.61
 -14   3  -5   41.14    8.36
  -3 -11   5   27.48    5.34
  14  -3   5   44.26   11.09
  -3 -11   5   43.86    5.57
 -14   4  -5    2.83    6.35
 -14   4  -5   -2.89    4.00
 -14   4  -5    0.61    5.92
  14  -4   5    5.33    8.70
  -4 -10   5    3.46    4.18
  -4 -10   5    0.43    4.05
 -14   5  -5   -0.80    5.74
 -14   5  -5   -6.42    3.81
   5   9  -5   -0.72    8.24
 -14   5  -5   12.05    6.81
  -5  -9   5    3.75    4.74
  -5  -9   5   10.96    4.77
  14  -5   5   -0.21    8.49
 -14   6  -5   -2.71    5.70
   6   8  -5   16.08    8.66
 -14   6  -5    4.41    3.48
 -14   6  -5    7.54    6.68
  -6  -8   5   -5.06    4.58
  14  -6   5    7.20    8.63
  -6  -8   5   11.48    5.27
 -14   7  -5    4.51    5.89
   7   7  -5    3.48    7.82
 -14   7  -5    0.94    3.51
 -14   7  -5    5.34    6.09
  -7  -7   5   -4.50    4.90
  14  -7   5  -14.71    7.95
  -7  -7   5    5.18    5.08
 -14   8  -5   15.90    6.32
   8   6  -5   -1.92    7.55
 -14   8  -5    3.10    5.24
  -8  -6   5   10.66    5.64
  14  -8   5   14.61    9.24
  -8  -6   5   12.89    5.99
 -14   9  -5   25.65    6.59
   9   5  -5   24.53    7.90
 -14   9  -5   19.27    6.02
  -9  -5   5   28.08    7.10
  14  -9   5   52.48   11.20
  -9  -5   5   32.07    7.41
  10   4  -5   17.75    7.59
 -14  10  -5   11.42    5.37
 -14  10  -5   29.34    5.78
  14 -10   5   14.05    9.73
 -10  -4   5   27.70    7.11
 -10  -4   5   23.97    7.17
 -14  11  -5   26.23    6.06
  11   3  -5   23.57    7.50
 -14  11  -5   29.77    5.91
 -11  -3   5   22.31    7.42
  14 -11   5   15.22    9.75
 -11  -3   5   26.98    7.77
 -14  12  -5   57.19    6.93
  12   2  -5   44.77    8.42
 -14  12  -5   58.61    7.19
  14 -12   5   51.52   11.91
 -12  -2   5   62.18    9.88
 -12  -2   5   59.49    9.54
  13   1  -5   18.22    7.13
 -14  13  -5   34.78    5.91
 -14  13  -5   28.07    5.66
 -13  -1   5   32.80    8.74
  14 -13   5   26.80   10.98
 -13  -1   5   25.59    8.04
  14   0  -5    4.00    6.40
 -14  14  -5   13.82    5.20
 -14  14  -5    7.31    4.76
  14   0  -5   15.99    9.99
 -14   0   5    5.46    7.61
 -14   0   5    9.46    7.30
  15  -1  -5    2.37    9.97
 -15   1   5   -1.83    7.42
 -15   1   5    3.98    7.18
  16  -2  -5  -25.46    9.16
  -2 -14  -5    5.70    6.14
  -2 -14  -5    7.68    6.37
 -16   2   5   -1.61    6.98
 -16   2   5  -12.55    6.94
  -3 -14  -5    1.52    6.46
  17  -3  -5    2.16   10.48
  -3 -14  -5   10.25    6.77
 -17   3   5   -2.03    8.05
 -17   3   5   11.28    7.71
 -15  -1  -5   -1.83    7.06
 -15  -1  -5   10.42    7.26
  16 -15  -5   -1.26    8.21
  15   1   5    9.49   10.81
  15 -15  -5   -6.29    7.69
 -15   0  -5   -0.52    7.10
 -15   0  -5   -3.67    6.53
  15   0   5   17.51   10.51
  14 -15  -5    5.51    7.74
 -15   1  -5    2.50    6.78
 -15   1  -5    6.20    7.54
  15  -1   5   11.88   10.72
 -15   2  -5    0.85    6.45
 -15   2  -5   -6.98    6.64
  15  -2   5   -6.64    9.15
 -15   3  -5   -2.46    6.56
 -15   3  -5   -5.60    6.02
  15  -3   5    4.03    9.53
 -15   4  -5   42.39    8.35
 -15   4  -5   41.89    8.78
 -15   4  -5   25.07    5.39
  -4 -11   5   24.73    5.51
  -4 -11   5   26.18    5.50
  15  -4   5    5.79    9.87
 -15   5  -5   -2.00    6.33
 -15   5  -5   -9.89    3.60
 -15   5  -5   -4.49    6.82
  -5 -10   5   -5.13    4.57
  -5 -10   5   -0.78    4.64
 -15   6  -5   -8.24    3.83
 -15   6  -5   -8.92    5.32
 -15   6  -5   -0.45    6.26
  15  -6   5   -0.49    8.79
  -6  -9   5    0.06    4.80
  -6  -9   5    0.31    4.82
 -15   7  -5    2.92    3.44
   7   8  -5   -4.88    7.83
 -15   7  -5    7.28    6.55
 -15   7  -5    4.39    5.88
  -7  -8   5    8.54    5.77
  -7  -8   5    4.94    5.33
  15  -7   5    9.96    9.08
 -15   8  -5    3.31    6.16
 -15   8  -5    7.57    3.83
   8   7  -5   15.28    8.19
 -15   8  -5    5.56    5.85
  -8  -7   5   -2.93    5.04
  15  -8   5   -1.07    8.15
  -8  -7   5    8.48    5.54
   9   6  -5    2.62    7.78
 -15   9  -5   -1.10    5.87
 -15   9  -5    6.47    5.65
  15  -9   5   17.23    9.45
  -9  -6   5    4.68    5.86
  -9  -6   5    9.26    6.08
 -15  10  -5   37.23    7.34
  10   5  -5   35.24    8.84
 -15  10  -5   46.20    7.31
  15 -10   5   59.34   12.14
 -10  -5   5   29.34    7.61
 -10  -5   5   39.50    8.32
 -15  11  -5    1.55    5.01
  11   4  -5    6.63    7.35
 -15  11  -5    4.38    5.81
 -11  -4   5   11.85    7.02
  15 -11   5   17.24   10.10
 -11  -4   5   11.24    6.98
 -15  12  -5    8.50    5.30
  12   3  -5    0.73    6.69
 -15  12  -5   14.08    5.92
 -12  -3   5   20.02    7.52
  15 -12   5   -3.13   10.15
 -12  -3   5   12.93    7.12
 -15  13  -5   -2.00    4.76
  13   2  -5   -2.21    6.35
 -15  13  -5    8.65    5.16
  15 -13   5  -16.25    8.46
 -13  -2   5    0.67    7.09
 -13  -2   5   -9.07    6.20
  14   1  -5   35.95   11.88
 -15  14  -5   40.84    6.57
  14   1  -5   28.28    7.15
 -15  14  -5   28.07    6.20
 -14  -1   5   16.60    8.03
 -14  -1   5   22.63    8.59
  15   0  -5   -4.56   10.01
 -15   0   5   -1.11    7.75
 -15   0   5   -0.95    7.35
  -1 -15  -5   11.48    6.32
  -1 -15  -5   10.06    6.23
  16  -1  -5   21.91   11.59
 -16   1   5    3.00    7.68
 -16   1   5   14.51    8.49
  16 -16  -5    7.30    8.71
 -16   0  -5    2.46    7.59
 -16   0  -5   -4.47    6.73
  16   0   5    6.57   10.79
 -16   1  -5   11.32    8.34
 -16   1  -5   13.27    7.97
  16  -1   5   -2.50   10.64
 -16   2  -5   -0.48    7.11
 -16   2  -5    4.91    7.69
  16  -2   5    4.90   10.30
 -16   3  -5   -0.29    6.78
 -16   3  -5   -7.17    7.13
  16  -3   5    8.23   10.38
 -16   4  -5    0.44    7.17
 -16   4  -5  -11.37    7.26
  16  -4   5   -3.41    9.56
 -16   5  -5   39.00    8.86
 -16   5  -5   45.52    9.75
  16  -5   5   27.14   11.16
  -5 -11   5   55.53    7.55
  -5 -11   5   48.38    6.98
 -16   6  -5   44.14    9.10
 -16   6  -5   21.87    7.55
  16  -6   5   23.63   10.46
  -6 -10   5   16.33    6.05
  -6 -10   5   11.46    6.06
 -16   7  -5    9.15    6.60
 -16   7  -5    6.08    7.26
  -7  -9   5    5.71    5.89
  -7  -9   5   24.92    6.33
  16  -7   5    5.74    9.47
 -16   8  -5   19.42    7.76
 -16   8  -5   11.42    6.78
  -8  -8   5   13.80    6.19
  16  -8   5   15.04    9.88
  -8  -8   5   15.44    6.24
 -16   9  -5    2.52    5.49
 -16   9  -5    1.58    6.26
   9   7  -5    3.72    7.90
  -9  -7   5    7.26    5.70
  -9  -7   5   -1.15    5.67
  16  -9   5    5.46    9.48
 -16  10  -5    4.11    5.62
  10   6  -5    7.30    8.00
 -16  10  -5   -2.39    5.96
 -10  -6   5    2.59    6.61
  16 -10   5   -2.04    9.15
 -10  -6   5   -7.00    5.80
  11   5  -5   -1.70    7.48
 -16  11  -5   15.28    6.54
 -16  11  -5    8.10    5.75
 -11  -5   5    3.71    6.81
 -11  -5   5    4.10    6.64
  16 -11   5    2.24   10.13
  12   4  -5    8.93    7.55
 -16  12  -5    2.17    6.00
 -16  12  -5    5.81    5.34
 -12  -4   5    1.21    7.13
  16 -12   5   -2.22    9.22
 -12  -4   5    6.51    6.73
  13   3  -5   -5.01    6.88
 -16  13  -5    6.58    6.01
 -16  13  -5    1.48    5.64
 -13  -3   5    0.12    7.15
 -13  -3   5    3.66    7.05
  16 -13   5   -2.50    9.51
 -16  14  -5   16.89    6.04
 -16  14  -5   12.03    6.08
 -14  -2   5   11.02    8.04
 -14  -2   5    5.13    7.44
  16 -14   5   15.12   10.88
  15   1  -5   -3.02   10.59
 -15  -1   5   -3.36    7.70
 -15  -1   5   -3.49    7.08
  16   0  -5   14.33   11.66
 -16   0   5   11.90    8.21
 -16   0   5   16.79    8.69
 -17   3  -5    9.11    7.42
 -17   3  -5    5.95    8.68
  17  -3   5   12.42   11.10
 -17   4  -5   16.76    8.94
 -17   4  -5    6.62    7.66
  17  -4   5   17.52   10.96
 -17   5  -5   57.28   10.49
 -17   5  -5   46.79    9.59
  17  -5   5   53.67   11.41
 -17   6  -5    6.35    7.02
 -17   6  -5  -10.68    7.19
  -6 -11   5   12.63    5.93
  17  -6   5   10.97   10.42
  -6 -11   5    2.12    5.23
 -17   7  -5    2.08    6.49
 -17   7  -5   -5.61    6.91
  -7 -10   5    3.86    5.49
  17  -7   5   -3.96    9.28
  -7 -10   5   -8.22    4.69
 -17   8  -5   -2.69    5.99
 -17   8  -5   -0.55    7.14
  -8  -9   5    1.32    5.42
  17  -8   5    7.45   10.20
  -8  -9   5    9.38    6.04
 -17   9  -5   37.36    8.61
 -17   9  -5   24.81    7.26
  17  -9   5   33.11   11.65
  -9  -8   5   32.59    7.33
  -9  -8   5   24.85    6.99
 -17  10  -5   14.83    7.43
 -17  10  -5    1.34    6.20
  17 -10   5  -12.60    8.85
 -10  -7   5    5.90    6.91
 -10  -7   5    9.48    6.72
 -17  11  -5    6.70    6.20
 -17  11  -5   18.36    7.36
 -11  -6   5   15.63    7.76
 -11  -6   5   23.87    7.65
  17 -11   5   15.31   10.46
 -17  12  -5   25.47    6.95
  12   5  -5   40.26    9.05
 -17  12  -5   45.00    8.41
 -12  -5   5   12.85    7.90
  17 -12   5   23.22   10.68
 -12  -5   5   37.52    8.83
 -17  13  -5   -4.38    5.80
 -17  13  -5    4.91    6.66
  13   4  -5   -1.46    7.11
  17 -13   5    7.90   10.84
 -13  -4   5   14.92    7.58
 -13  -4   5   10.11    7.56
 -17  14  -5   -1.54    6.02
 -17  14  -5   -0.12    5.87
 -14  -3   5    0.49    7.15
 -14  -3   5  -12.39    6.84
  17 -14   5   12.94   10.80
 -18   6  -5   11.32    7.36
 -18   6  -5    0.86    8.01
  18  -6   5   19.69   11.72
 -18   7  -5    7.28    7.21
 -18   7  -5   16.81    8.81
  18  -7   5    4.56   11.16
  -7 -11   5   11.56    6.20
  -7 -11   5    9.40    6.35
 -18   8  -5    7.13    6.99
 -18   8  -5   14.49    8.29
  -8 -10   5    7.34    6.14
  18  -8   5  -11.11    9.47
  -8 -10   5    5.82    6.05
 -18   9  -5    9.51    7.75
 -18   9  -5   18.07    7.44
  18  -9   5    6.70    9.76
  -9  -9   5   11.33    6.28
  -9  -9   5   17.18    6.71
 -18  10  -5    2.82    7.68
 -18  10  -5   -2.02    6.60
 -10  -8   5   -9.79    5.33
 -10  -8   5    7.09    6.49
  18 -10   5   -3.41    9.66
 -18  11  -5    7.10    7.45
 -18  11  -5  -11.90    5.77
 -11  -7   5    8.50    7.38
  18 -11   5   -2.65    9.37
 -11  -7   5   13.13    7.48
 -18  12  -5   -8.45    6.43
 -18  12  -5   15.55    6.84
 -12  -6   5    4.83    7.46
 -12  -6   5   16.66    7.61
  18 -12   5    9.46   10.24
   0   0  -6   61.45    5.76
  -1   0  -6    9.30    3.76
   0  -1  -6   11.95    4.04
   0  -1  -6    7.57    3.43
  -1   1  -6   17.54    4.47
   2  -1  -6   14.50    4.03
   2  -1  -6   11.67    4.03
  -1  -1  -6   10.68    3.69
  -1  -1  -6   14.89    4.37
  -2  -1  -6   65.69    6.77
  -2  -1  -6   79.19    6.37
   3  -2  -6   66.50    6.77
  -2   0  -6    9.37    4.04
   2  -2  -6    4.58    3.88
  -2   0  -6    4.64    3.80
   1  -2  -6   24.38    3.10
  -2   1  -6   16.69    4.41
   1  -2  -6   12.94    4.20
   1   1  -6   15.84    4.00
   1   1  -6   15.23    4.04
   0  -2  -6    7.03    3.84
   2   0  -6    2.06    3.43
   2   0  -6    3.26    3.47
   0  -2  -6    3.89    2.79
  -2   2  -6    2.46    4.13
  -2  -2  -6    8.97    4.06
   4  -2  -6   -1.27    3.38
  -2  -2  -6    3.32    3.14
   5  -3  -6   -3.17    3.22
  -3  -2  -6    3.06    4.02
  -2   5  -6   -3.27    5.72
  -3  -2  -6    0.13    3.40
   3   2   6   -2.12    3.58
  -1   4  -6    7.71    3.13
  -3  -1  -6   19.66    4.67
  -3  -1  -6   14.78    4.21
  -1   4  -6    4.61    3.06
   4  -3  -6   11.19    3.94
   3   1   6   12.36    4.20
   0   3  -6   14.05    3.58
  -3   0  -6   19.73    4.67
   0   3  -6   21.88    3.94
  -3   0  -6   21.76    4.93
   3  -3  -6   14.00    4.44
   3   0   6   22.09    4.82
   2  -3  -6    6.12    3.99
   1   2  -6    9.41    3.65
  -3   1  -6    7.39    4.49
   1   2  -6   -0.15    3.27
  -3   2  -6   73.84    7.23
   2   1  -6   74.69    6.46
   1  -3  -6   82.35    7.41
   1  -3  -6   68.74    4.39
   2   1  -6   76.40    6.57
   0  -3  -6   11.87    4.26
   3   0  -6   17.50    4.25
   0  -3  -6   21.05    2.40
   3   0  -6   17.95    4.35
  -3   3  -6   25.71    5.04
  -3   4  -6    6.81    4.13
  -1  -3  -6    0.66    3.80
  -3   5  -6    2.23    5.76
  -2  -3  -6   -3.46    3.73
   2   3   6    3.61    3.11
  -3   6  -6   21.47    6.80
   6  -3  -6   33.58    4.92
  -3  -3  -6   28.65    5.88
   3   3   6   21.49    4.31
  -3   7  -6    1.43    2.19
  -4  -3  -6   -4.14    4.07
   7  -4  -6   -1.26    4.11
   7  -4  -6    3.85    3.82
  -3   7  -6    6.04    6.41
  -3   7  -6   -0.42    2.10
   4   3   6    4.55    4.14
   6  -4  -6   14.70    4.15
  -2   6  -6   13.76    6.44
  -2   6  -6   12.10    2.84
  -4  -2  -6    7.65    4.25
   6  -4  -6    6.92    3.90
  -2   6  -6    9.20    2.78
   4   2   6   13.36    4.69
  -1   5  -6   22.06    3.62
   5  -4  -6   31.77    4.99
   5  -4  -6   21.29    4.01
  -1   5  -6   23.62    6.92
  -4  -1  -6   25.70    4.72
  -4  -1  -6   16.42    4.66
  -1   5  -6   22.11    3.53
   4   1   6   25.22    5.19
   0   4  -6   21.47    3.79
   4  -4  -6   13.80    3.14
  -4   0  -6   14.07    4.17
   0   4  -6   12.49    3.43
   4  -4  -6   13.29    4.37
  -4   0  -6   21.97    5.07
   4   0   6   21.83    4.97
   1   3  -6    3.04    3.12
   1   3  -6    6.24    3.46
   3  -4  -6    3.51    3.92
  -4   1  -6   -2.50    3.33
  -4   1  -6    7.65    4.70
   3  -4  -6    7.56    2.09
   4  -1   6    6.01    4.63
   2   2  -6    3.53    3.39
   2  -4  -6    3.65    3.90
   2   2  -6    0.57    3.23
  -4   2  -6    0.30    4.27
   4  -2   6   -1.21    4.51
   3   1  -6   14.43    3.97
  -4   3  -6    9.73    4.43
   1  -4  -6    7.46    4.10
   3   1  -6    8.74    3.83
   0  -4  -6   16.90    4.73
  -4   4  -6   14.71    4.58
  -1  -4  -6    9.20    4.74
  -4   5  -6   15.74    6.02
   1   4   6   11.02    2.55
  -2  -4  -6    2.36    4.38
  -4   6  -6    0.26    5.78
  -6   2   6    4.66    4.55
  -6   2   6   10.69    4.86
   2   4   6    8.85    3.24
  -3  -4  -6   16.38    5.11
  -4   7  -6    4.98    6.16
   7  -3  -6    9.03    3.97
  -7   3   6    8.57    4.91
   3   4   6   16.62    4.15
  -7   3   6   18.56    5.30
   8  -4  -6   27.78    4.85
   8  -4  -6   23.81    5.76
  -4  -4  -6   22.50    5.83
  -4   8  -6   25.98    7.93
  -4   8  -6   25.61    2.81
  -4   8  -6   23.41    2.78
  -8   4   6   14.70    5.54
  -8   4   6   12.49    5.36
  -4   9  -6   -6.86    7.20
   9  -5  -6    3.25    3.40
  -5  -4  -6    2.56    5.13
  -4   9  -6    1.95    1.71
   9  -5  -6    5.41    5.09
  -4   9  -6   -6.89    1.57
  -4   9  -6   -6.70    1.62
  -4   9  -6    0.46    1.64
  -9   5   6   -6.78    4.67
  -9   5   6    3.14    4.94
   5   4   6    4.73    4.67
  -3   8  -6    3.13    2.19
   8  -5  -6   19.79    4.52
  -3   8  -6   -2.15    2.09
   8  -5  -6   11.94    4.96
  -5  -3  -6    5.04    4.82
  -3   8  -6   11.91    7.55
   5   3   6    6.37    5.15
  -5  -2  -6   10.86    4.78
  -2   7  -6   12.96    6.79
   7  -5  -6   14.31    4.44
  -2   7  -6    3.18    2.66
  -2   7  -6    6.10    2.72
   7  -5  -6    6.43    4.09
   5   2   6   19.06    5.56
  -1   6  -6   30.05    3.78
  -5  -1  -6   20.33    4.67
   6  -5  -6   26.96    4.44
  -1   6  -6   14.97    6.43
   6  -5  -6   25.75    4.98
  -1   6  -6   26.54    3.75
  -5  -1  -6   21.03    4.49
   5   1   6   29.39    5.82
   5  -5  -6   25.88    3.86
   0   5  -6   34.09    7.31
   0   5  -6   29.07    3.97
   5  -5  -6   25.42    5.10
  -5   0  -6   17.88    4.40
   0   5  -6   22.84    3.88
  -5   0  -6   28.95    4.84
   5   0   6   30.06    5.99
  -5   1  -6    9.30    4.64
   1   4  -6   15.56    3.56
  -5   1  -6    8.76    3.84
   1   4  -6   14.67    3.65
   4  -5  -6   18.73    4.88
   4  -5  -6   12.04    2.66
   5  -1   6    8.33    5.08
  -5   2  -6    6.09    4.60
   3  -5  -6    0.89    4.27
   2   3  -6   10.81    3.68
   2   3  -6    5.43    3.52
   5  -2   6    1.52    4.88
   2  -5  -6   -1.48    4.02
   3   2  -6   -0.64    3.30
   3   2  -6    4.48    3.44
  -5   3  -6   -2.72    3.99
   5  -3   6   -1.89    4.78
   1  -5  -6   29.02    5.54
   0  -5  -6   18.59    5.24
  -5   5  -6   29.06    5.93
  -5   0   6   22.82    5.18
  -5   0   6   28.38    5.42
  -5   6  -6   44.99    7.31
  -1  -5  -6   53.06    6.99
  -6   1   6   43.94    6.54
  -6   1   6   61.69    7.00
   1   5   6   46.49    4.09
  -2  -5  -6   81.91    8.62
  -5   7  -6   79.72    9.42
  -7   2   6   67.16    8.06
  -7   2   6   82.98    8.33
   2   5   6   75.80    6.27
  -5   8  -6   20.76    3.21
  -5   8  -6   18.48    3.11
  -3  -5  -6   19.75    6.02
   8  -3  -6   20.01    4.34
  -5   8  -6   35.79    8.08
   3   5   6   14.02    4.50
  -8   3   6   38.17    6.43
  -8   3   6   17.66    5.79
   9  -4  -6    0.94    5.05
  -4  -5  -6    1.43    5.09
   9  -4  -6    5.10    3.34
  -5   9  -6  -10.60    6.46
  -5   9  -6    2.03    1.98
  -5   9  -6    4.64    1.81
  -5   9  -6    1.75    2.02
  -5   9  -6    3.09    1.78
  -9   4   6    7.93    5.41
  -9   4   6   -2.70    4.58
   4   5   6    4.01    4.44
  10  -5  -6   -1.11    5.60
  10  -5  -6    3.47    3.37
  -5  10  -6  -12.88    7.71
  -5  -5  -6    1.34    5.49
   5   5   6   -0.17    5.13
 -10   5   6    4.44    5.29
 -10   5   6    1.21    4.98
  11  -6  -6    6.57    3.94
  11  -6  -6    4.68    6.19
  -5  11  -6   -0.11    8.95
   6   5   6   -4.04    5.79
 -11   6   6   -1.75    5.24
 -11   6   6   -1.07    5.45
  10  -6  -6    3.40    3.84
  -4  10  -6    7.23    8.46
  -6  -4  -6   -1.62    5.35
  10  -6  -6   -3.07    4.98
 -10   6   6    0.26    5.39
 -10   6   6    2.10    5.46
   6   4   6    6.65    5.47
  -3   9  -6    5.90    8.17
  -3   9  -6    9.80    1.98
   9  -6  -6    4.38    4.23
  -6  -3  -6    7.21    5.14
   9  -6  -6   17.49    5.40
  -3   9  -6   11.59    2.06
   6   3   6    7.82    5.62
  -2   8  -6    0.61    2.29
  -2   8  -6   -4.67    6.80
   8  -6  -6    2.75    4.26
  -6  -2  -6    1.36    4.23
  -2   8  -6    3.92    2.38
   8  -6  -6    6.18    4.60
   6   2   6   12.08    5.95
  -6  -1  -6   64.27    7.01
  -1   7  -6   68.55    9.57
  -6  -1  -6   63.66    6.74
  -1   7  -6   64.79    4.92
  -1   7  -6   58.67    4.87
   7  -6  -6   65.08    6.59
   7  -6  -6   63.98    7.11
   6   1   6   66.33    8.14
   0   6  -6   -0.04    5.78
  -6   0  -6   -0.29    3.55
   6  -6  -6    2.35    4.11
   0   6  -6   -0.32    2.75
   0   6  -6    2.06    2.86
  -6   0  -6   -1.82    3.02
   6  -6  -6    6.53    3.63
   6   0   6    2.10    5.03
   5  -6  -6   52.39    4.36
   1   5  -6   52.57    5.17
   1   5  -6   50.58    4.94
  -6   1  -6   48.15    5.81
  -6   1  -6   49.16    6.56
   5  -6  -6   60.00    6.94
   1   5  -6   42.51    7.94
   6  -1   6   65.13    7.66
  -6   2  -6    1.15    4.54
  -6   2  -6    0.43    3.18
   4  -6  -6    5.35    4.38
   2   4  -6    6.19    3.36
   2   4  -6    3.89    3.43
   6  -2   6    6.98    5.27
   3   3  -6   30.67    4.75
   3   3  -6   18.86    4.29
   3  -6  -6   27.86    5.64
   6  -3   6   18.37    6.50
   2  -6  -6    7.92    4.69
  -4  -2   6    8.12    4.28
   6  -4   6   13.05    5.91
  -4  -2   6   10.23    4.49
  -6   5  -6   26.66    5.74
   1  -6  -6   30.92    5.93
  -5  -1   6   29.77    5.45
  -5  -1   6   31.28    5.73
   0  -6  -6   -2.06    4.31
  -6   6  -6   -0.16    2.65
  -6   6  -6    5.84    2.89
  -6   6  -6   -1.06    4.78
  -6   0   6    9.31    4.72
   0   6   6    2.51    1.61
  -6   0   6    1.62    4.30
  -1  -6  -6    4.43    4.96
  -6   7  -6    9.63    6.14
  -6   7  -6    9.43    3.16
  -6   7  -6    9.76    3.04
  -7   1   6    8.94    5.13
   1   6   6    1.11    2.69
  -7   1   6    9.63    5.03
  -6   8  -6    5.23    6.76
  -2  -6  -6    8.64    5.46
  -6   8  -6    6.94    2.95
  -6   8  -6    8.04    2.91
  -8   2   6    0.72    4.96
  -8   2   6    0.04    5.00
   2   6   6    7.05    3.78
   9  -3  -6   24.69    4.30
  -6   9  -6   18.30    2.89
   9  -3  -6   16.29    6.52
  -3  -6  -6   16.29    6.12
  -6   9  -6   24.46    7.74
  -6   9  -6   19.74    2.98
  -9   3   6   19.72    6.02
   3   6   6   29.24    5.02
  -9   3   6    9.63    5.72
  -6  10  -6    2.63    1.50
  -6  10  -6   -1.56    1.76
  -6  10  -6    0.41    1.50
  10  -4  -6    2.31    5.76
  -6  10  -6    1.92    7.66
  -6  10  -6   -1.25    1.76
  10  -4  -6   -0.24    3.11
 -10   4   6    5.14    5.51
 -10   4   6   -3.09    5.37
   4   6   6    7.87    4.77
  11  -5  -6    3.50    3.39
  11  -5  -6    2.15    6.19
  -6  11  -6    0.06    8.50
 -11   5   6    1.34    5.87
 -11   5   6    3.17    5.75
   5   6   6   -1.85    5.06
  -6  -6  -6    7.91    5.66
  12  -6  -6    4.68    3.86
  -6  -6  -6    4.56    5.68
  12  -6  -6    6.40    6.72
 -12   6   6    4.81    6.31
 -12   6   6   -2.97    5.87
   6   6   6    8.53    5.82
  -7  -6  -6    2.88    5.66
  -7  -6  -6   -1.19    5.39
  13  -7  -6    7.46    4.29
  13  -7  -6   14.71    7.34
   7   6   6    5.45    6.02
 -13   7   6   18.31    7.44
 -13   7   6   -5.80    6.01
  -7  -5  -6    1.53    5.14
  12  -7  -6   -2.31    4.10
  -7  -5  -6    0.01    5.12
  12  -7  -6    1.95    5.94
 -12   7   6   -5.50    5.45
   7   5   6   -3.38    6.56
 -12   7   6   -4.88    5.57
  11  -7  -6   -1.18    5.75
  11  -7  -6    2.26    4.12
  -7  -4  -6   -2.65    4.58
  -7  -4  -6    2.81    4.93
  -7  -4  -6    1.02    5.81
  -4  11  -6    0.92    9.14
 -11   7   6   -2.18    5.45
   7   4   6    8.31    6.35
 -11   7   6   -1.97    5.14
  -7  -3  -6    2.25    5.36
  -3  10  -6    0.70    8.33
  -7  -3  -6   -0.18    4.56
  10  -7  -6    2.24    4.05
  -7  -3  -6    1.72    4.57
  10  -7  -6    4.65    5.33
   7   3   6    3.25    5.84
  -7  -2  -6    0.09    4.57
  -2   9  -6   -0.90    1.97
  -2   9  -6    5.34    7.55
  -7  -2  -6    2.17    4.38
  -2   9  -6    1.33    1.93
   9  -7  -6   -2.31    3.74
   9  -7  -6   -0.94    5.05
  -7  -2  -6   -0.78    4.29
   7   2   6    3.51    6.03
  -1   8  -6   10.33    2.84
  -7  -1  -6   14.39    4.89
  -1   8  -6    6.95    2.67
   8  -7  -6   11.96    4.76
  -1   8  -6   10.21    7.55
   8  -7  -6   12.38    4.91
  -7  -1  -6   16.13    4.55
  -7  -1  -6    5.11    4.61
   7   1   6    9.40    6.56
   0   7  -6   28.71    3.89
   7  -7  -6   31.46    5.79
   0   7  -6   29.91    8.06
  -7   0  -6   26.01    5.62
   7  -7  -6   27.73    4.84
  -7   0  -6   27.71    5.78
  -7   0  -6   27.94    4.82
   0   7  -6   28.79    3.89
   7   0   6   27.87    7.18
  -7   1  -6    8.68    4.32
  -7   1  -6    9.74    4.68
   1   6  -6    6.94    3.26
  -7   1  -6   10.61    3.83
   1   6  -6   11.39    3.44
   1   6  -6    2.09    6.31
   6  -7  -6    3.99    4.32
   6  -7  -6    5.36    3.25
   7  -1   6   22.08    6.69
  -7   2  -6   82.25    7.80
   5  -7  -6   90.44    8.44
  -7   2  -6   67.62    7.30
  -7   2  -6   75.92    7.00
   2   5  -6   77.09    6.44
   2   5  -6   75.62    6.43
   2   5  -6   79.35    9.76
   7  -2   6   93.23    9.53
  -7   3  -6    5.72    3.62
  -7   3  -6   19.76    4.43
   3   4  -6   14.31    4.23
   3   4  -6   14.70    4.10
   4  -7  -6    7.69    5.03
   7  -3   6    6.98    5.90
  -3  -4   6   19.06    4.60
  -3  -4   6   11.93    4.46
  -7   4  -6    2.16    3.09
  -7   4  -6    1.93    3.10
   3  -7  -6    5.85    4.78
  -4  -3   6    1.20    3.96
  -4  -3   6   -4.03    3.95
   7  -4   6   -5.55    5.32
   2  -7  -6   12.68    5.23
  -7   5  -6    8.14    3.43
  -7   5  -6   10.25    3.45
  -7   5  -6   10.11    4.63
   7  -5   6    7.05    6.30
  -5  -2   6   16.05    4.93
  -5  -2   6   11.59    4.79
  -7   6  -6   63.87    5.81
  -7   6  -6   64.83    5.81
  -7   6  -6   59.67    7.32
   1  -7  -6   53.15    7.51
  -6  -1   6   51.99    6.98
  -6  -1   6   57.30    7.21
  -7   7  -6   28.50    6.28
   0  -7  -6   25.93    6.33
  -7   7  -6   21.01    3.84
  -7   7  -6   28.55    4.09
  -7   0   6   30.89    6.13
   0   7   6   28.63    3.29
  -7   0   6   23.70    5.90
  -7   8  -6   -6.59    5.78
  -7   8  -6   -1.91    2.69
  -7   8  -6    0.91    2.74
  -1  -7  -6   -2.77    5.01
  -8   1   6   -0.08    4.97
  -8   1   6   -0.28    4.79
   1   7   6   11.99    3.45
  -7   9  -6    5.46    2.78
  -7   9  -6    2.49    2.81
  -7   9  -6   10.91    7.13
   2   7   6    2.20    3.73
  -9   2   6    8.50    5.33
  -9   2   6    5.85    5.35
  10  -3  -6   -2.40    2.79
  -7  10  -6    1.42    2.54
  -7  10  -6   -5.44    7.98
  10  -3  -6   11.11    6.50
  -7  10  -6   -0.32    2.44
 -10   3   6    6.19    5.46
   3   7   6    4.95    4.25
 -10   3   6   -5.84    4.90
  11  -4  -6    1.09    3.14
  11  -4  -6    6.19    6.52
  -7  11  -6    0.07    8.75
   4   7   6    0.77    4.91
 -11   4   6   -5.83    5.04
 -11   4   6   -5.70    5.31
  12  -5  -6   -1.48    3.35
  12  -5  -6    5.56    7.09
 -12   5   6   -0.33    5.85
 -12   5   6   -1.16    5.88
   5   7   6    0.42    5.18
  13  -6  -6    9.21    7.49
  -6  -7  -6    5.82    5.71
  -6  -7  -6    4.11    5.57
  13  -6  -6    7.39    4.01
 -13   6   6   10.62    6.66
   6   7   6    2.94    5.96
 -13   6   6    2.60    6.29
  14  -7  -6    7.71    7.68
  -7  -7  -6    7.05    6.12
  14  -7  -6   16.35    4.56
  -7  -7  -6    5.19    6.16
 -14   7   6    8.20    7.35
 -14   7   6    9.67    6.90
   7   7   6    8.10    6.56
  15  -8  -6    6.40    9.26
  -8  -7  -6  -11.14    5.14
  -8  -7  -6   11.13    6.23
 -15   8   6    5.49    7.50
   8   7   6    6.85    6.91
 -15   8   6    3.54    7.09
  -8  -6  -6   -2.01    5.66
  14  -8  -6   -2.26    7.84
  -8  -6  -6    1.44    5.72
 -14   8   6    2.47    6.25
 -14   8   6   -2.68    6.24
   8   6   6    2.28    6.40
  -8  -5  -6    9.01    5.68
  -8  -5  -6    5.11    5.65
  13  -8  -6   -6.87    7.22
 -13   8   6   -1.22    5.87
   8   5   6    7.86    6.94
 -13   8   6   -2.32    6.26
  -8  -4  -6    0.55    5.27
  12  -8  -6   -1.05    4.46
  -4  12  -6   -0.48    9.30
  -8  -4  -6   -4.90    5.02
 -12   8   6   -0.74    5.91
 -12   8   6   -3.81    5.85
   8   4   6    8.52    7.30
  11  -8  -6    4.70    6.56
  11  -8  -6    3.86    4.71
  -8  -3  -6   12.29    6.18
  -3  11  -6   11.35    9.59
  -8  -3  -6    5.38    5.36
  -8  -3  -6    5.63    5.21
   8   3   6    4.31    6.76
  -2  10  -6   -6.70    8.27
  -8  -2  -6    8.19    5.04
  10  -8  -6   -0.15    4.38
  10  -8  -6   11.69    5.98
  -8  -2  -6    8.73    5.18
  -8  -2  -6    7.95    5.27
   8   2   6    2.79    6.78
   9  -8  -6    3.59    4.75
  -8  -1  -6    4.02    4.75
   9  -8  -6    4.58    5.00
  -1   9  -6    1.89    7.55
  -1   9  -6    0.99    2.28
  -1   9  -6   -0.11    2.26
  -8  -1  -6   10.35    4.52
  -8  -1  -6   -1.16    4.43
   8   1   6    2.80    6.90
   0   8  -6   18.00    7.75
   8  -8  -6   23.03    5.03
   8  -8  -6   22.28    5.62
  -8   0  -6   22.17    5.66
  -8   0  -6   28.91    5.21
   0   8  -6   17.01    3.31
  -8   0  -6   15.94    5.30
   0   8  -6   24.59    3.50
   8   0   6   20.50    7.63
  -8   1  -6   -1.96    4.13
   1   7  -6    3.27    7.26
  -8   1  -6   -3.32    4.13
   1   7  -6    0.96    2.91
  -8   1  -6    9.95    3.66
   7  -8  -6    8.49    5.17
   7  -8  -6    2.99    3.77
   1   7  -6    4.79    3.00
   8  -1   6   -1.31    6.35
   2   6  -6   14.66    3.73
   6  -8  -6   -0.44    4.80
  -8   2  -6    8.48    4.49
   2   6  -6    9.76    3.71
   2   6  -6    8.94    6.86
  -8   2  -6   10.57    3.60
  -8   2  -6    6.87    4.39
  -2  -6   6    5.06    3.31
  -2  -6   6    7.66    3.52
   8  -2   6   13.68    6.81
  -8   3  -6   24.16    5.02
   5  -8  -6   17.40    5.72
  -8   3  -6   17.78    4.82
   3   5  -6   26.44    4.72
   3   5  -6   17.10    4.21
   3   5  -6   16.46    7.16
  -8   3  -6   28.10    4.53
  -3  -5   6   18.18    4.35
   8  -3   6   26.20    7.20
  -3  -5   6   20.61    4.65
  -8   4  -6   20.19    4.48
   4  -8  -6   21.08    6.01
  -8   4  -6   27.25    4.81
  -8   4  -6   21.39    4.94
   4   4  -6   22.47    7.05
   8  -4   6   20.77    7.28
  -4  -4   6   13.44    4.81
  -4  -4   6   28.55    5.46
  -8   5  -6    9.82    3.47
   3  -8  -6   13.16    5.47
  -8   5  -6    8.74    3.61
  -5  -3   6   14.32    5.05
  -5  -3   6   10.40    4.92
   8  -5   6    7.59    6.65
  -8   6  -6    7.86    4.97
  -8   6  -6    5.94    3.34
   2  -8  -6    2.59    5.14
  -8   6  -6   -0.98    3.09
  -6  -2   6  -10.22    4.09
   8  -6   6   14.89    7.01
  -6  -2   6    4.68    4.63
  -8   7  -6   15.20    3.72
   1  -8  -6    7.16    5.46
  -8   7  -6   12.03    3.49
  -8   7  -6   11.10    5.56
  -7  -1   6    5.68    5.13
   8  -7   6   13.95    7.13
  -1   8   6   13.06    2.48
  -7  -1   6   17.63    5.45
  -8   8  -6   17.01    3.72
  -8   8  -6   21.49    3.77
  -8   8  -6   32.06    6.78
  -8   0   6   19.96    6.08
  -8   0   6   19.56    5.93
   0   8   6   22.14    3.55
  -8   9  -6   -2.79    2.54
  -8   9  -6    6.50    6.93
  -8   9  -6    9.27    3.13
  -9   1   6    9.49    5.74
  -9   1   6    7.17    5.45
  -8  10  -6   -3.88    2.65
  -8  10  -6   14.81    8.12
  -8  10  -6   -4.75    2.59
   2   8   6   -3.69    3.71
 -10   2   6   -8.17    5.14
 -10   2   6   -0.93    5.45
  -8  11  -6   -3.16    8.20
  11  -3  -6   -6.94    6.17
  -8  11  -6   -4.57    2.30
  11  -3  -6    0.72    2.90
  -8  11  -6   -3.30    2.23
 -11   3   6    4.10    6.12
 -11   3   6   -8.33    5.35
   3   8   6   -4.84    4.25
  12  -4  -6    3.72    3.51
  12  -4  -6   -6.59    6.64
   4   8   6   10.82    5.40
 -12   4   6    1.89    6.34
 -12   4   6   10.03    6.59
  13  -5  -6   10.11    3.91
  13  -5  -6    6.14    7.55
 -13   5   6    7.23    7.01
 -13   5   6   12.01    6.92
   5   8   6    9.03    6.13
  -6  -8  -6    1.41    5.60
  14  -6  -6   -5.17    3.53
  -6  -8  -6    5.52    5.83
  14  -6  -6    6.93    7.54
 -14   6   6    3.05    6.97
 -14   6   6   -2.91    6.26
   6   8   6    2.09    6.34
  -7  -8  -6   -9.39    5.08
  -7  -8  -6    0.07    6.02
  15  -7  -6   -6.16    7.55
 -15   7   6   -1.89    6.76
   7   8   6    3.14    6.41
 -15   7   6    1.59    6.86
  -8  -8  -6   -9.23    5.54
  16  -8  -6   11.37    8.83
  -8  -8  -6    1.89    6.37
   8   8   6    1.68    6.72
 -16   8   6    1.40    7.23
 -16   8   6   -5.14    6.79
  17  -9  -6   -0.05   10.23
  -9  -8  -6   10.74    7.21
  -9  -8  -6    5.56    6.97
 -17   9   6   -2.61    7.18
   9   8   6   11.57    7.98
 -17   9   6    8.47    8.39
  -9  -7  -6    6.57    6.72
  -9  -7  -6    0.48    6.15
  16  -9  -6   -1.86    9.58
   9   7   6   -2.71    6.77
 -16   9   6    2.90    7.16
 -16   9   6   -9.35    7.21
  15  -9  -6    9.10    8.93
  -9  -6  -6    4.86    6.21
  -9  -6  -6   10.75    6.70
   9   6   6    0.34    6.83
 -15   9   6    0.84    6.40
 -15   9   6   -0.59    6.83
  14  -9  -6   11.49    8.60
  -9  -5  -6   -9.79    5.44
  -9  -5  -6   -0.11    5.73
 -14   9   6   -6.20    6.27
 -14   9   6    1.71    6.10
   9   5   6   -1.41    7.01
  13  -9  -6    8.76    7.61
  -9  -4  -6    1.64    5.47
  -9  -4  -6    1.69    5.78
 -13   9   6   -8.51    5.50
 -13   9   6   -3.36    6.03
   9   4   6    9.27    7.53
  -9  -3  -6    7.85    5.68
  12  -9  -6    6.19    7.16
  -9  -3  -6    4.31    5.70
  -3  12  -6   13.67   10.04
   9   3   6   13.85    7.32
  -2  11  -6   11.85   10.05
  -9  -2  -6    5.75    5.44
  -9  -2  -6   15.36    6.12
  -9  -2  -6    7.80    5.51
  11  -9  -6   12.21    6.65
   9   2   6   -0.17    6.97
  -9  -1  -6    3.54    4.64
  -1  10  -6    0.92    2.01
  10  -9  -6   -2.52    5.26
  -1  10  -6    1.73    2.06
  -9  -1  -6    8.66    5.13
  -1  10  -6   23.79    9.58
  -9  -1  -6   -1.87    4.84
   9   1   6   -0.51    7.52
   9  -9  -6   16.22    6.22
   0   9  -6   19.38    3.24
   0   9  -6   22.79    3.42
  -9   0  -6   17.57    5.74
   9  -9  -6   22.66    5.47
  -9   0  -6   20.07    6.09
   0   9  -6   18.15    8.34
  -9   0  -6   21.38    5.26
   9   0   6   37.57    8.94
  -9   1  -6    3.85    4.84
   8  -9  -6    9.77    5.71
   8  -9  -6   13.07    4.63
  -9   1  -6    8.23    4.91
   1   8  -6    5.66    7.60
   1   8  -6    4.41    3.21
   1   8  -6    1.58    3.05
  -9   1  -6    1.33    3.70
   9  -1   6   13.63    7.30
   7  -9  -6    7.22    5.43
   2   7  -6   -3.09    3.06
  -9   2  -6    5.61    4.58
  -9   2  -6   -3.34    2.92
   2   7  -6    2.52    7.31
  -9   2  -6    0.09    4.49
   2   7  -6    6.02    3.47
  -2  -7   6    0.16    3.20
  -2  -7   6    1.60    3.17
   9  -2   6  -10.15    6.12
  -9   3  -6   26.50    5.61
   6  -9  -6   19.24    6.14
   3   6  -6   27.70    4.60
  -9   3  -6   22.81    4.34
   3   6  -6   21.66    7.88
   3   6  -6   18.98    4.15
  -9   3  -6   20.33    5.55
   9  -3   6   26.24    7.96
  -3  -6   6   19.56    4.49
  -3  -6   6   21.26    4.42
  -9   4  -6    0.11    2.85
  -9   4  -6    4.86    4.31
  -9   4  -6    5.45    3.92
  -9   4  -6    1.18    3.53
   4   5  -6    0.13    6.48
  -4  -5   6    1.59    3.85
   9  -4   6    3.81    6.99
  -4  -5   6   10.64    4.24
  -9   5  -6    1.16    3.49
  -9   5  -6   -0.84    3.32
   5   4  -6    6.06    6.76
  -9   5  -6    3.41    4.20
  -5  -4   6    5.49    4.39
  -5  -4   6   -0.79    4.28
   9  -5   6    3.12    6.74
  -9   6  -6   14.06    5.27
  -9   6  -6    1.02    3.38
  -9   6  -6   11.00    4.00
  -6  -3   6   22.25    5.72
   9  -6   6   10.71    7.14
  -6  -3   6   13.24    5.14
  -9   7  -6    2.56    4.93
  -9   7  -6   -3.94    3.08
  -9   7  -6   -4.72    3.02
  -2   9   6    2.23    2.15
  -7  -2   6    5.72    5.26
  -7  -2   6    3.69    4.90
   9  -7   6    3.44    7.00
  -9   8  -6   -3.30    5.24
  -9   8  -6   -0.96    2.97
  -9   8  -6   -2.54    2.93
  -8  -1   6    1.31    5.21
  -8  -1   6    7.04    5.35
   9  -8   6    0.88    7.01
  -9   9  -6   29.28    7.34
  -9   9  -6   20.22    4.09
  -9   9  -6   16.61    3.77
  -9   0   6   21.27    6.61
  -9   0   6   31.86    6.74
  -9  10  -6   13.21    3.58
  -9  10  -6   16.16    7.11
  -9  10  -6    7.22    3.31
 -10   1   6   13.33    6.19
 -10   1   6   13.41    6.36
  11  -2  -6    0.25    7.26
  -9  11  -6   -1.19    2.52
  -9  11  -6   -1.83    2.59
 -11   2   6    2.61    6.15
 -11   2   6    9.08    6.36
   2   9   6    0.84    4.46
  -9  12  -6    7.31    2.54
  -9  12  -6   11.36    2.58
  12  -3  -6    9.39    3.47
  12  -3  -6   22.76    8.37
   3   9   6    6.82    5.31
 -12   3   6   11.27    6.98
 -12   3   6    9.86    6.84
  13  -4  -6   16.80    3.82
  13  -4  -6   16.71    8.43
 -13   4   6   17.22    7.41
   4   9   6   -0.28    5.25
 -13   4   6    5.10    7.00
  -5  -9  -6    1.23    5.66
  14  -5  -6   -1.60    3.29
  -5  -9  -6   -1.94    5.43
  14  -5  -6    1.17    7.68
   5   9   6   -0.60    5.54
 -14   5   6    1.41    6.75
 -14   5   6   -5.45    6.28
  -6  -9  -6   -0.78    5.90
  -6  -9  -6   -3.93    5.67
  15  -6  -6    7.93    8.42
   6   9   6   -6.30    5.74
 -15   6   6    4.70    6.92
 -15   6   6    2.79    7.30
  -7  -9  -6   -7.68    5.47
  16  -7  -6   -6.59    8.16
  -7  -9  -6    3.48    6.16
   7   9   6    4.66    6.81
 -16   7   6    3.66    7.22
 -16   7   6   11.56    8.17
  -8  -9  -6    6.29    6.69
  17  -8  -6   -9.13    8.38
  -8  -9  -6    1.89    6.84
 -17   8   6   -2.72    7.40
   8   9   6   -3.49    6.67
 -17   8   6   -1.24    7.19
  17 -10  -6    4.50    9.81
 -10  -7  -6    9.41    7.07
 -10  -7  -6    6.38    7.05
  10   7   6   -2.69    6.95
 -17  10   6    1.59    7.61
 -17  10   6   -4.68    6.70
 -10  -6  -6    8.84    6.86
 -10  -6  -6   -2.87    6.25
  16 -10  -6    6.35    9.59
 -16  10   6    9.21    7.85
 -16  10   6    4.60    7.12
  15 -10  -6    5.70    8.86
 -10  -5  -6    7.93    6.67
 -10  -5  -6   19.55    7.46
  10   5   6   -0.55    7.72
 -15  10   6    6.04    7.41
 -15  10   6    3.74    6.89
 -10  -4  -6    6.76    6.51
 -10  -4  -6    4.29    6.24
  14 -10  -6    3.35    7.69
  10   4   6   -6.49    7.07
 -14  10   6   -9.21    5.91
 -14  10   6    1.64    6.19
 -10  -3  -6  -11.05    5.12
  13 -10  -6    6.68    7.41
 -10  -3  -6    1.70    5.56
  10   3   6   -7.93    6.93
 -10  -2  -6    3.65    5.48
  -2  12  -6   11.26    9.67
  12 -10  -6   -1.16    6.68
 -10  -2  -6   -5.62    5.15
  10   2   6   -5.50    7.20
  11 -10  -6   60.86    8.34
 -10  -1  -6   59.07    8.70
 -10  -1  -6   58.48    8.50
 -10  -1  -6   71.51    8.54
  -1  11  -6   57.85   12.51
  10   1   6   64.36   11.09
 -10   0  -6   50.86    8.01
 -10   0  -6   49.97    7.16
   0  10  -6   49.69    4.33
   0  10  -6   45.29    4.27
  10 -10  -6   78.61    7.89
   0  10  -6   52.39   11.24
 -10   0  -6   54.55    7.97
  10   0   6   44.68   10.09
   1   9  -6   17.02    3.56
   1   9  -6    1.66    8.17
   1   9  -6    8.67    3.34
 -10   1  -6   25.18    6.25
 -10   1  -6   11.52    5.55
 -10   1  -6    8.15    4.53
   9 -10  -6    9.55    4.98
  10  -1   6   11.42    7.73
   2   8  -6    2.38    3.39
 -10   2  -6   -0.67    3.41
 -10   2  -6    7.02    4.99
   2   8  -6    4.78    7.84
   2   8  -6   -1.66    3.13
 -10   2  -6    1.06    4.92
  10  -2   6    7.40    7.42
  -2  -8   6    1.14    3.06
  -2  -8   6   -1.79    3.00
   3   7  -6    0.35    3.57
   3   7  -6   -0.72    7.26
 -10   3  -6    4.28    4.96
 -10   3  -6    1.67    3.54
 -10   3  -6   -3.83    4.25
   3   7  -6    0.45    3.62
  -3  -7   6   -3.56    3.47
  -3  -7   6    3.45    3.72
  10  -3   6    4.59    7.08
  -7  10   6    2.84    3.25
 -10   4  -6   -9.46    3.78
 -10   4  -6    3.95    4.77
   4   6  -6    9.95    7.57
 -10   4  -6    3.24    3.24
 -10   4  -6    3.01    4.43
  -6  10   6    1.26    2.86
  10  -4   6   -2.45    6.75
  -4  -6   6    0.02    3.74
  -4  -6   6    0.43    3.66
 -10   5  -6   -0.22    3.79
 -10   5  -6   -0.30    3.61
   5   5  -6   -1.91    6.68
 -10   5  -6    1.48    4.33
  -5  -5   6    1.25    4.31
  -5  -5   6    1.54    4.36
  -5  10   6   -2.49    2.43
  10  -5   6   -7.24    6.86
 -10   6  -6    5.92    4.09
   6   4  -6    6.50    6.80
 -10   6  -6    3.36    4.54
 -10   6  -6   -2.12    3.45
  -6  -4   6   10.87    5.13
  -6  -4   6    3.94    4.86
  10  -6   6   -0.69    7.59
  -4  10   6    3.48    2.46
  10  -7   6   11.53    7.27
 -10   8  -6    7.95    3.83
 -10   8  -6   -3.20    5.54
 -10   8  -6   -4.02    3.30
  -8  -2   6   -1.18    5.13
  -2  10   6    3.14    2.65
  10  -8   6    2.75    7.53
  -8  -2   6   -1.38    5.03
 -10   9  -6    5.93    3.44
 -10   9  -6   -3.77    3.04
 -10   9  -6    2.55    6.00
  -9  -1   6    1.96    5.68
  -9  -1   6   -1.27    5.30
  10  -9   6   -2.56    7.33
 -10  10  -6   49.54    5.36
 -10  10  -6   51.01    5.68
 -10   0   6   52.33    8.47
 -10   0   6   40.15    7.74
 -10  11  -6   -1.63    2.84
 -10  11  -6    4.11    3.18
 -11   1   6    2.00    5.90
 -11   1   6    2.60    6.01
 -10  12  -6   12.89    3.29
  12  -2  -6   12.91    8.20
 -10  12  -6    5.68    3.01
 -12   2   6   -0.17    6.16
 -12   2   6   11.89    6.86
 -10  13  -6    4.75    2.47
  13  -3  -6    7.43    8.31
 -10  13  -6    3.03    2.54
  13  -3  -6    3.74    3.10
 -13   3   6   16.17    7.45
 -13   3   6    3.07    6.28
   3  10   6    7.68    5.61
  14  -4  -6   -2.22    8.00
 -14   4   6   13.38    7.56
 -14   4   6    5.77    6.79
   4  10   6    7.00    5.84
  -5 -10  -6   -8.55    5.41
  -5 -10  -6   -3.23    5.61
  15  -5  -6   -8.36    7.89
   5  10   6   -1.94    5.84
 -15   5   6    1.28    7.18
 -15   5   6   11.34    7.40
  16  -6  -6    1.28    8.61
  -6 -10  -6    9.78    6.67
  -6 -10  -6   -2.33    5.77
   6  10   6    1.64    6.07
 -16   6   6    1.67    7.44
 -16   6   6    4.36    7.29
  17  -7  -6   -5.68    8.54
  -7 -10  -6    3.97    6.69
  -7 -10  -6   -2.39    6.20
 -17   7   6   13.82    8.30
 -17   7   6   -1.90    8.03
   7  10   6    3.04    6.49
 -11  -6  -6    0.71    6.42
  17 -11  -6   17.36   10.15
 -11  -6  -6   -3.18    6.62
 -17  11   6    3.02    7.02
 -17  11   6   -5.82    7.01
  11   6   6    3.97    8.88
 -11  -5  -6   -0.09    6.37
 -11  -5  -6   -1.35    6.23
  16 -11  -6    0.37    8.55
  11   5   6    3.74    9.14
 -16  11   6   -3.02    6.75
 -16  11   6   -0.23    7.41
 -11  -4  -6   -4.70    5.79
 -11  -4  -6   -0.08    6.32
  15 -11  -6    2.23    8.14
 -15  11   6   -6.07    6.36
 -15  11   6    2.37    6.91
  11   4   6   11.86    9.23
 -11  -3  -6   -4.21    5.43
  14 -11  -6    7.00    8.07
 -11  -3  -6    2.13    6.06
  11   3   6   12.61    9.02
 -11  -2  -6    4.07    6.08
 -11  -2  -6    9.63    6.15
  13 -11  -6    1.77    7.17
  11   2   6   -9.76    7.93
  12 -11  -6   14.96    6.55
 -11  -1  -6   31.11    6.79
 -11  -1  -6   16.69    6.57
 -11  -1  -6   16.33    6.69
  11   1   6    3.65    8.79
   0  11  -6   18.05   10.04
 -11   0  -6    6.69    5.90
  11 -11  -6    3.65    5.86
 -11   0  -6   -2.82    5.22
 -11   0  -6    8.16    5.21
  11   0   6   -4.83    7.98
 -11   1  -6    3.82    5.57
  10 -11  -6    3.93    5.36
 -11   1  -6    2.11    4.65
   1  10  -6   12.09    9.58
   1  10  -6    6.33    3.16
 -11   1  -6    9.78    5.80
   1  10  -6    7.93    3.18
  11  -1   6   17.18    8.57
   2   9  -6   -5.24    3.08
 -11   2  -6   -1.50    4.12
 -11   2  -6    4.10    5.34
   2   9  -6   -3.31    3.16
   2   9  -6   -6.21    8.18
 -11   2  -6    5.53    5.31
  11  -2   6    2.24    7.73
  -9  11   6    2.83    4.35
  -2  -9   6    3.00    3.46
  -2  -9   6    3.14    3.18
 -11   3  -6    3.21    5.13
 -11   3  -6    5.49    4.35
 -11   3  -6   -1.60    3.30
   3   8  -6   -2.15    3.57
 -11   3  -6    0.27    4.79
   3   8  -6    2.65    3.73
   3   8  -6  -18.47    7.72
  -8  11   6    5.28    3.79
  -3  -8   6    3.44    3.67
  11  -3   6   -9.02    6.95
  -3  -8   6    2.71    3.72
 -11   4  -6    5.60    4.70
 -11   4  -6    1.64    3.45
 -11   4  -6    2.80    5.01
   4   7  -6   -7.15    7.34
 -11   4  -6    6.89    4.86
  -7  11   6    5.63    3.60
  -4  -7   6   -9.56    3.59
  -4  -7   6    7.54    4.28
 -11   5  -6   -1.44    3.05
 -11   5  -6    5.56    4.92
 -11   5  -6   -2.47    4.20
 -11   5  -6    8.30    4.62
   5   6  -6    8.59    7.70
  -5  -6   6   -1.36    4.21
  -5  -6   6    5.56    4.49
  11  -5   6    0.47    7.35
  -6  11   6   -5.41    2.84
 -11   6  -6   13.60    5.19
   6   5  -6   -1.74    6.80
 -11   6  -6    5.63    4.18
 -11   6  -6    8.50    4.10
  -5  11   6    3.57    3.06
  11  -6   6    2.94    7.87
  -6  -5   6    4.41    4.73
  -6  -5   6    9.42    4.76
 -11   7  -6    2.90    5.27
   7   4  -6    8.19    6.89
 -11   7  -6    0.07    4.02
 -11   7  -6    8.34    4.29
  -4  11   6    2.75    2.87
  -7  -4   6   10.42    5.53
  -7  -4   6    4.33    5.20
  11  -7   6   -2.51    7.58
   8   3  -6   13.49    7.16
 -11   8  -6    8.21    3.96
 -11   8  -6    8.08    4.10
 -11   8  -6    7.09    5.53
  -8  -3   6    9.19    5.90
  -8  -3   6   -5.14    5.22
  -3  11   6    3.63    3.12
  11  -8   6   13.18    8.43
 -11   9  -6   11.67    4.46
   9   2  -6    2.15    6.79
 -11   9  -6   10.89    4.16
  11  -9   6    9.84    8.36
  -9  -2   6    9.29    5.97
  -2  11   6    7.16    3.44
  -9  -2   6    9.54    6.19
 -11  10  -6   65.82    6.79
 -11  10  -6   64.33    6.49
 -10  -1   6   50.77    8.66
 -10  -1   6   61.29    9.06
 -11  11  -6    9.83    3.75
 -11  11  -6    8.39    3.65
 -11   0   6    1.81    6.22
 -11   0   6    0.63    6.35
 -11  12  -6    4.10    3.46
 -11  12  -6    0.25    3.30
 -12   1   6   10.42    6.97
 -12   1   6    6.56    6.62
 -11  13  -6    2.94    3.18
 -11  13  -6   -0.84    2.97
  13  -2  -6   -1.88    2.87
  13  -2  -6   -6.35    7.95
 -13   2   6    3.63    6.81
 -13   2   6    3.77    6.97
  14  -3  -6   -2.65    8.04
 -14   3   6    1.29    6.98
 -14   3   6   -9.92    6.27
  -4 -11  -6   12.03    6.56
  -4 -11  -6    6.39    6.44
  15  -4  -6   22.19    9.96
 -15   4   6   -0.11    6.87
 -15   4   6    0.72    7.20
   4  11   6    9.79    6.22
  -5 -11  -6   17.03    7.03
  -5 -11  -6    3.14    6.31
  16  -5  -6   13.51    9.24
 -16   5   6   -3.29    7.22
 -16   5   6    4.15    7.15
   5  11   6    7.87    6.50
  -6 -11  -6    3.85    6.29
  -6 -11  -6    0.80    6.50
  17  -6  -6    2.37    9.08
 -17   6   6   18.48    8.40
 -17   6   6    3.11    7.98
   6  11   6   -0.46    6.45
 -12  -5  -6   -0.98    6.31
  17 -12  -6   15.05    9.50
 -12  -5  -6    5.69    7.20
 -17  12   6    5.06    7.70
  12   5   6    5.26    9.85
 -17  12   6    2.48    7.36
 -12  -4  -6    3.82    6.94
 -12  -4  -6   11.71    6.80
  16 -12  -6    4.97    8.46
  12   4   6   10.96    9.98
 -12  -3  -6    6.28    6.78
 -12  -3  -6    1.09    6.37
  15 -12  -6    7.83    8.51
  12   3   6    7.30    9.51
 -12  -2  -6   -5.21    6.01
 -12  -2  -6    3.87    6.06
  14 -12  -6   -4.59    6.93
  12   2   6   17.20    9.49
  13 -12  -6    3.46    7.09
 -12  -1  -6    4.66    6.05
 -12  -1  -6  -10.72    4.99
  12   1   6    4.16    9.18
 -12   0  -6    8.58    6.39
 -12   0  -6    6.72    5.65
 -12   0  -6   13.83    6.49
  12 -12  -6    8.68    6.43
  12   0   6    9.66    8.88
  11 -12  -6   10.52    6.17
 -12   1  -6   -1.34    5.34
 -12   1  -6   -5.96    5.50
 -12   1  -6    7.14    5.29
   1  11  -6   11.74   10.43
  12  -1   6    4.73    9.03
 -12   2  -6   13.83    5.07
   2  10  -6   11.80   10.15
 -12   2  -6   14.54    3.95
 -12   2  -6   16.70    6.60
 -12   2  -6    9.66    6.02
  -2 -10   6   14.47    3.94
  -2 -10   6   12.00    3.72
  12  -2   6    6.43    8.81
 -12   3  -6    6.50    4.44
 -12   3  -6    2.64    5.42
   3   9  -6    6.97    3.88
 -12   3  -6    1.96    5.86
   3   9  -6    6.22    3.93
   3   9  -6   -0.72    8.76
 -12   3  -6   15.26    4.13
  12  -3   6   16.79    8.77
  -3  -9   6    8.98    4.31
  -3  -9   6    3.36    4.06
 -12   4  -6    1.75    5.56
   4   8  -6    9.44    8.22
 -12   4  -6   -0.25    3.29
 -12   4  -6    4.32    4.34
 -12   4  -6    1.27    5.22
  -4  -8   6   -2.87    4.24
  -4  -8   6    5.99    4.53
  12  -4   6    9.41    8.49
 -12   5  -6   -1.75    3.11
 -12   5  -6    1.07    4.99
 -12   5  -6    6.14    5.37
   5   7  -6   -4.86    7.76
 -12   5  -6    3.14    5.08
  -7  12   6   -0.13    3.46
  12  -5   6   -2.79    8.15
  -5  -7   6   -1.03    4.34
  -5  -7   6   -6.94    4.30
 -12   6  -6    4.83    3.44
 -12   6  -6    5.31    5.15
 -12   6  -6   -7.50    4.71
   6   6  -6   -0.03    7.36
 -12   6  -6    5.98    5.05
  -6  -6   6    9.61    5.07
  12  -6   6    1.26    8.33
  -6  12   6   12.72    3.62
  -6  -6   6   -4.08    4.57
   7   5  -6   -6.24    6.89
 -12   7  -6    0.99    4.20
 -12   7  -6   -0.59    3.88
  12  -7   6    0.34    8.20
  -5  12   6   -2.28    3.05
  -7  -5   6   -0.65    5.01
  -7  -5   6   -9.04    4.51
 -12   8  -6    3.05    4.18
 -12   8  -6   -0.73    4.12
   8   4  -6    8.44    7.26
  -8  -4   6    0.12    5.47
  -8  -4   6    1.47    5.59
  12  -8   6   -5.22    8.28
   9   3  -6    7.26    7.08
 -12   9  -6   15.43    4.56
 -12   9  -6   13.23    4.88
  -9  -3   6   -2.44    5.77
  12  -9   6    0.66    8.52
  -9  -3   6   11.09    6.50
 -12  10  -6   -3.65    3.67
 -12  10  -6    2.87    3.91
 -10  -2   6   -0.52    6.13
  12 -10   6    4.27    8.64
 -10  -2   6   -5.30    5.75
 -12  11  -6   19.90    4.69
  11   1  -6   20.61    7.87
 -12  11  -6   22.34    4.70
 -11  -1   6   12.56    6.83
 -11  -1   6   24.00    7.43
 -12  12  -6    3.16    3.89
 -12  12  -6   -1.09    3.78
 -12   0   6   13.25    6.98
 -12   0   6   -3.36    6.53
 -12  13  -6   -1.06    3.51
  13  -1  -6   -3.69    8.42
 -12  13  -6   -0.32    3.60
 -13   1   6    5.26    6.96
 -13   1   6    2.95    7.14
  14  -2  -6   -4.09    8.44
 -14   2   6    5.85    7.32
 -14   2   6    1.22    7.28
  15  -3  -6    0.35    8.75
 -15   3   6    3.00    7.32
 -15   3   6    2.19    7.34
  16  -4  -6   10.43   10.12
  -4 -12  -6   12.02    6.63
  -4 -12  -6   -4.23    5.81
 -16   4   6    4.44    7.49
 -16   4   6   -7.71    6.85
  -5 -12  -6    7.35    6.71
  17  -5  -6    3.38    9.17
  -5 -12  -6   22.56    7.80
   5  12   6    9.48    6.95
 -17   5   6   25.58    8.73
 -17   5   6   -9.73    7.53
 -13  -4  -6    4.22    7.17
 -13  -4  -6    2.08    6.57
  17 -13  -6   10.31    9.48
  13   4   6   -6.07    9.12
 -13  -3  -6    1.19    6.07
  16 -13  -6   -4.88    8.21
 -13  -3  -6   -9.26    5.99
  13   3   6  -10.36    9.01
 -13  -2  -6    7.39    6.54
 -13  -2  -6  -10.31    5.97
  15 -13  -6   -8.73    7.70
  13   2   6    0.13    8.92
  14 -13  -6   -1.50    7.26
 -13  -1  -6   -9.24    5.83
 -13  -1  -6    0.74    6.07
  13   1   6   18.18   10.20
 -13   0  -6   -0.66    6.11
  13 -13  -6    5.48    6.95
 -13   0  -6   19.18    6.82
  13   0   6    6.81    9.85
 -13   1  -6  -12.80    5.01
 -13   1  -6    3.69    5.90
  12 -13  -6    2.47    6.48
 -13   1  -6   -2.60    5.21
  13  -1   6    7.57    8.88
 -13   2  -6   -2.33    4.57
   2  11  -6   10.22    9.68
 -13   2  -6   -3.07    5.84
 -13   2  -6   -5.24    5.20
  -2 -11   6   -3.09    3.29
  13  -2   6   17.45    9.46
  -2 -11   6   -1.89    3.10
 -13   3  -6   -6.29    5.51
   3  10  -6    7.30    9.85
 -13   3  -6    0.60    4.47
 -13   3  -6    4.04    5.86
  -3 -10   6    4.31    4.02
  -3 -10   6    4.62    3.83
  13  -3   6   -3.61    8.29
 -13   4  -6   13.58    6.12
   4   9  -6   12.57    9.44
 -13   4  -6   17.52    6.86
 -13   4  -6   18.33    5.02
  13  -4   6   15.07    9.12
  -4  -9   6   20.79    4.99
  -4  -9   6   14.38    5.05
 -13   5  -6   11.40    4.06
 -13   5  -6   14.25    6.15
   5   8  -6    6.43    8.36
 -13   5  -6   27.08    6.94
  -5  -8   6   23.83    5.48
  -5  -8   6   16.25    5.17
  13  -5   6    4.78    8.93
 -13   6  -6    2.21    5.15
 -13   6  -6    5.21    3.87
 -13   6  -6   10.70    5.66
   6   7  -6    4.54    8.27
  13  -6   6   -3.08    7.64
  -6  -7   6    3.57    5.06
  -6  -7   6    9.26    5.32
 -13   7  -6    8.98    5.51
   7   6  -6    1.95    7.48
 -13   7  -6   15.34    4.22
 -13   7  -6   18.96    6.05
  -7  -6   6    5.26    5.35
  13  -7   6    4.50    8.48
  -7  -6   6    9.40    5.34
 -13   8  -6   -0.56    4.54
 -13   8  -6   -0.11    4.40
   8   5  -6  -13.34    6.60
  -8  -5   6   -5.69    5.21
  -8  -5   6    0.76    5.55
  13  -8   6   -3.70    8.25
 -13   9  -6    0.83    4.65
 -13   9  -6    5.72    4.67
   9   4  -6    3.89    7.35
  -9  -4   6    4.35    6.08
  13  -9   6    2.43    8.60
  -9  -4   6    0.69    5.79
  10   3  -6    9.14    7.16
 -13  10  -6   -0.17    4.16
 -13  10  -6   -0.22    4.46
  13 -10   6   -9.51    8.48
 -10  -3   6   -2.07    5.97
 -10  -3   6    6.90    6.64
 -13  11  -6    1.02    3.86
 -13  11  -6    1.07    4.10
  11   2  -6    3.60    7.03
 -11  -2   6   15.38    7.19
  13 -11   6  -10.73    8.41
 -11  -2   6    1.25    6.27
 -13  12  -6    6.71    4.22
  12   1  -6    6.82    6.97
 -13  12  -6    1.33    4.17
 -12  -1   6   -0.05    6.84
 -12  -1   6    2.01    6.47
 -13  13  -6   11.83    4.41
  13   0  -6   17.99    7.30
 -13  13  -6    3.89    4.13
 -13   0   6    1.66    6.92
 -13   0   6   -5.05    6.62
  14  -1  -6    7.45    6.76
  14  -1  -6    6.33    9.45
 -14   1   6    0.67    7.15
 -14   1   6    5.41    7.55
  15  -2  -6    9.21    9.81
 -15   2   6    2.85    7.60
 -15   2   6    4.39    7.45
  -3 -13  -6   -7.79    5.71
  -3 -13  -6   -3.24    5.93
  16  -3  -6   23.10   10.38
 -16   3   6   -6.76    7.30
 -16   3   6    6.28    7.70
  -4 -13  -6    0.63    6.75
  17  -4  -6    6.67    9.57
  -4 -13  -6    1.10    6.59
 -17   4   6    5.89    8.15
 -17   4   6   -5.32    7.36
  16 -14  -6   13.97    8.97
 -14  -2  -6    0.64    6.67
 -14  -2  -6    1.73    6.91
  14   2   6    8.79   10.05
  15 -14  -6   11.13    8.30
 -14  -1  -6    7.77    6.98
 -14  -1  -6    4.56    7.18
  14   1   6    9.29   10.42
 -14   0  -6    0.32    6.85
  14 -14  -6   -5.17    7.31
 -14   0  -6   -5.95    5.79
  14   0   6   21.40   10.43
 -14   1  -6   -3.66    6.11
  13 -14  -6    0.53    6.64
 -14   1  -6    7.26    7.08
  14  -1   6   -0.14    9.22
 -14   2  -6   -0.62    5.11
 -14   2  -6  -10.88    6.02
 -14   2  -6   -1.43    6.08
  14  -2   6    6.30    9.63
 -14   3  -6    5.87    6.38
 -14   3  -6  -10.96    4.45
 -14   3  -6   -0.97    6.51
   3  11  -6    1.49    9.36
  14  -3   6    6.46    9.21
  -3 -11   6    1.48    3.75
  -3 -11   6    7.20    4.07
 -14   4  -6   -5.87    4.10
   4  10  -6   -1.67    9.02
 -14   4  -6   12.49    6.45
 -14   4  -6    6.66    6.57
  14  -4   6   -8.57    8.48
  -4 -10   6    3.62    4.44
  -4 -10   6   -2.15    4.40
 -14   5  -6    0.79    6.07
 -14   5  -6    2.10    5.55
   5   9  -6   11.43    9.13
 -14   5  -6    1.70    4.23
  14  -5   6   -2.54    8.71
  -5  -9   6   -7.15    4.25
  -5  -9   6    6.40    4.99
 -14   6  -6   -4.19    5.64
 -14   6  -6    8.36    6.13
   6   8  -6   11.36    8.94
 -14   6  -6    1.78    3.98
  -6  -8   6    3.93    5.02
  14  -6   6    9.13    8.91
  -6  -8   6    8.71    5.04
 -14   7  -6   20.47    6.74
   7   7  -6   11.22    8.58
 -14   7  -6   11.03    4.34
 -14   7  -6    9.78    6.05
  14  -7   6    8.45    9.31
  -7  -7   6   16.05    6.07
  -7  -7   6   21.41    6.33
   8   6  -6   -0.71    7.54
 -14   8  -6   -0.29    5.26
 -14   8  -6    2.62    6.06
  -8  -6   6   -0.16    5.07
  -8  -6   6   -2.09    5.23
  14  -8   6    1.53    8.91
   9   5  -6    0.75    7.48
 -14   9  -6    7.65    5.65
 -14   9  -6    3.72    4.67
  14  -9   6    0.61    8.67
  -9  -5   6    0.59    5.62
  -9  -5   6    3.88    5.91
 -14  10  -6   -0.39    4.42
 -14  10  -6    7.57    5.20
  10   4  -6    0.77    7.17
 -10  -4   6  -12.31    5.62
 -10  -4   6    1.84    6.35
  14 -10   6   -3.65    8.28
 -14  11  -6    7.39    4.85
 -14  11  -6    9.46    4.64
  11   3  -6    5.48    7.47
 -11  -3   6    8.05    6.76
  14 -11   6    7.61    9.98
 -11  -3   6   -4.29    5.88
  12   2  -6   -1.97    7.02
 -14  12  -6    0.18    4.15
 -14  12  -6    1.13    4.60
  14 -12   6   -2.70    9.48
 -12  -2   6    0.43    6.48
 -12  -2   6   -0.26    6.71
 -14  13  -6   -3.30    4.01
 -14  13  -6    2.17    4.35
  13   1  -6   -2.92    6.16
 -13  -1   6    0.31    6.90
 -13  -1   6  -13.57    6.57
  14   0  -6   -2.05    9.53
  14   0  -6    1.95    6.63
 -14   0   6   -4.76    6.97
 -14   0   6   -5.14    7.51
  15  -1  -6   -5.80    9.44
  15  -1  -6   -0.20    6.44
 -15   1   6    5.96    8.15
 -15   1   6   -3.92    7.11
  16  -2  -6    2.55    9.73
 -16   2   6   14.51    8.38
 -16   2   6   10.34    9.35
  16 -15  -6   -4.36    8.26
 -15   0  -6   -2.99    6.98
  15 -15  -6    5.52    8.36
 -15   0  -6   10.62    7.23
  15   0   6   -5.73   10.15
 -15   1  -6   -4.74    6.72
  14 -15  -6   -5.35    7.51
 -15   1  -6   -0.77    6.56
  15  -1   6   13.43   10.73
 -15   2  -6   12.58    7.58
 -15   2  -6   16.96    7.32
  15  -2   6   19.45   10.57
 -15   3  -6    5.01    7.14
 -15   3  -6   -2.73    5.13
 -15   3  -6   10.11    6.70
  15  -3   6   -7.27    9.25
 -15   4  -6   11.84    6.66
 -15   4  -6    9.31    5.15
 -15   4  -6   19.24    7.49
  15  -4   6   20.44   10.17
  -4 -11   6   -5.29    4.10
  -4 -11   6   18.25    5.06
 -15   5  -6    9.92    7.23
 -15   5  -6   -3.36    4.43
   5  10  -6    6.66    9.66
 -15   5  -6   -5.22    5.64
  -5 -10   6   -6.06    4.32
  15  -5   6    4.15    9.30
  -5 -10   6    5.48    4.98
   6   9  -6   11.49    9.67
 -15   6  -6   -7.75    3.88
 -15   6  -6    6.29    6.49
 -15   6  -6   -1.23    6.35
  15  -6   6  -12.93    8.56
  -6  -9   6   11.71    5.45
  -6  -9   6    3.88    5.05
   7   8  -6   10.17    9.01
 -15   7  -6    6.68    6.76
 -15   7  -6    2.89    4.20
 -15   7  -6    3.57    6.34
  15  -7   6   -0.71    8.87
  -7  -8   6   -3.37    5.10
  -7  -8   6    3.15    5.09
   8   7  -6   16.54    9.25
 -15   8  -6   10.07    6.27
 -15   8  -6   15.61    6.96
 -15   8  -6   11.30    4.39
  15  -8   6    0.26    9.08
  -8  -7   6   -1.28    5.08
  -8  -7   6    2.36    5.21
   9   6  -6    4.19    7.74
 -15   9  -6   -0.77    5.83
 -15   9  -6   13.09    5.73
  15  -9   6  -10.22    8.51
  -9  -6   6    7.06    6.20
  -9  -6   6   10.93    6.04
 -15  10  -6   10.06    5.64
  10   5  -6   -1.31    7.66
 -15  10  -6    5.95    5.86
 -10  -5   6    8.80    6.80
 -10  -5   6    5.99    6.51
  15 -10   6    0.25    8.83
 -15  11  -6    5.20    4.82
  11   4  -6   -4.16    6.94
 -15  11  -6   15.10    5.64
 -11  -4   6    1.83    6.76
  15 -11   6    8.39    9.81
 -11  -4   6   -1.31    6.25
  12   3  -6    6.26    7.37
 -15  12  -6    8.54    5.57
 -15  12  -6   -1.69    4.36
  15 -12   6    7.81    9.83
 -12  -3   6   -1.00    6.78
 -12  -3   6  -14.48    6.26
  13   2  -6   -1.00    6.99
 -15  13  -6    6.69    4.80
 -15  13  -6    6.63    4.93
 -13  -2   6   -9.19    6.64
 -13  -2   6   -2.50    6.79
  15 -13   6    8.82   10.07
  14   1  -6   -3.22    6.67
 -14  -1   6    1.31    7.36
 -14  -1   6    4.94    7.90
  15   0  -6    5.37   10.37
 -15   0   6    4.34    7.68
 -15   0   6    2.53    7.61
  16  -1   6   19.31   11.03
 -16   2  -6    2.81    6.99
 -16   2  -6    8.82    7.84
  16  -2   6   19.80   11.47
 -16   3  -6   12.82    7.93
 -16   3  -6    2.17    6.71
  16  -3   6   -6.63   10.00
 -16   4  -6    7.23    7.64
 -16   4  -6    5.60    6.97
  16  -4   6   12.43   10.28
 -16   5  -6    7.53    7.39
 -16   5  -6    4.81    7.76
  16  -5   6    2.11    9.66
 -16   6  -6   -0.41    7.02
 -16   6  -6   11.13    7.00
  -6 -10   6    6.58    5.25
  16  -6   6   16.64   10.33
  -6 -10   6    2.54    5.29
   7   9  -6    8.23    9.02
 -16   7  -6    8.26    7.66
 -16   7  -6   -8.80    5.95
  -7  -9   6   -0.78    5.14
  -7  -9   6   -3.59    5.09
  16  -7   6    1.75    9.33
   8   8  -6    0.54    8.67
 -16   8  -6   -5.23    6.40
 -16   8  -6   -2.69    5.90
  16  -8   6   -4.99    9.19
  -8  -8   6    0.89    5.52
  -8  -8   6    1.22    5.48
 -16   9  -6    2.28    6.21
 -16   9  -6    0.54    4.07
   9   7  -6   13.00    8.74
 -16   9  -6    9.94    6.77
  -9  -7   6   -5.30    5.24
  -9  -7   6   -7.58    5.52
  16  -9   6    4.74    9.56
 -16  10  -6    8.86    5.77
  10   6  -6   -4.74    8.03
 -16  10  -6    0.68    6.35
 -10  -6   6    0.06    6.05
  16 -10   6    8.41    9.84
 -10  -6   6    7.95    6.74
  11   5  -6   -6.95    7.43
 -16  11  -6    4.14    5.82
 -16  11  -6    1.23    5.25
 -11  -5   6    6.59    6.96
 -11  -5   6   -9.37    6.54
  16 -11   6   -2.19    9.51
 -16  12  -6    9.52    6.30
  12   4  -6    7.78    7.53
 -16  12  -6   11.43    5.72
  16 -12   6    6.03   10.23
 -12  -4   6   -2.01    6.59
 -12  -4   6   -5.65    6.79
 -16  13  -6   17.73    5.93
  13   3  -6   -3.58    7.02
 -16  13  -6   -1.27    5.37
  16 -13   6   -0.02   10.13
 -13  -3   6   -5.39    6.51
 -13  -3   6   13.78    8.06
  14   2  -6    0.12    6.97
 -14  -2   6   -0.73    7.15
 -14  -2   6   10.36    8.25
 -17   4  -6   -0.99    7.20
 -17   4  -6    8.19    8.73
  17  -4   6    7.13   10.64
 -17   5  -6    1.98    7.51
 -17   5  -6   12.77    9.00
  17  -5   6   12.56   10.61
 -17   6  -6  -15.81    7.02
 -17   6  -6   -3.31    6.52
  17  -6   6   -0.06   10.04
 -17   7  -6    1.91    7.62
 -17   7  -6   -5.66    6.26
  -7 -10   6    0.79    5.47
  -7 -10   6   -0.26    5.46
  17  -7   6  -12.22    8.97
 -17   8  -6   -0.05    6.57
 -17   8  -6  -10.78    7.04
  -8  -9   6    1.92    5.45
  -8  -9   6   -1.50    5.55
  17  -8   6   19.32   10.51
 -17   9  -6   -4.32    7.04
   9   8  -6   -3.66    8.15
 -17   9  -6    8.12    6.63
  -9  -8   6   -2.09    5.55
  17  -9   6   -0.79   10.06
  -9  -8   6   12.50    6.49
 -17  10  -6    1.56    5.79
  10   7  -6    3.33    8.58
 -17  10  -6   -4.87    5.97
 -10  -7   6   -8.81    5.56
 -10  -7   6   -4.14    6.15
  17 -10   6    0.87    9.52
  11   6  -6   -6.16    7.87
 -17  11  -6   -0.81    6.52
 -17  11  -6    9.49    6.30
 -11  -6   6   -1.92    6.31
 -11  -6   6   -3.06    7.15
  17 -11   6    3.49    9.74
  12   5  -6    6.53    8.15
 -17  12  -6    9.29    6.92
 -17  12  -6   -0.81    5.81
 -12  -5   6    0.29    6.89
  17 -12   6    2.73    9.96
 -12  -5   6    8.15    7.97
 -17  13  -6   -1.98    6.09
  13   4  -6   -5.00    7.83
 -17  13  -6    3.10    5.80
  17 -13   6    6.08   10.14
 -13  -4   6   12.11    7.69
 -13  -4   6    1.42    7.64
   0   0  -7   -3.84    3.49
  -1   0  -7  275.54   14.74
   1  -1  -7  290.65   15.39
   0  -1  -7  261.45   13.59
   0  -1  -7  279.08   14.82
  -1   1  -7  258.43   14.47
  -1   2  -7    3.94    4.41
  -1  -1  -7   11.27    3.77
  -1  -1  -7    1.33    3.99
  -2  -1  -7   62.25    6.95
  -2  -1  -7   71.96    6.37
   3  -2  -7   58.95    6.82
   2  -2  -7   80.65    7.85
  -2   0  -7   84.74    7.28
  -2   0  -7   80.23    7.78
   1  -2  -7    7.88    4.22
   1  -2  -7    3.06    2.94
  -2   1  -7    4.93    4.21
  -2   2  -7   85.50    7.61
   0  -2  -7   82.84    6.52
   0  -2  -7   72.92    7.69
  -1  -2  -7   28.12    4.00
  -1  -2  -7   20.38    5.03
  -2   3  -7   25.54    5.22
  -2  -2  -7    8.86    4.25
   4  -2  -7   -2.31    3.66
  -2  -2  -7   -0.69    3.06
   5  -3  -7    4.22    3.93
  -3  -2  -7    4.76    3.37
  -3  -2  -7    7.74    4.33
   3   2   7    1.00    3.34
  -1   4  -7    2.98    3.25
  -1   4  -7   -2.07    3.13
   4  -3  -7    3.47    4.03
  -3  -1  -7   13.16    4.59
  -3  -1  -7    8.88    3.88
   3   1   7    5.10    3.64
   3  -3  -7  377.90   18.73
  -3   0  -7  367.19   18.87
   0   3  -7  359.44   16.77
   0   3  -7  366.07   17.24
   1   2  -7   24.79    4.58
   1   2  -7   15.68    4.25
   2  -3  -7   25.15    3.18
   2  -3  -7   28.77    5.39
  -3   1  -7   34.50    5.54
   1  -3  -7   56.52    4.80
   1  -3  -7   66.35    7.30
  -3   2  -7   70.37    7.12
  -3   3  -7  347.96   19.26
   0  -3  -7  380.02   16.33
   0  -3  -7  361.81   18.79
  -1  -3  -7   53.79    6.98
  -1  -3  -7   67.47    5.16
  -2  -3  -7   41.91    6.31
   5  -2  -7   40.76    5.71
   2   3   7   36.77    4.23
  -3   6  -7   -6.41    6.12
  -3  -3  -7    7.32    4.72
   6  -3  -7   -1.27    3.68
   3   3   7   -5.46    3.23
  -3   7  -7   49.60    4.68
  -3   7  -7   69.99    5.10
   7  -4  -7   58.32    6.79
  -4  -3  -7   69.68    8.09
   7  -4  -7   51.82    6.58
  -3   7  -7   36.69    8.39
   4   3   7   53.92    6.49
  -2   6  -7   -2.04    2.67
  -2   6  -7   11.31    6.73
  -2   6  -7    0.25    2.81
   6  -4  -7    6.40    3.95
   6  -4  -7    9.97    4.47
  -4  -2  -7    1.52    4.14
  -4  -2  -7   -9.39    3.40
   4   2   7    4.68    4.14
  -4  -1  -7   40.49    6.44
  -1   5  -7   52.07    5.30
   5  -4  -7   48.09    6.56
  -4  -1  -7   48.88    6.08
  -1   5  -7   51.34    5.35
   5  -4  -7   60.28    5.38
   4   1   7   58.90    6.44
  -4   0  -7  112.81    9.66
  -4   0  -7  126.31    9.53
   0   4  -7  118.28    8.20
   4  -4  -7  108.62    7.13
   0   4  -7  131.19    8.57
   4  -4  -7  130.70    9.40
   4   0   7  127.42    9.79
  -4   1  -7   62.13    7.18
  -4   1  -7   63.44    7.27
   1   3  -7   62.78    6.02
   3  -4  -7   64.24    4.19
   1   3  -7   56.63    5.99
   3  -4  -7   66.94    7.33
   2  -4  -7   -0.65    3.88
  -4   2  -7    5.65    4.58
   1  -4  -7   -0.84    4.11
  -4   3  -7    1.64    4.47
   0  -4  -7  106.99    9.28
  -1  -4  -7   88.40    8.89
  -2  -4  -7  172.31   13.26
  -4   6  -7  166.20   14.10
   2   4   7  211.66   10.51
  -4   7  -7  170.61   14.45
   7  -3  -7  192.75   11.29
  -3  -4  -7  163.42   12.26
   3   4   7  172.17   10.90
  -4  -4  -7    0.32    5.01
  -4   8  -7   -0.12    2.25
  -4   8  -7   -1.18    2.29
   8  -4  -7   -1.64    3.86
   8  -4  -7    0.68    4.72
  -4   8  -7   -9.52    6.86
   4   4   7    5.89    4.23
   9  -5  -7   15.25    4.78
  -4   9  -7   13.30    8.10
  -5  -4  -7   22.52    6.52
  -4   9  -7    9.25    2.64
   9  -5  -7   19.12    5.73
  -4   9  -7    8.32    2.63
   5   4   7   11.34    4.97
   8  -5  -7   -5.29    4.35
   8  -5  -7   -0.75    4.18
  -5  -3  -7    1.65    4.97
  -3   8  -7  -11.34    2.22
  -3   8  -7   -4.21    2.44
  -3   8  -7    6.78    7.31
   5   3   7   -2.89    4.25
   7  -5  -7   80.76    8.01
  -2   7  -7   86.32    6.07
  -2   7  -7   78.13    5.87
  -5  -2  -7   85.64    8.79
   7  -5  -7   79.46    7.36
  -2   7  -7   88.47   10.58
   5   2   7   78.07    7.91
  -5  -1  -7   14.04    4.41
   6  -5  -7   10.40    3.72
  -1   6  -7    9.53    3.50
  -5  -1  -7    7.73    4.34
  -1   6  -7    9.65    3.52
   6  -5  -7   11.37    4.70
  -1   6  -7    6.27    6.67
   5   1   7   13.94    4.99
  -5   0  -7    4.53    3.93
   5  -5  -7   -2.19    4.14
  -5   0  -7    4.86    4.03
   0   5  -7    1.19    3.33
   0   5  -7   -2.36    3.03
   5  -5  -7    5.11    2.91
   5   0   7   -4.37    4.68
   1   4  -7   89.55    6.89
   4  -5  -7   81.12    5.08
  -5   1  -7   91.44    8.44
   4  -5  -7   67.67    7.68
   1   4  -7   64.88    6.47
  -5   1  -7   72.57    7.65
   5  -1   7   80.78    8.44
  -5   2  -7   40.41    6.38
   3  -5  -7   49.85    6.93
   2   3  -7   40.42    5.21
   2   3  -7   30.60    5.01
   5  -2   7   37.28    6.65
   2  -5  -7    4.91    4.27
   1  -5  -7   48.88    7.10
   0  -5  -7    0.61    4.47
  -5   6  -7   17.29    6.76
  -1  -5  -7   13.89    5.40
   1   5   7   12.45    2.44
  -5   7  -7    5.02    6.45
  -2  -5  -7    3.36    4.90
   2   5   7    1.46    2.78
   8  -3  -7   92.93    8.30
  -3  -5  -7   90.92    9.67
  -5   8  -7   83.27   10.82
  -8   3   7   88.06    9.33
   3   5   7   88.23    7.35
  -8   3   7   90.77    9.38
  -5   9  -7    2.54    2.33
  -4  -5  -7    1.34    5.60
  -5   9  -7   -2.34    2.45
  -5   9  -7    0.88    2.54
   9  -4  -7    3.85    3.81
   9  -4  -7    0.27    5.32
  -5   9  -7    1.53    7.58
  -5   9  -7    2.80    2.30
  -9   4   7  -10.24    4.89
   4   5   7    8.99    4.66
  -9   4   7   -6.32    4.95
  -5  10  -7   18.05    8.70
  10  -5  -7   29.52    7.14
  -5  10  -7   17.80    2.49
  -5  -5  -7   20.34    7.08
  -5  10  -7   11.69    2.37
  10  -5  -7   16.50    4.75
  -5  10  -7   21.95    2.53
  -5  10  -7   13.11    2.39
 -10   5   7    6.34    6.05
 -10   5   7   24.10    6.94
   5   5   7   30.73    6.33
  11  -6  -7   22.59    5.55
  11  -6  -7   30.92    7.24
  -6  -5  -7   12.20    7.34
  -5  11  -7   23.74   10.03
   6   5   7   24.66    6.66
 -11   6   7   36.64    7.84
 -11   6   7   21.73    7.09
  -6  -4  -7    9.82    6.33
  -4  10  -7   -3.70    1.79
  -4  10  -7    0.96    1.78
  10  -6  -7   -2.88    5.44
  -4  10  -7   -0.54    7.78
  10  -6  -7    2.51    4.22
  -4  10  -7   -0.80    1.64
   6   4   7   -0.64    5.38
   9  -6  -7   22.70    5.64
  -6  -3  -7   25.26    6.65
  -3   9  -7   14.04    2.93
  -3   9  -7    5.08    8.10
   9  -6  -7   24.46    5.54
  -3   9  -7   16.16    3.11
   6   3   7   18.30    6.12
   8  -6  -7    8.39    4.90
  -2   8  -7    0.87    2.75
  -2   8  -7   -1.92    7.42
  -2   8  -7   -1.37    2.84
  -6  -2  -7    1.18    4.56
   8  -6  -7   -0.10    4.14
   6   2   7    2.80    5.05
  -1   7  -7  163.40    9.46
   7  -6  -7  167.13   10.39
  -1   7  -7  163.55    9.22
  -1   7  -7  175.70   14.85
   7  -6  -7  148.38   11.86
  -6  -1  -7  185.26   11.50
  -6  -1  -7  144.70   11.16
   6   1   7  152.43   12.23
   0   6  -7   50.06    5.25
   0   6  -7   47.23    8.83
  -6   0  -7   51.29    6.50
   6  -6  -7   86.66    6.84
   0   6  -7   44.98    5.16
  -6   0  -7   54.74    6.67
   6  -6  -7   55.53    7.29
   6   0   7   48.95    7.65
  -6   2  -7  205.94   12.05
   4  -6  -7  203.63   13.19
   2   4  -7  201.15   11.34
   2   4  -7  188.40   11.51
   6  -2   7  188.62   14.00
   3  -6  -7    5.78    4.79
   6  -3   7   -8.56    5.36
   2  -6  -7    2.70    4.75
   1  -6  -7    8.86    5.06
   0  -6  -7   49.41    7.47
  -6   6  -7   51.52    7.78
  -6   0   7   43.28    6.88
  -6   0   7   47.93    7.04
  -1  -6  -7    0.07    4.81
  -6   7  -7  -17.26    5.58
  -7   1   7    3.62    5.01
  -7   1   7   -0.10    4.84
   1   6   7    1.64    2.12
  -6   8  -7   18.31    3.74
  -6   8  -7   21.72    3.91
  -2  -6  -7   21.21    6.40
  -6   8  -7   28.04    8.07
   2   6   7   12.29    3.71
  -8   2   7   12.79    5.97
  -8   2   7   21.99    6.24
  -6   9  -7   23.02    3.63
  -6   9  -7   20.61    8.06
  -6   9  -7   27.23    3.75
  -3  -6  -7   31.97    7.22
   9  -3  -7   30.87    5.14
  -9   3   7   31.51    6.73
   3   6   7   22.44    4.92
  -9   3   7   28.62    6.89
  -6  10  -7   10.23    2.75
  10  -4  -7   10.70    6.10
  -6  10  -7   14.02    2.91
  -6  10  -7   17.43    2.72
  -6  10  -7    2.00    8.24
  -6  10  -7   14.49    2.58
  -4  -6  -7   10.30    6.77
  10  -4  -7   10.04    4.09
   4   6   7   15.70    5.25
 -10   4   7   10.21    6.39
 -10   4   7   18.44    6.33
  -5  -6  -7   -7.90    6.07
  11  -5  -7   -0.41    3.88
  11  -5  -7   -1.70    6.33
  -6  11  -7   -4.27    8.96
 -11   5   7    1.83    6.13
   5   6   7   -8.75    4.80
 -11   5   7   -5.01    5.81
  12  -6  -7   28.73    7.54
  -6  12  -7   26.91   10.92
  12  -6  -7   24.95    5.54
 -12   6   7   30.15    7.94
   6   6   7   25.23    6.96
 -12   6   7   38.36    7.93
  13  -7  -7   17.84    7.70
  13  -7  -7   22.88    5.43
  -7  -6  -7   28.44    7.29
  -7  -6  -7   13.46    6.66
 -13   7   7   20.82    7.39
   7   6   7   14.62    7.14
 -13   7   7   34.63    8.30
  -7  -5  -7   13.84    6.11
  -7  -5  -7   20.41    6.70
  -5  12  -7   31.68   11.29
  12  -7  -7   18.78    7.21
  12  -7  -7   17.78    5.37
 -12   7   7   22.34    7.59
 -12   7   7   30.06    7.78
   7   5   7   20.29    7.44
  -7  -4  -7   65.56    8.89
  -7  -4  -7   70.91    9.76
  -4  11  -7   71.19   12.52
  11  -7  -7   78.71    8.02
  -7  -4  -7   74.16    9.45
  11  -7  -7   74.25    8.81
   7   4   7   70.67    9.91
  10  -7  -7   47.26    6.69
  -3  10  -7   51.45    3.90
  -7  -3  -7   57.64    8.48
  10  -7  -7   44.82    7.15
  -3  10  -7   43.68   10.47
   7   3   7   52.93    8.27
  -2   9  -7   15.45    3.18
  -2   9  -7   14.94    3.16
   9  -7  -7   16.26    5.18
  -2   9  -7   22.60    8.77
  -7  -2  -7   21.58    5.97
   9  -7  -7   27.05    5.74
   7   2   7   24.92    6.66
  -1   8  -7  252.67   12.45
   8  -7  -7  264.70   15.51
  -1   8  -7  242.20   18.84
   8  -7  -7  277.18   14.75
  -7  -1  -7  287.12   15.52
  -1   8  -7  249.28   12.17
   7   1   7  254.52   16.42
   0   7  -7   29.81    4.33
   7  -7  -7   39.11    6.70
   0   7  -7   29.39    8.23
   7  -7  -7   29.93    4.84
  -7   0  -7   35.11    5.60
   0   7  -7   39.01    4.65
   7   0   7   37.72    7.45
   6  -7  -7    1.51    4.83
   1   6  -7    2.35    3.42
   6  -7  -7   -4.13    2.78
   1   6  -7   -2.69    6.68
  -7   1  -7   -0.42    3.30
   1   6  -7    6.13    3.52
   7  -1   7    7.20    6.05
   2   5  -7   -1.94    3.50
   2   5  -7    0.74    3.44
   5  -7  -7   -5.44    4.24
   2   5  -7    8.30    6.72
  -7   2  -7   -1.25    3.27
   7  -2   7    0.02    5.84
   4  -7  -7  180.52   12.62
   7  -3   7  168.79   13.50
   3  -7  -7   57.66    7.85
   7  -4   7   69.64    9.50
  -7   5  -7   76.62    6.99
  -7   5  -7   79.89    8.71
  -7   5  -7   84.91    7.24
   2  -7  -7   84.59    9.21
   7  -5   7   92.93   10.60
  -5  -2   7   79.52    8.19
  -5  -2   7   82.29    8.25
   1  -7  -7  152.47   12.35
  -7   6  -7  172.60    9.73
  -7   6  -7  164.69    9.77
  -7   6  -7  157.19   12.04
  -6  -1   7  186.27   12.15
  -6  -1   7  174.76   11.69
  -7   7  -7   33.23    4.52
  -7   7  -7   40.31    7.60
   0  -7  -7   28.48    6.82
  -7   7  -7   32.16    4.57
  -7   0   7   36.02    6.38
  -7   0   7   30.36    6.64
  -1  -7  -7    1.88    5.63
  -7   8  -7   10.07    6.67
  -7   8  -7    5.48    3.31
  -7   8  -7    7.29    3.38
  -8   1   7    5.78    5.47
  -8   1   7    0.07    5.48
   1   7   7   11.39    2.87
  -7   9  -7    1.98    3.18
  -7   9  -7    7.62    7.63
  -2  -7  -7    9.15    6.23
  -7   9  -7    1.65    3.24
   2   7   7    8.05    3.66
  -9   2   7    7.02    5.85
  -9   2   7   12.59    5.86
  -7  10  -7   97.09    6.59
  10  -3  -7   83.75   10.30
  -7  10  -7  103.88    6.40
  -3  -7  -7  104.36   11.44
  10  -3  -7   97.23    7.82
  -7  10  -7  104.58   12.65
   3   7   7   91.27    8.24
 -10   3   7   91.49   10.36
 -10   3   7  102.15   10.42
  -7  11  -7   20.79    9.86
  11  -4  -7    2.32    3.87
  -7  11  -7    6.70    2.41
  -7  11  -7    6.69    2.10
  -7  11  -7    7.94    2.13
  11  -4  -7   11.83    6.68
  -7  11  -7    6.78    2.48
 -11   4   7   13.93    6.73
   4   7   7    9.08    5.28
 -11   4   7    1.55    5.95
  12  -5  -7   16.65    7.54
  12  -5  -7   22.41    5.05
  -7  12  -7   12.01    9.71
   5   7   7   27.11    6.88
 -12   5   7   30.84    7.94
 -12   5   7   25.41    7.53
  -6  -7  -7   93.01   10.58
  13  -6  -7   81.61   10.86
  13  -6  -7   99.35    8.35
  -6  -7  -7   99.50   10.82
   6   7   7  104.86   11.04
 -13   6   7  107.11   11.64
 -13   6   7   82.01   11.13
  14  -7  -7   11.22    7.65
  -7  -7  -7   14.47    6.43
  -7  -7  -7   -1.44    5.65
  14  -7  -7   -6.92    4.15
 -14   7   7    0.13    6.84
   7   7   7    4.81    6.84
 -14   7   7   14.20    7.06
  -8  -7  -7    7.51    6.59
  -8  -7  -7  -18.95    5.27
  15  -8  -7    7.52    8.07
 -15   8   7    3.12    6.94
 -15   8   7   -3.25    7.19
   8   7   7   -1.42    7.22
  -8  -6  -7  -10.67    5.24
  -8  -6  -7   -7.14    5.42
  14  -8  -7   -2.39    4.70
  14  -8  -7    1.36    6.98
 -14   8   7  -10.52    6.49
 -14   8   7   -3.71    6.28
   8   6   7   -5.30    6.85
  -8  -5  -7    9.02    5.93
  13  -8  -7    1.52    4.73
  -8  -5  -7    4.17    5.76
  13  -8  -7   -0.07    7.54
   8   5   7    8.84    7.07
 -13   8   7   10.89    6.85
 -13   8   7   -0.37    6.27
  -8  -4  -7    4.33    5.62
  12  -8  -7    8.57    5.00
  12  -8  -7   11.41    7.52
  -4  12  -7  -15.43    9.25
  -8  -4  -7   -3.29    6.43
  -8  -4  -7    2.84    5.24
   8   4   7   -8.19    6.50
  11  -8  -7   15.88    6.52
  -3  11  -7   10.88   10.07
  11  -8  -7    8.65    5.46
  -8  -3  -7   11.45    6.64
  -8  -3  -7    1.88    5.25
  -8  -3  -7    5.98    5.30
   8   3   7    8.01    7.01
  10  -8  -7    3.61    5.28
  -2  10  -7    3.44    8.38
  -2  10  -7    4.27    2.37
  10  -8  -7   13.67    6.06
  -8  -2  -7   12.25    6.03
  -8  -2  -7    6.17    5.40
  -2  10  -7    6.49    2.34
  -8  -2  -7   14.62    5.67
   8   2   7   14.36    7.10
   9  -8  -7   56.98    7.49
  -8  -1  -7   61.88    8.16
  -8  -1  -7   60.34    7.69
  -1   9  -7   51.81   10.70
  -1   9  -7   51.73    4.70
  -1   9  -7   57.40    4.69
   9  -8  -7   54.77    6.96
  -8  -1  -7   63.39    7.94
   8   1   7   60.63    8.92
  -8   0  -7    3.89    4.66
   8  -8  -7    6.48    4.52
   0   8  -7    8.56    7.95
   8  -8  -7    7.70    5.37
  -8   0  -7   18.47    4.94
  -8   0  -7    3.85    4.95
   0   8  -7    5.33    3.34
   0   8  -7   13.26    3.60
   8   0   7   17.18    6.98
   1   7  -7   18.38    4.10
   7  -8  -7    4.70    3.58
   1   7  -7    3.47    7.35
  -8   1  -7   11.94    5.05
  -8   1  -7   10.20    5.12
   1   7  -7    5.20    3.58
  -8   1  -7    9.89    3.95
   7  -8  -7    3.61    5.09
   8  -1   7    7.23    6.78
   2   6  -7   20.77    4.40
   6  -8  -7   15.41    5.78
  -8   2  -7   20.97    5.36
   2   6  -7   19.21    7.90
  -8   2  -7   18.99    4.61
   2   6  -7   16.81    4.30
  -8   2  -7   17.29    5.40
   8  -2   7   10.32    6.96
  -8   3  -7   78.73    8.06
  -8   3  -7   98.18    8.02
  -8   3  -7   83.37    8.26
   3   5  -7   93.77   11.23
   5  -8  -7   81.34    9.10
  -8   4  -7   -4.90    3.12
  -8   4  -7   -0.54    3.36
   4  -8  -7   -1.51    4.89
  -4  -4   7    8.00    4.62
  -4  -4   7   -1.05    4.19
   8  -4   7   -1.43    6.48
   3  -8  -7   -5.20    4.90
  -8   5  -7   -0.27    3.14
  -8   5  -7   -0.16    3.21
  -8   5  -7   -4.19    4.58
   8  -5   7    5.46    6.84
  -5  -3   7   -0.39    4.66
  -5  -3   7    1.01    4.64
  -8   6  -7    0.40    3.01
  -8   6  -7    4.38    3.19
   2  -8  -7    3.51    5.49
  -6  -2   7    0.47    4.64
  -6  -2   7   14.79    5.40
   8  -6   7    4.60    7.03
  -8   7  -7  240.99   12.58
   1  -8  -7  239.90   15.88
  -8   7  -7  231.61   12.53
  -8   7  -7  235.85   15.45
  -7  -1   7  271.42   14.75
  -7  -1   7  259.35   15.01
   0  -8  -7    0.36    5.48
  -8   8  -7    9.58    3.52
  -8   8  -7   10.75    6.24
  -8   8  -7   16.25    3.67
  -8   0   7   23.82    6.30
  -8   0   7   20.67    6.61
   0   8   7    9.43    2.17
  -8   9  -7   29.63    4.56
  -8   9  -7   13.37    7.80
  -8   9  -7   23.75    4.24
  -9   1   7   19.45    6.57
  -9   1   7   20.12    6.89
   1   8   7   32.30    4.09
  -8  10  -7  245.68   11.74
  -8  10  -7  232.12   11.43
  -8  10  -7  225.66   17.88
 -10   2   7  204.32   15.07
 -10   2   7  241.69   16.03
   2   8   7  225.23   13.25
  -8  11  -7   10.54    3.08
  11  -3  -7    9.92    3.97
  -8  11  -7    6.49    3.20
  -8  11  -7   -2.07    9.20
  11  -3  -7   12.30    7.10
 -11   3   7    3.31    6.52
 -11   3   7    3.38    6.50
   3   8   7   10.93    5.12
  -8  12  -7   14.87   10.07
  12  -4  -7   20.81    7.71
  12  -4  -7   22.10    4.74
 -12   4   7   16.18    7.46
 -12   4   7   17.72    7.23
   4   8   7   18.03    5.56
  13  -5  -7    1.28    3.87
  13  -5  -7    8.01    7.52
 -13   5   7   10.93    7.55
 -13   5   7    9.27    7.18
   5   8   7   13.76    5.93
  -6  -8  -7   64.77    9.41
  14  -6  -7   56.90    6.61
  -6  -8  -7   58.05    9.16
  14  -6  -7   54.07   10.02
 -14   6   7   58.16    9.80
   6   8   7   72.03    9.47
 -14   6   7   63.10   10.08
  -7  -8  -7   43.31    8.70
  15  -7  -7   47.59    9.81
  -7  -8  -7   55.57    9.12
 -15   7   7   50.12    9.60
 -15   7   7   52.26    9.95
   7   8   7   55.20    8.97
  -8  -8  -7   42.12    8.93
  -8  -8  -7   34.58    8.44
  16  -8  -7   36.42    9.93
   8   8   7   29.52    8.95
 -16   8   7   30.04    8.73
 -16   8   7   51.71   10.21
  17  -9  -7   52.94   10.57
  -9  -8  -7   76.22   11.00
  -9  -8  -7   57.20   10.39
 -17   9   7   54.09   10.96
   9   8   7   60.53   10.16
 -17   9   7   28.00    9.08
  -9  -7  -7    7.29    6.83
  -9  -7  -7   -5.33    6.32
  16  -9  -7   -1.65    9.59
   9   7   7    8.44    7.80
 -16   9   7   11.61    7.88
 -16   9   7    2.84    7.19
  15  -9  -7   18.48    9.45
  -9  -6  -7   13.27    7.04
  -9  -6  -7   13.53    6.63
 -15   9   7    8.22    8.02
   9   6   7    1.65    7.33
 -15   9   7   13.81    7.70
  14  -9  -7   -3.41    8.21
  -9  -5  -7    7.76    6.29
  -9  -5  -7    1.95    5.99
   9   5   7   -9.32    6.99
 -14   9   7   -7.28    6.06
 -14   9   7    8.70    7.15
  -9  -4  -7   38.15    7.89
  -9  -4  -7   39.23    8.01
  -4  13  -7   28.24   11.47
  13  -9  -7   31.03    8.26
   9   4   7   56.66    9.92
  12  -9  -7    1.41    5.21
  -3  12  -7   10.76   10.40
  -9  -3  -7    3.84    5.72
  -9  -3  -7   14.14    7.17
  -9  -3  -7   12.80    6.21
  12  -9  -7   10.81    7.27
   9   3   7   17.46    7.85
  -9  -2  -7   81.09    9.56
  11  -9  -7   79.60    9.22
  11  -9  -7  107.91    9.56
  -9  -2  -7   83.56    9.78
  -2  11  -7   88.46   13.48
  -9  -2  -7   78.54    9.65
   9   2   7   82.05   11.21
  10  -9  -7  325.42   17.56
  -1  10  -7  291.55   12.95
  -9  -1  -7  301.55   17.30
  -9  -1  -7  288.43   17.24
  -9  -1  -7  268.70   17.29
  10  -9  -7  313.72   17.17
  -1  10  -7  297.52   13.19
  -1  10  -7  301.66   21.62
   9   1   7  310.42   19.53
  -9   0  -7   19.00    6.02
   9  -9  -7   20.45    5.30
   0   9  -7   12.97    3.63
   9  -9  -7    6.90    5.74
   0   9  -7   18.43    3.70
  -9   0  -7   23.18    6.24
   0   9  -7   18.34    8.89
  -9   0  -7   21.20    5.74
   9   0   7   26.79    8.06
   1   8  -7   33.21    4.63
   1   8  -7   20.87    4.16
   8  -9  -7   33.47    5.00
  -9   1  -7   32.72    6.83
  -9   1  -7   34.69    6.80
   8  -9  -7   46.29    7.36
  -9   1  -7   25.96    5.49
   1   8  -7   40.00    9.94
   9  -1   7   27.31    8.54
   2   7  -7   -1.92    7.63
   7  -9  -7    3.40    5.36
   2   7  -7    6.47    3.71
  -9   2  -7   -3.15    4.38
  -9   2  -7    1.21    3.73
  -9   2  -7    9.11    5.13
   2   7  -7    4.15    3.62
   9  -2   7   -3.29    6.76
   3   6  -7   25.76    8.32
   6  -9  -7   12.52    5.94
  -9   3  -7   21.21    5.38
  -9   3  -7   17.19    4.65
  -9   3  -7   33.22    5.89
   9  -3   7   16.96    7.59
   4   5  -7   -0.61    6.99
  -9   4  -7   -1.95    3.52
  -9   4  -7    6.41    3.91
   5  -9  -7   -0.94    5.41
  -9   4  -7    8.56    4.09
   9  -4   7   -3.92    6.85
  -4  -5   7    1.10    4.06
  -4  -5   7   -3.74    3.90
   4  -9  -7    9.90    5.90
  -9   5  -7   17.46    4.55
   5   4  -7   15.89    7.48
  -9   5  -7   10.55    4.23
  -5  -4   7   14.91    5.25
  -5  -4   7   20.06    5.28
   9  -5   7   25.55    8.17
   3  -9  -7   21.86    6.95
  -9   6  -7   20.44    4.62
  -9   6  -7   23.89    6.21
  -9   6  -7   29.42    5.17
  -6  -3   7   28.57    6.22
  -6  -3   7   12.95    5.74
   9  -6   7   19.59    8.21
  -9   7  -7   19.80    6.35
  -9   7  -7   11.48    4.00
  -9   7  -7   15.49    4.20
   2  -9  -7   14.62    6.61
   9  -7   7   22.57    8.23
  -7  -2   7    4.85    5.57
  -7  -2   7   16.27    5.99
  -9   8  -7   61.11    6.17
  -9   8  -7   53.75    8.33
  -9   8  -7   58.76    6.14
  -8  -1   7   61.39    8.68
  -8  -1   7   72.74    8.62
  -9   9  -7   21.94    4.11
  -9   9  -7   22.51    4.19
  -9   9  -7   43.07    8.27
  -9   0   7   12.40    6.43
   0   9   7   19.14    3.47
  -9   0   7   22.29    6.73
  -9  10  -7   86.03    6.58
  -9  10  -7   76.27   10.94
  -9  10  -7   68.79    6.25
 -10   1   7   70.72    9.53
 -10   1   7   71.15    9.63
   1   9   7   68.80    6.25
  -9  11  -7    2.95    3.32
  -9  11  -7    1.42    3.36
  -9  11  -7   26.44    8.87
   2   9   7    6.99    4.52
 -11   2   7   15.35    6.88
 -11   2   7    5.55    6.59
  12  -3  -7   -2.77    6.98
  12  -3  -7    2.82    3.55
  -9  12  -7   -5.56    2.45
  -9  12  -7   -9.52    2.51
 -12   3   7    4.20    6.49
 -12   3   7    5.20    6.45
   3   9   7   -2.63    4.44
  13  -4  -7   19.38    8.02
  13  -4  -7    9.27    4.13
 -13   4   7    3.81    6.79
 -13   4   7    3.17    6.85
   4   9   7    8.07    5.47
  14  -5  -7   31.18    9.66
   5   9   7   52.47    8.09
 -14   5   7   38.82    8.90
 -14   5   7   26.94    8.63
  15  -6  -7    4.60    8.18
  -6  -9  -7   -1.38    6.14
  -6  -9  -7   -5.00    5.76
   6   9   7    4.24    6.12
 -15   6   7   -8.56    6.69
 -15   6   7   11.77    8.04
  16  -7  -7    6.11    8.05
  -7  -9  -7   -3.29    5.75
  -7  -9  -7   12.42    7.16
 -16   7   7    4.21    7.65
   7   9   7   -7.29    6.08
 -16   7   7    0.70    7.56
  17  -8  -7  -10.96    8.03
  -8  -9  -7   -5.16    6.63
  -8  -9  -7    8.38    6.99
 -17   8   7   10.11    8.47
   8   9   7    7.79    6.97
 -17   8   7   -2.68    7.30
 -10  -7  -7   25.06    8.45
  17 -10  -7   24.83   10.81
 -10  -7  -7   23.55    8.45
 -17  10   7   25.45    8.86
 -17  10   7   43.66    9.88
  10   7   7   37.51   10.26
  16 -10  -7    3.15    9.19
 -10  -6  -7    0.02    6.40
 -10  -6  -7    1.89    6.37
 -16  10   7   -2.10    7.48
 -16  10   7   -1.93    6.98
  10   6   7   -9.75    7.28
  15 -10  -7   31.08   10.07
 -10  -5  -7   29.82    8.10
 -10  -5  -7   27.40    7.98
  10   5   7   29.09    9.12
  14 -10  -7   32.04    8.48
 -10  -4  -7   51.06    8.80
 -10  -4  -7   36.55    7.98
  10   4   7   32.16    9.20
 -10  -3  -7    0.25    5.81
 -10  -3  -7    6.40    6.18
  13 -10  -7   -0.74    7.42
  -3  13  -7   -1.10   10.07
  10   3   7    9.26    8.02
  -2  12  -7   24.58   11.71
 -10  -2  -7   22.97    7.47
 -10  -2  -7   28.66    7.52
  12 -10  -7   27.04    7.80
 -10  -2  -7   45.62    7.99
  10   2   7   28.93    9.20
 -10  -1  -7    4.57    5.82
  11 -10  -7   11.79    6.36
 -10  -1  -7    6.64    5.68
  -1  11  -7   10.50   10.02
 -10  -1  -7    4.45    5.85
  10   1   7    8.02    7.50
  10 -10  -7  200.26   12.84
   0  10  -7  201.42   18.03
 -10   0  -7  179.29   13.46
 -10   0  -7  203.13   13.07
 -10   0  -7  171.81   13.07
  10   0   7  171.53   15.49
   1   9  -7   82.22   12.45
 -10   1  -7   69.80    9.07
 -10   1  -7   83.35    8.51
 -10   1  -7   67.84    8.92
   9 -10  -7   84.52    7.37
   1   9  -7   82.80    6.53
   1   9  -7   71.29    6.44
  10  -1   7   83.18   11.73
   2   8  -7  275.10   19.09
 -10   2  -7  230.33   13.76
 -10   2  -7  246.40   15.29
 -10   2  -7  229.44   14.80
   2   8  -7  235.53   12.69
   2   8  -7  231.76   13.21
  10  -2   7  236.40   17.77
 -10   3  -7   90.37    8.47
   3   7  -7   82.41   11.99
 -10   3  -7   82.74    8.93
 -10   3  -7   91.67    9.22
  10  -3   7  101.44   11.95
 -10   4  -7   10.84    5.31
 -10   4  -7   14.73    4.50
 -10   4  -7   16.11    5.60
 -10   4  -7   11.82    5.05
   4   6  -7   23.23    8.56
  -4  -6   7   12.13    4.67
  10  -4   7   16.30    8.27
  -4  -6   7   17.00    4.78
 -10   5  -7   20.01    5.64
 -10   5  -7   18.93    5.28
   5   5  -7   22.45    7.98
 -10   5  -7   35.37    5.72
  -5  -5   7   18.87    5.41
  10  -5   7   11.77    8.53
  -5  -5   7   17.00    5.15
 -10   6  -7   -0.73    3.65
   6   4  -7   -3.54    7.46
 -10   6  -7    0.36    5.27
 -10   6  -7    1.33    3.91
  -6  -4   7    3.55    5.21
  -6  -4   7    6.77    5.24
  10  -6   7    2.70    7.83
 -10   7  -7   60.82    7.70
 -10   7  -7   37.23    5.57
 -10   7  -7   38.45    5.89
  -7  -3   7   42.70    7.41
  -7  -3   7   35.51    6.98
  10  -7   7   87.33   11.12
 -10   8  -7    9.40    3.81
 -10   8  -7    7.82    5.99
 -10   8  -7    5.96    3.92
  -8  -2   7   11.97    5.98
  -8  -2   7   -2.67    5.37
  10  -8   7    2.47    8.03
 -10   9  -7  290.59   18.61
 -10   9  -7  301.83   15.02
 -10   9  -7  296.94   14.69
  -1  10   7  290.97   13.71
  -9  -1   7  288.69   17.33
  -9  -1   7  282.98   16.90
  -1  10   7  298.69   13.88
 -10  10  -7  160.11   14.59
 -10  10  -7  200.60   10.65
 -10  10  -7  163.45   10.24
 -10   0   7  201.20   14.59
   0  10   7  172.51   10.39
 -10   0   7  197.05   13.99
 -10  11  -7   13.49    3.82
 -10  11  -7   14.98    8.19
 -10  11  -7    6.67    3.81
   1  10   7   12.57    4.30
 -11   1   7   12.49    6.96
 -11   1   7    7.54    6.99
 -10  12  -7   15.84    3.66
 -10  12  -7   15.42    3.65
  12  -2  -7   37.52    9.46
  12  -2  -7   20.72    4.44
   2  10   7   23.41    5.36
 -12   2   7   28.24    8.19
 -12   2   7   34.82    8.50
  13  -3  -7    1.56    3.37
  13  -3  -7    8.37    7.83
 -13   3   7    2.78    6.97
   3  10   7   -9.73    4.71
 -13   3   7    3.17    6.84
  14  -4  -7   -1.87    7.87
 -14   4   7    3.42    7.11
   4  10   7    2.93    5.46
 -14   4   7    5.62    7.16
  15  -5  -7   -9.24    7.54
  -5 -10  -7   -1.63    6.17
  -5 -10  -7   -2.82    5.91
 -15   5   7   -9.01    6.73
 -15   5   7   -2.55    7.05
   5  10   7   15.61    6.36
  16  -6  -7   21.88    9.36
  -6 -10  -7   27.24    7.89
  -6 -10  -7   19.94    7.79
 -16   6   7   17.50    8.26
   6  10   7   18.77    7.33
 -16   6   7   19.21    8.44
  -7 -10  -7   26.85    7.97
  17  -7  -7   19.15    9.53
  -7 -10  -7   10.49    7.61
 -17   7   7    4.13    8.49
 -17   7   7   18.26    8.53
 -11  -5  -7    4.08    6.61
 -11  -5  -7   15.39    7.68
  16 -11  -7   -8.90    8.68
  11   5   7  -18.34    7.36
 -11  -4  -7    4.95    6.35
  15 -11  -7    9.83    8.74
 -11  -4  -7   -3.76    6.60
  11   4   7  -14.65    7.24
 -11  -3  -7   11.14    6.69
 -11  -3  -7   23.09    7.67
  14 -11  -7   19.80    7.82
  11   3   7   19.11    9.23
 -11  -2  -7    6.66    6.25
 -11  -2  -7   -1.25    6.12
  13 -11  -7    0.61    6.91
  -2  13  -7    2.90   10.28
  11   2   7    7.28    8.43
  -1  12  -7    6.91   10.86
 -11  -1  -7    5.72    6.24
 -11  -1  -7    3.55    5.99
 -11  -1  -7   18.89    6.61
  12 -11  -7    6.14    6.42
  11   1   7    9.02    8.24
  11 -11  -7   59.69    8.08
   0  11  -7   75.79   13.13
 -11   0  -7   58.51    8.96
 -11   0  -7   71.14    9.62
 -11   0  -7   59.93    8.21
  11   0   7   78.64   11.79
   1  10  -7   10.21    9.45
 -11   1  -7    8.73    5.18
 -11   1  -7    7.79    6.07
 -11   1  -7    4.25    6.08
  10 -11  -7    8.19    5.24
  11  -1   7    5.00    8.15
 -11   2  -7    4.47    4.47
 -11   2  -7    0.48    5.42
 -11   2  -7    6.21    5.91
   2   9  -7    3.05    9.53
  11  -2   7   -2.96    7.88
   3   8  -7   10.54    8.92
 -11   3  -7   11.21    6.00
 -11   3  -7    7.91    4.06
 -11   3  -7    3.47    5.66
 -11   3  -7    6.24    5.38
  11  -3   7   10.80    8.42
  -3  -8   7    9.96    4.15
  -3  -8   7    9.45    4.06
   4   7  -7   20.15    9.08
 -11   4  -7   12.35    4.27
 -11   4  -7   11.72    5.65
 -11   4  -7   11.27    5.78
 -11   4  -7    5.91    5.33
  -4  -7   7    5.90    4.41
  -4  -7   7    8.27    4.36
  11  -4   7    9.45    8.46
 -11   5  -7    4.36    4.85
   5   6  -7   -3.29    7.64
 -11   5  -7    2.13    3.93
 -11   5  -7   -1.86    4.45
 -11   5  -7    7.51    5.33
  -5  -6   7   -2.20    4.57
  11  -5   7    6.97    8.30
  -5  -6   7   -5.33    4.42
 -11   6  -7   30.57    5.65
   6   5  -7    2.66    7.41
 -11   6  -7   30.12    6.10
 -11   6  -7   18.72    5.13
  -6  -5   7   20.20    5.90
  11  -6   7   37.79    9.51
  -6  -5   7   14.66    5.64
 -11   7  -7   65.05    7.44
   7   4  -7   70.67   10.60
 -11   7  -7   69.98    7.41
 -11   7  -7   58.84    8.14
  -7  -4   7   75.12    8.81
  -7  -4   7   75.43    8.59
  11  -7   7   80.50   12.32
   8   3  -7   -0.15    7.37
 -11   8  -7    9.29    6.58
 -11   8  -7    5.27    4.05
 -11   8  -7    7.08    4.39
  -8  -3   7    5.42    5.92
  -8  -3   7   -7.45    5.55
  11  -8   7   -8.00    8.23
 -11   9  -7   84.30    7.68
 -11   9  -7   78.25    9.61
 -11   9  -7   86.65    7.77
  11  -9   7   73.50   12.29
  -9  -2   7   73.61    9.60
  -2  11   7   77.00    5.87
  -9  -2   7   82.76   10.07
 -11  10  -7    7.91    4.10
 -11  10  -7   11.20    4.27
 -11  10  -7   11.53    7.24
 -10  -1   7   21.54    7.04
 -10  -1   7    4.88    6.36
  -1  11   7    8.61    3.50
 -11  11  -7   72.62    6.70
 -11  11  -7   72.07    6.72
 -11   0   7   65.11    9.64
 -11   0   7   61.05    9.57
   0  11   7   77.40    6.78
 -11  12  -7   25.29    4.24
 -11  12  -7   10.77    4.09
   1  11   7   25.43    5.21
 -12   1   7   30.70    8.14
 -12   1   7   26.98    7.98
  13  -2  -7   60.45   11.05
  13  -2  -7   61.50    6.28
   2  11   7   71.95    7.75
 -13   2   7   55.77    9.83
 -13   2   7   67.13   10.31
  14  -3  -7    9.85    8.62
 -14   3   7   25.30    8.42
 -14   3   7    6.30    7.55
  15  -4  -7    2.78    8.80
 -15   4   7   18.61    8.05
 -15   4   7    5.11    7.78
  -5 -11  -7   79.37   10.89
  16  -5  -7   80.86   12.43
  -5 -11  -7   74.74   10.68
 -16   5   7   77.96   12.10
 -16   5   7   76.41   11.41
 -12  -4  -7   13.97    7.80
 -12  -4  -7   21.16    7.74
  16 -12  -7    9.18    9.10
  12   4   7    3.41    9.02
  15 -12  -7    7.73    8.39
 -12  -3  -7    0.12    6.05
 -12  -3  -7    3.04    6.62
  12   3   7    2.56    9.67
 -12  -2  -7   19.24    7.38
 -12  -2  -7    7.76    7.15
  14 -12  -7   30.32    8.12
  12   2   7   30.72   10.65
  13 -12  -7    2.69    6.71
 -12  -1  -7   -2.54    6.04
 -12  -1  -7   -4.04    5.64
  12   1   7    5.33    8.88
  12 -12  -7    6.31    6.34
 -12   0  -7   -2.77    5.48
 -12   0  -7   -4.35    5.21
 -12   0  -7   -1.13    5.85
   0  12  -7   -3.11   10.45
  12   0   7    2.04    8.88
   1  11  -7   55.47   12.54
 -12   1  -7   27.76    6.77
 -12   1  -7   34.16    7.63
 -12   1  -7   25.47    7.17
  11 -12  -7   30.42    6.50
  12  -1   7   29.24    9.97
   2  10  -7   30.52   10.71
 -12   2  -7   13.33    5.24
 -12   2  -7   23.88    7.20
 -12   2  -7   11.04    6.08
  12  -2   7   16.61    8.91
 -12   3  -7    1.15    4.09
 -12   3  -7   -3.57    5.62
 -12   3  -7    1.81    5.55
 -12   3  -7    6.81    4.99
   3   9  -7    6.28    8.79
  12  -3   7   -1.44    8.06
  -3  -9   7    0.68    3.81
  -3  -9   7    0.28    3.99
   4   8  -7   21.03    9.35
 -12   4  -7   16.01    4.31
 -12   4  -7   13.66    6.38
 -12   4  -7   13.78    6.10
 -12   4  -7   20.53    5.86
  -4  -8   7   20.79    5.02
  12  -4   7   17.09    8.87
  -4  -8   7   13.80    4.68
 -12   5  -7   16.05    4.60
 -12   5  -7   16.55    5.93
   5   7  -7   18.76    8.87
 -12   5  -7   13.99    6.43
 -12   5  -7   24.23    5.87
  -5  -7   7   13.62    5.16
  12  -5   7   22.75    9.12
  -5  -7   7   14.17    5.28
 -12   6  -7   22.33    5.98
 -12   6  -7   26.43    5.14
 -12   6  -7   29.30    6.59
   6   6  -7   31.05    9.38
 -12   6  -7   23.10    5.79
  -6  -6   7   24.24    5.99
  -6  -6   7   19.95    5.91
  12  -6   7   28.56    9.62
   7   5  -7   24.87    8.55
 -12   7  -7   17.93    6.37
 -12   7  -7    7.80    4.98
 -12   7  -7   20.18    5.34
  -7  -5   7    9.85    5.62
  -7  -5   7   14.74    5.92
  12  -7   7   29.59   10.07
 -12   8  -7   -4.03    3.93
 -12   8  -7    1.12    4.08
 -12   8  -7   -6.93    5.69
   8   4  -7    0.37    7.41
  -8  -4   7   -0.84    5.80
  12  -8   7    4.87    8.63
  -8  -4   7    2.76    5.74
 -12   9  -7   13.48    6.65
   9   3  -7    1.53    7.71
 -12   9  -7    3.91    4.07
 -12   9  -7   17.75    4.93
  -9  -3   7   12.44    6.62
  12  -9   7   11.62    9.48
  -9  -3   7   16.56    6.89
 -12  10  -7   32.07    5.90
 -12  10  -7   27.30    5.49
  10   2  -7   33.59    8.97
 -10  -2   7   27.01    7.56
 -10  -2   7   28.28    7.83
  12 -10   7   44.44   11.46
 -12  11  -7    2.74    4.11
 -12  11  -7    9.92    4.37
 -11  -1   7    8.43    6.82
 -11  -1   7   10.86    7.05
 -12  12  -7   -2.41    3.35
 -12  12  -7    4.92    3.69
 -12   0   7   -2.05    6.64
 -12   0   7    0.88    6.64
  13  -1  -7    4.96    8.63
 -13   1   7    4.57    7.45
 -13   1   7   15.69    7.66
  14  -2  -7   15.33    9.61
 -14   2   7   17.23    8.32
 -14   2   7    7.32    7.48
  15  -3  -7   -3.87    8.18
 -15   3   7    5.78    7.69
 -15   3   7   -2.37    7.15
  -4 -12  -7    7.64    6.87
  -4 -12  -7   15.37    7.21
  16  -4  -7    0.32    8.85
 -16   4   7    9.94    8.41
 -16   4   7    5.25    8.08
  16 -13  -7   -2.30    8.42
 -13  -3  -7    3.06    6.96
 -13  -3  -7   -0.98    6.29
  13   3   7    6.06   10.54
 -13  -2  -7    2.50    6.54
  15 -13  -7   11.35    8.26
 -13  -2  -7    1.14    6.96
  13   2   7   -0.75    9.29
  14 -13  -7   34.19    8.42
 -13  -1  -7   36.11    8.69
 -13  -1  -7   14.60    7.18
  13   1   7   16.35   10.39
 -13   0  -7   19.71    7.48
 -13   0  -7    6.30    6.25
  13 -13  -7    3.35    6.74
  13   0   7    6.24    9.73
 -13   1  -7   18.48    6.98
  12 -13  -7    2.11    5.95
   1  12  -7    7.07   10.96
 -13   1  -7    4.69    6.70
 -13   1  -7   17.78    6.42
  13  -1   7    5.89    9.37
   2  11  -7   63.82   13.41
 -13   2  -7   58.19    9.63
 -13   2  -7   59.23    8.00
 -13   2  -7   57.92    9.08
  13  -2   7   61.33   11.63
 -13   3  -7    0.10    6.10
 -13   3  -7   -2.11    5.51
   3  10  -7   -5.21    9.65
 -13   3  -7    1.82    4.77
  -3 -10   7    5.57    3.99
  -3 -10   7    6.66    3.90
  13  -3   7    4.52    8.99
 -13   4  -7   -3.13    4.01
 -13   4  -7   12.55    6.18
 -13   4  -7    0.09    6.03
   4   9  -7    9.79    9.49
  -4  -9   7   -2.17    3.92
  13  -4   7   -0.63    8.83
  -4  -9   7    6.79    4.46
 -13   5  -7    4.45    4.26
 -13   5  -7    4.41    5.92
 -13   5  -7    5.91    5.50
   5   8  -7   -3.52    8.54
 -13   5  -7   11.34    5.93
  -5  -8   7   13.66    5.10
  -5  -8   7    9.97    5.05
  13  -5   7   -0.71    8.28
   6   7  -7  105.16   13.06
 -13   6  -7   94.98   10.02
 -13   6  -7   94.37    8.60
 -13   6  -7  100.26   10.47
 -13   6  -7   84.23    8.77
  13  -6   7  107.67   13.65
  -6  -7   7  103.22    9.29
  -6  -7   7   87.41    9.11
 -13   7  -7   10.70    5.33
 -13   7  -7   28.45    6.41
   7   6  -7    9.90    8.37
 -13   7  -7   -6.13    5.63
 -13   7  -7   15.80    4.74
  -7  -6   7    9.95    5.71
  13  -7   7   13.60    9.25
  -7  -6   7   20.60    6.19
   8   5  -7    1.65    8.01
 -13   8  -7    5.24    4.83
 -13   8  -7    5.60    4.53
  -8  -5   7    0.03    5.49
  13  -8   7   12.70    9.37
  -8  -5   7    5.98    5.75
  10   3  -7   -2.79    7.07
 -13  10  -7   -2.11    4.22
 -13  10  -7   -0.94    4.34
  13 -10   7    2.61    8.78
 -10  -3   7   -9.37    5.94
 -10  -3   7   -0.86    6.05
  11   2  -7   -2.74    7.10
 -13  11  -7   -5.64    3.64
 -13  11  -7   -1.49    4.26
 -11  -2   7    8.90    6.90
 -11  -2   7   16.33    7.02
 -13  12  -7   -3.62    3.91
  12   1  -7    1.06    7.48
 -13  12  -7    3.03    3.88
 -12  -1   7   -7.17    6.22
 -12  -1   7    3.89    6.94
  13   0  -7    8.50    7.51
 -13   0   7    0.78    6.98
 -13   0   7   11.33    7.53
  14  -1  -7   17.74    9.58
 -14   1   7    5.31    7.68
 -14   1   7   10.00    7.99
  15  -2  -7   13.33    9.25
 -15   2   7    0.15    7.87
 -15   2   7  -16.71    6.72
  16  -3  -7    8.28    9.85
 -16   3   7   -0.08    7.80
 -16   3   7   25.22    9.33
  15 -14  -7   25.42    8.70
 -14  -1  -7   27.70    8.52
 -14  -1  -7   32.66    8.33
  14   1   7   15.37   10.71
  14 -14  -7   -5.38    7.07
 -14   0  -7    0.96    6.20
 -14   0  -7  -16.61    5.84
  14   0   7    5.59    9.66
 -14   1  -7   -0.13    6.81
  13 -14  -7   18.06    7.44
 -14   1  -7    1.99    6.16
 -14   1  -7    5.55    6.57
  14  -1   7   16.66   10.44
 -14   2  -7    4.21    6.79
   2  12  -7   13.82   11.31
 -14   2  -7   11.03    6.21
 -14   2  -7   17.42    7.05
  14  -2   7   16.86   10.13
 -14   3  -7   21.17    6.98
   3  11  -7    6.81   10.77
 -14   3  -7    0.77    5.20
 -14   3  -7   13.43    7.12
  14  -3   7   17.43   10.05
   4  10  -7   -2.28    9.25
 -14   4  -7    0.75    4.87
 -14   4  -7    1.45    6.38
 -14   4  -7    2.38    6.05
  -4 -10   7   -2.02    4.11
  14  -4   7   -5.01    8.28
  -4 -10   7    6.65    4.29
   5   9  -7   48.50   11.38
 -14   5  -7   24.78    7.29
 -14   5  -7   27.41    5.84
 -14   5  -7   54.20    8.87
  -5  -9   7   52.71    7.02
  14  -5   7   51.62   11.80
  -5  -9   7   49.63    6.91
   6   8  -7   50.82   11.32
 -14   6  -7   46.93    8.81
 -14   6  -7   47.08    6.57
 -14   6  -7   53.82    8.59
  14  -6   7   70.75   12.43
  -6  -8   7   54.60    7.54
  -6  -8   7   62.13    7.70
   7   7  -7    8.18    8.83
 -14   7  -7   -0.94    5.68
 -14   7  -7   -4.28    5.28
 -14   7  -7    1.23    4.08
  14  -7   7   10.38    9.68
  -7  -7   7   -0.07    5.24
  -7  -7   7    7.48    5.65
 -14   8  -7   15.29    4.57
 -14   8  -7   -8.11    5.22
   8   6  -7    3.79    7.96
 -14   8  -7    6.27    5.52
  14  -8   7    1.08    9.07
  -8  -6   7   -4.50    5.07
  -8  -6   7   -0.10    5.53
 -14   9  -7   -0.45    4.93
   9   5  -7   -0.47    7.86
 -14   9  -7    7.27    5.55
  -9  -5   7   -0.50    5.78
  -9  -5   7   -0.71    6.13
  14  -9   7   12.48    9.78
 -14  10  -7   45.61    7.55
 -14  10  -7   51.62    7.30
 -10  -4   7   39.62    8.25
  14 -10   7   51.82   11.72
 -10  -4   7   32.86    8.26
 -14  11  -7    2.37    4.83
 -14  11  -7    6.24    4.92
  11   3  -7   16.36    8.33
 -11  -3   7   17.96    7.27
 -11  -3   7   11.51    7.32
  14 -11   7   -0.79    9.16
 -14  12  -7   27.35    5.76
  12   2  -7   34.20    8.69
 -14  12  -7   24.53    5.35
 -12  -2   7   24.46    7.99
 -12  -2   7   43.10    9.28
  13   1  -7   20.09    8.02
 -13  -1   7   21.22    7.92
 -13  -1   7   23.93    8.50
  14   0  -7    1.20    7.25
  14   0  -7  -11.64    8.65
 -14   0   7   -4.27    6.80
 -14   0   7   -2.10    7.20
  15  -1  -7   34.44    8.79
  15  -1  -7   44.42   11.02
 -15   1   7   17.29    8.84
 -15   1   7   21.69    8.70
 -15   1  -7   34.53    9.35
 -15   1  -7   40.65    9.45
  15  -1   7   33.70   11.57
 -15   2  -7   18.18    7.75
 -15   2  -7   12.33    7.92
  15  -2   7   -6.47    9.39
 -15   3  -7   -6.60    5.17
 -15   3  -7    3.27    7.22
 -15   3  -7   -5.39    6.22
  15  -3   7    3.84    9.61
   4  11  -7   17.42   11.02
 -15   4  -7    7.80    6.67
 -15   4  -7   19.73    7.65
 -15   4  -7    8.00    5.39
  15  -4   7    8.79    9.60
 -15   5  -7    4.62    6.28
 -15   5  -7   -2.67    6.19
 -15   5  -7   -3.35    4.82
   5  10  -7   21.29   10.82
  -5 -10   7   12.90    5.12
  -5 -10   7   -3.00    4.59
  15  -5   7   -1.28    9.17
 -15   6  -7   -8.20    4.24
 -15   6  -7   -4.43    6.34
 -15   6  -7   -5.85    5.57
   6   9  -7   13.75   10.24
  -6  -9   7   -3.83    4.81
  15  -6   7    7.96    9.31
  -6  -9   7    6.96    5.32
   7   8  -7   47.08   11.44
 -15   7  -7   67.05    9.90
 -15   7  -7   51.09    6.96
 -15   7  -7   59.82    8.99
  15  -7   7   40.25   11.41
  -7  -8   7   57.80    8.17
  -7  -8   7   46.27    7.78
 -15   8  -7    6.94    6.43
 -15   8  -7    9.66    6.96
 -15   8  -7    5.96    4.43
   8   7  -7   22.46    9.12
  -8  -7   7    6.24    5.87
  15  -8   7    1.48    9.51
  -8  -7   7   12.53    6.13
 -15   9  -7   26.13    7.12
   9   6  -7   30.45    9.14
 -15   9  -7   10.09    6.34
  -9  -6   7   16.64    6.69
  -9  -6   7    9.01    6.24
  15  -9   7   16.40   10.56
  10   5  -7   26.25    9.15
 -15  10  -7   29.98    6.78
 -15  10  -7   37.59    7.39
 -10  -5   7   24.95    7.89
 -10  -5   7   23.57    7.69
  15 -10   7   26.96   11.27
 -15  11  -7    0.97    4.81
 -15  11  -7   -3.06    4.91
  11   4  -7    2.48    7.61
 -11  -4   7    0.03    6.81
  15 -11   7   -6.23    8.98
 -11  -4   7   -1.29    6.64
 -15  12  -7    2.97    4.87
 -15  12  -7   -0.08    4.43
  12   3  -7    2.73    7.90
 -12  -3   7   -1.86    7.23
  15 -12   7    6.75   10.01
 -12  -3   7   10.15    7.46
 -15  13  -7   -0.86    4.68
 -15  13  -7   -5.28    4.22
  13   2  -7    5.97    7.53
 -13  -2   7   -0.90    7.15
 -13  -2   7   -0.85    7.13
  14   1  -7   24.24    8.52
 -14  -1   7   24.29    8.95
 -14  -1   7    0.84    7.61
 -16   3  -7  -10.32    6.72
 -16   3  -7    8.32    7.34
  16  -3   7   16.12   11.33
 -16   4  -7   -0.76    6.70
 -16   4  -7    4.57    7.38
  16  -4   7   27.24   11.43
 -16   5  -7   64.98   10.58
   5  11  -7   60.32   12.95
 -16   5  -7   67.79   10.23
  16  -5   7   62.24   13.28
   6  10  -7   18.37   10.74
 -16   6  -7   20.08    8.42
 -16   6  -7   17.23    7.44
  -6 -10   7   22.84    6.22
  -6 -10   7   20.01    6.06
  16  -6   7   10.54   10.16
 -16   7  -7    3.13    6.98
   7   9  -7    8.18    9.73
 -16   7  -7    6.14    7.50
  -7  -9   7    8.51    5.96
  16  -7   7   -6.24    9.07
  -7  -9   7    3.79    5.65
 -16   8  -7   38.05    9.10
 -16   8  -7   33.56    8.30
   8   8  -7   38.63   11.11
  -8  -8   7   59.50    8.70
  -8  -8   7   40.11    7.72
  16  -8   7   34.45   11.54
 -16   9  -7    2.65    4.31
 -16   9  -7    0.10    6.48
 -16   9  -7    5.51    6.12
   9   7  -7   24.93    9.82
  -9  -7   7    6.83    5.68
  -9  -7   7   -0.58    5.50
  16  -9   7    2.21    9.82
 -16  10  -7   14.00    6.21
  10   6  -7    1.82    8.25
 -16  10  -7   11.34    6.88
 -10  -6   7   -6.93    6.12
 -10  -6   7   -2.53    6.67
  16 -10   7  -11.35    9.26
 -16  11  -7   10.95    5.73
  11   5  -7    3.31    8.17
 -16  11  -7    4.58    6.07
 -11  -5   7   13.70    7.67
  16 -11   7   -2.19   10.72
 -11  -5   7   -7.27    6.49
 -16  12  -7   25.09    6.36
  12   4  -7   14.87    8.43
 -16  12  -7   15.21    5.94
 -12  -4   7   26.02    8.44
  16 -12   7   12.68   10.38
 -12  -4   7   11.98    8.20
  13   3  -7    0.71    7.44
 -16  13  -7    7.65    5.26
 -16  13  -7    8.42    5.67
 -13  -3   7   -1.69    7.19
 -13  -3   7  -11.38    7.38
  16 -13   7   11.02   10.69
 -17   7  -7   18.64    8.84
   7  10  -7    8.95   10.15
 -17   7  -7    1.96    7.63
  17  -7   7   10.62   10.89
 -17   8  -7   -1.54    6.55
   8   9  -7    2.36    9.34
 -17   8  -7    8.19    7.74
  17  -8   7   -7.57    9.40
  -8  -9   7   -8.01    5.36
  -8  -9   7    2.61    5.72
 -17   9  -7   31.44    8.43
 -17   9  -7   57.24    9.92
   9   8  -7   62.29   12.05
  17  -9   7   62.79   12.98
  -9  -8   7   55.63    8.95
  -9  -8   7   63.64    9.14
  10   7  -7   32.26   10.47
 -17  10  -7   31.72    8.14
 -17  10  -7   34.42    7.91
  17 -10   7   22.02   11.44
 -10  -7   7   23.63    7.58
 -10  -7   7   34.91    8.07
   0   0  -8 1000.00   44.23
   1  -1  -8  143.62   10.73
   1  -1  -8  159.37    9.75
   0   1  -8  143.05   11.16
  -1   0  -8  143.28   10.66
  -1   0  -8  139.35   10.24
  -1   1  -8  138.33   10.48
   0  -1  -8  160.15   11.21
   0  -1  -8  151.65    9.69
  -1  -1  -8   25.60    4.59
  -1  -1  -8   19.95    5.34
  -1   2  -8   22.14    5.51
  -2  -1  -8   28.51    5.99
  -2  -1  -8   45.37    5.52
   3  -2  -8   31.70    6.06
  -2   0  -8   87.82    8.67
   2  -2  -8   97.16    8.94
  -2   0  -8   94.39    7.90
   1  -2  -8   36.50    4.32
  -2   1  -8   28.01    5.28
   1  -2  -8   26.62    5.59
  -2   2  -8  105.47    8.94
   0  -2  -8   98.53    7.45
   0  -2  -8   93.40    9.37
  -1  -2  -8   26.01    4.10
  -1  -2  -8   16.99    5.27
  -2  -2  -8   15.95    3.79
  -2  -2  -8   10.21    5.00
   4  -2  -8   10.48    4.71
   5  -3  -8   62.00    7.25
  -3  -2  -8   50.24    5.53
  -3  -2  -8   37.56    6.79
  -3  -1  -8  214.56   13.43
  -3  -1  -8  234.96   14.36
  -1   4  -8  236.84   12.91
   4  -3  -8  255.87   14.23
  -1   4  -8  218.80   12.60
   3  -3  -8   49.51    6.80
  -3   0  -8   43.30    6.71
  -3   0  -8   46.09    6.25
  -3   1  -8   27.32    5.54
   2  -3  -8   19.74    5.48
   2  -3  -8   20.55    3.34
  -3   2  -8   36.77    6.15
   1  -3  -8   37.73    3.64
   1  -3  -8   38.60    6.43
   0  -3  -8   45.19    6.93
   0  -3  -8   49.70    4.36
  -1  -3  -8  105.96    6.76
  -1  -3  -8  135.24   10.73
   5  -2  -8    9.11    4.64
  -2  -3  -8    7.54    5.03
  -3  -3  -8  165.45   12.63
   6  -3  -8  181.35   11.89
  -3   6  -8  208.11   15.33
   3   3   8  175.17   10.65
  -3   7  -8    5.14    7.59
  -3   7  -8   -0.92    2.86
  -4  -3  -8    1.36    5.09
  -3   7  -8    3.44    3.06
   7  -4  -8    0.73    4.25
   7  -4  -8    9.03    4.87
   4   3   8    3.76    3.96
   6  -4  -8   16.14    5.36
  -4  -2  -8   15.97    4.65
  -2   6  -8   11.73    3.74
  -2   6  -8    8.34    7.33
  -4  -2  -8   10.34    5.36
   6  -4  -8   16.64    4.35
  -2   6  -8    6.08    3.57
   4   2   8   19.73    4.74
  -4  -1  -8    1.32    4.54
  -1   5  -8    4.48    3.71
   5  -4  -8    5.50    4.72
   5  -4  -8    8.81    3.52
  -1   5  -8    4.53    3.86
  -4  -1  -8    2.08    3.96
   4   1   8   10.20    4.28
   4  -4  -8   77.67    8.51
  -4   0  -8   95.67    8.33
  -4   0  -8   88.97    8.92
   4  -4  -8   80.37    6.08
   3  -4  -8  115.79    6.50
  -4   1  -8  125.75   10.07
  -4   1  -8  123.82   10.00
   3  -4  -8  137.13   11.17
   3  -4  -8  111.69    6.29
  -4   2  -8   33.23    6.05
   2  -4  -8   20.74    5.61
   1  -4  -8  228.67   14.64
   0  -4  -8   91.17    9.14
  -1  -4  -8    9.10    5.01
  -4   6  -8   56.65    9.42
  -2  -4  -8   46.01    7.51
   6  -2  -8   46.27    6.55
  -3  -4  -8   78.48    9.28
   7  -3  -8   72.66    7.91
  -4   7  -8   91.88   11.24
   3   4   8   81.97    7.23
  -4   8  -8   59.24    5.28
   8  -4  -8   50.96    7.22
  -4   8  -8   44.66    9.79
   8  -4  -8   57.21    7.40
  -4  -4  -8   73.73    8.92
  -4   8  -8   61.97    5.27
   4   4   8   60.55    6.48
  -4   9  -8    5.86    8.30
  -5  -4  -8   -2.56    5.68
  -4   9  -8   -2.69    2.77
   9  -5  -8   -5.62    3.95
   9  -5  -8   -2.83    4.88
  -4   9  -8   -3.02    2.78
   5   4   8   -5.63    4.41
  -3   8  -8   23.63    4.08
   8  -5  -8   17.31    5.14
  -3   8  -8   10.22    3.54
  -5  -3  -8   15.29    6.09
  -3   8  -8   19.30    8.51
   8  -5  -8   14.86    5.50
   5   3   8   28.94    5.64
  -2   7  -8   -6.62    2.94
   7  -5  -8   -5.71    3.89
  -2   7  -8   -5.19    6.74
  -2   7  -8    3.44    3.45
   7  -5  -8   -5.39    4.21
  -5  -2  -8    0.53    4.95
   5   2   8    3.77    4.31
  -5  -1  -8   64.49    7.10
  -1   6  -8   56.38    9.72
  -1   6  -8   62.88    6.17
  -5  -1  -8   54.97    7.34
  -1   6  -8   66.89    6.07
   6  -5  -8   61.52    5.77
   6  -5  -8   68.90    8.00
   5   1   8   55.04    7.13
  -5   0  -8   12.83    4.94
  -5   0  -8    2.70    4.73
   5  -5  -8    7.32    4.95
   5  -5  -8    7.07    3.04
   0   5  -8    0.61    3.61
   0   5  -8    4.41    3.72
   5   0   8    5.71    4.78
  -5   1  -8    4.11    4.50
  -5   1  -8   15.83    5.45
   4  -5  -8    3.06    4.79
   5  -1   8   20.29    5.81
   3  -5  -8   12.35    5.14
   2  -5  -8   51.19    7.23
   1  -5  -8    2.37    4.99
   0  -5  -8    0.66    4.86
  -5   6  -8    1.54    6.84
  -1  -5  -8    6.04    5.29
  -5   7  -8  141.45   13.19
   7  -2  -8  145.29   10.34
  -2  -5  -8  148.90   12.50
   2   5   8  136.97    8.34
  -5   8  -8   -4.68    7.71
   8  -3  -8    1.96    4.33
  -3  -5  -8    7.92    5.94
   3   5   8   -1.51    3.28
   9  -4  -8   -2.69    3.92
  -5   9  -8    4.11    2.86
  -4  -5  -8    5.95    6.52
  -5   9  -8   -4.74    8.11
  -5   9  -8    3.06    2.76
   9  -4  -8    9.54    5.54
   4   5   8    2.37    4.04
  -5  10  -8   34.38    3.84
  -5  -5  -8   46.19    8.63
  10  -5  -8   37.06    6.32
  -5  10  -8   37.55    3.90
  -5  10  -8   28.88    3.70
  10  -5  -8   29.91    7.07
  -5  10  -8   42.88   10.41
  -5  10  -8   37.23    3.96
   5   5   8   28.07    6.14
  11  -6  -8   66.86    8.59
  -5  11  -8   82.32   12.74
  -6  -5  -8   64.39   10.05
  11  -6  -8   78.67    8.24
   6   5   8   75.05    8.93
  10  -6  -8  127.99   11.24
  -4  10  -8  121.20   14.75
  10  -6  -8  165.89   12.12
  -6  -4  -8  170.09   13.93
   6   4   8  131.34   11.91
   9  -6  -8   13.26    5.54
  -3   9  -8   23.51    9.53
  -3   9  -8   17.62    3.60
   9  -6  -8   15.38    5.30
  -3   9  -8   13.58    3.61
  -6  -3  -8   13.07    6.31
   6   3   8   13.07    5.79
  -2   8  -8   93.70   12.65
   8  -6  -8   91.92    9.43
   8  -6  -8   90.80    8.15
  -6  -2  -8   86.39    9.68
  -2   8  -8   86.68    6.74
  -2   8  -8   92.50    7.46
   6   2   8   99.51    9.40
  -6  -1  -8  136.98   10.77
   7  -6  -8  125.92    8.78
   7  -6  -8  114.31   10.49
  -1   7  -8  125.60   13.33
  -1   7  -8  116.10    8.38
  -1   7  -8  119.52    8.62
   6   1   8  115.08   10.43
   6  -6  -8    4.72    5.17
  -6   0  -8    8.97    4.78
   0   6  -8    6.66    3.87
   6  -6  -8    6.22    3.67
   0   6  -8    4.44    3.89
   0   6  -8    5.20    7.34
   6   0   8   -2.25    5.09
   5  -6  -8    3.13    4.94
  -6   1  -8   -3.89    3.65
   6  -1   8    3.50    5.54
  -6   2  -8   43.48    6.44
   4  -6  -8   27.14    6.62
   6  -2   8   47.97    7.55
   3  -6  -8  194.08   14.41
   2  -6  -8   10.05    5.67
   1  -6  -8   57.13    8.06
  -6   6  -8   -3.61    6.21
   0  -6  -8    8.77    5.54
  -1  -6  -8   44.25    7.73
  -6   7  -8   47.33    8.86
  -2  -6  -8   30.36    7.44
  -6   8  -8   35.50    9.49
   2   6   8   29.64    3.70
   9  -3  -8   -0.67    3.90
  -3  -6  -8   -2.49    5.89
  -6   9  -8   -1.59    3.29
  -6   9  -8   -1.19    8.18
  -6   9  -8   -2.24    3.25
   3   6   8    4.88    3.70
  10  -4  -8   38.00    6.03
  -6  10  -8   22.87    3.82
  -6  10  -8   30.21    3.90
  -6  10  -8   18.42    9.61
  -4  -6  -8   26.99    8.02
  10  -4  -8   33.45    7.25
   4   6   8   25.24    5.28
  -6  11  -8   39.21    3.46
  11  -5  -8   54.00    6.83
  -6  11  -8   37.70    3.51
  -5  -6  -8   42.77    9.06
  -6  11  -8   42.97   11.50
  11  -5  -8   35.36    7.62
   5   6   8   36.68    6.71
  -6  12  -8    6.10   10.74
  12  -6  -8   12.41    5.12
  -6  -6  -8   15.64    7.73
  12  -6  -8   10.73    6.64
  -7  -6  -8    8.16    6.17
  13  -7  -8    0.61    4.76
  -7  -6  -8    6.96    5.98
  13  -7  -8   -0.35    6.72
  -6  13  -8   14.43   11.44
   7   6   8    8.39    6.90
  -5  12  -8   27.85   11.11
  12  -7  -8   21.02    5.55
  12  -7  -8   17.64    7.00
  -7  -5  -8   18.45    8.15
   7   5   8   30.72    7.49
  11  -7  -8    6.05    5.09
  -4  11  -8   -1.56    9.06
  11  -7  -8    2.91    5.69
  -7  -4  -8   -8.33    6.30
   7   4   8    1.91    5.98
  10  -7  -8   53.73    7.70
  -7  -3  -8   42.24    8.25
  10  -7  -8   38.56    6.96
  -3  10  -8   33.90   10.60
   7   3   8   39.63    7.57
  -7  -2  -8   -3.34    5.10
  -2   9  -8    0.97    3.33
  -2   9  -8   -0.02    3.27
   9  -7  -8    6.57    5.04
   9  -7  -8    5.56    5.38
  -2   9  -8    0.48    8.40
   7   2   8   11.53    6.09
  -1   8  -8   15.20    4.14
  -1   8  -8   10.37    3.87
   8  -7  -8   12.78    4.95
   8  -7  -8    8.82    5.87
  -7  -1  -8    6.08    5.21
  -1   8  -8   15.85    8.89
  -7   0  -8  181.10   12.53
   0   7  -8  181.13   16.44
   7  -7  -8  208.72   11.33
   0   7  -8  214.03   11.46
   0   7  -8  186.68   11.31
   7  -7  -8  219.45   14.84
   7   0   8  194.62   14.37
  -7   1  -8   50.75    6.98
   6  -7  -8   51.01    3.89
   1   6  -8   56.18    6.14
   6  -7  -8   68.64    8.09
   1   6  -8   50.65    9.97
   1   6  -8   47.87    5.82
   7  -1   8   72.70    9.08
   2   5  -8  136.65   14.00
  -7   2  -8  141.18   10.54
   5  -7  -8  161.50   12.37
   7  -2   8  151.47   12.53
  -7   3  -8  100.41    9.17
   4  -7  -8   80.67    9.33
   7  -3   8  114.72   11.27
   3  -7  -8    8.83    5.43
   2  -7  -8    3.92    5.46
   1  -7  -8  117.86   11.18
  -7   6  -8  125.95   11.57
   0  -7  -8  207.52   14.35
  -7   7  -8  179.87   10.45
  -7   7  -8  200.00   10.80
  -7   7  -8  155.12   13.61
  -7   8  -8   -2.24    3.21
  -7   8  -8    4.84    3.47
  -7   8  -8    0.14    7.63
  -1  -7  -8   -3.75    5.82
  -7   9  -8  100.92   12.67
  -7   9  -8   99.70    7.49
  -7   9  -8  102.32    7.82
  -2  -7  -8   86.64   10.60
  -9   2   8   95.31   10.55
  -9   2   8   93.15   10.42
   2   7   8   96.19    7.16
  10  -3  -8   46.32    8.61
  -3  -7  -8   51.60    9.42
  10  -3  -8   50.11    6.60
  -7  10  -8   52.93    5.24
  -7  10  -8   61.23    5.43
   3   7   8   60.76    6.24
 -10   3   8   69.16    9.59
 -10   3   8   60.89    9.27
  -4  -7  -8    1.84    7.07
  -7  11  -8   11.57    9.45
  -7  11  -8    2.30    2.90
  11  -4  -8   -0.61    3.99
  -7  11  -8    1.39    2.93
  11  -4  -8    3.49    6.11
 -11   4   8    7.92    6.58
 -11   4   8   -2.76    6.43
   4   7   8    4.32    4.47
  12  -5  -8   25.88    5.67
  12  -5  -8   29.72    7.79
  -7  12  -8   40.39   12.11
 -12   5   8   17.90    7.58
   5   7   8   30.28    6.76
 -12   5   8   36.83    8.44
  13  -6  -8    3.87    6.68
  -7  13  -8    2.35   10.91
  13  -6  -8   -2.01    4.67
 -13   6   8    3.46    7.07
   6   7   8   17.37    6.47
 -13   6   8    7.65    6.86
  -7  -7  -8   80.17   10.65
  14  -7  -8   89.32    8.56
  -7  -7  -8   75.23   10.32
  14  -7  -8   52.95   10.04
 -14   7   8   82.57   11.37
 -14   7   8   72.00   10.91
   7   7   8   78.61   10.15
  -8  -7  -8    5.10    6.70
  -8  -7  -8    3.04    6.32
  15  -8  -8    0.14    7.49
 -15   8   8    9.30    7.74
   8   7   8    0.76    6.74
 -15   8   8   12.34    7.88
  14  -8  -8   29.93    8.58
  14  -8  -8   22.00    6.12
  -8  -6  -8   12.20    6.91
  -8  -6  -8   22.48    7.22
   8   6   8   39.09    8.71
  13  -8  -8   10.73    5.71
  -5  13  -8   17.54   11.83
  -8  -5  -8    4.22    5.87
  13  -8  -8    1.17    8.11
  -8  -5  -8   -1.80    5.91
   8   5   8   20.26    7.60
  -8  -4  -8   -0.71    7.17
  12  -8  -8    3.69    7.10
  12  -8  -8   -7.66    4.60
  -4  12  -8   76.36   13.76
  -8  -4  -8   -0.71    5.50
  -8  -4  -8   -8.23    5.21
  -3  11  -8   -0.28    8.94
  11  -8  -8    5.68    6.22
  -8  -3  -8   -2.40    5.27
  -8  -3  -8    3.69    6.78
  -8  -3  -8    4.40    5.69
  11  -8  -8    5.65    5.42
   8   3   8    0.71    6.48
  10  -8  -8   51.87    7.72
  10  -8  -8   57.41    7.84
  -8  -2  -8   56.06    8.02
  -8  -2  -8   69.30    9.00
  -8  -2  -8   46.19    7.91
  -2  10  -8   60.56   11.94
   8   2   8   67.14    9.44
  -1   9  -8    5.78    9.03
  -8  -1  -8   -1.86    5.07
  -1   9  -8    4.07    3.43
   9  -8  -8   -0.36    4.72
  -1   9  -8    1.79    3.48
  -8  -1  -8   -5.37    4.98
  -8  -1  -8   -2.18    4.76
   9  -8  -8    6.00    5.48
   8   1   8   -5.85    5.85
   0   8  -8   38.10    5.16
   0   8  -8   43.75   10.62
  -8   0  -8   35.21    7.02
   8  -8  -8   42.16    5.53
   8  -8  -8   49.62    7.64
   0   8  -8   43.15    5.28
  -8   0  -8   48.56    7.67
  -8   0  -8   40.58    6.66
   8   0   8   56.06    8.51
   7  -8  -8    0.95    5.45
  -8   1  -8    1.19    4.03
   1   7  -8    2.30    3.98
   1   7  -8   -2.88    7.54
   1   7  -8    0.04    3.76
  -8   1  -8    5.33    5.12
  -8   1  -8    8.49    5.41
   7  -8  -8    7.09    2.93
   8  -1   8    7.94    6.43
  -8   2  -8   34.54    6.61
   6  -8  -8   34.32    7.10
  -8   2  -8   37.35    6.41
   2   6  -8   27.95    8.75
  -8   2  -8   37.38    6.12
   8  -2   8   31.73    8.27
  -8   3  -8    0.13    3.84
  -8   3  -8    0.77    4.28
   3   5  -8  -14.11    6.98
  -8   3  -8    2.86    4.43
   5  -8  -8   -1.43    5.37
   8  -3   8   -1.10    7.02
   4  -8  -8   47.30    8.03
  -8   4  -8   58.85    6.89
  -8   4  -8   71.29    7.21
   8  -4   8   53.93    9.51
  -8   5  -8   21.21    4.64
  -8   5  -8   25.36    6.31
  -8   5  -8   20.55    4.83
   3  -8  -8   15.32    6.32
   8  -5   8    8.66    7.64
   2  -8  -8   80.71   10.00
  -8   6  -8   91.33    7.92
  -8   6  -8   82.97    7.58
  -8   6  -8   87.83    9.64
  -8   7  -8    9.33    3.84
  -8   7  -8    8.27    3.84
   1  -8  -8   11.12    6.47
  -8   7  -8   15.04    6.73
  -7  -1   8   14.14    6.15
  -7  -1   8   18.27    6.37
  -8   8  -8   39.72    5.08
  -8   8  -8   37.31    5.10
  -8   8  -8   45.00    8.99
   0  -8  -8   23.52    7.63
  -8   0   8   37.61    7.71
  -8   0   8   37.50    7.65
  -8   9  -8   22.04    4.56
  -8   9  -8   24.11    8.58
  -1  -8  -8   23.65    7.69
  -8   9  -8   16.88    4.51
  -9   1   8   32.11    7.65
  -9   1   8   25.20    7.26
  10  -2  -8    7.51    4.10
  -8  10  -8    6.38    3.64
  -8  10  -8    6.94    8.25
  -8  10  -8    4.79    3.83
  -2  -8  -8    2.23    6.81
   2   8   8    1.37    3.18
 -10   2   8    2.44    6.22
 -10   2   8   13.50    6.95
  -8  11  -8   38.92   11.14
  -8  11  -8   59.48    5.12
  -8  11  -8   52.29    5.00
  11  -3  -8   49.51    8.99
  11  -3  -8   54.21    6.65
   3   8   8   54.30    6.25
 -11   3   8   41.94    8.56
 -11   3   8   41.82    8.94
  -8  12  -8   15.49   10.75
  12  -4  -8   10.54    4.65
  12  -4  -8   14.79    7.29
   4   8   8    6.52    4.99
 -12   4   8   10.07    6.85
 -12   4   8    0.11    6.90
  13  -5  -8  147.32   11.03
  -8  13  -8  143.98   16.36
  13  -5  -8  119.98   13.02
 -13   5   8  112.19   12.88
   5   8   8  131.04   11.30
 -13   5   8  113.14   12.50
  14  -6  -8   39.27    9.33
  14  -6  -8   67.32    7.66
 -14   6   8   66.44   10.44
 -14   6   8   79.62   11.22
   6   8   8   79.28    9.57
  -7  -8  -8    3.87    6.47
  -7  -8  -8    6.84    6.56
  15  -7  -8   11.54    8.31
 -15   7   8    2.74    7.04
 -15   7   8   -9.98    6.91
  -8  -8  -8    1.56    6.59
  -8  -8  -8   11.61    7.51
  16  -8  -8   -8.25    7.67
 -16   8   8   -2.99    7.47
 -16   8   8    9.54    8.31
  -9  -7  -8   29.74    8.43
  -9  -7  -8   33.74    8.39
  16  -9  -8   29.80    9.31
 -16   9   8   47.80   10.39
 -16   9   8   47.99   10.06
   9   7   8   51.76   10.20
  -9  -6  -8    2.64    6.49
  -9  -6  -8   -2.23    5.83
  15  -9  -8    3.16    9.35
   9   6   8    5.62    7.74
  -9  -5  -8   91.30   11.24
  14  -9  -8  107.56   10.03
  -9  -5  -8   90.23   11.26
   9   5   8   99.30   12.44
  13  -9  -8    6.81    5.73
  -9  -4  -8   10.54    6.60
  -4  13  -8   17.82   12.05
  13  -9  -8    5.98    7.96
  -9  -4  -8   10.58    6.37
   9   4   8   25.42    8.37
  -9  -3  -8    7.30    5.86
  12  -9  -8    6.88    5.75
  -3  12  -8   -0.78   10.37
  12  -9  -8    0.86    7.09
  -9  -3  -8    1.31    5.82
  -9  -3  -8    2.94    7.16
   9   3   8    1.51    7.00
  -9  -2  -8   27.49    7.12
  11  -9  -8   49.67    7.72
  -9  -2  -8   45.20    8.12
  -2  11  -8   48.33   12.15
  -9  -2  -8   49.75    8.61
  11  -9  -8   32.06    7.09
   9   2   8   48.67    9.36
  -1  10  -8   60.09   11.98
  -9  -1  -8   55.97    8.51
  10  -9  -8   75.28    7.85
  -9  -1  -8   57.55    8.49
  -9  -1  -8   60.51    8.87
  10  -9  -8   64.10    8.52
   9   1   8   76.78   10.24
   9  -9  -8   96.83   10.19
  -9   0  -8   88.02    9.80
  -9   0  -8   85.40   10.00
  -9   0  -8   85.93    9.38
   9  -9  -8   96.89    7.94
   0   9  -8  118.66   14.02
   9   0   8   90.51   11.44
  -9   1  -8   31.21    6.21
   8  -9  -8   25.50    4.31
   1   8  -8   14.65    4.63
   1   8  -8   21.11    4.76
   1   8  -8   30.48    9.98
  -9   1  -8   16.42    6.02
  -9   1  -8   31.02    6.91
   8  -9  -8   21.97    6.81
   9  -1   8   30.10    8.11
   7  -9  -8   96.39   10.45
  -9   2  -8   99.93    9.92
   2   7  -8   77.17   11.94
  -9   2  -8  109.21   10.29
  -9   2  -8   79.37    8.70
   9  -2   8  120.95   12.09
   6  -9  -8   -4.90    5.58
  -9   3  -8    0.78    4.76
  -9   3  -8    2.99    4.11
  -9   3  -8   -2.60    4.44
   3   6  -8    2.36    7.83
   9  -3   8   -6.58    7.22
   4   5  -8    7.14    8.09
  -9   4  -8   11.08    4.47
   5  -9  -8    8.94    6.21
  -9   4  -8    0.82    3.99
  -9   4  -8    0.31    4.19
   9  -4   8    8.73    7.87
  -9   5  -8    0.66    3.86
  -9   5  -8   -2.28    5.40
   4  -9  -8    4.21    6.29
  -9   5  -8    6.36    4.14
   9  -5   8   -2.54    7.13
  -9   6  -8   18.87    4.80
   3  -9  -8    8.60    6.44
  -9   6  -8   18.28    6.45
  -9   6  -8   14.28    4.42
  -6  -3   8   10.36    5.74
  -6  -3   8   10.10    5.64
   9  -6   8   10.99    8.13
   2  -9  -8   -0.56    6.05
  -9   7  -8    8.21    4.08
  -9   7  -8   11.26    6.46
  -9   7  -8    4.71    3.95
  -7  -2   8   -0.51    5.25
  -7  -2   8   -4.74    5.22
  -9   8  -8    0.57    6.30
   1  -9  -8   14.43    7.19
  -9   8  -8    8.85    3.83
  -9   8  -8    7.50    3.80
  -8  -1   8    5.91    6.13
  -8  -1   8    0.90    5.81
  -9   9  -8  103.42    7.72
  -9   9  -8   95.18    7.52
  -9   9  -8   90.99   11.13
  -9   0   8   93.54   10.35
  -9   0   8   72.47    9.98
  -9  10  -8   -0.83    8.01
  -9  10  -8   -0.05    3.49
  -9  10  -8    0.83    3.49
 -10   1   8   -3.88    6.28
 -10   1   8    0.29    5.98
  -9  11  -8    3.33    3.69
  -9  11  -8   16.76    9.81
  -9  11  -8    5.96    3.76
  11  -2  -8   13.92    4.47
 -11   2   8   10.58    7.09
 -11   2   8   -2.39    6.68
  12  -3  -8   -0.02    3.68
  12  -3  -8   -0.79    6.87
  -9  12  -8   -0.74    9.48
 -12   3   8  -11.82    5.86
 -12   3   8  -11.99    6.17
  13  -4  -8   19.24    4.69
  13  -4  -8   13.80    7.84
 -13   4   8   10.55    7.31
 -13   4   8    7.26    7.46
  14  -5  -8    4.49    7.83
 -14   5   8    4.94    7.46
 -14   5   8   21.95    8.57
  15  -6  -8   18.19    8.70
  -6  -9  -8   13.09    7.26
  -6  -9  -8   39.45    8.61
 -15   6   8   23.55    8.30
 -15   6   8   21.40    8.45
  16  -7  -8    2.67    8.09
  -7  -9  -8    5.65    6.97
  -7  -9  -8    0.52    6.60
 -16   7   8  -14.18    6.77
 -16   7   8    8.51    7.55
 -10  -6  -8    1.05    6.82
  16 -10  -8   -1.41    9.09
 -10  -6  -8   11.73    7.51
  10   6   8   11.56    8.45
 -10  -5  -8   13.18    7.16
 -10  -5  -8   14.99    7.47
  15 -10  -8   16.73    9.37
  10   5   8   22.38    8.90
 -10  -4  -8    7.78    6.71
 -10  -4  -8    7.01    6.21
  14 -10  -8   -2.71    7.88
  10   4   8   20.25    8.38
  13 -10  -8    7.34    7.63
  -3  13  -8    5.11   11.06
 -10  -3  -8    8.06    7.69
 -10  -3  -8   13.31    6.78
 -10  -3  -8    6.17    6.28
  10   3   8   11.91    7.93
 -10  -2  -8   -1.33    5.60
 -10  -2  -8    3.62    5.67
  -2  12  -8    7.54   10.77
  12 -10  -8   -0.88    5.65
  12 -10  -8    4.06    6.55
 -10  -2  -8   -0.70    6.83
  10   2   8    7.98    7.73
  11 -10  -8  207.24   14.13
  -1  11  -8  178.48   18.16
 -10  -1  -8  167.34   13.61
  11 -10  -8  199.76   13.56
 -10  -1  -8  202.34   14.42
 -10  -1  -8  183.87   14.26
  10   1   8  184.01   15.76
  10 -10  -8   43.95    6.45
 -10   0  -8   35.77    7.59
 -10   0  -8   44.04    7.95
   0  10  -8   43.81   11.72
 -10   0  -8   40.63    7.15
  10 -10  -8   38.43    7.53
  10   0   8   37.60    9.13
   9 -10  -8   -0.39    3.96
   1   9  -8   72.30   11.83
 -10   1  -8   -5.84    4.33
 -10   1  -8    6.93    5.87
 -10   1  -8   -1.74    5.26
   9 -10  -8    6.67    6.47
  10  -1   8    7.12    7.42
 -10   2  -8   -2.60    4.94
   8 -10  -8    0.14    6.29
   2   8  -8    0.03    8.90
 -10   2  -8    2.53    5.50
 -10   2  -8    1.71    3.78
  10  -2   8    0.93    7.38
   7 -10  -8   48.80    8.69
 -10   3  -8   69.10    7.88
 -10   3  -8   59.77    8.41
   3   7  -8   62.90   11.39
 -10   3  -8   51.54    7.80
  10  -3   8   54.75   10.67
   4   6  -8   23.31    9.07
 -10   4  -8   29.06    6.41
 -10   4  -8   32.33    6.54
   6 -10  -8   23.64    7.56
 -10   4  -8   22.11    5.18
  10  -4   8   27.79    8.90
 -10   5  -8   30.79    6.21
   5   5  -8   47.70   10.15
 -10   5  -8   39.76    7.13
   5 -10  -8   33.05    8.37
 -10   5  -8   33.81    6.02
 -10   5  -8   36.75    6.27
  10  -5   8   40.58    9.88
 -10   6  -8  129.69   11.23
   4 -10  -8  123.88   12.68
 -10   6  -8  138.91   10.33
   6   4  -8  136.27   14.08
 -10   6  -8  142.89    9.99
  -6  -4   8  134.59   11.23
  10  -6   8  123.16   13.81
  -6  -4   8  139.00   10.96
 -10   7  -8   31.16    5.77
 -10   7  -8   56.42    6.72
 -10   7  -8   37.35    7.65
  -7  -3   8   26.90    7.14
  -7  -3   8   43.72    7.30
  10  -7   8   49.22   10.46
 -10   8  -8   56.70    8.60
 -10   8  -8   51.51    6.42
 -10   8  -8   59.01    6.59
  -8  -2   8   62.83    8.52
  -8  -2   8   58.63    8.66
 -10   9  -8   58.92    6.27
 -10   9  -8   62.91    6.70
 -10   9  -8   72.40    9.86
  -9  -1   8   59.74    8.96
  -9  -1   8   66.41    9.50
 -10  10  -8   46.21    5.86
 -10  10  -8   42.70    5.52
 -10  10  -8   37.56    9.26
 -10   0   8   46.14    8.61
 -10   0   8   38.89    8.42
 -10  11  -8    9.57    4.25
 -10  11  -8   18.36    9.19
 -10  11  -8   18.73    4.49
 -11   1   8   27.13    7.72
 -11   1   8   20.19    7.87
 -10  12  -8   15.32   10.23
  12  -2  -8   14.65    8.05
  12  -2  -8   15.14    4.57
 -12   2   8   15.16    7.73
 -12   2   8   13.04    7.82
  13  -3  -8   36.42    9.26
  13  -3  -8   52.59    6.29
 -13   3   8   38.78    9.23
 -13   3   8   31.76    8.70
  14  -4  -8    1.91    7.87
 -14   4   8   -3.05    7.01
 -14   4   8    3.83    7.38
  15  -5  -8   12.36    8.37
 -15   5   8    4.28    7.59
 -15   5   8   15.15    8.32
  -6 -10  -8    5.59    6.95
  16  -6  -8   19.29    9.45
  -6 -10  -8   11.01    7.09
 -16   6   8   22.27    8.67
 -16   6   8    7.83    8.37
 -11  -4  -8    2.82    6.45
  15 -11  -8    4.56    8.30
 -11  -4  -8    5.65    6.77
  11   4   8   -0.59    8.00
  14 -11  -8   -1.65    7.49
 -11  -3  -8    5.89    6.52
 -11  -3  -8    5.15    6.38
  11   3   8    0.72    7.90
  13 -11  -8    4.30    6.89
 -11  -2  -8    3.62    6.43
 -11  -2  -8    1.29    6.27
  -2  13  -8   10.92   11.34
 -11  -2  -8   13.44    8.00
  11   2   8   -5.44    7.49
  12 -11  -8   22.86    7.09
 -11  -1  -8   34.81    8.17
  -1  12  -8   16.56   11.53
 -11  -1  -8   20.41    7.43
 -11  -1  -8   28.90    7.73
  11   1   8   11.37    8.05
   0  11  -8   41.98   11.88
  11 -11  -8   48.05    6.92
 -11   0  -8   21.86    7.17
 -11   0  -8   35.78    8.02
 -11   0  -8   37.31    7.67
  11   0   8   22.47    8.83
   1  10  -8   38.64   11.48
 -11   1  -8   23.98    6.36
 -11   1  -8   14.00    6.83
 -11   1  -8   30.00    7.19
  10 -11  -8   24.04    5.26
  11  -1   8   17.46    8.62
 -11   2  -8   15.24    5.28
   2   9  -8   11.63    9.71
 -11   2  -8    8.82    6.23
 -11   2  -8    4.78    5.71
  11  -2   8    8.82    8.04
 -11   3  -8   33.46    5.76
 -11   3  -8   54.40    8.37
 -11   3  -8   48.08    7.77
   3   8  -8   45.07   11.24
  11  -3   8   36.17   10.03
 -11   4  -8   -2.48    4.03
 -11   4  -8   12.76    5.67
 -11   4  -8   12.09    5.91
 -11   4  -8    5.66    6.07
   4   7  -8    6.77    8.98
  11  -4   8    5.12    7.80
   5   6  -8   37.10    9.66
 -11   5  -8   41.34    7.25
 -11   5  -8   43.35    7.18
 -11   5  -8   22.89    5.58
 -11   5  -8   34.35    6.57
  -5  -6   8   45.29    6.75
  -5  -6   8   48.53    6.73
  11  -5   8   41.01   10.33
 -11   6  -8   77.96    8.55
 -11   6  -8   66.81    7.98
 -11   6  -8   75.86    8.83
   6   5  -8   73.01   11.77
  -6  -5   8   72.36    8.26
  -6  -5   8   67.18    8.29
  11  -6   8   83.29   12.36
 -11   7  -8   -0.77    3.93
 -11   7  -8    6.34    4.18
 -11   7  -8   -3.31    5.54
   7   4  -8   -4.66    7.72
  11  -7   8   -8.05    7.57
  -7  -4   8    4.10    5.70
  -7  -4   8   -3.06    4.96
   8   3  -8   -5.16    7.61
 -11   8  -8   -1.17    6.10
 -11   8  -8   -6.40    3.51
 -11   8  -8   -4.12    3.83
  11  -8   8  -10.90    8.08
  -8  -3   8    9.35    6.02
  -8  -3   8    7.14    6.08
 -11   9  -8   58.40    9.25
 -11   9  -8   47.58    6.20
 -11   9  -8   40.83    5.84
  -9  -2   8   42.11    8.32
  -9  -2   8   34.50    8.11
 -11  10  -8  183.95   11.31
 -11  10  -8  170.51   10.83
 -10  -1   8  213.24   15.14
 -10  -1   8  168.20   14.56
 -11  11  -8   37.43    5.43
 -11  11  -8   28.75    5.18
 -11  11  -8   35.58    9.17
 -11   0   8   25.51    8.43
 -11   0   8   27.17    8.19
 -11  12  -8   18.06    4.45
 -11  12  -8   20.50    4.43
 -12   1   8   10.10    7.77
 -12   1   8    9.71    7.55
  13  -2  -8   -2.07    3.73
  13  -2  -8    7.47    8.00
 -13   2   8   11.18    7.87
 -13   2   8    0.11    7.20
  14  -3  -8   -4.10    7.78
 -14   3   8    8.40    7.87
 -14   3   8    1.44    7.87
  15  -4  -8   12.33    8.75
 -15   4   8    8.06    8.25
 -15   4   8    9.64    8.43
 -12  -3  -8   -0.36    7.10
 -12  -3  -8    5.47    6.58
  15 -12  -8   -7.83    7.85
  12   3   8   -7.72    8.05
  14 -12  -8    3.87    7.33
 -12  -2  -8    5.25    7.03
 -12  -2  -8    2.91    6.86
  12   2   8   20.30    9.03
  -1  13  -8   55.50   13.65
 -12  -1  -8   44.31    9.13
 -12  -1  -8   44.50    8.86
 -12  -1  -8   21.11    7.38
  12   1   8   15.44    9.11
 -12   0  -8    9.22    6.49
 -12   0  -8   -5.34    6.10
 -12   0  -8   -6.99    5.98
   0  12  -8    9.82   11.30
  12   0   8    3.07    8.77
   1  11  -8   21.92   11.46
 -12   1  -8   38.81    8.05
 -12   1  -8   25.90    6.82
 -12   1  -8   26.50    7.72
  12  -1   8    6.44    9.42
 -12   2  -8   21.78    7.27
   2  10  -8    8.98    9.97
 -12   2  -8    7.60    5.65
 -12   2  -8    7.38    6.06
  12  -2   8   12.15    9.16
 -12   3  -8    7.77    5.95
 -12   3  -8    9.31    5.86
   3   9  -8    3.62    9.30
 -12   3  -8   14.14    6.47
 -12   3  -8   -0.91    4.52
  12  -3   8    3.75    7.91
 -12   4  -8   14.51    6.08
 -12   4  -8   24.14    6.49
   4   8  -8    5.60    9.27
 -12   4  -8   10.89    4.92
 -12   4  -8   12.77    6.14
  12  -4   8   17.05    9.23
 -12   5  -8   35.93    7.02
 -12   5  -8   30.07    6.86
 -12   5  -8   26.85    5.45
   5   7  -8   36.36   10.58
 -12   5  -8   27.43    7.02
  -5  -7   8   32.30    6.16
  12  -5   8   39.61   10.92
  -5  -7   8   29.76    6.15
   6   6  -8   17.61    9.32
 -12   6  -8   11.12    5.28
 -12   6  -8   15.32    5.89
 -12   6  -8   12.02    5.27
 -12   6  -8    8.21    4.72
  -6  -6   8   17.06    5.89
  12  -6   8    2.00    8.76
  -6  -6   8   10.02    5.38
 -12   7  -8   21.25    5.54
 -12   7  -8   27.26    6.19
 -12   7  -8   14.73    6.50
  -7  -5   8   15.10    5.68
  12  -7   8   32.32   10.67
  -7  -5   8   23.17    6.59
 -12   8  -8    0.29    4.10
   8   4  -8   -5.59    7.90
 -12   8  -8    1.00    6.33
 -12   8  -8   -4.43    3.73
  -8  -4   8   -5.68    5.38
  12  -8   8   -3.05    8.37
  -8  -4   8   -0.34    5.82
   9   3  -8   -6.14    7.93
 -12   9  -8   12.10    4.71
 -12   9  -8    5.95    4.62
 -12   9  -8   -4.55    6.66
  -9  -3   8    4.87    6.51
  12  -9   8   28.51   10.39
  -9  -3   8   -1.89    6.61
 -12  10  -8    5.59    4.20
 -12  10  -8   38.62    8.71
  10   2  -8    1.60    8.09
 -12  10  -8    4.84    4.26
 -10  -2   8    6.12    6.83
 -10  -2   8    0.23    6.53
 -12  11  -8   26.07    5.48
 -12  11  -8   16.71    4.77
 -11  -1   8   19.55    7.55
 -11  -1   8   22.89    7.79
 -12  12  -8   -1.18    3.74
 -12  12  -8    1.60    3.68
 -12   0   8   10.63    7.10
 -12   0   8   -1.73    6.59
 -13   1   8   11.72    7.80
 -13   1   8   17.78    8.01
  14  -2  -8   18.26    9.22
 -14   2   8   11.11    8.16
 -14   2   8   23.43    8.61
  15  -3  -8   -2.28    8.13
 -15   3   8   12.23    8.85
 -15   3   8    2.89    7.70
 -13  -2  -8   26.87    8.91
 -13  -2  -8   32.87    8.65
  13   2   8   25.07   10.40
 -13  -1  -8   10.96    7.14
 -13  -1  -8    2.13    6.96
  13   1   8   22.42    9.93
   0  13  -8    7.72   11.48
 -13   0  -8    2.40    6.64
 -13   0  -8   -0.51    6.76
 -13   0  -8    2.73    6.32
  13   0   8    1.18    9.26
 -13   1  -8   15.74    7.02
 -13   1  -8    9.09    6.88
   1  12  -8   18.24   12.32
 -13   1  -8   14.05    6.33
  13  -1   8    8.08    9.55
 -13   2  -8   -0.73    6.39
   2  11  -8   12.18   11.10
 -13   2  -8    0.91    5.49
 -13   2  -8    3.89    6.22
  13  -2   8    4.81    9.20
 -13   3  -8   47.95    8.55
   3  10  -8   21.78   11.18
 -13   3  -8   42.88    8.74
 -13   3  -8   33.87    7.13
  13  -3   8   53.72   11.63
 -13   4  -8   15.42    6.94
   4   9  -8   14.03   10.39
 -13   4  -8    8.41    5.20
 -13   4  -8   13.40    6.15
  13  -4   8   22.51    9.87
 -13   5  -8  102.67   11.71
 -13   5  -8  140.57   10.75
 -13   5  -8  126.62   10.43
 -13   5  -8  118.57   11.66
   5   8  -8  118.56   14.64
  -5  -8   8  149.27   10.51
  -5  -8   8  136.57   10.65
  13  -5   8  144.74   15.86
 -13   6  -8    7.73    4.45
 -13   6  -8   16.39    6.40
 -13   6  -8    3.99    6.02
   6   7  -8   15.36    9.40
 -13   6  -8    2.99    5.19
  -6  -7   8   10.57    5.41
  -6  -7   8    7.51    5.19
  13  -6   8    7.16    9.42
   7   6  -8   -9.96    8.40
 -13   7  -8   12.68    5.73
 -13   7  -8    6.01    4.28
 -13   7  -8    8.46    5.25
  -7  -6   8    7.52    5.73
  13  -7   8   11.08    9.22
  -7  -6   8    7.44    5.78
   8   5  -8    6.52    8.75
 -13   8  -8    7.77    5.04
 -13   8  -8    0.06    4.76
  13  -8   8   11.47   10.07
  -8  -5   8    6.81    5.98
  -8  -5   8    3.64    5.95
   9   4  -8   18.00    9.03
 -13   9  -8   11.46    5.20
 -13   9  -8   12.84    5.08
 -13   9  -8   28.48    7.63
  -9  -4   8   20.89    7.42
  13  -9   8   19.80    9.94
  -9  -4   8   23.46    7.68
 -13  10  -8    4.79    4.69
  10   3  -8   18.46    8.82
 -13  10  -8   15.67    5.42
 -10  -3   8   14.34    7.18
 -10  -3   8   16.44    7.24
 -13  11  -8   -2.05    4.33
  11   2  -8    0.27    8.14
 -13  11  -8    2.81    4.27
 -11  -2   8    9.48    7.18
 -11  -2   8   -0.40    6.85
 -13  12  -8   36.67    5.83
  12   1  -8   34.79    9.33
 -13  12  -8   38.17    6.11
 -12  -1   8   34.39    8.75
 -12  -1   8   37.32    8.97
 -13   0   8    3.44    7.47
 -13   0   8    0.09    7.30
  14  -1  -8   10.07    9.30
 -14   1   8   11.45    8.06
 -14   1   8   -0.49    7.53
  15  -2  -8   17.54    9.51
 -15   2   8   19.44    8.79
 -15   2   8   17.33    8.64
 -14   0  -8   13.21    7.12
 -14   0  -8    7.76    7.84
  14   0   8  -11.32    9.34
 -14   1  -8    1.88    6.47
 -14   1  -8    9.14    7.93
   1  13  -8    8.34   11.92
 -14   1  -8    2.54    6.49
  14  -1   8   15.80   10.12
 -14   2  -8   16.46    7.23
 -14   2  -8   12.60    7.72
 -14   2  -8   15.69    6.80
   2  12  -8   14.65   12.47
  14  -2   8   38.05   11.46
 -14   3  -8    5.71    6.61
   3  11  -8  -10.99   10.44
 -14   3  -8   12.98    6.04
 -14   3  -8    5.95    7.05
  14  -3   8   -0.45    9.44
 -14   4  -8    0.02    5.22
 -14   4  -8    0.92    6.57
 -14   4  -8   -7.16    5.55
   4  10  -8    4.94   10.54
  14  -4   8    4.32    8.66
 -14   5  -8    9.66    6.44
 -14   5  -8   10.10    4.82
 -14   5  -8    5.10    6.55
  -5  -9   8   13.74    5.63
  14  -5   8   23.19   10.45
  -5  -9   8   15.48    5.30
 -14   6  -8   50.28    7.16
 -14   6  -8   56.03    8.72
 -14   6  -8   52.60    9.00
   6   8  -8   65.14   12.18
  -6  -8   8   63.16    8.05
  -6  -8   8   48.99    7.39
   7   7  -8   71.16   12.41
 -14   7  -8   65.19    7.89
 -14   7  -8   72.39    9.38
 -14   7  -8   71.89    9.60
  -7  -7   8   72.85    9.06
  14  -7   8   70.97   13.10
  -7  -7   8   77.12    9.33
 -14   8  -8   20.85    6.56
 -14   8  -8   23.14    6.39
 -14   8  -8   24.14    5.42
   8   6  -8   18.02    9.59
  14  -8   8   11.19    9.83
  -8  -6   8   16.56    6.31
  -8  -6   8   27.40    6.86
 -14   9  -8   95.16    9.45
   9   5  -8   61.36   11.94
 -14   9  -8  109.19   10.05
  -9  -5   8   76.51    9.91
  14  -9   8  103.60   14.33
  -9  -5   8   90.50   10.47
 -14  10  -8    6.57    5.08
  10   4  -8    5.46    8.60
 -14  10  -8    8.70    5.22
 -10  -4   8    6.70    6.83
 -10  -4   8   17.27    7.28
  14 -10   8    2.55    9.60
 -14  11  -8   -0.70    4.83
  11   3  -8    2.09    8.06
 -14  11  -8   -7.46    4.16
 -11  -3   8    5.59    7.08
 -11  -3   8   -2.61    6.68
  12   2  -8   11.25    8.53
 -14  12  -8    8.07    4.90
 -14  12  -8    5.80    4.57
 -12  -2   8    5.80    7.48
 -12  -2   8   13.43    7.72
  13   1  -8   24.68    8.93
 -13  -1   8   15.40    8.42
 -13  -1   8    9.91    7.88
  14   0  -8   20.68    8.94
 -14   0   8   15.28    8.46
 -14   0   8    3.46    7.80
 -15   2  -8   11.50    7.18
 -15   2  -8    9.15    7.68
  15  -2   8   20.89   10.35
   3  12  -8  -10.65   10.53
 -15   3  -8    0.14    6.99
 -15   3  -8   -8.51    5.29
 -15   3  -8    4.84    6.85
  15  -3   8   -1.92    9.68
 -15   4  -8   -3.94    5.08
   4  11  -8   -6.40   10.89
 -15   4  -8   -2.67    6.34
 -15   4  -8    2.56    7.04
  15  -4   8    4.21    9.65
 -15   5  -8    4.80    6.90
 -15   5  -8   -2.50    5.00
   5  10  -8   11.54   10.90
 -15   5  -8   18.13    7.70
  15  -5   8    2.02    9.85
 -15   6  -8   29.76    8.21
 -15   6  -8   38.56    7.99
   6   9  -8   24.56   10.70
 -15   6  -8   17.90    5.65
  -6  -9   8   29.69    6.48
  -6  -9   8   19.59    6.05
  15  -6   8   15.55   10.23
   7   8  -8   13.99    9.53
 -15   7  -8    7.18    5.12
 -15   7  -8   -0.52    6.11
 -15   7  -8   -3.19    6.14
  -7  -8   8    7.33    5.68
  -7  -8   8    2.20    5.69
  15  -7   8   10.81   10.14
   8   7  -8    1.30    8.84
 -15   8  -8    9.33    6.44
 -15   8  -8    8.89    6.71
 -15   8  -8    3.06    4.64
  -8  -7   8    5.39    5.95
  -8  -7   8    6.96    6.05
  15  -8   8   10.85   10.34
 -15   9  -8    9.58    5.89
 -15   9  -8   18.68    5.19
   9   6  -8    1.11    8.70
 -15   9  -8   12.38    5.83
  15  -9   8   13.10   10.56
  -9  -6   8   -3.21    5.55
  -9  -6   8    2.46    5.78
 -15  10  -8   34.74    7.26
  10   5  -8   22.44    9.37
 -15  10  -8   20.03    6.33
  15 -10   8   18.50   10.76
 -10  -5   8   22.47    8.23
 -10  -5   8   30.79    8.06
  11   4  -8    6.86    8.55
 -15  11  -8   -0.75    4.57
 -15  11  -8    4.55    5.44
 -11  -4   8   -2.63    6.45
 -11  -4   8   -7.17    6.74
  15 -11   8    4.26    9.80
 -15  12  -8    0.18    5.27
  12   3  -8   -6.15    7.98
 -15  12  -8   -0.70    4.74
 -12  -3   8    1.52    7.10
 -12  -3   8  -15.09    6.58
 -13  -2   8   39.03    9.63
 -13  -2   8   39.95    9.21
   6  10  -8   16.44   11.07
 -16   6  -8   19.13    8.35
 -16   6  -8   19.81    7.57
  16  -6   8   15.33   10.51
 -16   7  -8  -15.80    5.67
 -16   7  -8    3.84    7.09
   7   9  -8    2.97   10.20
  -7  -9   8    6.98    5.78
  -7  -9   8    8.50    5.77
  16  -7   8   -5.31   10.11
 -16   8  -8    5.76    6.93
   8   8  -8    8.76    9.89
 -16   8  -8    0.42    6.43
  -8  -8   8   -3.43    5.28
  16  -8   8   -4.23    9.48
  -8  -8   8    4.26    5.73
 -16   9  -8   33.33    8.88
   9   7  -8   37.55   10.74
 -16   9  -8   38.13    8.43
 -16   9  -8   30.41    6.38
  -9  -7   8   45.26    8.31
  -9  -7   8   31.53    7.88
  16  -9   8   35.13   12.00
 -16  10  -8   19.55    7.00
 -16  10  -8    3.66    5.65
  10   6  -8    7.06    8.79
 -16  10  -8    5.06    4.80
 -10  -6   8   -0.83    6.31
  16 -10   8   -6.71   10.25
 -10  -6   8   -8.68    5.74
   0   0  -9   -4.52    4.23
   1  -1  -9  101.48    8.84
  -1   0  -9  101.54    9.28
  -1   0  -9  109.18   10.24
   1  -1  -9  106.85   10.02
   0   1  -9  116.61    9.32
   0  -1  -9  130.51   10.74
  -1   1  -9  113.34   10.23
   0  -1  -9  112.77    9.01
  -1  -1  -9    0.49    3.86
   2  -1  -9    6.11    4.81
  -1  -1  -9   11.79    5.08
  -2  -1  -9   12.92    5.17
  -2  -1  -9   10.95    5.31
   3  -2  -9    5.60    5.10
  -2   0  -9    5.96    5.08
   2  -2  -9   17.62    4.14
   2  -2  -9   24.08    5.83
   1  -2  -9   -2.06    4.24
   1  -2  -9    5.88    3.57
  -2   1  -9    5.33    4.66
   0  -2  -9   20.79    5.85
   0  -2  -9   22.87    4.12
  -1  -2  -9    7.97    4.09
  -1  -2  -9    5.75    5.05
  -2  -2  -9   12.78    5.65
  -2  -2  -9   20.12    4.09
   4  -2  -9   22.98    5.97
   5  -3  -9    2.95    4.64
  -3  -2  -9    4.28    5.21
  -3  -2  -9   -1.32    3.71
  -3  -1  -9    6.77    5.34
   4  -3  -9    2.00    4.87
  -3  -1  -9   14.21    5.16
   3  -3  -9   30.15    6.25
  -3   0  -9   27.26    6.21
  -3   0  -9   29.51    6.10
   2  -3  -9    3.94    3.01
   2  -3  -9    3.35    4.97
  -3   1  -9    1.47    4.59
  -3   1  -9   -6.62    4.56
   1  -3  -9    9.91    3.15
   1  -3  -9    3.40    5.08
   0  -3  -9   48.25    7.51
   0  -3  -9   30.92    3.48
  -1  -3  -9    4.69    2.75
  -1  -3  -9    1.17    4.82
  -2  -3  -9    3.04    5.32
   5  -2  -9    1.65    4.64
  -3   6  -9   -0.25    7.52
  -3  -3  -9   -4.70    4.79
   6  -3  -9   -0.65    4.60
   7  -4  -9   54.77    6.84
  -4  -3  -9   62.41    8.94
  -3   7  -9   65.97    6.51
  -3   7  -9   61.23    6.31
   7  -4  -9   57.28    8.07
  -3   7  -9   74.93   11.13
   4   3   9   64.72    6.58
  -4  -2  -9   14.44    4.78
  -2   6  -9   14.10    8.73
   6  -4  -9   19.48    6.07
  -4  -2  -9   23.70    6.61
   5  -4  -9   13.32    5.67
  -4  -1  -9    7.46    5.37
  -4  -1  -9   14.68    4.89
  -4   0  -9   14.92    5.49
  -4   0  -9   23.10    5.70
   4  -4  -9   10.03    5.43
  -4   1  -9   11.44    5.58
  -4   1  -9    6.18    5.02
   3  -4  -9   -5.83    4.54
   3  -4  -9    5.13    2.36
   2  -4  -9   26.20    6.39
   1  -4  -9    3.40    5.42
   0  -4  -9   21.31    6.43
  -1  -4  -9   -4.13    4.64
  -4   6  -9   17.85    8.50
  -2  -4  -9   30.45    7.05
   6  -2  -9   19.13    5.53
  -4   7  -9   48.87   10.39
   7  -3  -9   68.23    8.18
  -3  -4  -9   61.60    9.09
  -4  -4  -9    5.03    6.19
  -4   8  -9   12.26    8.35
  -4   8  -9   -3.84    3.23
  -4   8  -9   -4.40    3.23
   8  -4  -9    1.15    5.01
   8  -4  -9   -1.22    4.95
   4   4   9   -4.59    3.73
  -5  -4  -9    5.55    6.83
   9  -5  -9    5.07    5.19
  -4   9  -9   13.22    9.14
   9  -5  -9    7.80    5.51
   5   4   9   11.44    4.77
  -5  -3  -9    2.17    6.13
   8  -5  -9   -4.05    4.78
  -3   8  -9   -4.98    3.76
  -3   8  -9   -5.10    7.73
   8  -5  -9    3.39    4.85
  -3   8  -9    0.15    3.57
   5   3   9    5.39    4.78
  -5  -2  -9   19.09    6.70
  -2   7  -9   33.17    5.20
  -2   7  -9   32.33    9.29
  -2   7  -9   32.86    5.55
   7  -5  -9   22.14    6.58
   7  -5  -9   27.96    5.23
   5   2   9   44.03    6.45
  -5  -1  -9   10.51    5.08
  -1   6  -9   10.79    8.49
  -5  -1  -9   12.82    5.81
   6  -5  -9   17.42    4.09
   6  -5  -9   12.94    5.94
   5   1   9   11.34    4.97
  -5   0  -9    3.18    5.23
  -5   0  -9    3.70    5.12
   5  -5  -9    6.03    5.36
   5  -5  -9    5.79    2.91
  -5   1  -9   -3.37    4.57
   4  -5  -9    2.64    5.21
  -5   2  -9   14.97    5.58
   3  -5  -9   -4.02    4.93
   2  -5  -9    6.23    5.43
   1  -5  -9   10.00    5.87
   0  -5  -9    5.26    5.75
  -5   6  -9   -3.53    7.48
  -1  -5  -9   -8.02    5.33
   7  -2  -9    8.95    4.91
  -5   7  -9    1.50    7.94
  -2  -5  -9   11.32    6.22
   8  -3  -9   47.95    7.14
  -3  -5  -9   35.73    7.97
  -5   8  -9   46.77   10.41
   3   5   9   45.55    4.85
   9  -4  -9   -4.70    5.33
   9  -4  -9   -0.90    4.45
  -4  -5  -9    0.75    6.54
  -5   9  -9   -7.15    8.52
   4   5   9    3.09    3.74
  -5  10  -9   12.94    9.79
  -5  -5  -9   17.87    7.74
  10  -5  -9   23.14    5.97
  10  -5  -9   17.85    6.37
   5   5   9   24.48    5.30
  11  -6  -9   23.47    6.08
  -6  -5  -9   35.24    9.11
  -5  11  -9   22.02   11.36
  11  -6  -9   23.07    6.64
   6   5   9   25.06    6.37
  -4  10  -9   -6.38    9.24
  -6  -4  -9   -3.90    6.53
  10  -6  -9   -2.80    4.59
  10  -6  -9   -1.32    5.19
   6   4   9   -3.32    4.72
   9  -6  -9    2.99    5.14
   9  -6  -9   12.37    5.56
  -3   9  -9    8.99    9.08
  -6  -3  -9    2.36    6.28
   6   3   9    9.48    5.30
  -2   8  -9   -3.25    3.62
  -2   8  -9   -2.45    3.65
   8  -6  -9   -4.36    5.02
   8  -6  -9   -1.29    4.27
  -6  -2  -9  -14.45    5.50
  -2   8  -9   -0.97    8.43
   6   2   9    0.14    5.28
  -1   7  -9    2.82    4.14
  -6  -1  -9    7.44    5.83
   7  -6  -9    9.01    4.11
  -1   7  -9   10.08    8.40
   7  -6  -9    6.56    5.63
  -1   7  -9    3.33    4.22
   6   1   9    7.55    5.47
   0   6  -9   24.60    9.31
   6  -6  -9   22.66    4.02
  -6   0  -9   22.40    6.33
   6  -6  -9   29.02    6.95
   6   0   9   21.20    6.38
  -6   2  -9   23.48    6.14
   4  -6  -9   31.83    7.07
   3  -6  -9    1.98    5.71
   2  -6  -9   18.23    6.62
   1  -6  -9   17.76    6.52
  -6   6  -9   33.84    8.61
   0  -6  -9   23.97    7.04
  -6   7  -9    5.29    7.94
  -1  -6  -9   -5.30    5.78
  -2  -6  -9   -3.38    6.23
  -6   8  -9    1.03    8.11
   8  -2  -9    1.56    4.49
  -6   9  -9   33.01   10.39
   9  -3  -9   28.99    5.92
  -3  -6  -9   28.65    8.19
   3   6   9   30.39    4.36
  -4  -6  -9   -6.76    6.60
  -6  10  -9   -6.15    8.94
  -6  10  -9    3.21    3.56
  10  -4  -9    5.09    4.70
  -6  10  -9    1.19    3.35
  10  -4  -9    5.45    6.16
   4   6   9   -0.21    3.63
  11  -5  -9   -0.49    4.84
  -5  -6  -9    4.92    7.52
  -6  11  -9   11.85   10.29
  11  -5  -9   14.52    6.74
   5   6   9    0.35    4.56
  -6  -6  -9    7.24    8.21
  -6  12  -9    5.83   10.80
  12  -6  -9    3.89    6.39
  12  -6  -9   13.52    5.59
   6   6   9   16.54    5.90
  -6  13  -9   14.14   11.23
  13  -7  -9    1.69    5.23
  13  -7  -9    5.89    6.88
  12  -7  -9    0.40    5.15
  -7  -5  -9   -9.28    7.23
  -5  12  -9    3.24   11.00
  12  -7  -9   -3.74    5.95
   7   5   9   -0.95    5.61
  -7  -4  -9   27.31    8.47
  -4  11  -9   23.61   10.76
  11  -7  -9   13.78    5.89
  11  -7  -9   13.13    6.29
   7   4   9   17.94    6.40
  10  -7  -9   -0.46    5.60
  -7  -3  -9    4.31    6.53
  -3  10  -9   13.69    9.95
  10  -7  -9    7.46    5.57
   7   3   9    0.69    5.30
   9  -7  -9   -4.17    5.25
  -7  -2  -9   -2.74    5.82
   9  -7  -9    2.92    4.92
  -2   9  -9    3.04    8.85
   7   2   9    0.44    5.48
  -1   8  -9    1.73    8.28
   8  -7  -9    7.20    6.27
  -7  -1  -9    9.27    5.98
   8  -7  -9    4.06    4.57
   7   1   9   -4.27    5.33
   0   7  -9   -0.75    8.15
   7  -7  -9    2.27    5.94
   7  -7  -9   -0.34    3.40
  -7   0  -9    3.98    4.86
   6  -7  -9    8.36    6.34
  -7   1  -9   -3.80    4.78
   1   6  -9    1.03    8.50
   7  -1   9    3.88    5.84
   5  -7  -9   -4.93    5.64
  -7   2  -9    0.83    4.61
   7  -2   9    1.35    6.10
  -7   3  -9   55.56    7.62
   4  -7  -9   61.07    8.69
   3  -7  -9   72.78    9.58
   2  -7  -9   13.41    6.62
  -7   6  -9    0.89    6.80
   1  -7  -9    6.82    6.16
   0  -7  -9   -3.68    5.92
  -7   7  -9   -0.09    7.04
  -7   8  -9    6.72    3.91
  -7   8  -9    1.75    3.57
  -1  -7  -9   -1.27    6.33
  -7   8  -9   -6.39    7.72
  -7   9  -9    3.25    3.99
  -7   9  -9   17.85    9.33
  -7   9  -9   11.15    4.19
   9  -2  -9   12.95    5.01
  -2  -7  -9   -2.05    6.61
  -7  10  -9    6.25    3.88
  -3  -7  -9   -8.60    6.69
  -7  10  -9    7.92    3.89
  10  -3  -9   15.02    5.02
  -7  10  -9   -4.83    8.90
  -4  -7  -9   -1.89    7.48
  11  -4  -9   -0.91    4.36
  11  -4  -9   13.46    6.72
  -7  11  -9    6.55    9.27
  -7  12  -9   18.99   11.62
  -5  -7  -9   20.66    8.71
  12  -5  -9   17.56    5.60
  12  -5  -9   22.35    7.50
  13  -6  -9   33.09    6.71
  13  -6  -9   24.88    7.94
  -7  13  -9   20.44   12.23
  14  -7  -9   15.98    7.98
  -7  -7  -9    1.59    6.29
  -7  14  -9   -2.16   11.91
  -7  -7  -9    4.06    6.77
  15  -8  -9   -1.12    7.67
  -8  -7  -9   -2.01    6.89
  -8  -7  -9   -2.99    6.19
  -6  14  -9  -14.03   11.16
  -8  -6  -9   -2.20    6.07
  14  -8  -9   -6.61    4.92
  -8  -6  -9   -5.36    5.47
  14  -8  -9   -6.50    6.79
  13  -8  -9    4.33    5.51
  -8  -5  -9   15.10    8.64
  -8  -5  -9   17.76    6.72
  -5  13  -9   28.19   12.84
  13  -8  -9   10.82    8.22
  -8  -5  -9    4.62    6.30
   8   5   9   18.97    7.21
  12  -8  -9    2.09    5.33
  -8  -4  -9    8.72    5.95
  -8  -4  -9   -2.09    5.83
  -4  12  -9   -3.86   10.30
  -8  -4  -9    0.61    7.78
  12  -8  -9    3.83    7.46
   8   4   9   -0.01    6.25
  11  -8  -9    1.95    5.41
  -8  -3  -9   -0.35    5.83
  -8  -3  -9   13.48    7.67
  -8  -3  -9    4.59    5.67
  11  -8  -9   15.59    6.74
  -3  11  -9   -2.44    9.84
   8   3   9    7.60    6.58
  10  -8  -9    0.29    5.40
  -8  -2  -9   -3.47    6.23
  -2  10  -9  -11.66    9.09
  10  -8  -9    5.56    5.59
   8   2   9    3.14    6.06
  -1   9  -9   20.18    9.76
   9  -8  -9    5.22    6.08
   9  -8  -9    4.46    4.77
  -8  -1  -9   16.82    6.65
   8   1   9    9.35    6.35
  -8   0  -9   16.60    5.97
   0   8  -9    7.20    8.89
   8  -8  -9    5.02    6.23
   8  -8  -9   13.12    3.88
   8   0   9    9.07    6.58
   7  -8  -9   -2.54    5.72
   1   7  -9    0.00    8.02
  -8   1  -9    5.71    4.69
   8  -1   9    0.15    6.34
   6  -8  -9    0.32    5.84
  -8   2  -9    1.62    4.56
   2   6  -9    9.10    8.67
   8  -2   9    4.78    6.93
   5  -8  -9   37.61    7.75
  -8   3  -9   40.20    6.81
   3   5  -9   56.05   11.12
   8  -3   9   35.56    8.42
   4  -8  -9    5.50    6.06
  -8   5  -9    3.66    3.74
  -8   5  -9    4.66    4.20
   3  -8  -9    9.15    6.37
  -8   6  -9   -2.67    3.66
  -8   6  -9    3.94    4.05
   2  -8  -9    6.31    6.43
  -8   6  -9   -5.83    6.22
  -8   7  -9   -3.93    6.50
  -8   7  -9    1.34    3.69
  -8   7  -9   -1.46    3.29
   1  -8  -9   -0.90    6.38
  -8   8  -9    8.56    3.89
   0  -8  -9   10.56    6.92
  -8   8  -9    7.38    7.82
  -8   8  -9    9.15    3.88
  -8   9  -9    0.26    3.97
  -8   9  -9    2.32    4.13
  -1  -8  -9    0.81    6.94
  -8   9  -9    9.40    8.48
  -8  10  -9   16.55    4.41
  -8  10  -9   11.35    4.28
  -8  10  -9    5.80    8.90
  10  -2  -9   13.09    4.94
  -2  -8  -9    6.89    7.61
  11  -3  -9   -2.22    6.11
  -8  11  -9    0.49    8.88
  -3  -8  -9    3.45    7.41
  11  -3  -9   -3.49    3.76
  12  -4  -9   10.61    5.13
  -8  12  -9   25.66   11.19
  12  -4  -9   13.74    7.14
  13  -5  -9   -5.39    4.54
  -8  13  -9  -12.00   10.23
  13  -5  -9    2.02    7.29
  14  -6  -9   14.97    7.97
  -8  14  -9   42.00   13.33
  15  -7  -9   -0.26    7.86
  -7  -8  -9  -11.44    5.83
  -7  -8  -9   -2.83    6.29
  15  -9  -9    4.21    9.34
  -9  -6  -9   -2.00    6.21
  -9  -6  -9  -11.43    5.89
  14  -9  -9    8.48    8.80
  -9  -5  -9   12.42    6.77
  14  -9  -9    6.17    5.84
  -5  14  -9   22.78   12.62
  -9  -5  -9    9.51    7.04
   9   5   9    7.27    7.64
  -9  -4  -9   -8.77    5.10
  13  -9  -9   -2.86    5.66
  -4  13  -9   11.98   12.30
  13  -9  -9  -10.74    7.44
  -9  -4  -9   -5.64    5.63
  -9  -4  -9    1.14    7.93
   9   4   9   -4.27    6.77
  -9  -3  -9    1.83    6.01
  -3  12  -9   -2.16   10.66
  12  -9  -9   -3.68    5.22
  12  -9  -9    4.19    6.65
  -9  -3  -9   -4.98    7.32
  -9  -3  -9   -0.88    5.69
   9   3   9   -2.15    6.64
  11  -9  -9   14.19    6.68
  -2  11  -9   23.41   11.24
  -9  -2  -9   21.50    7.77
  -9  -2  -9   14.92    6.46
  11  -9  -9   32.73    6.89
  -9  -2  -9   13.93    6.89
   9   2   9   10.73    7.26
  10  -9  -9   10.63    5.36
  -9  -1  -9   -0.73    6.00
  10  -9  -9    2.23    5.72
  -9  -1  -9   -3.74    5.65
  -1  10  -9   20.91   10.30
  -9  -1  -9    0.71    5.27
   9   1   9   16.62    7.10
   9  -9  -9    3.74    4.15
  -9   0  -9    0.36    5.38
   9  -9  -9    1.09    6.13
   0   9  -9   -1.22    9.47
  -9   0  -9    1.46    5.19
  -9   0  -9   -3.69    5.47
   9   0   9   -2.85    6.41
   8  -9  -9    4.58    6.19
  -9   1  -9    4.22    5.72
   1   8  -9   -6.61    8.99
  -9   1  -9    0.21    5.11
  -9   1  -9   -2.42    4.63
   9  -1   9    1.28    6.33
   7  -9  -9   -4.82    5.87
  -9   2  -9   14.80    5.88
  -9   2  -9    2.37    5.11
  -9   2  -9   11.36    5.42
   2   7  -9   12.90    8.79
   9  -2   9   -0.26    6.57
  -9   3  -9   25.83    6.15
   6  -9  -9   36.17    8.01
  -9   3  -9   22.32    5.97
  -9   3  -9   13.37    5.92
   3   6  -9   20.89    9.58
   9  -3   9   36.75    9.08
  -9   4  -9   -2.56    4.12
  -9   4  -9    0.33    4.05
   5  -9  -9    9.41    6.47
   4   5  -9   10.16    8.65
  -9   4  -9    8.21    4.85
   9  -4   9    3.30    7.23
  -9   5  -9    7.57    4.38
  -9   5  -9    9.41    6.34
   4  -9  -9   -1.38    6.29
  -9   5  -9   10.09    4.27
  -9   6  -9   14.92    4.74
   3  -9  -9   14.23    6.96
  -9   6  -9    7.60    4.22
  -9   6  -9   16.82    6.59
   2  -9  -9    7.36    6.95
  -9   7  -9    2.37    6.49
  -9   7  -9    7.15    4.30
  -9   7  -9    1.28    3.93
  -9   8  -9    8.50    4.11
  -9   8  -9    6.76    7.31
   1  -9  -9   -5.08    6.44
  -9   8  -9    8.06    3.96
  -9   9  -9    1.01    3.59
  -9   9  -9    2.62    7.42
   0  -9  -9    4.25    7.11
  -9   9  -9    1.08    3.76
  -9  10  -9   -0.85    4.10
  -9  10  -9   -0.73    3.91
  -9  10  -9    1.50    8.90
  -1  -9  -9   14.37    7.77
 -10   1   9    6.86    6.75
 -10   1   9   15.30    7.15
  -9  11  -9    0.98    9.50
  -9  11  -9   -2.42    3.62
  11  -2  -9    2.49    4.03
  -9  11  -9  -13.98    3.42
 -11   2   9    6.40    6.97
 -11   2   9   -7.22    6.50
  12  -3  -9    4.56    7.31
  -9  12  -9   -0.59    9.92
  12  -3  -9    2.00    4.26
 -12   3   9    5.91    7.16
 -12   3   9    7.13    7.32
  13  -4  -9   -5.91    6.74
  13  -4  -9    4.12    4.29
  -9  13  -9   -0.57   10.39
 -13   4   9    9.66    7.48
 -13   4   9    9.44    7.64
  14  -5  -9   27.36    8.75
 -14   5   9    3.27    7.43
 -14   5   9   11.33    7.84
  -6  -9  -9   13.17    7.63
  15  -6  -9    8.57    8.00
  -6  -9  -9   -6.30    6.27
 -15   6   9    4.32    7.86
 -15   6   9    3.56    8.05
  -4  14  -9   32.85   13.51
  14 -10  -9    5.82    6.89
 -10  -4  -9   28.23    8.11
 -10  -4  -9   12.37    7.01
  10   4   9    8.88    7.79
 -10  -3  -9   -0.07    6.07
  -3  13  -9    5.27   11.63
  13 -10  -9   -2.87    5.75
 -10  -3  -9   11.02    8.45
 -10  -3  -9   13.58    6.77
  10   3   9   11.66    7.93
 -10  -2  -9   16.44    7.23
 -10  -2  -9    5.50    6.54
  12 -10  -9   18.28    6.88
 -10  -2  -9   32.10    8.75
  10   2   9   16.29    7.70
  11 -10  -9   -4.16    5.67
 -10  -1  -9    2.66    6.14
 -10  -1  -9    4.64    5.97
  -1  11  -9   23.33   10.86
 -10  -1  -9   -2.42    5.56
  10   1   9    4.34    7.15
  10 -10  -9   13.02    6.88
 -10   0  -9    3.70    5.73
   0  10  -9   17.11   10.62
 -10   0  -9   -4.93    5.13
 -10   0  -9    4.18    6.21
  10   0   9    3.42    7.21
   1   9  -9   -6.15    9.31
 -10   1  -9   -0.39    5.48
 -10   1  -9   15.72    6.49
 -10   1  -9   -0.69    5.05
   9 -10  -9    3.55    6.58
  10  -1   9   12.01    7.71
   2   8  -9   13.63   10.14
   8 -10  -9    7.70    6.70
 -10   2  -9    0.08    4.28
 -10   2  -9    4.67    5.96
 -10   2  -9    0.80    5.44
  10  -2   9    4.96    7.62
 -10   3  -9   11.90    5.53
 -10   3  -9    6.68    4.92
   3   7  -9    3.70    8.84
   7 -10  -9    5.37    6.65
 -10   3  -9    7.44    5.63
  10  -3   9    9.95    7.79
 -10   4  -9   -2.98    4.28
 -10   4  -9   -2.67    4.58
   6 -10  -9   10.82    7.06
   4   6  -9   -5.35    8.14
 -10   4  -9    2.54    5.02
  10  -4   9   14.41    8.21
 -10   5  -9   18.75    5.60
 -10   5  -9   23.33    5.55
   5   5  -9   11.80    9.22
 -10   5  -9   25.61    7.18
   5 -10  -9   30.72    8.27
 -10   5  -9   19.56    5.36
  10  -5   9   19.37    8.74
 -10   6  -9    1.58    4.17
   4 -10  -9   -1.43    6.62
 -10   6  -9    6.62    4.20
   6   4  -9   -0.55    8.07
 -10   6  -9   -6.49    5.99
  10  -6   9    9.89    8.43
 -10   7  -9    6.96    4.45
 -10   7  -9    8.77    6.86
 -10   7  -9    0.50    4.08
   3 -10  -9    9.98    7.20
 -10   8  -9    2.95    4.06
 -10   8  -9    0.44    6.64
 -10   8  -9   -0.68    3.93
   2 -10  -9    0.25    7.00
 -10   9  -9    6.73    4.07
 -10   9  -9    4.31    3.93
 -10   9  -9    9.16    6.98
  -9  -1   9   16.81    6.98
  -9  -1   9   -8.46    5.91
 -10  10  -9   -2.56    7.74
 -10  10  -9   -0.30    3.86
 -10  10  -9    1.87    4.12
 -10   0   9    1.80    6.63
 -10   0   9    7.41    6.86
 -10  11  -9   -3.42    3.94
 -10  11  -9   -1.84    4.11
 -10  11  -9    7.53    9.77
 -11   1   9   -3.63    6.55
 -11   1   9   -8.38    6.40
  12  -2  -9    2.15    4.36
 -10  12  -9   -1.06    9.74
 -12   2   9   12.90    7.47
 -12   2   9   -1.45    7.08
  13  -3  -9    9.94    7.94
 -10  13  -9    9.13   10.77
  13  -3  -9    8.83    4.64
 -13   3   9   15.77    8.17
 -13   3   9   -3.14    6.90
  14  -4  -9   10.79    8.16
 -14   4   9   -2.03    7.17
 -14   4   9    3.98    7.56
 -11  -3  -9    0.56    6.33
 -11  -3  -9   11.42    7.63
  -3  14  -9   -8.99   12.12
  11   3   9   -6.75    7.60
 -11  -2  -9    4.08    6.13
 -11  -2  -9    6.25    6.65
 -11  -2  -9    4.68    7.76
  -2  13  -9   13.78   12.52
  11   2   9   -1.05    7.18
 -11  -1  -9   11.77    6.56
 -11  -1  -9    5.54    7.28
  -1  12  -9   23.17   12.14
 -11  -1  -9   10.69    6.99
  11   1   9   21.97    8.41
 -11   0  -9   20.57    6.76
  11 -11  -9   -3.15    6.74
   0  11  -9    3.63   10.35
 -11   0  -9   -1.49    5.92
 -11   0  -9    9.29    6.74
  11   0   9   16.78    8.38
   1  10  -9   -3.76    9.73
 -11   1  -9   -4.35    5.88
  10 -11  -9  -12.77    6.57
 -11   1  -9   -1.65    5.38
 -11   1  -9    0.14    5.81
  11  -1   9    3.08    7.45
   2   9  -9   15.33   10.51
 -11   2  -9   -3.67    5.67
   9 -11  -9    2.74    7.51
 -11   2  -9   -5.47    5.72
 -11   2  -9   -7.03    4.55
  11  -2   9   -6.34    6.61
 -11   3  -9    6.97    6.08
   3   8  -9   -1.21    9.14
   8 -11  -9    5.07    7.28
 -11   3  -9    3.60    4.36
 -11   3  -9   -2.01    5.15
  11  -3   9   -6.51    8.08
 -11   4  -9   -2.91    5.40
 -11   4  -9   -1.74    4.50
 -11   4  -9   11.84    6.56
 -11   4  -9    8.08    5.58
   4   7  -9   17.11    9.59
   7 -11  -9   -0.34    6.96
 -11   5  -9   -1.75    5.77
 -11   5  -9    9.50    4.86
 -11   5  -9    6.00    5.20
   5   6  -9    5.16    8.68
   6 -11  -9    4.37    7.39
 -11   5  -9    3.32    5.35
  11  -5   9    9.06    9.10
 -11   6  -9   26.75    7.11
 -11   6  -9   32.52    6.36
 -11   6  -9   20.31    5.54
 -11   6  -9   33.53    6.21
   6   5  -9   23.12    9.50
  11  -6   9   12.90    9.04
 -11   7  -9   24.76    5.83
 -11   7  -9   15.22    5.50
 -11   7  -9   22.36    7.32
  11  -7   9   29.53    9.96
 -11   8  -9    4.94    4.29
 -11   8  -9   12.11    6.95
 -11   8  -9    2.37    4.16
  -8  -3   9    1.74    6.59
  -8  -3   9    8.23    6.87
 -11   9  -9    6.33    7.26
 -11   9  -9    6.89    4.34
 -11   9  -9   15.05    4.89
  -9  -2   9   10.60    6.95
  -9  -2   9    7.66    6.92
 -11  10  -9   -0.48    7.61
 -11  10  -9    0.31    3.95
 -11  10  -9    1.93    3.82
 -10  -1   9   -8.58    6.20
 -10  -1   9    1.67    6.51
 -11  11  -9   -0.01    3.93
 -11  11  -9    5.64    8.32
 -11  11  -9    7.23    4.18
 -11   0   9   14.76    7.75
 -11   0   9    4.33    6.91
 -11  12  -9   24.90    9.53
 -12   1   9    2.74    7.05
 -12   1   9    9.71    7.11
  13  -2  -9    7.50    4.49
  13  -2  -9    7.91    7.96
 -13   2   9   16.74    7.79
 -13   2   9   16.70    8.14
  14  -3  -9    0.82    7.78
 -14   3   9   15.95    8.51
 -14   3   9    5.22    7.58
 -12  -2  -9   13.46    8.24
  -2  14  -9   -1.60   12.19
 -12  -2  -9   12.68    7.43
 -12  -2  -9    7.93    7.08
  12   2   9   12.14    8.94
  -1  13  -9   -6.26   11.64
 -12  -1  -9   13.51    7.97
 -12  -1  -9   -0.84    6.20
 -12  -1  -9    2.83    7.06
  12   1   9   -2.97    8.13
 -12   0  -9   -1.57    5.93
 -12   0  -9    6.57    6.86
   0  12  -9    0.30   11.73
 -12   0  -9   -5.34    6.27
  12   0   9   -2.44    8.07
 -12   1  -9    1.02    5.97
 -12   1  -9   -5.87    5.70
   1  11  -9   11.79   11.21
 -12   1  -9   -5.76    6.36
  12  -1   9    8.05    8.24
   2  10  -9    1.46   10.74
 -12   2  -9   -4.48    5.15
 -12   2  -9    2.80    6.49
 -12   2  -9    7.39    6.34
  12  -2   9    5.26    8.44
 -12   3  -9   -1.97    5.08
 -12   3  -9   -2.80    6.04
   3   9  -9    0.47    9.92
 -12   3  -9    0.42    5.62
  12  -3   9   11.22    8.96
 -12   4  -9   -3.85    5.59
   4   8  -9    5.52    9.74
 -12   4  -9    5.24    4.69
 -12   4  -9   13.20    6.57
 -12   4  -9    4.59    6.40
  12  -4   9   17.53    9.59
 -12   5  -9   31.73    7.34
 -12   5  -9   10.22    5.36
   5   7  -9   20.57   10.69
 -12   5  -9   24.65    6.88
 -12   5  -9   16.37    6.46
  12  -5   9   35.41   10.08
 -12   6  -9   10.01    4.84
 -12   6  -9   14.87    6.77
 -12   6  -9    8.85    5.60
 -12   6  -9    6.47    5.03
   6   6  -9    4.83    9.05
  12  -6   9   16.63    9.74
 -12   7  -9    1.58    4.49
   7   5  -9   -0.26    8.39
 -12   7  -9   -3.44    4.55
 -12   7  -9   -3.82    5.98
  -7  -5   9   -4.66    5.19
  -7  -5   9    2.35    5.33
  12  -7   9   -8.39    8.03
 -12   8  -9    6.16    4.52
 -12   8  -9    4.86    4.82
 -12   8  -9   12.22    6.77
   8   4  -9   -1.58    8.42
  12  -8   9   -1.04    8.96
  -8  -4   9    2.70    6.05
  -8  -4   9    0.58    5.90
   9   3  -9    8.13    8.41
 -12   9  -9    3.79    4.49
 -12   9  -9    6.19    4.25
 -12   9  -9   14.20    7.47
  -9  -3   9   -1.33    6.28
  -9  -3   9   -2.91    6.11
 -12  10  -9    5.25    8.09
 -12  10  -9   14.82    4.91
 -12  10  -9   25.82    5.42
 -10  -2   9    4.03    6.60
 -10  -2   9   14.43    7.58
 -12  11  -9    7.36    7.94
 -12  11  -9    8.00    4.60
 -12  11  -9    7.38    4.70
 -11  -1   9    9.34    7.68
 -11  -1   9   12.60    7.39
 -12  12  -9   15.26    8.84
 -12   0   9   -1.32    6.80
 -12   0   9    2.66    7.13
 -13   1   9   -0.09    7.02
 -13   1   9   -9.84    6.70
  14  -2  -9    0.60    8.22
 -14   2   9    6.21    8.09
 -14   2   9    1.33    7.23
 -13   0  -9   -1.09    6.62
 -13   0  -9   10.17    7.49
   0  13  -9    1.01   12.22
 -13   0  -9   12.81    7.55
  13   0   9    7.70    8.72
 -13   1  -9    1.86    6.67
   1  12  -9    2.55   11.65
 -13   1  -9   -0.63    6.92
 -13   1  -9    2.35    6.56
  13  -1   9    2.26    9.46
 -13   2  -9   10.72    6.31
 -13   2  -9   10.35    7.01
   2  11  -9    3.86   11.33
 -13   2  -9   20.07    7.72
  13  -2   9    5.20    9.36
 -13   3  -9   -1.94    6.05
 -13   3  -9    8.32    7.02
   3  10  -9   14.82   10.95
 -13   3  -9    5.49    5.75
  13  -3   9   15.68    9.70
 -13   4  -9    9.29    6.75
   4   9  -9    7.37    9.62
 -13   4  -9   -3.17    5.57
 -13   4  -9    0.77    5.11
  13  -4   9    5.38    9.45
   5   8  -9    0.02    9.47
 -13   5  -9    3.22    5.07
 -13   5  -9    5.70    5.98
 -13   5  -9   -0.64    5.97
  13  -5   9  -12.66    8.63
   6   7  -9   33.08   11.12
 -13   6  -9   29.45    6.31
 -13   6  -9   53.71    8.17
 -13   6  -9   39.35    7.75
 -13   6  -9   26.77    6.84
  13  -6   9   22.62   10.43
 -13   7  -9    7.85    4.84
   7   6  -9   18.26    9.86
 -13   7  -9    4.06    5.17
 -13   7  -9    2.26    6.49
 -13   7  -9    3.32    5.35
  -7  -6   9   -2.53    5.05
  -7  -6   9    9.20    5.84
  13  -7   9   22.05   10.00
 -13   8  -9   11.36    5.35
   8   5  -9    4.71    8.86
 -13   8  -9   12.40    5.18
 -13   8  -9   26.19    7.40
  13  -8   9   10.96    9.47
  -8  -5   9   11.96    6.25
  -8  -5   9   13.49    6.55
 -13   9  -9    1.54    4.52
 -13   9  -9    7.91    7.17
   9   4  -9    1.49    8.35
 -13   9  -9    1.02    4.74
  -9  -4   9   13.59    6.80
  -9  -4   9    8.49    6.77
 -13  10  -9    2.29    4.46
 -13  10  -9   -3.73    3.93
  10   3  -9    9.17    8.85
 -13  10  -9    1.63    7.00
 -10  -3   9    4.38    7.15
 -10  -3   9    5.17    6.85
 -13  11  -9    3.83    4.59
  11   2  -9   13.39    8.97
 -13  11  -9   -0.75    4.29
 -11  -2   9   -1.60    6.50
 -11  -2   9    5.89    7.08
  12   1  -9    2.43    8.34
 -12  -1   9    4.05    7.30
 -12  -1   9   10.94    7.89
 -13   0   9   -2.99    7.13
 -13   0   9   23.25    8.55
 -14   2  -9   10.82    7.07
 -14   2  -9   11.67    7.66
 -14   2  -9   -0.77    6.28
   2  12  -9   15.29   12.75
  14  -2   9   -3.86    9.61
   3  11  -9   -0.40   11.36
 -14   3  -9    5.94    6.87
 -14   3  -9   -3.80    5.29
 -14   3  -9    8.66    7.24
  14  -3   9   -4.47    9.35
 -14   4  -9   -2.39    6.74
   4  10  -9    7.96   10.21
 -14   4  -9   -2.70    5.54
 -14   4  -9    0.30    6.18
  14  -4   9   24.69   10.48
 -14   5  -9   14.23    6.71
 -14   5  -9   15.08    7.22
 -14   5  -9   10.62    5.63
   5   9  -9    7.52   10.82
  14  -5   9   10.30   10.29
 -14   6  -9   39.99    7.11
 -14   6  -9   55.16    9.33
   6   8  -9   35.85   11.37
 -14   6  -9   41.99    8.17
  14  -6   9   44.69   12.17
 -14   7  -9    7.21    6.29
 -14   7  -9   -1.83    5.10
 -14   7  -9   -1.21    4.40
   7   7  -9   10.36   10.10
  -7  -7   9   -5.39    4.96
  14  -7   9    7.75   10.03
  -7  -7   9   -4.69    5.08
   8   6  -9    0.18    9.17
 -14   8  -9   -3.30    4.93
 -14   8  -9   -8.95    4.62
 -14   8  -9    1.78    4.56
  14  -8   9    9.06   10.04
  -8  -6   9    1.70    5.29
  -8  -6   9   -4.00    5.40
 -14   9  -9   17.36    5.80
 -14   9  -9    8.27    5.61
   9   5  -9   10.54    9.62
  -9  -5   9    9.99    6.55
  -9  -5   9   15.99    6.86
  14  -9   9    9.38   10.18
 -14  10  -9    9.41    5.31
  10   4  -9   10.07    9.25
 -14  10  -9   18.11    5.96
 -10  -4   9   12.93    7.20
 -10  -4   9   29.21    8.35
 -14  11  -9   -8.24    4.73
 -14  11  -9    3.99    5.01
  11   3  -9    7.27    8.68
 -11  -3   9    5.92    7.42
 -11  -3   9   -4.30    7.26
  12   2  -9   -5.13    8.10
 -12  -2   9    9.12    7.80
 -12  -2   9    8.89    8.21
   6   9  -9   21.32   11.28
 -15   6  -9    1.40    6.93
 -15   6  -9   -5.27    4.90
 -15   6  -9   -9.40    6.03
  15  -6   9    7.21   10.35
   7   8  -9    4.29    9.75
 -15   7  -9   -4.81    6.53
 -15   7  -9    5.26    6.54
 -15   7  -9    0.66    5.11
  -7  -8   9    2.68    5.33
  15  -7   9    0.59    9.64
  -7  -8   9    6.02    5.58
   8   7  -9    2.38    9.44
 -15   8  -9    0.33    4.68
 -15   8  -9   -2.47    5.89
 -15   8  -9   -0.20    5.27
  15  -8   9   -4.79   10.07
  -8  -7   9    7.38    5.91
  -8  -7   9    6.10    5.78
 -15   9  -9    7.17    4.95
 -15   9  -9   -6.03    5.15
 -15   9  -9   -0.05    5.08
   9   6  -9   -0.78    8.67
  -9  -6   9   -0.70    5.88
  -9  -6   9    1.58    6.19
  15  -9   9   16.42   10.64
  15 -10   9  -13.19    9.30
   0   0 -10   19.01    6.25
   0   0 -10   21.28    5.84
   1  -1 -10    1.41    5.21
  -1   0 -10    4.71    5.27
  -1   0 -10    9.70    4.90
   1  -1 -10   -0.23    4.67
   2  -1 -10    4.95    5.11
  -1  -1 -10    5.22    4.72
  -1  -1 -10    5.46    5.27
   2  -1 -10    8.50    4.57
  -2  -1 -10    1.25    4.90
  -2  -1 -10    1.32    5.16
   3  -2 -10    1.51    5.23
   2  -2 -10   35.28    7.38
  -2   0 -10   40.87    6.36
  -2   0 -10   36.97    7.46
   1  -2 -10   -4.93    3.73
   1  -2 -10    0.26    5.05
  -2   1 -10    0.78    4.98
  -2   1 -10   -9.42    4.59
   0  -2 -10   39.83    5.26
   0  -2 -10   37.47    7.45
   3  -1 -10    2.18    4.99
  -1  -2 -10   -3.52    4.12
  -1  -2 -10    6.40    5.62
  -2  -2 -10    8.08    5.64
  -2  -2 -10    2.60    3.83
   4  -2 -10   -1.35    5.12
  -3  -2 -10    2.80    5.59
   5  -3 -10    0.42    5.26
  -3  -2 -10    1.19    4.10
  -3  -1 -10    9.30    4.81
   4  -3 -10   16.11    6.33
  -3  -1 -10   14.70    6.38
   3  -3 -10    8.63    5.98
  -3   0 -10   19.57    5.71
  -3   0 -10    8.74    5.61
   3  -3 -10   11.87    4.08
   2  -3 -10    2.61    3.39
  -3   1 -10   -3.32    4.85
   2  -3 -10    3.52    5.50
   1  -3 -10    9.67    3.72
   1  -3 -10    3.54    5.66
   0  -3 -10    9.56    3.06
   0  -3 -10   19.06    6.57
   4  -1 -10   28.09    6.65
  -1  -3 -10   24.14    3.64
  -1  -3 -10   17.90    6.71
  -2  -3 -10    4.69    5.55
   5  -2 -10    8.05    5.32
  -3  -3 -10   -6.71    5.60
   6  -3 -10    3.08    5.27
   7  -4 -10    4.72    4.73
   7  -4 -10    8.74    5.76
  -4  -3 -10   -6.03    5.86
  -3   7 -10    6.52    8.89
   6  -4 -10   11.10    5.87
  -2   6 -10   -9.91    7.97
  -4  -2 -10   -3.78    5.59
  -4  -1 -10    6.59    5.89
   5  -4 -10    0.82    5.62
  -4  -1 -10    7.45    4.96
   4  -4 -10   10.97    5.91
  -4   0 -10   14.72    5.95
   4  -4 -10   15.16    3.64
  -4   0 -10    3.43    5.71
   3  -4 -10   20.34    6.80
  -4   1 -10   15.94    6.36
   2  -4 -10    5.97    5.73
   1  -4 -10   19.26    6.56
   0  -4 -10    6.76    6.08
  -1  -4 -10   -0.15    5.49
  -2  -4 -10   18.67    6.92
   6  -2 -10   -1.86    4.88
  -3  -4 -10    2.23    6.69
  -4   7 -10   -6.13    8.41
   7  -3 -10    4.04    5.32
   8  -4 -10    8.32    5.86
  -4  -4 -10   -5.59    5.92
  -4   8 -10   23.42    9.61
   8  -4 -10   -3.84    4.97
   9  -5 -10   10.81    5.97
  -4   9 -10    7.10    9.85
   9  -5 -10   13.22    5.83
  -5  -4 -10   -6.00    6.58
   5   4  10    7.36    4.87
  -3   8 -10   13.66    9.29
  -5  -3 -10   -3.80    6.52
   8  -5 -10    7.08    5.99
   8  -5 -10    2.93    4.76
   5   3  10    3.79    4.52
   7  -5 -10    5.71    5.83
  -2   7 -10    7.45    8.84
   7  -5 -10    6.93    4.38
  -5  -2 -10    5.28    6.09
  -1   6 -10    4.39    8.47
   6  -5 -10    7.65    3.73
   6  -5 -10   14.15    6.38
  -5  -1 -10    4.12    5.71
   5  -5 -10   14.91    6.50
   5  -5 -10   15.82    3.23
  -5   0 -10    4.86    6.15
   4  -5 -10    2.82    5.65
  -5   1 -10    4.23    5.58
   3  -5 -10    9.67    6.05
  -5   2 -10   -6.28    4.75
   2  -5 -10    3.50    5.71
   1  -5 -10   15.17    6.83
   0  -5 -10   26.59    7.50
  -5   6 -10    6.81    8.55
  -1  -5 -10    4.17    6.54
  -5   7 -10  -15.37    8.11
  -2  -5 -10    6.39    6.82
   7  -2 -10    8.49    5.25
  -3  -5 -10   -1.47    6.36
  -5   8 -10    6.29    8.97
   8  -3 -10    8.97    5.54
  -4  -5 -10    2.98    6.69
  -5   9 -10    0.42    9.35
   9  -4 -10    1.50    5.51
   9  -4 -10    1.18    4.81
  -5  10 -10   11.62   10.61
  -5  -5 -10   14.77    7.89
  10  -5 -10   12.16    6.23
  10  -5 -10    6.28    5.52
  11  -6 -10    6.08    5.97
  -6  -5 -10   20.70    8.68
  11  -6 -10   -3.27    5.14
  -5  11 -10    8.43   10.55
  10  -6 -10   23.09    6.28
  -4  10 -10   13.36   10.52
  -6  -4 -10   20.69    8.35
  10  -6 -10   18.50    6.27
   6   4  10   15.41    5.65
   9  -6 -10   11.86    5.56
  -6  -3 -10   15.04    7.31
  -3   9 -10   18.44   10.49
   9  -6 -10   11.10    6.11
   6   3  10   12.40    5.53
   8  -6 -10   16.85    4.95
   8  -6 -10    9.69    6.18
  -6  -2 -10    7.08    6.65
  -2   8 -10   13.36    9.43
   6   2  10   10.48    5.51
   7  -6 -10    7.40    6.01
  -1   7 -10   -6.66    8.74
   7  -6 -10    3.11    3.81
  -6  -1 -10    1.47    6.14
   6   1  10    4.08    5.43
  -6   0 -10   36.78    7.69
   0   6 -10   35.05   10.45
   6  -6 -10   38.46    8.09
   6  -6 -10   40.04    4.08
  -6   1 -10    8.26    5.79
   5  -6 -10    6.25    6.25
   4  -6 -10    4.40    6.16
  -6   2 -10    2.57    5.59
   3  -6 -10    1.31    5.91
  -6   3 -10    1.95    5.53
   2  -6 -10   11.47    6.91
   1  -6 -10   -0.81    6.16
  -6   6 -10   37.81   10.07
   0  -6 -10   36.73    8.37
  -6   7 -10   -6.93    7.86
  -1  -6 -10    3.04    6.71
   8  -2 -10   -0.38    4.89
  -6   8 -10   -0.46    8.41
  -2  -6 -10   11.09    7.03
  -6   9 -10    3.93    9.44
   9  -3 -10    2.68    4.82
  -3  -6 -10    0.52    6.97
  -4  -6 -10    8.68    7.79
  -6  10 -10    0.94    3.74
  10  -4 -10   -5.56    4.16
  10  -4 -10    0.93    6.25
  -6  10 -10    9.48    9.98
  -6  10 -10   -5.39    3.70
  11  -5 -10   19.87    6.96
  -5  -6 -10   22.00    8.97
  -6  11 -10   22.87   10.86
  11  -5 -10   18.16    5.93
  12  -6 -10   -6.92    4.72
  12  -6 -10    9.97    6.62
  -6  -6 -10   11.02    8.63
  -6  12 -10    0.66   10.78
  -6  13 -10    2.75   11.86
  -7  -6 -10    0.19    7.81
  13  -7 -10   -0.49    5.42
  13  -7 -10   -7.96    6.44
  -7  -5 -10   25.07    9.00
  12  -7 -10   11.60    6.73
  -5  12 -10   -9.80   10.54
  12  -7 -10   10.72    6.51
  11  -7 -10   -2.27    5.33
  -7  -4 -10    4.55    7.70
  11  -7 -10    1.75    5.66
  -4  11 -10   -3.63   10.59
  -7  -3 -10   -2.46    6.98
  10  -7 -10   14.51    5.78
  10  -7 -10   -4.93    5.64
  -3  10 -10   -6.87    9.94
   7   3  10    7.69    6.12
  -2   9 -10   -4.50    9.48
   9  -7 -10   10.76    5.17
   9  -7 -10   -1.90    6.15
  -7  -2 -10    6.76    6.98
   7   2  10    5.46    5.89
  -7  -1 -10   30.24    7.52
   8  -7 -10   19.75    7.41
  -1   8 -10   34.38   10.67
   7   1  10   24.28    6.98
   0   7 -10   50.63   11.47
  -7   0 -10   44.91    8.00
   7  -7 -10   56.93    9.60
   7   0  10   60.87    8.46
   6  -7 -10   -1.26    6.13
  -7   1 -10    6.75    5.90
   1   6 -10    7.85    9.10
  -7   2 -10    1.93    5.50
   5  -7 -10    6.41    6.76
  -7   3 -10    8.34    5.80
   4  -7 -10   -6.41    6.02
   3  -7 -10   -7.31    5.80
   2  -7 -10    0.69    6.14
  -7   6 -10   -5.10    6.89
   1  -7 -10    7.61    6.71
  -7   7 -10   63.24   10.91
   0  -7 -10   52.27    9.23
  -7   8 -10   31.74    9.93
  -1  -7 -10    9.78    7.25
  -2  -7 -10    4.10    7.62
  -7   9 -10   36.72   10.53
   9  -2 -10   18.11    5.65
  -7   9 -10   21.97    5.03
  -7   9 -10   13.03    4.66
  -7  10 -10   -2.21    3.83
  10  -3 -10   -0.25    4.34
  -3  -7 -10    7.43    7.96
  -7  10 -10   10.10    9.64
  -7  10 -10   -0.50    3.93
  -4  -7 -10    7.19    8.32
  11  -4 -10    8.75    5.30
  -7  11 -10    4.24   10.16
  11  -4 -10    0.97    6.37
  12  -5 -10   -3.47    6.31
  12  -5 -10   -0.84    4.92
  -5  -7 -10    2.94    8.62
  -7  12 -10    5.78   10.80
  13  -6 -10    1.51    5.30
  -7  13 -10    7.28   12.06
  13  -6 -10    9.53    6.99
  13  -8 -10   23.42    6.97
  -8  -5 -10   15.29    7.26
  -5  13 -10   53.84   13.67
  -8  -5 -10   17.77    9.72
  -8  -5 -10   20.02    7.64
  -8  -4 -10   -2.49    7.90
  -8  -4 -10    2.38    6.28
  -4  12 -10    8.73   11.51
  12  -8 -10   -8.10    5.21
  -8  -4 -10    3.13    6.19
  -3  11 -10    3.54   10.83
  -8  -3 -10   -1.05    7.40
  11  -8 -10    2.83    5.96
   8   3  10   11.03    6.49
  10  -8 -10    4.83    6.19
  -2  10 -10    0.37    9.80
  -8  -2 -10    0.10    7.04
   8   2  10    1.92    6.01
  -1   9 -10   -9.22    9.54
  -8  -1 -10    5.34    6.75
   9  -8 -10    1.61    6.14
   8   1  10    4.33    6.40
   8  -8 -10    4.02    6.32
  -8   0 -10    3.59    5.90
   0   8 -10   -8.47    8.50
   8   0  10    7.72    6.31
   7  -8 -10   32.01    8.04
  -8   1 -10   18.81    6.03
   1   7 -10    9.30    9.34
   8  -1  10   21.10    7.18
   2   6 -10   -2.25    8.91
   6  -8 -10    3.21    6.21
  -8   2 -10   -1.12    4.91
   8  -2  10   13.50    7.16
   5  -8 -10   -0.03    6.24
  -8   3 -10   -1.06    4.87
  -8   4 -10   -3.64    4.70
   4  -8 -10    8.02    6.70
   3  -8 -10    2.87    6.35
  -8   6 -10   16.61    7.78
   2  -8 -10    4.05    6.77
  -8   7 -10   19.00    8.19
  -8   7 -10   16.33    4.67
  -8   7 -10   20.39    4.70
   1  -8 -10   28.34    8.39
  -8   8 -10   12.86    8.96
  -8   8 -10   -0.86    3.63
   0  -8 -10   -0.93    6.92
  -8   8 -10    1.18    3.85
  -8   9 -10   -1.18    3.98
  -8   9 -10    2.37    4.33
  -8   9 -10    1.56    9.13
  -1  -8 -10   -2.29    7.16
  -8  10 -10    8.89    4.56
  10  -2 -10    7.57    5.13
  -2  -8 -10    7.70    7.90
  -8  10 -10    7.73    9.49
  -8  10 -10   10.74    4.49
  -8  11 -10   35.66   11.64
  -3  -8 -10   20.16    9.27
  11  -3 -10   31.89    8.04
  11  -3 -10   33.48    6.50
  -8  12 -10    2.77   10.77
  12  -4 -10    6.91    7.06
  -4  -8 -10    7.49    8.60
  12  -4 -10   13.46    5.52
  13  -5 -10   14.13    5.91
  -8  13 -10   -2.94   11.53
  13  -5 -10   12.42    7.80
  -9  -4 -10   -9.90    8.29
  13  -9 -10    1.60    5.88
  -9  -4 -10   -3.01    6.26
  -9  -4 -10    6.95    6.45
  -4  13 -10  -22.44   10.87
  -3  12 -10   -8.97   10.61
  -9  -3 -10   -0.56    7.76
  -9  -3 -10    9.24    6.43
  12  -9 -10    2.01    6.09
  -9  -3 -10    2.33    6.30
   9   3  10    9.12    6.65
  11  -9 -10   -5.16    5.86
  -9  -2 -10    1.16    5.64
  -9  -2 -10    2.90    7.29
  -2  11 -10   -1.31   10.99
  -9  -2 -10   -5.52    5.66
   9   2  10   -0.44    6.66
  -1  10 -10   -6.19   10.07
  -9  -1 -10    6.96    6.90
  10  -9 -10   16.19    7.05
  -9  -1 -10    9.05    6.56
  -9  -1 -10    9.54    6.01
   9   1  10   11.02    7.19
  -9   0 -10    7.41    6.14
   0   9 -10   10.93   10.54
  -9   0 -10    9.80    6.35
  -9   0 -10    5.96    5.83
   9  -9 -10    1.40    6.68
   9   0  10    0.66    6.65
  -9   1 -10    6.46    5.55
   8  -9 -10   -5.90    6.28
   1   8 -10    5.50    9.63
  -9   1 -10    2.17    5.84
  -9   1 -10   -3.42    5.24
   9  -1  10   -3.22    6.50
  -9   2 -10   15.23    6.12
  -9   2 -10   25.05    6.99
  -9   2 -10   13.41    6.01
   2   7 -10   27.87   10.18
   7  -9 -10   33.85    8.15
   9  -2  10   22.62    8.00
  -9   3 -10    0.86    5.46
  -9   3 -10   -2.66    4.92
   3   6 -10   -0.20    9.11
  -9   3 -10    0.37    4.78
   6  -9 -10   -0.18    6.61
   9  -3  10   -0.97    6.67
   4   5 -10   -5.19    9.02
  -9   4 -10   -4.41    4.67
  -9   4 -10   -5.80    4.16
  -9   4 -10    3.94    4.94
   5  -9 -10   -2.22    6.58
  -9   5 -10   -2.02    3.86
   4  -9 -10    2.72    6.58
  -9   5 -10   13.46    4.91
  -9   6 -10    8.24    4.34
  -9   6 -10   15.26    7.47
  -9   6 -10   10.43    4.94
   3  -9 -10    7.31    7.09
  -9   7 -10   -0.56    3.82
  -9   7 -10   -2.87    3.95
  -9   7 -10   -2.75    6.68
   2  -9 -10    3.12    7.05
  -9   8 -10   -0.72    7.59
  -9   8 -10    6.08    4.01
   1  -9 -10   11.97    7.60
  -9   8 -10    5.48    4.20
   0  -9 -10    6.26    7.58
  -9   9 -10  -13.16    7.70
  -9   9 -10    0.58    4.11
  -9   9 -10    5.59    4.41
  -1  -9 -10    9.61    8.13
  -9  10 -10   -2.84    8.81
  -9  10 -10   -0.44    4.30
  -9  10 -10    2.13    4.41
  11  -2 -10    6.11    4.81
  -2  -9 -10    5.54    8.06
  -9  11 -10    6.21    9.53
  12  -3 -10   -0.83    4.41
  -9  12 -10    2.06   10.36
  12  -3 -10   -6.17    6.75
  13  -4 -10    1.55    4.42
  13  -4 -10   10.32    7.51
  -9  13 -10   -9.33   10.85
  -3  13 -10   -3.22   11.99
  13 -10 -10   -7.13    5.89
 -10  -3 -10   14.70    7.09
 -10  -3 -10    8.68    6.64
 -10  -3 -10    0.36    8.54
 -10  -2 -10   -5.38    5.55
  -2  12 -10    4.48   11.29
  12 -10 -10    1.81    6.23
 -10  -2 -10    0.61    6.31
 -10  -2 -10   -6.22    7.47
  10   2  10   10.05    7.13
  -1  11 -10    0.32   11.15
 -10  -1 -10    3.32    5.85
  11 -10 -10   10.91    7.43
 -10  -1 -10   13.19    7.12
 -10  -1 -10   19.90    7.74
  10   1  10    6.90    7.78
 -10   0 -10   -8.84    5.94
   0  10 -10   -3.95   10.35
 -10   0 -10   -1.13    5.57
  10 -10 -10   -0.12    6.73
 -10   0 -10    5.28    6.37
  10   0  10    6.37    6.65
   9 -10 -10    1.20    6.84
   1   9 -10   -4.79   10.34
 -10   1 -10   -2.32    5.94
 -10   1 -10    2.27    5.76
 -10   1 -10    2.86    5.52
  10  -1  10    3.75    7.15
   2   8 -10    0.10    9.84
 -10   2 -10   14.65    6.70
 -10   2 -10    7.93    6.04
   8 -10 -10   -1.45    6.54
 -10   2 -10    3.34    4.85
  10  -2  10   -0.84    7.15
   3   7 -10    1.83    9.57
 -10   3 -10    5.41    5.40
 -10   3 -10    6.61    6.20
 -10   3 -10   -0.93    5.36
   7 -10 -10   -8.49    6.32
  10  -3  10    5.79    7.43
   4   6 -10   -2.79    9.07
   6 -10 -10    1.27    7.08
 -10   4 -10   -1.12    4.69
 -10   4 -10   -3.05    4.89
 -10   4 -10   -0.56    5.05
  10  -4  10   -7.17    6.70
 -10   5 -10    5.19    6.68
   5 -10 -10    7.89    7.37
 -10   5 -10   10.12    4.87
   5   5 -10   14.19    9.90
 -10   5 -10    7.09    4.92
 -10   5 -10   16.22    5.82
 -10   6 -10   28.50    5.80
   4 -10 -10   24.48    8.22
 -10   6 -10   28.51    7.86
 -10   6 -10   28.01    5.84
   3 -10 -10    7.33    7.63
 -10   7 -10    4.76    4.34
 -10   7 -10    3.17    4.39
 -10   7 -10   -7.14    6.87
   2 -10 -10   10.59    7.48
 -10   8 -10   -3.06    6.93
 -10   8 -10    3.25    4.26
 -10   8 -10    0.80    4.14
   1 -10 -10    3.58    7.57
 -10   9 -10    0.77    7.22
 -10   9 -10    7.25    4.41
 -10   9 -10    8.66    4.42
 -10  10 -10   -7.46    7.82
 -10  10 -10   -6.95    4.07
 -10  10 -10   -7.85    3.98
 -10  11 -10    3.18    9.47
  12  -2 -10    1.98    4.47
 -10  12 -10   -2.07   10.37
  13  -3 -10   -1.73    6.94
 -10  13 -10  -22.36   10.19
  13  -3 -10    1.56    4.57
 -11  -1 -10   -1.63    7.15
  -1  12 -10   -2.14   11.02
  12 -11 -10   11.95    7.47
 -11  -1 -10   -2.56    5.93
 -11  -1 -10   -0.31    6.54
  11   1  10   -4.04    6.95
 -11   0 -10    8.78    6.75
 -11   0 -10    1.22    6.26
 -11   0 -10    5.08    6.78
  11 -11 -10    1.55    7.32
   0  11 -10    0.04   11.10
  11   0  10   14.47    7.80
 -11   1 -10   11.40    6.60
 -11   1 -10   -0.55    6.00
 -11   1 -10    5.37    6.56
   1  10 -10    5.11   10.83
  10 -11 -10   -0.86    6.90
  11  -1  10   -3.49    7.25
 -11   2 -10    3.01    6.19
   9 -11 -10   -2.87    7.04
   2   9 -10   -3.68   10.74
 -11   2 -10    2.74    5.50
 -11   2 -10   -0.45    5.67
  11  -2  10   -2.18    7.92
 -11   3 -10   13.01    6.57
 -11   3 -10   23.00    7.38
 -11   3 -10   22.43    5.87
   8 -11 -10   45.21    9.48
   3   8 -10   23.63   11.44
  11  -3  10   19.82    8.73
 -11   4 -10   11.85    6.37
   4   7 -10   16.75   10.10
   7 -11 -10    6.02    7.73
 -11   4 -10    8.03    5.68
 -11   4 -10   12.01    6.06
  11  -4  10    8.22    8.64
 -11   5 -10   30.12    6.92
 -11   5 -10   11.96    5.67
   5   6 -10   16.14   10.16
   6 -11 -10   12.71    8.02
 -11   5 -10   20.00    7.26
 -11   5 -10   21.04    6.12
  11  -5  10   27.25    9.71
 -11   6 -10    9.17    5.02
 -11   6 -10    3.51    5.22
   5 -11 -10   21.67    8.44
   6   5 -10    4.70    9.48
 -11   6 -10    3.47    4.57
 -11   6 -10    8.81    6.79
   4 -11 -10   -3.30    7.67
 -11   7 -10   -0.29    4.22
   7   4 -10  -10.44    8.46
 -11   7 -10    8.07    7.15
 -11   7 -10    7.30    4.80
 -11   8 -10   -0.21    4.32
 -11   8 -10    6.64    4.89
 -11   8 -10   14.29    7.35
 -11   9 -10    6.36    4.26
 -11   9 -10   10.87    4.51
 -11   9 -10    6.67    7.27
 -11  10 -10    5.61    7.73
 -11  10 -10    4.01    4.35
 -11  10 -10   10.15    4.57
 -11  11 -10   -4.74    8.85
  12  -1 -10   14.25    4.96
 -11  12 -10    5.39    9.98
 -12   0 -10    4.37    6.95
 -12   0 -10    0.19    6.20
   0  12 -10  -14.71   10.55
 -12   0 -10    3.24    6.87
  12   0  10    4.46    8.41
 -12   1 -10   -0.58    6.20
   1  11 -10    2.81   11.88
 -12   1 -10   12.49    7.20
 -12   1 -10   10.18    7.29
  12  -1  10    5.38    8.10
 -12   2 -10   -0.52    6.83
 -12   2 -10    2.23    6.32
   2  10 -10  -14.48   10.40
 -12   2 -10   -1.78    5.65
  12  -2  10    8.57    8.63
 -12   3 -10   -1.06    5.95
 -12   3 -10    1.64    6.40
   3   9 -10    5.96   10.66
 -12   3 -10    7.59    5.79
  12  -3  10    2.39    8.88
 -12   4 -10   14.82    7.47
 -12   4 -10    0.25    6.37
 -12   4 -10   -2.90    4.77
   4   8 -10   19.71   11.04
 -12   4 -10   13.24    6.60
  12  -4  10    8.97    9.29
 -12   5 -10   -2.73    5.25
 -12   5 -10   -0.14    6.46
   5   7 -10   -4.34    9.38
 -12   5 -10   -0.34    4.89
 -12   5 -10   -2.31    5.90
  12  -5  10   10.02    9.19
 -12   6 -10    6.60    5.27
 -12   6 -10    1.45    4.88
   6   6 -10    8.21    9.45
 -12   6 -10   -5.10    4.92
 -12   6 -10    2.12    6.52
  12  -6  10  -14.49    7.99
   7   5 -10   18.74   10.24
 -12   7 -10    9.33    5.55
 -12   7 -10   20.50    5.77
 -12   7 -10   27.06    7.61
 -12   7 -10   21.38    6.09
 -12   8 -10    7.83    5.08
 -12   8 -10    8.79    5.27
   8   4 -10   -6.24    8.73
 -12   8 -10    5.75    6.84
   9   3 -10    6.89    9.54
 -12   9 -10    7.34    7.34
 -12   9 -10    9.10    4.89
 -12   9 -10   -6.80    4.05
 -12  10 -10   -3.04    4.25
 -12  10 -10    0.16    7.64
 -12  10 -10   -4.91    3.81
 -12  11 -10    7.38    8.65
 -12  12 -10   15.54    9.23
 -12   0  10    4.94    7.63
 -12   0  10    0.14    7.23
   3  10 -10   11.13   11.34
 -13   3 -10    2.55    6.00
 -13   3 -10    2.44    6.19
 -13   3 -10    0.56    6.66
  13  -3  10   12.00    9.82
 -13   4 -10    7.74    6.82
 -13   4 -10    2.67    6.58
   4   9 -10   -2.90   10.22
 -13   4 -10   -7.51    4.65
  13  -4  10   -3.65    9.36
 -13   5 -10    2.56    5.99
 -13   5 -10   15.65    7.16
 -13   5 -10   10.82    5.70
   5   8 -10    6.13   10.70
  13  -5  10   10.31    9.91
 -13   6 -10   -2.12    5.77
 -13   6 -10    1.81    4.88
 -13   6 -10    1.99    5.50
   6   7 -10   -0.14   10.07
  13  -6  10   13.80    9.67
 -13   7 -10   -1.87    4.97
 -13   7 -10   -0.87    4.97
   7   6 -10   -2.98    9.21
 -13   7 -10    4.91    4.98
  13  -7  10  -18.42    8.55
 -13   8 -10   36.46    6.64
 -13   8 -10   29.04    6.83
 -13   8 -10   22.97    7.71
   8   5 -10    8.51    9.99
 -13   8 -10   21.39    6.17
 -13   9 -10    5.65    4.94
   9   4 -10    9.17    9.67
 -13   9 -10   -2.16    4.17
 -13   9 -10   -5.44    6.94
  10   3 -10   10.70    9.50
 -13  10 -10    4.96    4.82
 -13  10 -10    8.01    7.92
 -13  10 -10    1.04    5.08
  14  -7  10   -0.29    9.61
   0   0 -11    5.64    5.72
  -1   0 -11   54.27    8.87
   1  -1 -11   58.29    8.85
   1   0 -11   44.74    8.20
   0  -1 -11   41.49    8.13
  -1   1 -11   49.36    8.26
  -1  -1 -11   -1.43    5.38
   2  -1 -11    5.13    5.98
   3  -2 -11   77.85   10.05
  -2  -1 -11   72.89   10.03
   2  -2 -11    9.44    6.19
  -2   0 -11    1.79    5.62
   1  -2 -11   -0.44    5.70
  -2   1 -11    6.94    5.92
   2   0 -11    3.96    5.66
   0  -2 -11    7.78    6.22
  -1  -2 -11   26.45    7.40
   3  -1 -11   39.40    7.83
  -2  -2 -11   10.25    6.51
   4  -2 -11    1.59    5.68
  -3  -2 -11   -5.12    5.76
   5  -3 -11   -0.68    5.64
  -3  -1 -11   15.85    6.82
   4  -3 -11   10.53    6.50
  -3   0 -11   97.33   11.10
   3  -3 -11   93.26   10.76
  -3   1 -11   26.17    7.65
   2  -3 -11   39.79    8.17
   1  -3 -11   58.68    9.34
   0  -3 -11  106.81   11.88
  -1  -3 -11    3.39    6.26
   4  -1 -11   -9.49    4.83
   5  -2 -11   -2.65    5.22
  -2  -3 -11   -6.05    5.89
  -3  -3 -11    0.43    6.18
   6  -3 -11    4.62    5.78
   7  -4 -11   60.63    9.22
  -3   7 -11   33.29   11.08
  -4  -3 -11   52.27    9.48
   7  -4 -11   36.88    6.33
   6  -4 -11   -2.57    4.11
   6  -4 -11    3.67    6.06
  -4  -2 -11    4.87    6.42
   5  -4 -11    0.50    5.91
  -4  -1 -11   10.69    6.59
  -4   0 -11  100.69   11.53
   4  -4 -11  124.01   11.91
   3  -4 -11    4.13    6.25
  -4   1 -11   10.80    6.14
  -4   2 -11    5.65    5.94
   2  -4 -11   12.86    6.53
   1  -4 -11    9.42    6.52
   0  -4 -11  129.78   12.99
   5  -1 -11   18.88    6.63
  -1  -4 -11   17.04    7.23
   6  -2 -11   25.57    7.20
  -2  -4 -11    8.62    7.02
  -4   7 -11   66.31   12.47
  -3  -4 -11   59.28    9.91
   7  -3 -11   43.79    8.26
  -4  -4 -11    5.48    7.51
   8  -4 -11    6.67    5.56
   8  -4 -11    9.57    6.24
  -4   8 -11   -3.13    9.06
  -4   9 -11   20.89   11.11
   9  -5 -11   32.32    6.67
   9  -5 -11   45.34    8.34
  -5  -4 -11   36.85    8.88
  -5  -3 -11    6.14    7.52
   8  -5 -11   10.22    6.56
  -3   8 -11   17.66   10.02
   7  -5 -11   58.18    9.27
  -5  -2 -11   45.55    8.76
  -2   7 -11   63.49   12.70
  -1   6 -11    1.29    9.18
  -5  -1 -11    8.78    6.20
   6  -5 -11   -1.28    6.10
  -5   0 -11   18.44    7.19
   5  -5 -11   26.61    7.80
  -5   1 -11   26.91    7.33
   4  -5 -11   17.03    7.32
   3  -5 -11    8.68    6.68
  -5   2 -11    1.61    6.11
   2  -5 -11   15.74    6.91
   1  -5 -11    2.07    6.35
   0  -5 -11   25.73    7.89
  -1  -5 -11  -13.78    6.15
   6  -1 -11   -4.86    5.18
   7  -2 -11    0.79    5.71
  -5   7 -11    6.72    9.82
  -2  -5 -11    6.95    7.14
  -5   8 -11   35.28   11.14
   8  -3 -11   29.92    7.10
  -3  -5 -11   28.98    8.77
   9  -4 -11   -6.64    5.53
  -5   9 -11   13.75   10.85
  -4  -5 -11    1.13    7.35
   9  -4 -11    1.20    5.78
  -5  10 -11   64.96   14.03
  10  -5 -11   53.75    8.31
  10  -5 -11   60.72    9.62
  -5  -5 -11   68.60   11.17
  -6  -5 -11   68.83   11.72
  11  -6 -11   74.03    9.81
  -5  11 -11  110.28   15.82
  -6  -4 -11   -0.42    7.48
  -4  10 -11    0.53   10.76
  10  -6 -11    6.01    6.33
  -6  -3 -11    4.48    7.46
  -3   9 -11   11.77   10.67
   9  -6 -11   20.81    7.16
  -6  -2 -11    3.88    6.87
  -2   8 -11   -2.41    9.42
   8  -6 -11   -2.12    5.93
   7  -6 -11   79.92   10.52
  -6  -1 -11   90.87   10.91
   0   6 -11   47.71   11.65
   6  -6 -11   44.60    9.04
  -6   0 -11   58.65    9.21
  -6   1 -11    7.40    6.71
   5  -6 -11    2.16    6.67
   4  -6 -11   20.83    7.85
  -6   2 -11   17.71    6.94
  -6   3 -11   -0.19    5.73
   3  -6 -11  -18.90    5.64
   2  -6 -11    4.95    6.78
   1  -6 -11    8.24    6.99
  -6   6 -11   67.65   11.75
   0  -6 -11   41.72    9.06
  -1  -6 -11   32.35    8.69
  -6   7 -11   44.98   11.24
   7  -1 -11   20.21    6.75
  -6   8 -11   -8.16    9.10
  -2  -6 -11   -0.90    7.34
   8  -2 -11    3.66    5.60
  -6   9 -11   20.45   11.15
   9  -3 -11   29.97    7.13
  -3  -6 -11   44.20    9.90
  10  -4 -11   17.93    6.74
  10  -4 -11   13.44    6.62
  -6  10 -11   36.26   11.78
  -4  -6 -11   16.54    8.62
  -6  11 -11   -7.52   10.70
  -5  -6 -11   -1.79    8.17
  11  -5 -11   -4.65    6.01
  11  -5 -11  -10.20    4.92
  -6  -6 -11   -3.98    8.64
  12  -6 -11   11.97    6.32
  -6  12 -11   13.60   11.68
  -5  12 -11    2.03   11.92
  -7  -5 -11    2.30    8.88
  12  -7 -11   -1.27    6.21
  11  -7 -11   75.89   10.49
  -7  -4 -11   66.16   11.48
  -4  11 -11   57.24   14.19
  -3  10 -11   20.31   12.31
  -7  -3 -11   29.25    8.88
  10  -7 -11   33.44    8.50
  -7  -2 -11    2.78    7.51
   9  -7 -11    1.76    6.83
  -2   9 -11   10.23   11.10
   8  -7 -11   62.91    9.91
  -7  -1 -11   42.49    8.69
  -1   8 -11   41.06   11.62
  -7   0 -11    7.90    6.34
   7  -7 -11   -6.74    6.55
   0   7 -11    2.72    9.61
   1   6 -11   46.59   11.36
  -7   1 -11   29.90    8.22
   6  -7 -11   48.84    9.20
   5  -7 -11    3.68    7.21
  -7   2 -11    3.72    6.01
  -7   3 -11   53.96    9.08
   4  -7 -11   45.42    9.44
   3  -7 -11   66.27    9.94
  -7   4 -11   43.09    8.64
   2  -7 -11   52.87    9.58
   1  -7 -11   76.56   10.84
  -7   6 -11   79.30   12.21
  -7   7 -11    9.09    9.18
   0  -7 -11   13.34    7.43
  -1  -7 -11   -0.83    7.23
   8  -1 -11   -6.78    4.68
  -7   8 -11   -3.75    8.51
   9  -2 -11    3.73    5.67
  -2  -7 -11   -7.36    7.04
  -7   9 -11   -4.18   10.05
  10  -3 -11   69.89    9.93
  10  -3 -11   82.96    9.87
  -7  10 -11  101.86   14.71
  -3  -7 -11   98.97   12.92
  -7  11 -11   26.10   11.64
  11  -4 -11   10.58    6.84
  -4  -7 -11    7.78    8.98
  11  -4 -11   17.70    6.19
  -7  12 -11   16.18   11.73
  -5  -7 -11    3.01    9.16
  12  -5 -11    6.72    5.87
  12  -5 -11    1.56    6.91
  -8  -4 -11   28.85   10.27
  12  -8 -11   31.42    7.48
  -4  12 -11   41.50   13.16
  -8  -3 -11   -5.81    7.42
  11  -8 -11    4.80    6.64
  -3  11 -11    4.99   11.08
  -8  -2 -11    9.86    7.63
  10  -8 -11   -1.48    6.37
  -2  10 -11    2.58   11.11
  -1   9 -11   -2.68   10.14
  -8  -1 -11   22.54    7.70
   9  -8 -11    0.21    6.44
   8   1  11   12.35    6.61
   8  -8 -11   16.01    7.65
   0   8 -11   41.95   11.73
  -8   0 -11   33.40    7.97
   8   0  11   31.84    8.17
   1   7 -11   -3.46    8.87
   7  -8 -11    3.51    6.68
  -8   1 -11   -0.32    5.45
   2   6 -11   12.65    9.80
  -8   2 -11   -4.93    5.59
   6  -8 -11    0.00    6.70
  -8   3 -11   35.10    7.88
   5  -8 -11   19.40    8.01
  -8   4 -11    8.27    6.56
   4  -8 -11    8.09    7.24
   3  -8 -11    2.94    6.93
  -8   6 -11    2.49    7.44
   2  -8 -11   22.94    7.93
  -8   7 -11   28.90    9.80
   1  -8 -11   36.88    9.44
  -8   8 -11   41.46   10.62
   0  -8 -11    3.71    7.59
  -8   8 -11   30.65    5.68
  -8   8 -11   21.40    5.15
  -8   9 -11   14.91   10.14
  -8   9 -11   10.80    4.76
   9  -1 -11    7.81    5.91
  -1  -8 -11    7.83    8.14
  -8   9 -11   13.72    5.13
  -8  10 -11   95.09   13.86
  -2  -8 -11   76.29   12.04
  10  -2 -11   66.82    8.99
  11  -3 -11    0.78    4.96
  11  -3 -11   -3.89    6.65
  -3  -8 -11   -2.34    8.43
  -8  11 -11    8.23   10.73
  12  -4 -11    0.28    4.97
  12  -4 -11   -1.87    6.49
  -4  -8 -11    6.93    8.96
  -8  12 -11    0.19   10.63
  -2  11 -11   56.10   14.19
  11  -9 -11   29.71    8.20
  -9  -2 -11   34.46    8.35
  -9  -2 -11   34.92    9.72
  -9  -2 -11   38.75    8.68
  -9  -1 -11   26.15    8.22
  10  -9 -11   25.49    8.20
  -9  -1 -11   51.16    9.87
  -9  -1 -11   24.87    7.63
  -1  10 -11   45.17   13.24
   9   1  11   41.81    8.58
  -9   0 -11    4.95    6.79
  -9   0 -11    4.38    6.96
  -9   0 -11    2.56    5.88
   9  -9 -11    1.52    6.72
   0   9 -11   -0.92   10.50
   9   0  11    0.81    6.81
  -9   1 -11    3.94    6.63
   8  -9 -11    5.56    6.91
  -9   1 -11    8.80    6.75
   1   8 -11   -3.62    9.61
  -9   1 -11    5.60    6.07
   9  -1  11   18.22    7.47
   7  -9 -11    2.79    6.55
  -9   2 -11   -0.72    5.94
   2   7 -11  -10.10    9.12
  -9   2 -11   13.15    6.54
  -9   2 -11   -3.42    5.36
   3   6 -11   49.17   12.51
   6  -9 -11   38.74    8.94
  -9   3 -11   25.97    7.47
  -9   3 -11   46.15    8.04
  -9   3 -11   35.14    7.84
   4   5 -11    9.44   10.00
  -9   4 -11    3.88    5.26
  -9   4 -11   -5.74    5.01
   5  -9 -11  -10.26    6.47
  -9   4 -11   -0.28    5.20
  -9   5 -11   42.97    6.97
  -9   5 -11   26.57    7.26
  -9   5 -11   32.17    6.32
   4  -9 -11   44.81    9.62
  -9   6 -11    8.18    7.47
  -9   6 -11    5.18    4.56
   3  -9 -11    5.59    7.39
  -9   6 -11    9.62    5.15
  -9   7 -11    5.03    7.68
  -9   7 -11    0.58    4.20
  -9   7 -11   -2.01    4.06
   2  -9 -11    0.30    6.98
  -9   8 -11    5.26    4.51
  -9   8 -11    8.82    4.40
   1  -9 -11   15.74    8.16
  -9   8 -11    0.55    8.15
  -9   9 -11   -0.50    4.32
  -9   9 -11  -11.42    3.75
  -9   9 -11    2.53    9.28
   0  -9 -11   -1.32    7.79
  10  -1 -11   10.01    5.68
  -1  -9 -11    6.39    8.48
  -9  10 -11   10.84   10.05
  11  -2 -11   14.41    5.82
  -2  -9 -11   24.08    9.64
  -9  11 -11   24.76   11.38
 -10  -1 -11    0.52    6.17
  11 -10 -11    4.09    7.55
  -1  11 -11   12.23   11.54
 -10  -1 -11    2.69    7.85
 -10  -1 -11    3.96    6.72
 -10   0 -11   36.05    9.21
   0  10 -11   50.07   13.95
 -10   0 -11   30.32    8.15
 -10   0 -11   31.77    8.10
  10 -10 -11   33.74    8.83
  10   0  11   52.67   10.14
   1   9 -11    6.52   11.00
   9 -10 -11   -5.50    6.81
 -10   1 -11    7.68    6.27
 -10   1 -11    3.74    6.48
 -10   1 -11   -0.03    6.34
  10  -1  11    2.12    7.03
   8 -10 -11   69.00   10.59
 -10   2 -11   67.37    8.95
   2   8 -11   67.00   13.68
 -10   2 -11   71.24    9.62
 -10   2 -11   56.31    8.86
  10  -2  11   80.41   10.99
 -10   3 -11  109.18   11.48
 -10   3 -11   80.94   10.01
   7 -10 -11   84.73   11.71
 -10   3 -11   85.18   10.37
   3   7 -11  110.44   15.01
 -10   4 -11   23.87    6.70
   6 -10 -11   10.20    7.68
 -10   4 -11   16.31    6.17
 -10   4 -11    6.73    6.17
   4   6 -11    8.52   10.48
   5 -10 -11   68.63   11.07
 -10   5 -11   68.72    8.45
 -10   5 -11   71.85   10.16
 -10   5 -11   52.20    8.56
   5   5 -11   69.96   12.84
 -10   5 -11   61.89    8.28
 -10   6 -11    7.33    4.64
   4 -10 -11    5.11    7.56
 -10   6 -11   -3.21    6.74
 -10   6 -11    0.76    4.61
 -10   6 -11   -0.26    5.32
   3 -10 -11   37.91    9.55
 -10   7 -11   28.81    6.11
 -10   7 -11   32.36    6.11
 -10   7 -11   31.08    8.80
   2 -10 -11    2.42    7.63
 -10   8 -11    5.57    4.62
 -10   8 -11   -4.19    4.38
 -10   8 -11    3.78    7.88
 -10   9 -11   27.94    5.66
 -10   9 -11   11.42    8.56
 -10   9 -11   25.27    5.70
   1 -10 -11   34.60    9.66
 -10  10 -11   46.82   10.95
   0 -10 -11   24.67    9.88
 -10  11 -11    2.70   10.13
  11  -1 -11    8.04    5.34
 -11   1 -11   11.76    7.10
  10 -11 -11    4.05    7.80
 -11   1 -11   -6.41    6.02
   1  10 -11   -4.14   10.68
 -11   1 -11    4.63    6.38
  11  -1  11   13.27    8.25
 -11   2 -11   22.29    7.48
   9 -11 -11   22.38    8.72
   2   9 -11   13.17   11.93
 -11   2 -11   16.66    6.95
 -11   2 -11   17.61    6.83
  11  -2  11   25.44    9.21
   3   8 -11  -11.01   10.49
 -11   3 -11   -4.67    5.62
 -11   3 -11   -0.30    5.84
 -11   3 -11   -2.77    4.73
   8 -11 -11   -1.44    7.35
  11  -3  11   -8.72    7.21
 -11   4 -11   10.77    6.31
 -11   4 -11   11.18    6.37
   4   7 -11   28.72   11.09
 -11   4 -11   17.40    6.94
   7 -11 -11   15.87    8.39
  11  -4  11    6.36    8.41
 -11   5 -11    5.38    5.57
   5   6 -11   -2.94    9.63
 -11   5 -11   -0.47    5.52
 -11   5 -11    4.07    5.32
 -11   5 -11   -2.59    6.81
   6 -11 -11   -2.81    7.41
 -11   6 -11   93.36    9.72
   6   5 -11   78.44   14.04
   5 -11 -11   92.66   12.57
 -11   6 -11  101.25   11.13
 -11   6 -11   90.00    9.57
 -11   6 -11   82.52   10.95
 -11   7 -11   67.27    8.70
 -11   7 -11   44.75    7.40
   4 -11 -11   44.89   10.45
   7   4 -11   68.97   12.88
 -11   7 -11   65.29   10.21
   3 -11 -11   -5.08    7.83
 -11   8 -11    8.14    4.88
 -11   8 -11   -1.33    4.50
 -11   8 -11    1.57    7.32
 -11   9 -11   41.74    9.62
   2 -11 -11   46.35   10.91
 -11   9 -11   40.97    6.66
 -11   9 -11   41.01    6.83
 -11  10 -11   -0.91    7.70
   4   8 -11   -2.77   10.74
 -12   4 -11   -0.37    6.31
   8 -12 -11    3.77    8.70
 -12   4 -11    0.52    4.74
 -12   4 -11    3.27    6.27
  12  -4  11    7.99    8.23
   5   7 -11    6.48   10.61
 -12   5 -11   21.34    7.04
   7 -12 -11   10.73    9.05
 -12   5 -11    3.02    5.94
 -12   5 -11   18.64    6.45
  12  -5  11   -8.05    9.09
 -12   6 -11   16.71    7.52
 -12   6 -11   12.29    5.88
 -12   6 -11   -1.40    5.17
   6   6 -11    2.74   10.02
 -12   6 -11   10.76    6.03
 -12   7 -11    7.24    5.56
 -12   7 -11    3.76    4.83
 -12   7 -11   -0.63    6.99
   7   5 -11   10.05   10.25
 -12   7 -11   -0.53    5.18
 -12   8 -11   18.05    5.81
 -12   8 -11   30.25    8.28
   8   4 -11   12.48   10.40
 -12   8 -11   23.76    6.32
   0   0 -12  128.26   13.09
  -1   0 -12   13.75    6.73
   0   1 -12    8.88    6.60
   1  -1 -12   13.77    6.77
   1   0 -12   20.52    7.18
  -1   1 -12   18.89    7.20
   0  -1 -12   25.73    7.78
   2  -1 -12    9.33    6.48
  -1  -1 -12   -2.76    5.98
  -2  -1 -12    8.18    6.80
   3  -2 -12    9.11    6.73
  -2   0 -12   18.23    7.34
   2  -2 -12   11.92    6.81
   1  -2 -12    8.23    6.65
  -2   1 -12   -4.60    5.84
   0  -2 -12   17.30    7.32
   2   0 -12   12.12    6.59
   3  -1 -12    0.13    6.28
  -1  -2 -12   -2.83    6.16
   4  -2 -12   18.32    7.28
  -2  -2 -12   19.41    7.62
   5  -3 -12    6.94    6.37
  -3  -2 -12   -3.91    6.30
  -3  -1 -12   74.65   10.75
   4  -3 -12   60.23    9.77
   3  -3 -12   52.91    9.25
  -3   0 -12   39.80    8.70
   2  -3 -12    5.01    6.67
  -3   1 -12   -6.94    5.52
   1  -3 -12    3.75    6.16
  -3   2 -12    0.06    6.09
   3   0 -12   51.99    8.98
   0  -3 -12   47.36    9.30
   4  -1 -12   22.80    7.50
  -1  -3 -12   33.91    8.55
   5  -2 -12    5.11    6.16
  -2  -3 -12    6.92    7.01
   6  -3 -12   33.27    8.12
  -3  -3 -12   48.26    9.27
  -4  -3 -12    4.30    7.50
  -3   7 -12    2.64   10.08
   7  -4 -12    4.18    6.51
  -4  -2 -12   -3.31    6.69
   6  -4 -12    2.53    6.34
   5  -4 -12   35.93    8.14
  -4  -1 -12   27.32    8.18
  -4   0 -12   -7.14    5.96
   4  -4 -12   -9.10    6.29
   3  -4 -12   17.63    7.81
  -4   1 -12   27.43    7.78
   2  -4 -12   11.55    7.32
  -4   2 -12   18.12    7.48
   1  -4 -12   79.31   10.90
   0  -4 -12   -0.02    6.56
   4   0 -12   -3.11    5.60
   5  -1 -12   11.11    6.49
  -1  -4 -12    6.03    6.99
   6  -2 -12   11.01    6.62
  -2  -4 -12   -6.79    6.68
  -4   7 -12   25.63   11.32
   7  -3 -12   26.47    7.64
  -3  -4 -12   34.55    9.66
   8  -4 -12   19.90    7.25
  -4  -4 -12   27.25    9.05
  -4   8 -12   27.55   11.48
  -5  -4 -12   13.06    8.42
  -4   9 -12   27.06   11.81
   9  -5 -12   15.38    7.37
  -3   8 -12    9.36   10.75
  -5  -3 -12    6.93    8.04
   8  -5 -12    7.73    6.93
   7  -5 -12    2.59    6.90
  -2   7 -12   -0.35   10.49
  -5  -2 -12    1.08    6.71
  -5  -1 -12   25.26    7.80
   6  -5 -12   41.22    9.15
  -5   0 -12    4.29    7.07
   5  -5 -12    6.22    7.17
   4  -5 -12    4.16    7.10
  -5   1 -12   -5.75    5.75
   3  -5 -12    8.75    7.11
  -5   2 -12    0.01    6.07
  -5   3 -12    0.68    6.08
   2  -5 -12   13.08    7.29
   1  -5 -12   38.19    9.06
   0  -5 -12    5.83    7.38
   6  -1 -12   -2.10    5.80
  -1  -5 -12    6.53    7.65
  -2  -5 -12   30.88    9.13
   7  -2 -12   29.51    7.50
  -5   7 -12   28.50   11.63
  -5   8 -12   -7.69    9.36
   8  -3 -12   -2.83    5.74
  -3  -5 -12   -5.82    7.25
   9  -4 -12   -0.04    6.24
  -5   9 -12   -3.39   10.55
  -4  -5 -12   14.08    8.35
  -5  -5 -12   21.31    9.49
  10  -5 -12   25.48    8.19
  -5  10 -12   36.68   12.79
  10  -6 -12  140.88   13.59
  -6  -4 -12  118.84   14.10
  -4  10 -12  107.76   16.86
  -3   9 -12    9.70   11.37
  -6  -3 -12   33.36    9.36
   9  -6 -12   19.78    7.57
  -2   8 -12   38.18   12.06
  -6  -2 -12   23.54    8.85
   8  -6 -12   35.51    8.43
  -6  -1 -12    9.99    7.63
   7  -6 -12   15.76    7.79
  -1   7 -12   31.39   11.67
   0   6 -12   34.86   11.76
  -6   0 -12   18.74    7.74
   6  -6 -12   22.22    7.89
  -6   1 -12   -4.19    6.41
   5  -6 -12    3.02    7.16
   4  -6 -12   -1.64    6.91
  -6   2 -12    3.35    6.49
  -6   3 -12   25.76    7.91
   3  -6 -12   35.24    9.12
   2  -6 -12    0.20    7.30
   1  -6 -12   43.92    9.96
   0  -6 -12   25.44    8.48
  -1  -6 -12   10.76    7.98
  -6   7 -12   -0.52   10.00
   7  -1 -12   -4.20    5.51
   8  -2 -12   -0.33    5.68
  -6   8 -12    0.89   10.01
  -2  -6 -12    5.36    7.80
  -6   9 -12   17.01   11.46
   9  -3 -12   19.56    7.14
  -3  -6 -12    6.20    8.33
  10  -4 -12   15.63    7.07
  -4  -6 -12    1.73    8.71
  -6  10 -12    6.43   11.41
  10  -7 -12   19.99    8.34
  -3  10 -12    6.89   11.61
  -7  -3 -12   16.74    8.79
  -2   9 -12  -10.29   10.47
  -7  -2 -12   -8.90    7.37
   9  -7 -12    4.88    7.28
  -7  -1 -12   31.66    9.01
  -1   8 -12   26.09   11.69
   8  -7 -12   39.11    9.49
   7  -7 -12  101.32   12.67
   0   7 -12   84.59   15.11
  -7   0 -12   82.86   11.38
  -7   1 -12    4.45    6.98
   1   6 -12    3.20   10.78
   6  -7 -12   -2.89    7.28
   5  -7 -12   36.07    9.43
  -7   2 -12   17.35    7.43
   4  -7 -12   30.83    9.35
  -7   3 -12   28.29    8.15
  -7   4 -12    6.06    6.55
   3  -7 -12   -0.64    7.19
   2  -7 -12    8.43    7.50
   1  -7 -12    0.76    7.28
  -7   6 -12   19.68   10.33
  -7   7 -12   82.15   13.72
   0  -7 -12   82.31   12.15
  -1  -7 -12   17.51    8.61
  -7   8 -12    2.64    9.94
   8  -1 -12   16.13    6.73
  -7   9 -12   83.55   14.19
  -2  -7 -12   45.50   11.08
   9  -2 -12   66.46    9.34
  -3  -7 -12   14.72    9.21
  -7  10 -12   13.86   11.78
  10  -3 -12   18.00    7.16
   9  -8 -12    0.94    6.67
  -8  -1 -12    3.96    7.60
  -1   9 -12   10.42   11.51
  -8   0 -12   -4.88    6.70
   0   8 -12    3.33   10.37
   8  -8 -12   -2.64    6.80
   1   7 -12   38.08   11.68
  -8   1 -12   27.98    7.73
   7  -8 -12   20.35    8.15
   2   6 -12   -6.68    9.69
  -8   2 -12   10.55    7.29
   6  -8 -12   12.24    7.60
   5  -8 -12    1.82    6.88
  -8   3 -12    3.56    6.59
  -8   4 -12   11.56    7.61
   4  -8 -12   16.97    8.31
   3  -8 -12    6.52    7.71
  -8   5 -12   -0.91    6.38
   2  -8 -12   34.60    9.44
  -8   6 -12   22.54    9.63
   1  -8 -12   19.48    8.73
  -8   7 -12   30.83   10.68
  -8   8 -12    1.42    4.25
  -8   8 -12    6.03    4.74
  -8   8 -12  -11.21    9.13
   0  -8 -12   -0.88    7.46
  -1  -8 -12   -1.47    7.86
   9  -1 -12   13.81    6.47
  -8   9 -12   -0.46   10.39
  -9   0 -12   15.44    8.32
   9  -9 -12    2.88    7.01
   8  -9 -12    8.90    7.31
  -9   1 -12    6.00    7.17
   1   8 -12   -8.40   10.38
   7  -9 -12   70.13   11.22
  -9   2 -12   72.73   10.78
   2   7 -12  103.09   15.12
   3   6 -12   -1.23   10.63
   6  -9 -12   -2.97    7.03
  -9   3 -12   20.42    7.56
  -9   4 -12    6.36    6.44
   4   5 -12    4.30   10.65
   5  -9 -12    4.19    7.55
  -9   4 -12    4.09    6.11
  -9   4 -12    0.68    5.40
  -9   5 -12   25.36    7.72
  -9   5 -12   20.98    6.24
  -9   5 -12   24.78    6.19
   4  -9 -12   27.50    8.97
  -9   6 -12   15.43    8.57
  -9   6 -12   20.39    5.79
   3  -9 -12   17.27    8.60
  -9   6 -12   21.53    6.16
  -9   7 -12   -2.73    4.19
  -9   7 -12    2.71    4.51
  -9   7 -12    2.49    7.92
   2  -9 -12    0.35    7.53
   1  -9 -12   -2.01    7.75
  -9   8 -12    5.24    9.38
  -9   8 -12    4.64    4.67
  -9   8 -12   -2.33    4.04
   0  -9 -12    8.12    8.71
   3   7 -12   28.36   11.78
 -10   3 -12   18.33    6.97
 -10   3 -12   38.39    8.75
   7 -10 -12   15.97    8.56
 -10   3 -12   19.12    7.52
 -10   4 -12   23.21    7.64
   4   6 -12   19.36   11.84
 -10   4 -12    8.79    6.44
   6 -10 -12   10.67    8.21
 -10   4 -12   12.40    6.36
 -10   5 -12   23.20    6.58
 -10   5 -12   21.82    6.41
   5   5 -12   24.32   11.60
 -10   5 -12   29.31    7.64
 -10   5 -12   25.84    8.83
   5 -10 -12   32.74    9.48
 -10   6 -12  104.97   10.24
 -10   6 -12  103.39   10.34
   4 -10 -12  119.39   13.93
 -10   6 -12   98.02   12.40
 -10   6 -12  104.23   11.79
   3 -10 -12   -4.86    7.52
 -10   7 -12   17.17    5.56
 -10   7 -12   15.19    8.41
 -10   7 -12    8.58    4.79
   0   0 -13   -5.02    6.05
  -1   0 -13    4.16    6.45
   1  -1 -13    0.50    6.48
   0   1 -13    7.85    6.65
   0  -1 -13    1.87    6.60
   1   0 -13    0.55    6.48
  -1   1 -13    4.66    6.85
   2  -1 -13   -5.00    6.08
  -1   2 -13   -0.37    6.23
  -1  -1 -13   -1.65    6.70
   3  -2 -13    5.64    6.84
  -2  -1 -13    0.44    6.83
   2  -2 -13   12.42    7.52
  -2   0 -13    6.12    7.08
  -2   1 -13    4.44    6.83
   1  -2 -13   -5.01    6.46
   1   1 -13    7.00    6.55
  -2   2 -13   -0.25    6.31
   0  -2 -13    2.10    6.68
   2   0 -13    5.82    6.72
  -1  -2 -13   -2.30    6.61
   3  -1 -13   -1.61    6.28
   4  -2 -13   -5.06    6.22
  -2  -2 -13   -9.29    6.49
   5  -3 -13    8.97    7.30
  -3  -2 -13   -2.50    7.14
  -3  -1 -13   11.68    7.50
   4  -3 -13   -6.76    6.36
  -3   0 -13    8.62    7.64
   3  -3 -13    0.98    6.74
  -3   1 -13   21.49    8.14
   2  -3 -13    5.93    7.08
   2   1 -13   -6.02    5.87
   1  -3 -13   -0.48    6.95
  -3   2 -13    8.00    6.77
  -3   3 -13    4.85    6.57
   0  -3 -13    4.29    7.25
   3   0 -13    1.22    6.42
   4  -1 -13    6.15    6.69
  -1  -3 -13   -0.78    7.02
   5  -2 -13    3.00    6.59
  -2  -3 -13    5.74    7.91
  -3  -3 -13    0.49    7.57
   6  -3 -13    5.20    7.15
  -3   7 -13   -1.72   10.40
   7  -4 -13   -9.39    6.73
  -4  -3 -13    4.87    7.88
   6  -4 -13    3.29    7.27
  -4  -2 -13    7.59    7.81
   5  -4 -13   -3.62    6.72
  -4  -1 -13    3.91    7.05
  -4   0 -13   23.99    8.52
   4  -4 -13   17.28    8.22
   3  -4 -13   -4.32    6.69
  -4   1 -13    6.30    7.14
   2  -4 -13   -0.49    6.89
  -4   2 -13   -2.98    6.74
  -4   3 -13   13.86    7.57
   1  -4 -13    8.23    7.38
   0  -4 -13    4.58    7.10
   4   0 -13   -2.17    6.14
  -1  -4 -13   -4.72    7.14
   5  -1 -13    2.11    6.37
   6  -2 -13   -6.97    5.94
  -2  -4 -13    9.06    8.00
  -4   7 -13    2.45   10.63
   7  -3 -13    6.10    6.50
  -3  -4 -13   -5.62    7.53
   7  -5 -13   -2.79    6.78
  -5  -2 -13   -6.07    7.47
  -2   7 -13   13.06   11.62
   6  -5 -13   11.49    7.64
  -1   6 -13   17.39   11.18
  -5  -1 -13    7.36    8.09
   5  -5 -13    2.83    7.20
  -5   0 -13    1.17    7.21
   4  -5 -13   -7.10    6.92
  -5   1 -13    9.57    7.54
   3  -5 -13  -14.07    5.95
  -5   2 -13    3.23    6.95
   2  -5 -13    7.75    7.88
  -5   3 -13   -8.29    6.35
   1  -5 -13    7.72    7.67
  -5   4 -13   12.33    7.08
   0  -5 -13   -0.79    7.59
   5   0 -13    7.75    6.58
   6  -1 -13    2.79    6.30
  -1  -5 -13    8.65    8.44
  -5   7 -13    3.83   11.41
  -2  -5 -13    5.21    8.58
   7  -2 -13    0.41    6.24
  -1   7 -13   13.32   11.75
  -6  -1 -13   12.00    8.38
   7  -6 -13   27.04    8.76
  -6   0 -13    7.45    7.32
   0   6 -13    1.50   10.90
   6  -6 -13    5.17    7.72
   5  -6 -13    8.74    7.94
  -6   1 -13   -7.61    6.35
  -6   2 -13    7.95    7.24
   4  -6 -13    9.56    8.02
   3  -6 -13   11.16    8.43
  -6   3 -13    5.55    7.20
  -6   4 -13    0.57    6.76
   2  -6 -13   -0.12    8.19
   1  -6 -13    3.28    8.18
  -6   6 -13    3.66   10.51
   6   0 -13    7.89    6.71
   0  -6 -13    7.55    8.29
  -6   7 -13   27.26   11.33
   7  -1 -13    7.24    6.84
  -1  -6 -13    2.12    8.23
  -7   1 -13    4.13    7.10
   6  -7 -13   13.97    9.01
   1   6 -13    0.49   10.19
   5  -7 -13   -0.34    8.06
  -7   2 -13    5.75    7.69
  -7   3 -13   10.46    7.60
   4  -7 -13    0.01    7.88
  -7   4 -13   -1.20    6.94
   3  -7 -13   -5.76    7.50
   2  -7 -13   -0.86    7.58
  -7   5 -13   -2.33    6.90
  -7   6 -13   32.24   11.67
   1  -7 -13   15.68    8.70
   0   0 -14  106.26   13.11
   0   1 -14   23.14    8.57
   1  -1 -14   22.66    8.35
  -1   0 -14   16.05    8.19
   1   0 -14   21.55    8.17
   0  -1 -14   19.44    8.50
  -1   1 -14   20.17    8.12
  -1  -1 -14    9.01    7.80
   2  -1 -14   -2.08    6.92
  -1   2 -14   -0.84    7.11
   0   2 -14   -6.47    6.35
   2  -2 -14   -1.59    7.15
  -2   0 -14   -3.51    7.12
   1   1 -14    3.46    7.11
   1  -2 -14    1.34    7.43
  -2   1 -14    7.85    7.39
   2   0 -14   -2.15    6.68
   0  -2 -14    3.83    7.21
  -2   2 -14    2.91    7.05
   0   0   0    0.00    0.00
;
_shelx_hkl_checksum              73109
loop_
_space_group_symop_operation_xyz
'x, y, z'
'-y, x-y, z'
'-x+y, -x, z'
'-x, -y, z+1/2'
'y, -x+y, z+1/2'
'x-y, x, z+1/2'
loop_
_atom_site_label
_atom_site_type_symbol
_atom_site_fract_x
_atom_site_fract_y
_atom_site_fract_z
_atom_site_U_iso_or_equiv
_atom_site_adp_type
_atom_site_occupancy
_atom_site_site_symmetry_order
_atom_site_calc_flag
_atom_site_refinement_flags_posn
_atom_site_refinement_flags_adp
_atom_site_refinement_flags_occupancy
Cu1 Cu 0.1368(3) 0.5538(2) -0.7338(2) 0.0192(13) Uani 1 1 d . . .
Cu2 Cu 0.1377(3) 0.5548(3) -0.99589(19) 0.0238(15) Uani 1 1 d . . .
Ca1 Ca 0.3333 0.6667 -0.8654(13) 0.0071(12) Uani 1 3 d S T P
O1H O 0.1767(7) 0.5340(6) -0.871(2) 0.014(3) Uiso 1 1 d . . .
N1 N 0.0888(15) 0.5951(16) -0.635(2) 0.030(7) Uiso 1 1 d . . .
N2 N 0.1016(13) 0.5984(13) -1.1106(18) 0.009(5) Uiso 1 1 d . . .
O1 O 0.2348(13) 0.6747(13) -0.7305(19) 0.018(5) Uiso 1 1 d . . .
O2 O 0.0232(11) 0.4481(11) -0.7170(18) 0.015(5) Uiso 1 1 d . . .
O3 O 0.2942(13) 0.8032(13) -0.6382(18) 0.031(6) Uiso 1 1 d . . .
O4 O 0.2401(14) 0.6755(15) -1.000(2) 0.023(6) Uiso 1 1 d . . .
O5 O 0.0199(15) 0.4390(15) -1.014(2) 0.040(7) Uiso 1 1 d . . .
O6 O 0.2019(15) 0.4848(14) -1.0733(18) 0.037(6) Uiso 1 1 d . . .
C1 C 0.2361(19) 0.724(2) -0.662(3) 0.022(9) Uiso 1 1 d . . .
C2 C 0.145(2) 0.695(2) -0.602(3) 0.048(11) Uiso 1 1 d D . .
H2A H 0.1532 0.7013 -0.5238 0.057 Uiso 1 1 calc R U .
C3 C -0.0190(18) 0.4537(18) -0.640(2) 0.013(8) Uiso 1 1 d . . .
C4 C 0.021(2) 0.539(2) -0.583(3) 0.025(10) Uiso 1 1 d . . .
C5 C 0.225(2) 0.725(2) -1.069(3) 0.026(9) Uiso 1 1 d . . .
C6 C 0.1515(17) 0.6837(18) -1.137(2) 0.026(8) Uiso 1 1 d D . .
H6A H 0.1794 0.6785 -1.2031 0.031 Uiso 1 1 calc R U .
C1S C 0.094(2) 0.738(3) -0.640(3) 0.080(12) Uiso 1 1 d D . .
H1SA H 0.0369 0.7101 -0.6040 0.096 Uiso 1 1 calc R U .
H1SB H 0.1255 0.7997 -0.6187 0.096 Uiso 1 1 calc R U .
C2S C 0.080(4) 0.733(4) -0.752(3) 0.18(3) Uiso 1 1 d D . .
H2SA H 0.1351 0.7805 -0.7801 0.220 Uiso 1 1 calc R U .
H2SB H 0.0374 0.7532 -0.7611 0.220 Uiso 1 1 calc R U .
C3S C 0.108(5) 0.753(4) -0.933(4) 0.25(4) Uiso 1 1 d D . .
H3SA H 0.1082 0.7392 -1.0076 0.371 Uiso 1 1 calc R U .
H3SB H 0.1683 0.7857 -0.9076 0.371 Uiso 1 1 calc R U .
H3SC H 0.0802 0.7878 -0.9238 0.371 Uiso 1 1 calc R U .
C4S C 0.0952 0.7231 -1.1832 0.316 Uiso 1 1 d D . .
H4SA H 0.0490 0.6746 -1.2241 0.380 Uiso 1 1 calc R U .
H4SB H 0.1337 0.7657 -1.2363 0.380 Uiso 1 1 calc R U .
C5S C 0.0459 0.7697 -1.1293 0.303 Uiso 1 1 d D . .
H5SA H -0.0128 0.7180 -1.1247 0.364 Uiso 1 1 calc R U .
H5SB H 0.0426 0.8006 -1.1923 0.364 Uiso 1 1 calc R U .
C6S C -0.026(7) 0.876(7) -1.112(8) 0.34(6) Uiso 1 1 d D . .
H6SA H -0.0377 0.9126 -1.0651 0.517 Uiso 1 1 calc R U .
H6SB H -0.0807 0.8281 -1.1382 0.517 Uiso 1 1 calc R U .
H6SC H 0.0100 0.9105 -1.1708 0.517 Uiso 1 1 calc R U .
S1 S 0.0457(13) 0.6461(13) -0.853(3) 0.194(7) Uiso 1 1 d D . .
S2 S 0.0330 0.8311 -1.0369 0.426 Uiso 1 1 d D . .
O1W O 0.321(2) 1.000(3) -0.851(5) 0.066(12) Uiso 0.5 1 d . . P
O1WA O 0.266(5) 0.935(5) -0.909(6) 0.14(3) Uiso 0.5 1 d . . P
O2W O -0.3636(19) 1.243(2) 0.191(3) 0.111(11) Uiso 1 1 d . . .
O3W O 0.0000 1.0000 -1.021(15) 0.38(9) Uiso 1 3 d S . P
O4W O -0.171(3) 0.711(3) -0.787(5) 0.20(2) Uiso 1 1 d . . .
O5W O -0.130(7) 0.520(7) -0.800(9) 0.22(5) Uiso 0.5 1 d . . P
O5WA O -0.170(5) 0.594(5) -0.823(6) 0.13(3) Uiso 0.5 1 d . . P
O6W O -0.086(4) 0.705(4) -0.629(6) 0.28(3) Uiso 1 1 d . . .
loop_
_atom_site_aniso_label
_atom_site_aniso_U_11
_atom_site_aniso_U_22
_atom_site_aniso_U_33
_atom_site_aniso_U_23
_atom_site_aniso_U_13
_atom_site_aniso_U_12
Cu1 0.013(2) 0.015(2) 0.026(4) 0.000(2) 0.008(2) 0.0045(18)
Cu2 0.017(3) 0.029(3) 0.024(4) -0.001(2) -0.002(2) 0.010(2)
Ca1 0.0055(16) 0.0055(16) 0.010(3) 0.000 0.000 0.0027(8)
loop_
_atom_type_symbol
_atom_type_description
_atom_type_scat_dispersion_real
_atom_type_scat_dispersion_imag
_atom_type_scat_source
C C 0.0033 0.0016 'International Tables Vol C Tables 4.2.6.8 and 6.1.1.4'
H H 0.0000 0.0000 'International Tables Vol C Tables 4.2.6.8 and 6.1.1.4'
N N 0.0061 0.0033 'International Tables Vol C Tables 4.2.6.8 and 6.1.1.4'
O O 0.0106 0.0060 'International Tables Vol C Tables 4.2.6.8 and 6.1.1.4'
S S 0.1246 0.1234 'International Tables Vol C Tables 4.2.6.8 and 6.1.1.4'
Ca Ca 0.2262 0.3064 'International Tables Vol C Tables 4.2.6.8 and 6.1.1.4'
Cu Cu 0.3201 1.2651 'International Tables Vol C Tables 4.2.6.8 and 6.1.1.4'
loop_
_geom_angle_atom_site_label_1
_geom_angle_atom_site_label_2
_geom_angle_atom_site_label_3
_geom_angle
_geom_angle_site_symmetry_1
_geom_angle_site_symmetry_3
N1 Cu1 O2 81.4(10) . .
N1 Cu1 O1 83.4(10) . .
O2 Cu1 O1 164.3(9) . .
N1 Cu1 O1H 160.0(9) . .
O2 Cu1 O1H 102.3(7) . .
O1 Cu1 O1H 90.7(8) . .
N1 Cu1 O3 104.7(10) . 2_665
O2 Cu1 O3 89.0(8) . 2_665
O1 Cu1 O3 98.6(8) . 2_665
O1H Cu1 O3 95.0(7) . 2_665
N1 Cu1 Ca1 128.7(8) . .
O2 Cu1 Ca1 149.6(7) . .
O1 Cu1 Ca1 45.3(7) . .
O1H Cu1 Ca1 48.0(4) . .
O3 Cu1 Ca1 87.5(6) 2_665 .
O1H Cu2 N2 167.9(8) . .
O1H Cu2 O4 90.3(8) . .
N2 Cu2 O4 81.7(9) . .
O1H Cu2 O5 101.0(8) . .
N2 Cu2 O5 86.5(10) . .
O4 Cu2 O5 168.1(10) . .
O1H Cu2 O6 85.4(8) . .
N2 Cu2 O6 104.7(9) . .
O4 Cu2 O6 98.0(9) . .
O5 Cu2 O6 86.7(9) . .
O1H Cu2 Ca1 47.9(4) . .
N2 Cu2 Ca1 125.5(6) . .
O4 Cu2 Ca1 44.0(7) . .
O5 Cu2 Ca1 147.9(8) . .
O6 Cu2 Ca1 83.5(6) . .
O4 Ca1 O4 76.4(9) 3_565 2_665
O4 Ca1 O4 76.4(9) 3_565 .
O4 Ca1 O4 76.4(9) 2_665 .
O4 Ca1 O1 87.6(4) 3_565 3_565
O4 Ca1 O1 138.1(9) 2_665 3_565
O4 Ca1 O1 137.3(9) . 3_565
O4 Ca1 O1 138.1(9) 3_565 .
O4 Ca1 O1 137.3(9) 2_665 .
O4 Ca1 O1 87.6(4) . .
O1 Ca1 O1 78.4(9) 3_565 .
O4 Ca1 O1 137.3(9) 3_565 2_665
O4 Ca1 O1 87.6(4) 2_665 2_665
O4 Ca1 O1 138.1(9) . 2_665
O1 Ca1 O1 78.4(9) 3_565 2_665
O1 Ca1 O1 78.4(9) . 2_665
O4 Ca1 O1H 65.4(7) 3_565 3_565
O4 Ca1 O1H 133.8(10) 2_665 3_565
O4 Ca1 O1H 70.3(7) . 3_565
O1 Ca1 O1H 67.0(7) 3_565 3_565
O1 Ca1 O1H 72.8(7) . 3_565
O1 Ca1 O1H 138.4(10) 2_665 3_565
O4 Ca1 O1H 70.3(7) 3_565 2_665
O4 Ca1 O1H 65.4(7) 2_665 2_665
O4 Ca1 O1H 133.8(10) . 2_665
O1 Ca1 O1H 72.8(7) 3_565 2_665
O1 Ca1 O1H 138.4(10) . 2_665
O1 Ca1 O1H 67.0(7) 2_665 2_665
O1H Ca1 O1H 119.91(7) 3_565 2_665
O4 Ca1 O1H 133.8(10) 3_565 .
O4 Ca1 O1H 70.3(7) 2_665 .
O4 Ca1 O1H 65.4(7) . .
O1 Ca1 O1H 138.4(10) 3_565 .
O1 Ca1 O1H 67.0(7) . .
O1 Ca1 O1H 72.8(7) 2_665 .
O1H Ca1 O1H 119.91(7) 3_565 .
O1H Ca1 O1H 119.91(8) 2_665 .
O4 Ca1 Cu2 64.1(6) 3_565 2_665
O4 Ca1 Cu2 34.8(5) 2_665 2_665
O4 Ca1 Cu2 104.4(7) . 2_665
O1 Ca1 Cu2 103.5(5) 3_565 2_665
O1 Ca1 Cu2 157.6(6) . 2_665
O1 Ca1 Cu2 80.2(5) 2_665 2_665
O1H Ca1 Cu2 128.9(5) 3_565 2_665
O1H Ca1 Cu2 31.6(5) 2_665 2_665
O1H Ca1 Cu2 100.5(4) . 2_665
O4 Ca1 Cu2 104.4(7) 3_565 .
O4 Ca1 Cu2 64.1(6) 2_665 .
O4 Ca1 Cu2 34.8(5) . .
O1 Ca1 Cu2 157.6(6) 3_565 .
O1 Ca1 Cu2 80.2(5) . .
O1 Ca1 Cu2 103.5(5) 2_665 .
O1H Ca1 Cu2 100.5(4) 3_565 .
O1H Ca1 Cu2 128.9(5) 2_665 .
O1H Ca1 Cu2 31.6(5) . .
Cu2 Ca1 Cu2 98.8(3) 2_665 .
O4 Ca1 Cu2 34.8(5) 3_565 3_565
O4 Ca1 Cu2 104.4(7) 2_665 3_565
O4 Ca1 Cu2 64.1(6) . 3_565
O1 Ca1 Cu2 80.2(5) 3_565 3_565
O1 Ca1 Cu2 103.5(5) . 3_565
O1 Ca1 Cu2 157.6(6) 2_665 3_565
O1H Ca1 Cu2 31.6(5) 3_565 3_565
O1H Ca1 Cu2 100.5(4) 2_665 3_565
O1H Ca1 Cu2 128.9(5) . 3_565
Cu2 Ca1 Cu2 98.8(3) 2_665 3_565
Cu2 Ca1 Cu2 98.8(3) . 3_565
Cu2 O1H Cu1 121.3(5) . .
Cu2 O1H Ca1 100.6(8) . .
Cu1 O1H Ca1 97.4(8) . .
C4 N1 C2 123(3) . .
C4 N1 Cu1 119(2) . .
C2 N1 Cu1 118(2) . .
C3 N2 C6 125(2) 4_564 .
C3 N2 Cu2 114.0(19) 4_564 .
C6 N2 Cu2 118.5(17) . .
C1 O1 Cu1 119(2) . .
C1 O1 Ca1 139.7(19) . .
Cu1 O1 Ca1 100.6(9) . .
C3 O2 Cu1 112.0(18) . .
C1 O3 Cu1 116.4(19) . 3_565
C5 O4 Cu2 110.3(19) . .
C5 O4 Ca1 148(2) . .
Cu2 O4 Ca1 101.3(9) . .
C4 O5 Cu2 103(2) 4_564 .
C5 O6 Cu2 130(2) 2_665 .
O1 C1 O3 131(3) . .
O1 C1 C2 117(3) . .
O3 C1 C2 111(3) . .
C1S C2 N1 106(3) . .
C1S C2 C1 116(3) . .
N1 C2 C1 101(2) . .
O2 C3 N2 130(3) . 4_565
O2 C3 C4 117.0(19) . .
N2 C3 C4 111.4(19) 4_565 .
N1 C4 O5 124(3) . 4_565
N1 C4 C3 108(2) . .
O5 C4 C3 124(2) 4_565 .
O6 C5 O4 114(3) 3_565 .
O6 C5 C6 127(3) 3_565 .
O4 C5 C6 118(3) . .
N2 C6 C5 110(2) . .
N2 C6 C4S 112(2) . .
C5 C6 C4S 128(2) . .
C2S C1S C2 114(4) . .
C1S C2S S1 135(5) . .
C6 C4S C5S 133.4(11) . .
C4S C5S S2 154.1 . .
C2S S1 C3S 76.0(17) . .
C5S S2 C6S 102(4) . .
loop_
_geom_bond_atom_site_label_1
_geom_bond_atom_site_label_2
_geom_bond_distance
_geom_bond_site_symmetry_2
Cu1 N1 1.87(3) .
Cu1 O2 1.968(17) .
Cu1 O1 1.98(2) .
Cu1 O1H 1.99(2) .
Cu1 O3 2.25(2) 2_665
Cu1 Ca1 3.470(9) .
Cu2 O1H 1.84(2) .
Cu2 N2 1.91(2) .
Cu2 O4 2.01(2) .
Cu2 O5 2.09(2) .
Cu2 O6 2.29(2) .
Cu2 Ca1 3.451(9) .
Ca1 O4 2.44(3) 3_565
Ca1 O4 2.44(3) 2_665
Ca1 O4 2.44(3) .
Ca1 O1 2.51(3) 3_565
Ca1 O1 2.51(2) .
Ca1 O1 2.51(3) 2_665
Ca1 O1H 2.603(10) 3_565
Ca1 O1H 2.603(10) 2_665
Ca1 O1H 2.603(10) .
Ca1 Cu2 3.450(9) 2_665
Ca1 Cu2 3.451(9) 3_565
N1 C4 1.30(4) .
N1 C2 1.60(4) .
N2 C3 1.34(3) 4_564
N2 C6 1.36(3) .
O1 C1 1.22(4) .
O2 C3 1.27(3) .
O3 C1 1.30(3) .
O3 Cu1 2.25(2) 3_565
O4 C5 1.37(4) .
O5 C4 1.31(4) 4_564
O6 C5 1.18(4) 2_665
C1 C2 1.63(4) .
C2 C1S 1.52(3) .
C3 N2 1.34(3) 4_565
C3 C4 1.51(2) .
C4 O5 1.31(4) 4_565
C5 O6 1.18(4) 3_565
C5 C6 1.43(4) .
C6 C4S 1.59(2) .
C1S C2S 1.45(3) .
C2S S1 1.86(4) .
C3S S1 1.94(4) .
C4S C5S 1.6299 .
C5S S2 1.6965 .
C6S S2 1.86(4) .
O1W O1WA 1.30(8) .
O5W O5WA 1.80(12) .
