#------------------------------------------------------------------------------
#$Date: 2019-11-25 12:38:52 +0200 (Mon, 25 Nov 2019) $
#$Revision: 240879 $
#$URL: file:///home/coder/svn-repositories/cod/cif/4/13/04/4130451.cif $
#------------------------------------------------------------------------------
#
# This file is available in the Crystallography Open Database (COD),
# http://www.crystallography.net/
#
# All data on this site have been placed in the public domain by the
# contributors.
#
data_4130451
loop_
_publ_author_name
'Xiao, Dianne J.'
'Gonzalez, Miguel I.'
'Darago, Lucy E.'
'Vogiatzis, Konstantinos D.'
'Haldoupis, Emmanuel'
'Gagliardi, Laura'
'Long, Jeffrey R.'
_publ_section_title
;
 Selective, Tunable O2 Binding in Cobalt(II)-Triazolate/Pyrazolate
 Metal-Organic Frameworks.
;
_journal_issue                   22
_journal_name_full               'Journal of the American Chemical Society'
_journal_page_first              7161
_journal_page_last               7170
_journal_paper_doi               10.1021/jacs.6b03680
_journal_volume                  138
_journal_year                    2016
_chemical_formula_moiety
'(C87.98 H39.98 Cl3 Co12 N80.02 O23.62) Co1.5'
_chemical_formula_sum            'C87.98 H39.98 Cl3 Co13.5 N80.02 O23.62'
_chemical_formula_weight         3497.71
_chemical_name_common            Co-BDTriP-O2
_space_group_crystal_system      cubic
_space_group_IT_number           221
_space_group_name_Hall           '-P 4 2 3'
_space_group_name_H-M_alt        'P m -3 m'
_atom_sites_solution_hydrogens   geom
_atom_sites_solution_primary     direct
_atom_sites_solution_secondary   difmap
_audit_creation_date             2016-02-04
_audit_creation_method
;
Olex2 1.2
(compiled 2015.09.30 svn.r3233 for OlexSys, GUI svn.r5103)
;
_cell_angle_alpha                90
_cell_angle_beta                 90
_cell_angle_gamma                90
_cell_formula_units_Z            1
_cell_length_a                   18.6011(7)
_cell_length_b                   18.6011(7)
_cell_length_c                   18.6011(7)
_cell_measurement_reflns_used    9928
_cell_measurement_temperature    100(2)
_cell_measurement_theta_max      26.774
_cell_measurement_theta_min      2.449
_cell_volume                     6436.0(4)
_computing_cell_refinement       'SAINT v8.34A (Bruker, 2013)'
_computing_data_collection       'Bruker APEX 2'
_computing_data_reduction        'SAINT v8.34A (Bruker, 2013)'
_computing_molecular_graphics    'Olex2 (Dolomanov et al., 2009)'
_computing_publication_material  'Olex2 (Dolomanov et al., 2009)'
_computing_structure_refinement  'ShelXL (Sheldrick, 2015)'
_computing_structure_solution    'ShelXT (Sheldrick, 2015)'
_diffrn_ambient_temperature      100(2)
_diffrn_detector_area_resol_mean 10.42
_diffrn_measured_fraction_theta_full 0.999
_diffrn_measured_fraction_theta_max 0.999
_diffrn_measurement_device_type  'Bruker APEX-II CCD'
_diffrn_measurement_method       '\w/\q scans'
_diffrn_radiation_monochromator  'channel-cut Si(111) crystal'
_diffrn_radiation_type           MoK\a
_diffrn_radiation_wavelength     0.71073
_diffrn_reflns_av_unetI/netI     0.0166
_diffrn_reflns_Laue_measured_fraction_full 0.999
_diffrn_reflns_Laue_measured_fraction_max 0.999
_diffrn_reflns_number            1367
_diffrn_reflns_point_group_measured_fraction_full 0.999
_diffrn_reflns_point_group_measured_fraction_max 0.999
_diffrn_reflns_theta_full        26.000
_diffrn_reflns_theta_max         26.330
_diffrn_reflns_theta_min         1.548
_diffrn_source                   'microfocus sealed tube'
_diffrn_standards_number         0
_exptl_absorpt_coefficient_mu    0.888
_exptl_absorpt_correction_T_max  0.932
_exptl_absorpt_correction_T_min  0.638
_exptl_absorpt_correction_type   multi-scan
_exptl_absorpt_process_details
;
SADABS-2014/5 (Bruker,2014) was used for absorption correction.
wR2(int) was 0.0585 before and 0.0439 after correction.
The Ratio of minimum to maximum transmission is 0.6850.
The \l/2 correction factor is Not present.
;
_exptl_crystal_colour            'dark green'
_exptl_crystal_colour_modifier   dark
_exptl_crystal_colour_primary    green
_exptl_crystal_density_diffrn    0.894
_exptl_crystal_density_method    'not measured'
_exptl_crystal_description       cube
_exptl_crystal_F_000             1717
_exptl_crystal_size_max          0.08
_exptl_crystal_size_mid          0.08
_exptl_crystal_size_min          0.08
_refine_diff_density_max         1.399
_refine_diff_density_min         -0.508
_refine_diff_density_rms         0.102
_refine_ls_extinction_method     none
_refine_ls_goodness_of_fit_ref   1.159
_refine_ls_hydrogen_treatment    constr
_refine_ls_matrix_type           full
_refine_ls_number_parameters     59
_refine_ls_number_reflns         1367
_refine_ls_number_restraints     8
_refine_ls_restrained_S_all      1.162
_refine_ls_R_factor_all          0.0701
_refine_ls_R_factor_gt           0.0619
_refine_ls_shift/su_max          0.000
_refine_ls_shift/su_mean         0.000
_refine_ls_structure_factor_coef Fsqd
_refine_ls_weighting_details
'w=1/[\s^2^(Fo^2^)+(0.0973P)^2^+16.2555P] where P=(Fo^2^+2Fc^2^)/3'
_refine_ls_weighting_scheme      calc
_refine_ls_wR_factor_gt          0.1830
_refine_ls_wR_factor_ref         0.1918
_reflns_Friedel_coverage         0.000
_reflns_number_gt                1158
_reflns_number_total             1367
_reflns_threshold_expression     'I > 2\s(I)'
_cod_data_source_file            ja6b03680_si_001.cif
_cod_data_source_block           Co-BDTriP-O2
_cod_original_cell_volume        6436.0(7)
_cod_database_code               4130451
_shelx_space_group_comment
;
The symmetry employed for this shelxl refinement is uniquely defined
by the following loop, which should always be used as a source of
symmetry information in preference to the above space-group names.
They are only intended as comments.
;
_shelx_estimated_absorpt_t_max   0.932
_shelx_estimated_absorpt_t_min   0.932
_olex2_refinement_description
;
1. Fixed Uiso
 At 1.2 times of:
  All C(H) groups
2. Shared sites
{C1, N2}
3. Restrained distances
 O2-O1
 1.21 with sigma of 0.02
4. Rigid bond restraints
 O1, O2
 with sigma for 1-2 distances of 0.01 and sigma for 1-3 distances of 0.01
5. Uiso/Uaniso restraints and constraints
O1 \\sim O2 \\sim O2: within 2A with sigma of 0.04 and sigma for terminal atoms
of 0.08
Uanis(C1) = Uanis(N2)
Uanis(C1) = Uanis(N2)
6. Others
 Fixed Sof: O1(0.246) O2(0.246) Co2(0.019) N2(0.667) C1(0.333) H1(0.333)
7.a Aromatic/amide H refined with riding coordinates:
 C4(H4), C1(H1)
;
_shelx_res_file
;
    djx045_0m_sq.res created by SHELXL-2014/7

TITL djx045_0m in Pm-3m #221
REM reset to Pm-3m #221
CELL 0.71073 18.6011 18.6011 18.6011 90 90 90
ZERR 1 0.0007 0.0007 0.0007 0 0 0
LATT 1
SYMM -Y,+X,+Z
SYMM -X,-Y,+Z
SYMM +Y,-X,+Z
SYMM +X,-Z,+Y
SYMM +X,-Y,-Z
SYMM +X,+Z,-Y
SYMM +Z,+Y,-X
SYMM -X,+Y,-Z
SYMM -Z,+Y,+X
SYMM +Z,+X,+Y
SYMM +Y,+Z,+X
SYMM -Y,-Z,+X
SYMM +Z,-X,-Y
SYMM -Y,+Z,-X
SYMM -Z,-X,+Y
SYMM -Z,+X,-Y
SYMM +Y,-Z,-X
SYMM +Y,+X,-Z
SYMM -Y,-X,-Z
SYMM -X,+Z,+Y
SYMM -X,-Z,-Y
SYMM +Z,-Y,+X
SYMM -Z,-Y,-X
SFAC C H Cl Co N O
UNIT 87.98 39.98 3 12.91 80.02 23.62
DFIX 1.21 O2 O1
DELU O1 O2
SIMU O1 O2 O2
EADP C1 N2
EADP C1 N2
EXYZ C1 N2

L.S. 5 0 10
PLAN  20
SIZE 0.08 0.08 0.08
TEMP -173(2)
BOND
MORE -1
CONF
BOND $H
ABIN
fmap 2
acta 52
REM <olex2.extras>
REM <HklSrc "%./DJX045_0m_sq.hkl">
REM </olex2.extras>

WGHT    0.097300   16.255499
FVAR       0.07875
CO1   4    0.130229    0.000000    0.500000    10.25000    0.02978    0.02291 =
         0.01548    0.00000    0.00000    0.00000
CL1   3    0.000000    0.000000    0.500000    10.06250    0.03056    0.03056 =
         0.01671    0.00000    0.00000    0.00000
O1    6    0.235989    0.000000    0.500000    10.24600    0.06498    0.05884 =
         0.08727    0.00000    0.00000    0.00000
O2    6    0.274931    0.049534    0.500000    10.24600    0.10663    0.17413 =
         0.15713    0.00000    0.00000   -0.06077
N1    5    0.126839    0.075669    0.427156    11.00000    0.02408    0.02583 =
         0.01660   -0.00233    0.00227   -0.00027
C2    1    0.146285    0.146285    0.335575    10.50000    0.02674    0.02674 =
         0.02378   -0.00040   -0.00040    0.00333
C3    1    0.178034    0.178034    0.270612    10.50000    0.02703    0.02703 =
         0.02315    0.00609    0.00609    0.00285
C4    1    0.148618    0.239480    0.239480    10.50000    0.02758    0.02839 =
         0.02839    0.00208    0.01144    0.01144
AFIX  43
H4    2    0.107341    0.260749    0.260747    10.50000   -1.20000
AFIX   0
PART 1
CO2   4    0.229393    0.000000    0.354443    10.01900    0.01610    0.02240 =
         0.04436    0.00000    0.02209    0.00000
N2    5    0.169818    0.087617    0.371551    10.66700    0.03056    0.03227 =
         0.02445    0.00036    0.00815    0.00026
PART 0
PART 2
C1    1    0.169818    0.087617    0.371551    10.33300    0.03056    0.03227 =
         0.02445    0.00036    0.00815    0.00026
AFIX  43
H1    2    0.210570    0.059509    0.358998    10.33300   -1.20000
AFIX   0
HKLF 4

REM  djx045_0m in Pm-3m #221
REM R1 =  0.0619 for    1158 Fo > 4sig(Fo)  and  0.0701 for all    1367 data
REM     59 parameters refined using      8 restraints

END

WGHT      0.0972     16.2462

REM Highest difference peak  1.399,  deepest hole -0.508,  1-sigma level  0.102
Q1    1   0.3373  0.0000  0.3373  10.25000  0.05    1.40
Q2    1   0.0000  0.0000  0.5489  10.12500  0.05    0.97
Q3    1   0.2760  0.0000  0.4593  10.50000  0.05    0.84
Q4    1   0.0445  0.0000  0.5000  10.25000  0.05    0.59
Q5    1   0.0263  0.0485  0.5000  10.50000  0.05    0.41
Q6    1   0.0358  0.2823  0.2823  10.50000  0.05    0.39
Q7    1   0.2495  0.0000  0.2495  10.25000  0.05    0.36
Q8    1   0.1439  0.0000  0.4681  10.50000  0.05    0.35
Q9    1   0.0000  0.0500  0.4767  10.50000  0.05    0.34
Q10   1   0.1718  0.0561  0.4627  11.00000  0.05    0.33
Q11   1   0.1627  0.0973  0.4223  11.00000  0.05    0.32
Q12   1   0.1308  0.1308  0.3048  10.50000  0.05    0.32
Q13   1   0.1712  0.1328  0.2177  11.00000  0.05    0.31
Q14   1   0.0957  0.0957  0.3061  10.50000  0.05    0.31
Q15   1   0.1327  0.2864  0.2864  10.50000  0.05    0.30
Q16   1   0.1503  0.2956  0.2956  10.50000  0.05    0.29
Q17   1   0.2181  0.0588  0.3821  11.00000  0.05    0.29
Q18   1   0.2410  0.0000  0.2790  10.50000  0.05    0.29
Q19   1   0.2498  0.0442  0.5000  10.50000  0.05    0.29
Q20   1   0.2373  0.0692  0.3879  11.00000  0.05    0.29
;
_shelx_res_checksum              33143
_shelx_hkl_file
;
   0   1   1  333.03    5.28
   0   2   0  292.77    3.63
   0   2   1    6.99    0.25
   0   2   2  192.93    1.73
   0   3   0  330.65    3.00
   0   3   1   77.51    0.26
   0   3   2    2.49    0.06
   0   3   3  218.40    0.71
   0   4   0    1.12    0.11
   0   4   1   26.86    0.13
   0   4   2   10.47    0.08
   0   4   3    1.40    0.23
   0   4   4  356.36    5.07
   0   5   0   12.27    0.25
   0   5   1    4.17    0.06
   0   5   2   26.51    0.07
   0   5   3   75.34    0.31
   0   5   4    0.99    0.05
   0   5   5  207.69    1.67
   0   6   0  355.85    7.08
   0   6   1   35.39    0.12
   0   6   2   28.43    0.08
   0   6   3   26.71    0.24
   0   6   4  158.58    0.82
   0   6   5   14.42    0.11
   0   6   6  130.79    1.13
   0   7   0   82.69    0.19
   0   7   1   53.65    0.28
   0   7   2   31.96    0.23
   0   7   3   24.27    0.11
   0   7   4   34.73    0.17
   0   7   5  190.35    0.99
   0   7   6    4.00    0.09
   0   7   7  144.74    0.78
   0   8   0  742.99    9.48
   0   8   1   33.57    0.24
   0   8   2  148.54    0.83
   0   8   3   21.78    0.17
   0   8   4  237.27    1.12
   0   8   5    0.04    0.10
   0   8   6  202.10    1.13
   0   8   7    5.95    0.11
   0   8   8  205.51    2.23
   0   9   0    0.51    0.20
   0   9   1   33.68    0.20
   0   9   2   58.57    0.36
   0   9   3   27.15    0.19
   0   9   4   20.34    0.24
   0   9   5   43.23    0.33
   0   9   6    9.76    0.14
   0   9   7   12.38    0.16
   0   9   8   23.39    0.22
   0   9   9    2.55    0.19
   0  10   0   27.23    0.53
   0  10   1    4.20    0.11
   0  10   2   55.21    0.28
   0  10   3    0.02    0.06
   0  10   4   10.20    0.17
   0  10   5    0.05    0.04
   0  10   6   29.86    0.29
   0  10   7   13.54    0.18
   0  10   8   54.26    0.41
   0  10   9    1.84    0.16
   0  10  10   43.01    0.80
   0  11   0    0.95    0.19
   0  11   1   37.88    0.22
   0  11   2   54.04    0.26
   0  11   3   73.77    0.35
   0  11   4   37.22    0.32
   0  11   5    7.02    0.14
   0  11   6    1.81    0.19
   0  11   7   41.11    0.35
   0  11   8   21.94    0.24
   0  11   9   82.53    0.81
   0  11  10    0.00    0.06
   0  11  11    7.94    0.36
   0  12   0  377.27    3.33
   0  12   1   29.52    0.23
   0  12   2    3.92    0.13
   0  12   3   24.30    0.24
   0  12   4   25.12    0.23
   0  12   5    0.30    0.08
   0  12   6   27.51    0.28
   0  12   7   30.96    0.34
   0  12   8  156.57    1.04
   0  12   9    6.02    0.22
   0  12  10    3.21    0.22
   0  12  11    8.56    0.23
   0  12  12    7.52    0.34
   0  13   0   12.87    0.32
   0  13   1   52.87    0.37
   0  13   2    9.99    0.16
   0  13   3   17.23    0.20
   0  13   4    0.76    0.10
   0  13   5    3.90    0.20
   0  13   6    2.14    0.20
   0  13   7   14.19    0.24
   0  13   8   11.16    0.25
   0  13   9    0.43    0.10
   0  13  10    5.53    0.22
   0  13  11   25.85    0.31
   0  13  12    0.21    0.10
   0  13  13    1.95    0.33
   0  14   0  360.91    4.31
   0  14   1   35.55    0.28
   0  14   2   79.06    0.58
   0  14   3    9.82    0.20
   0  14   4    1.27    0.28
   0  14   5    6.32    0.20
   0  14   6   45.79    0.48
   0  14   7   14.25    0.27
   0  14   8   89.28    0.77
   0  14   9   41.77    0.43
   0  14  10   13.66    0.27
   0  14  11   29.82    0.39
   0  14  12   11.45    0.28
   0  14  13    0.12    0.11
   0  14  14   52.77    0.95
   0  15   0    3.52    0.27
   0  15   1   51.21    0.40
   0  15   2   18.72    0.23
   0  15   3   18.93    0.29
   0  15   4   19.74    0.31
   0  15   5    6.08    0.24
   0  15   6   13.74    0.25
   0  15   7    2.54    0.62
   0  15   8    0.26    0.11
   0  15   9    2.85    0.26
   0  15  10    4.72    0.26
   0  15  11   37.79    0.50
   0  15  12    3.22    0.31
   0  15  13   27.81    0.45
   0  15  14   11.60    0.40
   0  15  15    4.40    0.63
   0  16   0  237.10    2.82
   0  16   1   25.29    0.27
   0  16   2   70.10    0.58
   0  16   3    9.52    0.24
   0  16   4   18.74    0.32
   0  16   5    7.28    0.27
   0  16   6   12.97    0.32
   0  16   7   11.49    0.27
   0  16   8   54.09    0.51
   0  16   9    4.55    0.28
   0  16  10   38.61    0.52
   0  16  11    0.79    0.12
   0  16  12   22.66    0.44
   0  16  13    0.08    0.12
   0  16  14   52.75    0.70
   0  16  15    4.72    0.52
   0  16  16   42.94    2.26
   0  17   0    0.40    0.24
   0  17   1   18.27    0.29
   0  17   2    2.28    0.22
   0  17   3    5.74    0.23
   0  17   4   11.44    0.29
   0  17   5   12.21    0.31
   0  17   6    1.50    0.30
   0  17   7    9.92    0.29
   0  17   8    2.16    0.49
   0  17   9    7.94    0.33
   0  17  10    4.88    0.34
   0  17  11    1.98    0.51
   0  17  12    0.25    0.12
   0  17  13    3.73    0.41
   0  17  14    5.60    0.59
   0  17  15    2.99    0.58
   0  18   0   21.04    0.82
   0  18   1    5.22    0.29
   0  18   2    6.66    0.30
   0  18   3    0.42    0.10
   0  18   4    1.66    0.25
   0  18   5    0.84    0.08
   0  18   6   13.66    0.33
   0  18   7    2.90    0.27
   0  18   8   27.75    0.45
   0  18   9    0.80    0.12
   0  18  10    6.29    0.32
   0  18  11    0.01    0.11
   0  18  12    0.02    0.13
   0  18  13    0.00    0.13
   0  18  14    5.14    0.54
   0  19   0   12.43    0.72
   0  19   1    3.56    0.30
   0  19   2    3.48    0.31
   0  19   3    4.81    0.30
   0  19   4    2.95    0.48
   0  19   5   16.82    0.42
   0  19   6    2.20    0.45
   0  19   7   32.18    0.57
   0  19   8    5.21    0.38
   0  19   9    6.48    0.33
   0  19  10    0.03    0.12
   0  19  11    0.32    0.26
   0  19  12    0.10    0.12
   0  19  13    0.46    0.13
   0  20   0    0.32    0.28
   0  20   1    0.07    0.13
   0  20   2    0.01    0.12
   0  20   3    0.45    0.13
   0  20   4    7.77    0.37
   0  20   5    0.00    0.13
   0  20   6   18.58    0.50
   0  20   7    2.87    0.53
   0  20   8   34.07    0.83
   0  20   9    8.16    0.77
   0  20  10    0.43    0.14
   0  20  11   16.61    0.72
   0  21   0    9.55    1.61
   0  21   1    0.82    0.60
   0  21   2    3.96    0.33
   0  21   3   17.47    0.44
   0  21   4    0.07    0.13
   0  21   5    9.04    0.46
   0  21   6    2.89    0.54
   0  21   7    7.33    0.84
   0  21   8    1.07    1.22
   0  21   9    4.71    1.03
   0  22   0   81.41    3.19
   0  22   1    3.72    0.64
   0  22   2    9.98    0.62
   0  22   3    1.83    0.78
   0  22   4   11.64    0.85
   0  22   5    1.95    0.65
   0  22   6   38.49    0.91
   0  22   7    3.13    0.74
   0  23   0    5.44    0.94
   0  23   1    9.69    0.71
   0  23   2    6.43    0.76
   0  23   3    4.61    0.72
   1   1   1 1641.92    8.84
   1   2   1    0.45    0.04
   1   2   2   78.35    0.24
   1   3   1    7.91    0.04
   1   3   2    2.12    0.04
   1   3   3   38.87    0.09
   1   4   1  154.72    1.44
   1   4   2   20.44    0.16
   1   4   3    0.91    0.04
   1   4   4  104.94    0.51
   1   5   1    8.18    0.06
   1   5   2    1.16    0.02
   1   5   3   13.44    0.07
   1   5   4    0.94    0.06
   1   5   5   35.27    0.12
   1   6   1    1.51    0.03
   1   6   2    0.14    0.06
   1   6   3    0.31    0.02
   1   6   4   26.44    0.14
   1   6   5    0.00    0.08
   1   6   6  117.70    0.60
   1   7   1  267.01    1.00
   1   7   2    0.15    0.02
   1   7   3   54.93    0.27
   1   7   4    0.92    0.07
   1   7   5  117.59    0.41
   1   7   6    0.87    0.06
   1   7   7  146.08    0.62
   1   8   1   88.66    0.64
   1   8   2    0.19    0.03
   1   8   3  134.25    0.40
   1   8   4   38.27    0.19
   1   8   5   23.69    0.12
   1   8   6   39.06    0.19
   1   8   7   15.73    0.11
   1   8   8   11.44    0.16
   1   9   1   97.15    0.41
   1   9   2    3.72    0.08
   1   9   3   44.91    0.17
   1   9   4    2.39    0.07
   1   9   5   65.31    0.30
   1   9   6    6.27    0.08
   1   9   7   76.71    0.31
   1   9   8   12.00    0.13
   1   9   9   40.25    0.36
   1  10   1    4.76    0.11
   1  10   2   39.31    0.21
   1  10   3    8.55    0.09
   1  10   4   21.48    0.16
   1  10   5    0.21    0.07
   1  10   6    6.15    0.10
   1  10   7    4.18    0.10
   1  10   8   17.15    0.15
   1  10   9    0.21    0.06
   1  10  10   21.33    0.27
   1  11   1   23.77    0.21
   1  11   2    0.27    0.03
   1  11   3   14.25    0.12
   1  11   4   12.32    0.11
   1  11   5    5.80    0.11
   1  11   6    2.01    0.14
   1  11   7   31.11    0.23
   1  11   8   25.34    0.18
   1  11   9   36.30    0.23
   1  11  10    1.54    0.19
   1  11  11   25.10    0.35
   1  12   1    4.81    0.13
   1  12   2   11.29    0.11
   1  12   3   39.81    0.20
   1  12   4   10.41    0.13
   1  12   5    4.16    0.12
   1  12   6    2.41    0.12
   1  12   7    0.44    0.23
   1  12   8   30.91    0.24
   1  12   9    3.94    0.15
   1  12  10    2.01    0.15
   1  12  11    2.91    0.15
   1  12  12    0.03    0.10
   1  13   1   91.40    0.54
   1  13   2    0.03    0.04
   1  13   3   17.66    0.14
   1  13   4   31.15    0.21
   1  13   5    0.55    0.12
   1  13   6    1.86    0.19
   1  13   7   79.03    0.44
   1  13   8   30.40    0.25
   1  13   9   17.34    0.20
   1  13  10    0.91    0.09
   1  13  11    2.62    0.17
   1  13  12    9.23    0.19
   1  13  13    0.78    0.11
   1  14   1    1.43    0.15
   1  14   2   22.78    0.17
   1  14   3    2.97    0.11
   1  14   4    5.00    0.13
   1  14   5    7.00    0.14
   1  14   6    4.60    0.15
   1  14   7    6.74    0.18
   1  14   8    0.00    0.08
   1  14   9    0.00    0.07
   1  14  10   11.25    0.19
   1  14  11    1.12    0.08
   1  14  12   17.17    0.22
   1  14  13    3.01    0.24
   1  14  14    6.53    0.31
   1  15   1  151.91    0.86
   1  15   2    0.15    0.05
   1  15   3   14.87    0.17
   1  15   4   16.21    0.20
   1  15   5    7.53    0.17
   1  15   6    0.11    0.06
   1  15   7   48.74    0.34
   1  15   8   41.74    0.31
   1  15   9   41.81    0.32
   1  15  10    0.91    0.35
   1  15  11    9.13    0.22
   1  15  12    7.94    0.22
   1  15  13   30.77    0.35
   1  15  14    1.19    0.09
   1  15  15   51.75    0.70
   1  16   1    4.86    0.17
   1  16   2    7.45    0.14
   1  16   3   20.08    0.20
   1  16   4    6.85    0.18
   1  16   5    3.35    0.16
   1  16   6    4.27    0.16
   1  16   7    0.07    0.07
   1  16   8    2.67    0.21
   1  16   9    5.30    0.19
   1  16  10    6.06    0.21
   1  16  11    3.57    0.21
   1  16  12    8.65    0.24
   1  16  13    5.42    0.24
   1  16  14    3.81    0.33
   1  16  15   10.39    0.38
   1  16  16    2.30    0.19
   1  17   1   52.99    0.54
   1  17   2    1.00    0.07
   1  17   3    5.21    0.16
   1  17   4    7.02    0.19
   1  17   5    1.42    0.09
   1  17   6    0.39    0.06
   1  17   7   19.21    0.24
   1  17   8    4.09    0.20
   1  17   9   23.85    0.39
   1  17  10    0.03    0.08
   1  17  11    2.80    0.27
   1  17  12    0.04    0.08
   1  17  13    5.84    0.28
   1  17  14    0.40    0.09
   1  17  15   21.49    0.55
   1  18   1    1.08    0.33
   1  18   2    1.68    0.22
   1  18   3    0.01    0.06
   1  18   4    0.89    0.24
   1  18   5    1.20    0.18
   1  18   6   16.84    0.24
   1  18   7    2.60    0.21
   1  18   8    8.99    0.24
   1  18   9    0.01    0.08
   1  18  10    0.97    0.18
   1  18  11    0.06    0.08
   1  18  12    0.00    0.08
   1  18  13    0.07    0.09
   1  18  14    1.27    0.12
   1  19   1    0.17    0.12
   1  19   2    0.02    0.09
   1  19   3    0.24    0.11
   1  19   4    0.00    0.08
   1  19   5    0.62    0.11
   1  19   6    0.02    0.07
   1  19   7   14.40    0.27
   1  19   8    9.06    0.27
   1  19   9    4.51    0.27
   1  19  10    0.75    0.08
   1  19  11    4.18    0.27
   1  19  12    1.62    0.28
   1  19  13    0.53    0.09
   1  20   1    5.93    0.33
   1  20   2    4.00    0.22
   1  20   3    7.19    0.23
   1  20   4    7.29    0.26
   1  20   5    0.02    0.09
   1  20   6    4.80    0.28
   1  20   7    0.00    0.10
   1  20   8    5.38    0.32
   1  20   9    4.74    0.40
   1  20  10    2.98    0.38
   1  20  11    0.03    0.09
   1  21   1    3.34    0.35
   1  21   2    0.18    0.10
   1  21   3    1.97    0.47
   1  21   4    0.08    0.10
   1  21   5   12.92    0.33
   1  21   6    2.02    0.54
   1  21   7   26.87    0.43
   1  21   8    4.84    0.56
   1  21   9    5.84    0.59
   1  22   1    3.77    0.58
   1  22   2    2.90    0.34
   1  22   3    1.04    0.19
   1  22   4    4.94    0.34
   1  22   5    0.65    0.51
   1  22   6    5.84    0.42
   1  22   7    0.75    0.77
   1  23   1   39.96    1.17
   1  23   2    0.17    0.23
   1  23   3    3.24    0.49
   2   2   2  398.28    1.67
   2   3   2  334.97    1.19
   2   3   3   14.56    0.39
   2   4   2  101.78    0.61
   2   4   3    0.70    0.07
   2   4   4   12.27    0.11
   2   5   2   24.75    0.41
   2   5   3    8.37    0.13
   2   5   4   17.53    0.10
   2   5   5   16.58    0.17
   2   6   2   21.24    0.10
   2   6   3    5.15    0.05
   2   6   4   28.49    0.16
   2   6   5    1.10    0.06
   2   6   6    1.90    0.09
   2   7   2  124.49    0.80
   2   7   3   12.70    0.07
   2   7   4    9.74    0.11
   2   7   5    0.99    0.07
   2   7   6    3.27    0.08
   2   7   7    0.09    0.03
   2   8   2   28.44    0.24
   2   8   3    8.62    0.07
   2   8   4   31.49    0.14
   2   8   5    0.13    0.03
   2   8   6   24.79    0.19
   2   8   7   12.35    0.10
   2   8   8   35.59    0.28
   2   9   2    5.54    0.10
   2   9   3    0.20    0.06
   2   9   4   17.90    0.14
   2   9   5    0.00    0.08
   2   9   6    1.19    0.10
   2   9   7    0.81    0.12
   2   9   8    0.00    0.03
   2   9   9    0.03    0.06
   2  10   2   21.98    0.16
   2  10   3   32.70    0.15
   2  10   4   24.97    0.14
   2  10   5    6.65    0.10
   2  10   6    0.61    0.11
   2  10   7   24.76    0.22
   2  10   8   23.53    0.18
   2  10   9   11.10    0.15
   2  10  10   14.38    0.24
   2  11   2   34.23    0.24
   2  11   3    1.78    0.12
   2  11   4   13.31    0.13
   2  11   5    0.31    0.04
   2  11   6   10.24    0.13
   2  11   7    0.03    0.04
   2  11   8    1.54    0.23
   2  11   9    0.48    0.06
   2  11  10   31.73    0.25
   2  11  11   24.08    0.33
   2  12   2   11.10    0.14
   2  12   3    5.56    0.10
   2  12   4   53.26    0.28
   2  12   5   16.59    0.17
   2  12   6    7.10    0.13
   2  12   7    6.02    0.14
   2  12   8   11.09    0.16
   2  12   9   20.67    0.19
   2  12  10    3.85    0.15
   2  12  11   16.98    0.20
   2  12  12   49.82    0.49
   2  13   2    2.03    0.17
   2  13   3    0.01    0.04
   2  13   4    0.01    0.04
   2  13   5    0.49    0.20
   2  13   6    2.35    0.13
   2  13   7    0.10    0.08
   2  13   8    3.51    0.16
   2  13   9    0.67    0.20
   2  13  10    1.39    0.16
   2  13  11    3.10    0.16
   2  13  12    0.85    0.08
   2  13  13    1.40    0.49
   2  14   2    0.00    0.11
   2  14   3   29.65    0.19
   2  14   4    5.55    0.13
   2  14   5    7.57    0.15
   2  14   6    8.52    0.16
   2  14   7   25.32    0.24
   2  14   8   26.80    0.25
   2  14   9    2.43    0.31
   2  14  10    0.48    0.07
   2  14  11    4.77    0.18
   2  14  12    0.46    0.08
   2  14  13    2.07    0.15
   2  14  14    7.03    0.33
   2  15   2   10.88    0.21
   2  15   3    0.01    0.05
   2  15   4   10.64    0.16
   2  15   5    1.41    0.21
   2  15   6    0.02    0.06
   2  15   7    0.24    0.11
   2  15   8    3.09    0.32
   2  15   9    0.06    0.07
   2  15  10    4.32    0.17
   2  15  11    0.13    0.08
   2  15  12    8.91    0.22
   2  15  13    0.00    0.08
   2  15  14    8.25    0.26
   2  15  15    0.08    0.13
   2  16   2    5.12    0.20
   2  16   3    7.61    0.14
   2  16   4    0.09    0.05
   2  16   5    0.41    0.06
   2  16   6    6.47    0.17
   2  16   7   10.29    0.19
   2  16   8   35.22    0.31
   2  16   9    3.87    0.19
   2  16  10    0.97    0.09
   2  16  11    8.75    0.22
   2  16  12    0.15    0.08
   2  16  13    0.06    0.08
   2  16  14   10.35    0.30
   2  16  15    2.07    0.30
   2  16  16   21.35    0.73
   2  17   2    0.66    0.09
   2  17   3    0.38    0.05
   2  17   4    0.13    0.06
   2  17   5    0.03    0.06
   2  17   6    0.12    0.08
   2  17   7    2.88    0.19
   2  17   8    0.51    0.14
   2  17   9    0.08    0.08
   2  17  10    0.23    0.08
   2  17  11    0.08    0.08
   2  17  12    0.54    0.08
   2  17  13    0.07    0.08
   2  17  14    0.37    0.09
   2  17  15    1.24    0.55
   2  18   2    1.53    0.14
   2  18   3    0.28    0.07
   2  18   4   10.59    0.21
   2  18   5    0.62    0.07
   2  18   6    0.00    0.07
   2  18   7    3.16    0.20
   2  18   8    6.83    0.24
   2  18   9    2.96    0.33
   2  18  10    2.55    0.32
   2  18  11    2.89    0.32
   2  18  12    4.84    0.28
   2  18  13    0.08    0.09
   2  18  14    0.11    0.09
   2  19   2   10.92    0.35
   2  19   3    0.15    0.09
   2  19   4    3.97    0.22
   2  19   5    0.57    0.13
   2  19   6    0.05    0.23
   2  19   7    0.71    0.27
   2  19   8    2.92    0.47
   2  19   9    1.37    0.42
   2  19  10    3.56    0.29
   2  19  11    0.01    0.08
   2  19  12    3.60    0.32
   2  19  13    0.01    0.09
   2  20   2    3.24    0.31
   2  20   3    1.36    0.33
   2  20   4    5.32    0.25
   2  20   5    0.59    0.09
   2  20   6    0.01    0.10
   2  20   7    3.65    0.47
   2  20   8    0.10    0.10
   2  20   9    0.04    0.10
   2  20  10    0.01    0.10
   2  20  11    0.00    0.09
   2  21   2    0.13    0.14
   2  21   3    0.06    0.09
   2  21   4    0.51    0.10
   2  21   5    0.09    0.09
   2  21   6    0.12    0.11
   2  21   7    0.07    0.20
   2  21   8    1.06    0.56
   2  21   9    0.05    0.12
   2  22   2    6.83    0.34
   2  22   3    0.43    0.10
   2  22   4    0.27    0.24
   2  22   5    0.72    0.41
   2  22   6    4.11    0.63
   2  22   7    5.02    0.50
   2  23   2    4.50    0.50
   3   3   3  657.87    6.93
   3   4   3  220.46    1.86
   3   4   4   41.53    0.82
   3   5   3  196.04    0.53
   3   5   4    0.23    0.07
   3   5   5  166.62    1.06
   3   6   3    0.03    0.03
   3   6   4   35.14    0.14
   3   6   5    4.84    0.07
   3   6   6   73.83    0.37
   3   7   3    0.16    0.06
   3   7   4    0.01    0.07
   3   7   5    0.49    0.08
   3   7   6   17.26    0.12
   3   7   7    0.36    0.13
   3   8   3   27.86    0.19
   3   8   4   12.02    0.10
   3   8   5   38.32    0.19
   3   8   6   22.02    0.15
   3   8   7    1.33    0.11
   3   8   8    3.25    0.18
   3   9   3   55.02    0.42
   3   9   4   44.71    0.23
   3   9   5   17.12    0.14
   3   9   6    0.01    0.03
   3   9   7    8.57    0.12
   3   9   8   39.00    0.24
   3   9   9    2.38    0.18
   3  10   3    2.53    0.12
   3  10   4    2.91    0.09
   3  10   5    1.55    0.13
   3  10   6    7.83    0.11
   3  10   7    0.01    0.08
   3  10   8   18.99    0.19
   3  10   9    4.26    0.12
   3  10  10   16.24    0.24
   3  11   3   85.07    0.71
   3  11   4   24.54    0.19
   3  11   5   62.58    0.35
   3  11   6    0.20    0.04
   3  11   7    0.36    0.05
   3  11   8   35.30    0.25
   3  11   9   25.85    0.23
   3  11  10    0.00    0.07
   3  11  11   26.73    0.35
   3  12   3    4.15    0.15
   3  12   4    8.73    0.13
   3  12   5    2.05    0.13
   3  12   6    3.97    0.12
   3  12   7    0.63    0.13
   3  12   8   24.57    0.22
   3  12   9    9.86    0.17
   3  12  10    0.00    0.06
   3  12  11   12.02    0.21
   3  12  12    0.85    0.11
   3  13   3   17.14    0.23
   3  13   4   10.99    0.16
   3  13   5   19.86    0.20
   3  13   6    1.77    0.20
   3  13   7    0.52    0.14
   3  13   8   27.00    0.24
   3  13   9    5.38    0.16
   3  13  10    0.70    0.07
   3  13  11   38.05    0.33
   3  13  12    7.28    0.20
   3  13  13   19.14    0.39
   3  14   3   11.10    0.19
   3  14   4    0.52    0.07
   3  14   5    2.64    0.14
   3  14   6    3.46    0.15
   3  14   7    0.13    0.07
   3  14   8    0.31    0.22
   3  14   9    7.18    0.18
   3  14  10   12.37    0.20
   3  14  11    8.51    0.19
   3  14  12   12.23    0.24
   3  14  13    0.26    0.08
   3  14  14    0.34    0.29
   3  15   3    9.66    0.21
   3  15   4   16.69    0.18
   3  15   5    0.08    0.05
   3  15   6   14.21    0.19
   3  15   7   33.23    0.28
   3  15   8    5.07    0.18
   3  15   9    5.66    0.19
   3  15  10    0.42    0.07
   3  15  11    1.10    0.16
   3  15  12    1.14    0.14
   3  15  13    0.33    0.08
   3  15  14    0.21    0.09
   3  15  15    5.74    0.44
   3  16   3    6.10    0.20
   3  16   4    6.79    0.15
   3  16   5    0.62    0.13
   3  16   6    0.00    0.06
   3  16   7    6.63    0.18
   3  16   8    1.24    0.16
   3  16   9    3.61    0.20
   3  16  10    2.11    0.22
   3  16  11    9.55    0.24
   3  16  12    8.74    0.23
   3  16  13    6.41    0.25
   3  16  14    2.25    0.40
   3  16  15    2.11    0.50
   3  16  16    0.01    0.13
   3  17   3   12.27    0.30
   3  17   4    0.42    0.18
   3  17   5    6.37    0.19
   3  17   6    0.02    0.06
   3  17   7   15.72    0.24
   3  17   8   16.64    0.25
   3  17   9    0.00    0.08
   3  17  10    3.94    0.22
   3  17  11   12.49    0.26
   3  17  12    3.67    0.29
   3  17  13    0.16    0.08
   3  17  14    1.32    0.20
   3  17  15    1.89    0.50
   3  18   3   10.58    0.30
   3  18   4    3.70    0.20
   3  18   5    0.00    0.06
   3  18   6   14.53    0.24
   3  18   7    2.00    0.48
   3  18   8    2.23    0.36
   3  18   9    5.99    0.24
   3  18  10    0.26    0.08
   3  18  11    1.11    0.08
   3  18  12    1.00    0.23
   3  18  13    0.94    0.09
   3  18  14    0.10    0.09
   3  19   3   33.10    0.48
   3  19   4    7.11    0.24
   3  19   5   24.44    0.37
   3  19   6    1.89    0.38
   3  19   7    7.44    0.28
   3  19   8    0.25    0.08
   3  19   9    5.71    0.32
   3  19  10    0.02    0.08
   3  19  11    7.60    0.33
   3  19  12    0.05    0.09
   3  19  13    8.32    0.47
   3  20   3    0.10    0.13
   3  20   4    5.59    0.26
   3  20   5    0.39    0.09
   3  20   6    7.22    0.29
   3  20   7    4.85    0.61
   3  20   8    3.59    0.65
   3  20   9    0.02    0.10
   3  20  10    0.92    0.57
   3  20  11    2.02    0.57
   3  21   3    4.43    0.45
   3  21   4    4.32    0.32
   3  21   5    9.47    0.35
   3  21   6    0.18    0.10
   3  21   7    0.90    0.60
   3  21   8    6.42    0.52
   3  21   9    0.24    0.59
   3  22   3    6.42    0.66
   3  22   4    3.50    0.51
   3  22   5    2.58    0.50
   3  22   6    0.54    0.19
   4   4   4  646.30    4.57
   4   5   4   35.17    0.12
   4   5   5   82.99    0.37
   4   6   4    4.13    0.11
   4   6   5    8.19    0.10
   4   6   6   43.15    0.26
   4   7   4   70.92    0.35
   4   7   5   90.28    0.42
   4   7   6   15.76    0.13
   4   7   7   59.08    0.53
   4   8   4   18.76    0.15
   4   8   5   19.37    0.12
   4   8   6    0.03    0.04
   4   8   7   29.84    0.21
   4   8   8   78.07    0.57
   4   9   4    1.23    0.12
   4   9   5    7.78    0.11
   4   9   6   14.10    0.16
   4   9   7   12.21    0.15
   4   9   8   10.66    0.14
   4   9   9   20.89    0.27
   4  10   4   93.20    0.57
   4  10   5   12.93    0.14
   4  10   6   10.12    0.15
   4  10   7   10.86    0.15
   4  10   8    0.02    0.05
   4  10   9   13.71    0.16
   4  10  10   27.47    0.30
   4  11   4    2.66    0.16
   4  11   5    7.75    0.13
   4  11   6    7.96    0.15
   4  11   7    7.68    0.16
   4  11   8   16.84    0.18
   4  11   9   23.55    0.22
   4  11  10    9.24    0.17
   4  11  11    0.42    0.11
   4  12   4   52.11    0.47
   4  12   5    0.62    0.05
   4  12   6    7.80    0.15
   4  12   7   13.39    0.19
   4  12   8    6.07    0.17
   4  12   9    5.49    0.16
   4  12  10   28.22    0.24
   4  12  11    8.91    0.18
   4  12  12   47.67    0.55
   4  13   4    0.29    0.07
   4  13   5    2.41    0.15
   4  13   6    1.68    0.27
   4  13   7    5.81    0.17
   4  13   8    0.82    0.10
   4  13   9    4.36    0.15
   4  13  10    0.10    0.06
   4  13  11    4.91    0.18
   4  13  12    0.86    0.08
   4  13  13   16.06    0.39
   4  14   4    0.11    0.08
   4  14   5    0.77    0.10
   4  14   6    3.22    0.20
   4  14   7    1.08    0.25
   4  14   8   31.44    0.27
   4  14   9    7.49    0.18
   4  14  10    0.30    0.06
   4  14  11    3.50    0.18
   4  14  12   15.69    0.26
   4  14  13    0.50    0.08
   4  14  14    0.22    0.12
   4  15   4   11.93    0.26
   4  15   5    1.90    0.23
   4  15   6    0.39    0.06
   4  15   7    2.85    0.19
   4  15   8    8.05    0.20
   4  15   9    2.73    0.18
   4  15  10   14.12    0.22
   4  15  11   16.25    0.27
   4  15  12    7.35    0.22
   4  15  13    9.95    0.25
   4  15  14    0.55    0.09
   4  15  15    0.23    0.13
   4  16   4   15.28    0.26
   4  16   5    0.47    0.06
   4  16   6   23.15    0.26
   4  16   7   11.39    0.22
   4  16   8   11.98    0.22
   4  16   9    0.05    0.07
   4  16  10    0.16    0.07
   4  16  11    2.57    0.23
   4  16  12    2.32    0.25
   4  16  13    0.01    0.08
   4  16  14    0.66    0.10
   4  16  15    3.29    0.47
   4  16  16    0.92    0.37
   4  17   4    0.88    0.08
   4  17   5   11.34    0.20
   4  17   6   34.78    0.31
   4  17   7   16.64    0.25
   4  17   8    0.02    0.07
   4  17   9    0.02    0.08
   4  17  10    0.08    0.07
   4  17  11    4.87    0.23
   4  17  12    2.10    0.39
   4  17  13    0.23    0.09
   4  17  14    0.15    0.16
   4  17  15    3.45    0.43
   4  18   4   28.87    0.50
   4  18   5    0.85    0.08
   4  18   6    3.39    0.20
   4  18   7    6.58    0.23
   4  18   8    0.97    0.30
   4  18   9    1.10    0.30
   4  18  10   11.69    0.26
   4  18  11    2.46    0.27
   4  18  12    7.99    0.38
   4  18  13    1.45    0.22
   4  18  14    1.21    0.59
   4  19   4    0.10    0.10
   4  19   5    9.70    0.25
   4  19   6   10.04    0.28
   4  19   7    9.46    0.31
   4  19   8    0.16    0.09
   4  19   9    6.43    0.31
   4  19  10    4.25    0.31
   4  19  11    0.57    0.12
   4  19  12    1.06    0.16
   4  20   4   37.71    0.66
   4  20   5    3.13    0.29
   4  20   6   27.61    0.40
   4  20   7    3.97    0.43
   4  20   8    0.40    0.09
   4  20   9    0.64    0.11
   4  20  10    8.98    0.35
   4  20  11    0.79    0.10
   4  21   4    0.59    0.14
   4  21   5    5.87    0.41
   4  21   6    0.40    0.25
   4  21   7    3.35    0.56
   4  21   8    0.00    0.11
   4  21   9    2.89    0.74
   4  22   4    4.84    0.63
   4  22   5    1.78    0.57
   4  22   6    0.04    0.11
   5   5   5   11.55    0.18
   5   6   5   64.74    0.25
   5   6   6  143.51    0.87
   5   7   5    5.22    0.17
   5   7   6    0.86    0.09
   5   7   7   52.88    0.33
   5   8   5   51.96    0.40
   5   8   6   14.08    0.15
   5   8   7   89.97    0.47
   5   8   8    5.22    0.17
   5   9   5   13.64    0.21
   5   9   6    5.42    0.13
   5   9   7   45.49    0.25
   5   9   8   20.93    0.17
   5   9   9   28.40    0.35
   5  10   5    1.56    0.17
   5  10   6    0.20    0.05
   5  10   7    3.27    0.14
   5  10   8    0.49    0.05
   5  10   9    0.00    0.04
   5  10  10    3.74    0.21
   5  11   5   22.54    0.28
   5  11   6    6.54    0.14
   5  11   7    5.13    0.15
   5  11   8   16.69    0.19
   5  11   9    6.03    0.16
   5  11  10    1.57    0.19
   5  11  11   47.88    0.52
   5  12   5   19.01    0.30
   5  12   6    0.72    0.06
   5  12   7   30.53    0.24
   5  12   8    0.29    0.06
   5  12   9    4.21    0.16
   5  12  10    3.39    0.17
   5  12  11    5.18    0.17
   5  12  12    0.53    0.11
   5  13   5    3.23    0.21
   5  13   6    2.47    0.18
   5  13   7    1.08    0.14
   5  13   8    1.20    0.11
   5  13   9    0.53    0.06
   5  13  10    0.50    0.07
   5  13  11   10.04    0.20
   5  13  12    0.73    0.08
   5  13  13    5.41    0.30
   5  14   5    0.01    0.08
   5  14   6    0.00    0.09
   5  14   7   12.09    0.19
   5  14   8    0.00    0.06
   5  14   9    1.13    0.10
   5  14  10    0.15    0.06
   5  14  11    0.82    0.07
   5  14  12    5.47    0.21
   5  14  13    0.31    0.08
   5  14  14    4.47    0.31
   5  15   5    0.06    0.08
   5  15   6    0.45    0.34
   5  15   7   37.41    0.30
   5  15   8    9.28    0.19
   5  15   9   19.03    0.25
   5  15  10    0.00    0.06
   5  15  11    0.55    0.07
   5  15  12    0.43    0.08
   5  15  13    0.02    0.08
   5  15  14    3.98    0.24
   5  15  15    7.07    0.37
   5  16   5   26.92    0.37
   5  16   6    5.11    0.21
   5  16   7   12.63    0.21
   5  16   8    0.05    0.06
   5  16   9    2.09    0.32
   5  16  10    0.37    0.07
   5  16  11    7.08    0.23
   5  16  12    1.99    0.33
   5  16  13    0.34    0.09
   5  16  14    0.01    0.08
   5  16  15    0.14    0.09
   5  16  16    3.37    0.72
   5  17   5    0.40    0.23
   5  17   6    1.26    0.28
   5  17   7    2.36    0.27
   5  17   8    5.83    0.23
   5  17   9    0.87    0.08
   5  17  10    0.04    0.07
   5  17  11    0.50    0.12
   5  17  12    2.26    0.51
   5  17  13    0.02    0.13
   5  17  14    0.00    0.09
   5  17  15    0.00    0.09
   5  18   5    0.01    0.10
   5  18   6    2.44    0.27
   5  18   7    2.40    0.50
   5  18   8    4.70    0.25
   5  18   9    1.87    0.32
   5  18  10    0.39    0.09
   5  18  11    0.08    0.08
   5  18  12    0.00    0.08
   5  18  13    0.00    0.09
   5  19   5   27.64    0.51
   5  19   6    2.57    0.38
   5  19   7    0.14    0.08
   5  19   8   14.74    0.45
   5  19   9    3.94    0.43
   5  19  10    1.00    0.19
   5  19  11   11.52    0.36
   5  19  12    4.12    0.38
   5  20   5    8.01    0.42
   5  20   6    0.86    0.37
   5  20   7    2.27    0.44
   5  20   8    1.75    0.74
   5  20   9    1.51    0.47
   5  20  10    1.25    0.12
   5  21   5    9.84    0.78
   5  21   6    0.47    0.43
   5  21   7    2.63    0.52
   5  21   8    5.68    0.60
   5  22   5    2.93    0.68
   6   6   6   19.46    0.26
   6   7   6  157.03    1.06
   6   7   7    5.42    0.18
   6   8   6   85.43    0.68
   6   8   7    3.30    0.13
   6   8   8  225.60    1.55
   6   9   6   28.88    0.33
   6   9   7    8.90    0.16
   6   9   8   37.51    0.27
   6   9   9    0.46    0.06
   6  10   6    0.31    0.07
   6  10   7    8.96    0.17
   6  10   8   33.62    0.27
   6  10   9    4.65    0.15
   6  10  10    0.04    0.08
   6  11   6   80.55    0.64
   6  11   7    6.02    0.16
   6  11   8   23.50    0.22
   6  11   9    1.83    0.19
   6  11  10    4.69    0.15
   6  11  11    0.02    0.08
   6  12   6    3.00    0.22
   6  12   7   10.66    0.19
   6  12   8    0.01    0.05
   6  12   9    0.45    0.06
   6  12  10   10.69    0.20
   6  12  11    3.03    0.17
   6  12  12    0.48    0.09
   6  13   6    2.67    0.26
   6  13   7    2.60    0.17
   6  13   8    0.18    0.06
   6  13   9    0.19    0.05
   6  13  10    0.00    0.07
   6  13  11    0.32    0.07
   6  13  12    0.00    0.07
   6  13  13    0.23    0.10
   6  14   6   34.11    0.44
   6  14   7    0.98    0.06
   6  14   8   10.42    0.20
   6  14   9    0.29    0.07
   6  14  10    3.25    0.19
   6  14  11    0.26    0.07
   6  14  12    0.61    0.08
   6  14  13    0.84    0.08
   6  14  14    9.17    0.35
   6  15   6   57.24    0.57
   6  15   7    0.39    0.06
   6  15   8    6.46    0.19
   6  15   9    8.00    0.20
   6  15  10    0.38    0.09
   6  15  11    1.53    0.13
   6  15  12    0.30    0.08
   6  15  13    0.23    0.08
   6  15  14    0.72    0.08
   6  15  15    1.02    0.12
   6  16   6    2.66    0.42
   6  16   7    0.83    0.34
   6  16   8   54.40    0.42
   6  16   9    9.14    0.21
   6  16  10   11.80    0.23
   6  16  11    2.36    0.26
   6  16  12    0.17    0.08
   6  16  13    0.01    0.08
   6  16  14    4.90    0.28
   6  16  15    2.07    0.52
   6  17   6    1.35    0.28
   6  17   7    0.38    0.07
   6  17   8    3.81    0.20
   6  17   9    0.28    0.08
   6  17  10    0.95    0.10
   6  17  11    2.18    0.26
   6  17  12    0.26    0.12
   6  17  13    1.01    0.52
   6  17  14    0.13    0.09
   6  18   6    0.71    0.11
   6  18   7   19.27    0.30
   6  18   8    4.27    0.26
   6  18   9    4.26    0.24
   6  18  10    0.18    0.08
   6  18  11    5.09    0.31
   6  18  12    0.92    0.17
   6  18  13    0.03    0.15
   6  19   6    7.31    0.45
   6  19   7    0.74    0.30
   6  19   8   14.60    0.32
   6  19   9    0.03    0.11
   6  19  10    0.18    0.09
   6  19  11    0.05    0.16
   6  20   6    1.12    0.45
   6  20   7    9.57    0.48
   6  20   8    3.60    0.36
   6  20   9    3.70    0.36
   6  20  10    1.20    0.33
   6  21   6    0.03    0.14
   6  21   7    1.48    0.37
   7   7   7  285.32    3.61
   7   8   7  108.21    0.72
   7   8   8   37.75    0.41
   7   9   7  202.48    1.28
   7   9   8   16.19    0.19
   7   9   9  122.74    0.84
   7  10   7    5.83    0.24
   7  10   8   16.02    0.20
   7  10   9    0.05    0.04
   7  10  10   14.34    0.25
   7  11   7    0.17    0.07
   7  11   8   11.60    0.19
   7  11   9    0.50    0.06
   7  11  10    1.21    0.16
   7  11  11    0.06    0.09
   7  12   7   30.41    0.40
   7  12   8    4.04    0.17
   7  12   9    8.78    0.18
   7  12  10    1.08    0.19
   7  12  11    0.03    0.06
   7  12  12    7.30    0.26
   7  13   7    9.58    0.27
   7  13   8    2.24    0.18
   7  13   9    0.16    0.05
   7  13  10    0.82    0.06
   7  13  11    3.93    0.18
   7  13  12    0.00    0.06
   7  13  13   22.58    0.38
   7  14   7   12.93    0.27
   7  14   8    1.10    0.17
   7  14   9    0.35    0.06
   7  14  10    9.99    0.21
   7  14  11    0.16    0.07
   7  14  12    6.29    0.21
   7  14  13    0.71    0.08
   7  14  14   13.85    0.36
   7  15   7   43.80    0.47
   7  15   8    5.47    0.19
   7  15   9   52.63    0.40
   7  15  10    0.12    0.07
   7  15  11    7.94    0.21
   7  15  12    0.01    0.07
   7  15  13   11.42    0.26
   7  15  14    0.10    0.09
   7  15  15   17.95    0.54
   7  16   7   18.07    0.34
   7  16   8    4.16    0.22
   7  16   9    8.67    0.21
   7  16  10    9.27    0.22
   7  16  11    0.18    0.14
   7  16  12    6.59    0.24
   7  16  13    0.05    0.08
   7  16  14    2.09    0.55
   7  16  15    1.64    0.71
   7  17   7   32.60    0.46
   7  17   8    9.96    0.24
   7  17   9   35.33    0.34
   7  17  10    0.02    0.08
   7  17  11    0.60    0.35
   7  17  12    4.31    0.34
   7  17  13    1.62    0.86
   7  17  14    4.79    0.43
   7  18   7   10.11    0.44
   7  18   8    3.91    0.22
   7  18   9    0.06    0.08
   7  18  10    0.68    0.28
   7  18  11    0.04    0.10
   7  18  12    2.21    0.63
   7  19   7    6.61    0.51
   7  19   8   13.59    0.42
   7  19   9    3.40    0.33
   7  19  10    1.13    0.28
   7  19  11    3.34    0.64
   7  20   7    3.49    0.72
   7  20   8    5.42    0.47
   7  20   9    2.72    0.43
   7  21   7   29.63    0.92
   8   8   8  494.40    5.15
   8   9   8   18.10    0.27
   8   9   9   37.23    0.36
   8  10   8   25.93    0.36
   8  10   9    1.61    0.15
   8  10  10    8.36    0.23
   8  11   8   40.88    0.41
   8  11   9    9.51    0.18
   8  11  10    4.20    0.17
   8  11  11   15.69    0.30
   8  12   8    0.24    0.07
   8  12   9    1.50    0.14
   8  12  10    0.07    0.06
   8  12  11    1.06    0.10
   8  12  12   18.88    0.35
   8  13   8    1.47    0.22
   8  13   9    5.10    0.17
   8  13  10    0.78    0.07
   8  13  11    9.45    0.22
   8  13  12    1.72    0.18
   8  13  13   16.71    0.35
   8  14   8   38.52    0.47
   8  14   9    3.67    0.21
   8  14  10   11.61    0.23
   8  14  11    1.03    0.12
   8  14  12   13.35    0.24
   8  14  13    0.01    0.08
   8  14  14   28.49    0.49
   8  15   8   16.08    0.38
   8  15   9    5.36    0.23
   8  15  10    3.36    0.22
   8  15  11   11.16    0.26
   8  15  12    0.03    0.08
   8  15  13   11.44    0.26
   8  15  14    1.65    0.44
   8  15  15    6.82    0.46
   8  16   8   69.23    0.76
   8  16   9    1.13    0.20
   8  16  10   21.27    0.30
   8  16  11    1.97    0.36
   8  16  12    2.23    0.43
   8  16  13    0.17    0.09
   8  16  14   17.12    0.40
   8  17   8    2.63    0.47
   8  17   9    7.10    0.30
   8  17  10    1.23    0.56
   8  17  11    3.99    0.53
   8  17  12    0.01    0.11
   8  17  13    0.61    0.33
   8  18   8   31.35    0.51
   8  18   9    4.12    0.29
   8  18  10    1.10    0.39
   8  18  11    3.72    0.65
   8  18  12    1.31    0.61
   8  19   8    1.10    0.54
   8  19   9    3.68    0.57
   8  19  10    1.40    0.44
   8  20   8   20.55    0.66
   9   9   9   61.34    1.00
   9  10   9    6.86    0.23
   9  10  10   12.30    0.32
   9  11   9    2.65    0.23
   9  11  10    0.33    0.06
   9  11  11    0.45    0.10
   9  12   9   16.93    0.35
   9  12  10    6.49    0.21
   9  12  11    0.22    0.07
   9  12  12    1.89    0.33
   9  13   9    7.63    0.31
   9  13  10    0.02    0.07
   9  13  11    0.48    0.08
   9  13  12    0.69    0.09
   9  13  13    6.49    0.36
   9  14   9    1.60    0.37
   9  14  10    1.25    0.15
   9  14  11    0.26    0.08
   9  14  12    9.87    0.23
   9  14  13    0.01    0.08
   9  14  14    6.40    0.38
   9  15   9   22.61    0.43
   9  15  10    0.71    0.15
   9  15  11    1.31    0.40
   9  15  12    2.03    0.33
   9  15  13    7.32    0.26
   9  15  14    0.92    0.13
   9  15  15   21.28    0.68
   9  16   9    8.10    0.33
   9  16  10    1.66    0.63
   9  16  11    2.92    0.29
   9  16  12    0.53    0.23
   9  16  13    0.58    0.10
   9  16  14    1.88    0.26
   9  17   9   13.77    0.51
   9  17  10    0.30    0.16
   9  17  11    0.02    0.16
   9  17  12    0.24    0.12
   9  17  13    0.46    0.36
   9  18   9    1.47    0.59
   9  18  10    2.45    0.59
   9  18  11    1.82    0.95
   9  19   9    3.51    1.02
  10  10  10   11.46    0.58
  10  11  10   17.45    0.39
  10  11  11    0.66    0.11
  10  12  10    1.65    0.34
  10  12  11    1.90    0.35
  10  12  12   29.30    0.45
  10  13  10    0.83    0.38
  10  13  11    2.26    0.46
  10  13  12    0.92    0.08
  10  13  13    0.14    0.11
  10  14  10    0.04    0.11
  10  14  11    4.20    0.25
  10  14  12    0.33    0.10
  10  14  13    0.04    0.08
  10  14  14    1.78    0.72
  10  15  10    4.45    0.32
  10  15  11    0.11    0.09
  10  15  12    4.36    0.26
  10  15  13    0.03    0.15
  10  15  14    0.80    0.23
  10  16  10    0.08    0.13
  10  16  11    3.67    0.44
  10  16  12    0.04    0.18
  10  16  13    0.01    0.09
  10  17  10    0.00    0.20
  10  17  11    0.00    0.09
  10  17  12    0.04    0.11
  10  18  10    2.06    0.62
  11  11  11   81.27    1.56
  11  12  11   13.46    0.35
  11  12  12   15.04    0.38
  11  13  11   34.67    0.52
  11  13  12    3.05    0.29
  11  13  13   21.70    0.40
  11  14  11    7.86    0.42
  11  14  12    7.68    0.26
  11  14  13    0.19    0.09
  11  14  14    3.64    0.42
  11  15  11    0.02    0.12
  11  15  12    1.15    0.17
  11  15  13    0.03    0.10
  11  16  11    4.31    0.53
  11  16  12    0.60    0.17
  11  17  11    4.03    0.78
  12  12  12  106.31    1.67
  12  13  12    0.70    0.30
  12  13  13   14.07    0.39
  12  14  12    7.06    0.48
  12  14  13    0.00    0.15
  12  14  14    0.00    0.13
  12  15  12    6.72    0.75
  12  15  13    3.88    0.61
  13  13  13    4.68    1.74
  13  14  13    5.09    0.67
   0   0   0    0.00    0.00
;
_shelx_hkl_checksum              27096
_shelx_fab_checksum              4948
_shelx_fab_file
;
    0    1    1    108.74      0.00
    1    1    1     38.52      0.00
    0    0    2     62.03      0.00
    0    1    2     10.17      0.00
    1    1    2    -55.09      0.00
    0    2    2    -41.84      0.00
    1    2    2    -86.77      0.00
    2    2    2    -81.26      0.00
    0    0    3     64.82      0.00
    0    1    3     25.17      0.00
    1    1    3    -13.47      0.00
    0    2    3    -13.92      0.00
    1    2    3    -36.08      0.00
    2    2    3    -39.64      0.00
    0    3    3     14.96      0.00
    1    3    3      1.82      0.00
    2    3    3     -3.91      0.00
    3    3    3     19.01      0.00
    0    0    4     88.06      0.00
    0    1    4     31.32      0.00
    1    1    4     19.26      0.00
    0    2    4      7.17      0.00
    1    2    4     -1.48      0.00
    2    2    4    -13.35      0.00
    0    3    4     11.99      0.00
    1    3    4      4.67      0.00
    2    3    4      7.39      0.00
    3    3    4     22.24      0.00
    0    4    4     28.82      0.00
    1    4    4      0.56      0.00
    2    4    4      5.76      0.00
    3    4    4     11.88      0.00
    4    4    4     15.92      0.00
    0    0    5     43.39      0.00
    0    1    5     23.38      0.00
    1    1    5      8.99      0.00
    0    2    5     11.87      0.00
    1    2    5     -5.37      0.00
    2    2    5    -29.60      0.00
    0    3    5      8.08      0.00
    1    3    5      0.22      0.00
    2    3    5      4.97      0.00
    3    3    5     19.89      0.00
    0    4    5     -8.51      0.00
    1    4    5     -2.69      0.00
    2    4    5      0.06      0.00
    3    4    5      3.58      0.00
    4    4    5     -5.94      0.00
    0    5    5      2.00      0.00
    1    5    5     -8.40      0.00
    2    5    5     -7.04      0.00
    3    5    5     -1.80      0.00
    4    5    5     -8.93      0.00
    5    5    5    -13.15      0.00
    0    0    6     39.65      0.00
    0    1    6     20.18      0.00
    1    1    6      8.24      0.00
    0    2    6      4.21      0.00
    1    2    6    -15.68      0.00
    2    2    6     32.85      0.00
    0    3    6     13.07      0.00
    1    3    6      5.89      0.00
    2    3    6     -5.07      0.00
    3    3    6     19.26      0.00
    0    4    6     11.06      0.00
    1    4    6      2.30      0.00
    2    4    6      4.75      0.00
    3    4    6     13.52      0.00
    4    4    6      4.72      0.00
    0    5    6      0.04      0.00
    1    5    6     -3.18      0.00
    2    5    6     -1.05      0.00
    3    5    6      7.04      0.00
    4    5    6     -3.01      0.00
    5    5    6    -14.62      0.00
    0    6    6      2.44      0.00
    1    6    6     -4.15      0.00
    2    6    6     -1.68      0.00
    3    6    6      5.92      0.00
    4    6    6     -1.07      0.00
    5    6    6    -10.30      0.00
    6    6    6     -3.51      0.00
    0    0    7      8.18      0.00
    0    1    7     -3.56      0.00
    1    1    7     -2.66      0.00
    0    2    7     -3.67      0.00
    1    2    7     -5.69      0.00
    2    2    7    -26.90      0.00
    0    3    7     -0.52      0.00
    1    3    7      3.06      0.00
    2    3    7      4.06      0.00
    3    3    7     14.18      0.00
    0    4    7     -1.43      0.00
    1    4    7     -2.59      0.00
    2    4    7      3.57      0.00
    3    4    7     10.44      0.00
    4    4    7      4.67      0.00
    0    5    7     -1.90      0.00
    1    5    7     -4.60      0.00
    2    5    7     -5.15      0.00
    3    5    7      2.40      0.00
    4    5    7     -2.14      0.00
    5    5    7     -7.46      0.00
    0    6    7      2.54      0.00
    1    6    7     -3.82      0.00
    2    6    7     -4.98      0.00
    3    6    7      2.89      0.00
    4    6    7     -0.10      0.00
    5    6    7     -5.07      0.00
    6    6    7     -0.22      0.00
    0    7    7      2.28      0.00
    1    7    7     -4.83      0.00
    2    7    7     -4.95      0.00
    3    7    7      3.51      0.00
    4    7    7      3.55      0.00
    5    7    7     -2.01      0.00
    6    7    7     -0.57      0.00
    7    7    7      0.38      0.00
    0    0    8      6.86      0.00
    0    1    8     -7.71      0.00
    1    1    8    -15.14      0.00
    0    2    8     -6.69      0.00
    1    2    8    -17.51      0.00
    2    2    8    -12.13      0.00
    0    3    8     -4.69      0.00
    1    3    8     -8.15      0.00
    2    3    8     -2.41      0.00
    3    3    8      4.25      0.00
    0    4    8      7.53      0.00
    1    4    8     -6.18      0.00
    2    4    8     -4.51      0.00
    3    4    8      3.14      0.00
    4    4    8      8.00      0.00
    0    5    8      0.98      0.00
    1    5    8     -7.26      0.00
    2    5    8     -9.14      0.00
    3    5    8      0.56      0.00
    4    5    8     -3.30      0.00
    5    5    8     -4.71      0.00
    0    6    8      1.11      0.00
    1    6    8     -5.12      0.00
    2    6    8     -6.13      0.00
    3    6    8      1.74      0.00
    4    6    8      1.17      0.00
    5    6    8     -2.98      0.00
    6    6    8     -0.51      0.00
    0    7    8      4.34      0.00
    1    7    8     -0.57      0.00
    2    7    8     -3.46      0.00
    3    7    8      4.18      0.00
    4    7    8      1.67      0.00
    5    7    8     -0.36      0.00
    6    7    8      0.55      0.00
    7    7    8      0.37      0.00
    0    8    8     16.89      0.00
    1    8    8      3.67      0.00
    2    8    8     -2.45      0.00
    3    8    8      4.00      0.00
    4    8    8      4.56      0.00
    5    8    8      0.79      0.00
    6    8    8      1.04      0.00
    7    8    8     -1.90      0.00
    8    8    8     -3.78      0.00
    0    0    9     18.03      0.00
    0    1    9     12.54      0.00
    1    1    9      3.81      0.00
    0    2    9      5.99      0.00
    1    2    9     -0.28      0.00
    2    2    9     -4.68      0.00
    0    3    9     13.04      0.00
    1    3    9      5.31      0.00
    2    3    9      3.41      0.00
    3    3    9     11.07      0.00
    0    4    9     11.94      0.00
    1    4    9      4.59      0.00
    2    4    9      0.99      0.00
    3    4    9      9.92      0.00
    4    4    9      5.87      0.00
    0    5    9      5.06      0.00
    1    5    9      0.95      0.00
    2    5    9     -4.27      0.00
    3    5    9      5.58      0.00
    4    5    9      2.35      0.00
    5    5    9     -2.05      0.00
    0    6    9      8.06      0.00
    1    6    9     -1.14      0.00
    2    6    9     -4.48      0.00
    3    6    9      0.83      0.00
    4    6    9      2.96      0.00
    5    6    9      0.05      0.00
    6    6    9      1.21      0.00
    0    7    9     12.09      0.00
    1    7    9      3.06      0.00
    2    7    9     -3.94      0.00
    3    7    9      2.99      0.00
    4    7    9      3.97      0.00
    5    7    9      1.70      0.00
    6    7    9      1.30      0.00
    7    7    9      0.78      0.00
    0    8    9     10.58      0.00
    1    8    9      6.18      0.00
    2    8    9      0.23      0.00
    3    8    9      4.53      0.00
    4    8    9      4.84      0.00
    5    8    9      1.97      0.00
    6    8    9      1.77      0.00
    7    8    9     -1.70      0.00
    8    8    9      0.49      0.00
    0    9    9     14.38      0.00
    1    9    9      6.72      0.00
    2    9    9      1.19      0.00
    3    9    9      5.74      0.00
    4    9    9      5.64      0.00
    5    9    9      3.33      0.00
    6    9    9      4.65      0.00
    7    9    9      2.61      0.00
    8    9    9      4.40      0.00
    9    9    9      7.95      0.00
    0    0   10     22.64      0.00
    0    1   10     11.60      0.00
    1    1   10      5.64      0.00
    0    2   10      3.89      0.00
    1    2   10      0.79      0.00
    2    2   10     -5.21      0.00
    0    3   10     12.58      0.00
    1    3   10      5.46      0.00
    2    3   10      2.29      0.00
    3    3   10      8.73      0.00
    0    4   10      8.70      0.00
    1    4   10      5.10      0.00
    2    4   10      1.17      0.00
    3    4   10      8.40      0.00
    4    4   10      8.56      0.00
    0    5   10      6.83      0.00
    1    5   10     -0.95      0.00
    2    5   10     -5.85      0.00
    3    5   10      0.15      0.00
    4    5   10      1.98      0.00
    5    5   10     -1.45      0.00
    0    6   10      5.68      0.00
    1    6   10     -2.25      0.00
    2    6   10     -6.22      0.00
    3    6   10     -1.19      0.00
    4    6   10      1.31      0.00
    5    6   10     -2.47      0.00
    6    6   10      1.58      0.00
    0    7   10      5.19      0.00
    1    7   10     -1.88      0.00
    2    7   10     -6.11      0.00
    3    7   10     -1.07      0.00
    4    7   10      0.54      0.00
    5    7   10     -1.27      0.00
    6    7   10     -2.85      0.00
    7    7   10     -2.07      0.00
    0    8   10      7.24      0.00
    1    8   10      0.72      0.00
    2    8   10     -4.09      0.00
    3    8   10     -0.32      0.00
    4    8   10      1.87      0.00
    5    8   10      0.76      0.00
    6    8   10     -0.88      0.00
    7    8   10     -1.33      0.00
    8    8   10     -0.35      0.00
    0    9   10      9.81      0.00
    1    9   10      2.61      0.00
    2    9   10     -2.18      0.00
    3    9   10      1.04      0.00
    4    9   10      3.59      0.00
    5    9   10      3.39      0.00
    6    9   10      3.20      0.00
    7    9   10     -0.44      0.00
    8    9   10      2.55      0.00
    9    9   10      4.24      0.00
    0   10   10      5.24      0.00
    1   10   10      1.04      0.00
    2   10   10     -4.47      0.00
    3   10   10     -1.09      0.00
    4   10   10      1.35      0.00
    5   10   10      4.05      0.00
    6   10   10     -0.08      0.00
    7   10   10      3.35      0.00
    8   10   10      0.89      0.00
    9   10   10      3.33      0.00
   10   10   10      5.35      0.00
    0    0   11     -4.25      0.00
    0    1   11     -0.58      0.00
    1    1   11    -11.78      0.00
    0    2   11     -5.89      0.00
    1    2   11    -14.97      0.00
    2    2   11    -14.39      0.00
    0    3   11      1.40      0.00
    1    3   11     -7.96      0.00
    2    3   11     -8.32      0.00
    3    3   11      0.21      0.00
    0    4   11      0.89      0.00
    1    4   11     -3.46      0.00
    2    4   11     -6.18      0.00
    3    4   11      1.90      0.00
    4    4   11      2.44      0.00
    0    5   11      1.10      0.00
    1    5   11     -5.45      0.00
    2    5   11    -10.06      0.00
    3    5   11     -2.34      0.00
    4    5   11     -0.37      0.00
    5    5   11     -2.87      0.00
    0    6   11      1.32      0.00
    1    6   11     -6.12      0.00
    2    6   11     -9.10      0.00
    3    6   11     -3.74      0.00
    4    6   11     -2.54      0.00
    5    6   11     -2.41      0.00
    6    6   11     -3.53      0.00
    0    7   11      0.23      0.00
    1    7   11     -5.76      0.00
    2    7   11    -11.66      0.00
    3    7   11     -3.78      0.00
    4    7   11     -2.76      0.00
    5    7   11     -2.73      0.00
    6    7   11     -3.33      0.00
    7    7   11     -5.40      0.00
    0    8   11      1.19      0.00
    1    8   11     -3.21      0.00
    2    8   11     -7.48      0.00
    3    8   11     -4.05      0.00
    4    8   11     -1.57      0.00
    5    8   11     -2.23      0.00
    6    8   11     -2.79      0.00
    7    8   11     -6.19      0.00
    8    8   11     -4.67      0.00
    0    9   11      4.56      0.00
    1    9   11     -1.63      0.00
    2    9   11     -5.81      0.00
    3    9   11     -2.62      0.00
    4    9   11      0.31      0.00
    5    9   11      0.57      0.00
    6    9   11     -0.80      0.00
    7    9   11     -2.52      0.00
    8    9   11     -1.93      0.00
    9    9   11      0.93      0.00
    0   10   11      0.41      0.00
    1   10   11     -3.25      0.00
    2   10   11     -6.71      0.00
    3   10   11     -4.51      0.00
    4   10   11     -1.00      0.00
    5   10   11     -0.16      0.00
    6   10   11     -1.62      0.00
    7   10   11     -2.96      0.00
    8   10   11     -1.60      0.00
    9   10   11     -0.20      0.00
   10   10   11     -1.40      0.00
    0   11   11     -4.82      0.00
    1   11   11     -6.39      0.00
    2   11   11    -10.54      0.00
    3   11   11     -7.65      0.00
    4   11   11     -4.84      0.00
    5   11   11     -2.27      0.00
    6   11   11     -2.18      0.00
    7   11   11     -6.55      0.00
    8   11   11     -3.92      0.00
    9   11   11     -2.14      0.00
   10   11   11     -3.13      0.00
   11   11   11     -1.77      0.00
    0    0   12     16.76      0.00
    0    1   12     -0.96      0.00
    1    1   12     -5.89      0.00
    0    2   12     -3.88      0.00
    1    2   12     -8.66      0.00
    2    2   12    -12.48      0.00
    0    3   12      3.43      0.00
    1    3   12     -2.64      0.00
    2    3   12     -5.66      0.00
    3    3   12      1.81      0.00
    0    4   12      7.22      0.00
    1    4   12     -0.68      0.00
    2    4   12     -3.37      0.00
    3    4   12      3.00      0.00
    4    4   12      4.37      0.00
    0    5   12      5.50      0.00
    1    5   12     -0.04      0.00
    2    5   12     -3.81      0.00
    3    5   12      1.71      0.00
    4    5   12      4.44      0.00
    5    5   12      2.94      0.00
    0    6   12      5.61      0.00
    1    6   12     -0.50      0.00
    2    6   12     -4.35      0.00
    3    6   12     -1.03      0.00
    4    6   12      2.20      0.00
    5    6   12      2.42      0.00
    6    6   12      0.64      0.00
    0    7   12      3.89      0.00
    1    7   12     -1.40      0.00
    2    7   12     -5.08      0.00
    3    7   12     -2.04      0.00
    4    7   12      0.95      0.00
    5    7   12      2.00      0.00
    6    7   12      0.86      0.00
    7    7   12     -2.12      0.00
    0    8   12      4.03      0.00
    1    8   12      0.47      0.00
    2    8   12     -3.86      0.00
    3    8   12     -0.71      0.00
    4    8   12      2.58      0.00
    5    8   12      2.33      0.00
    6    8   12      0.64      0.00
    7    8   12     -2.36      0.00
    8    8   12     -0.28      0.00
    0    9   12      6.84      0.00
    1    9   12      2.62      0.00
    2    9   12     -0.64      0.00
    3    9   12      0.82      0.00
    4    9   12      3.92      0.00
    5    9   12      2.57      0.00
    6    9   12      0.56      0.00
    7    9   12     -1.99      0.00
    8    9   12     -1.25      0.00
    9    9   12      1.68      0.00
    0   10   12      3.31      0.00
    1   10   12      0.07      0.00
    2   10   12     -3.75      0.00
    3   10   12     -1.58      0.00
    4   10   12      0.58      0.00
    5   10   12      1.62      0.00
    6   10   12      0.16      0.00
    7   10   12     -1.87      0.00
    8   10   12     -0.41      0.00
    9   10   12      0.45      0.00
   10   10   12      0.56      0.00
    0   11   12     -0.41      0.00
    1   11   12     -4.83      0.00
    2   11   12     -7.43      0.00
    3   11   12     -5.41      0.00
    4   11   12     -2.42      0.00
    5   11   12     -0.42      0.00
    6   11   12     -1.84      0.00
    7   11   12     -3.84      0.00
    8   11   12     -2.77      0.00
    9   11   12     -1.54      0.00
   10   11   12     -2.30      0.00
   11   11   12     -2.35      0.00
    0   12   12     -2.09      0.00
    1   12   12     -4.16      0.00
    2   12   12     -5.40      0.00
    3   12   12     -3.26      0.00
    4   12   12     -0.30      0.00
    5   12   12     -1.75      0.00
    6   12   12     -2.81      0.00
    7   12   12     -4.91      0.00
    8   12   12     -3.28      0.00
    9   12   12     -3.69      0.00
   10   12   12     -3.47      0.00
   11   12   12     -3.66      0.00
   12   12   12     -3.34      0.00
    0    0   13     14.87      0.00
    0    1   13     11.56      0.00
    1    1   13      8.13      0.00
    0    2   13      6.19      0.00
    1    2   13      0.64      0.00
    2    2   13     -6.91      0.00
    0    3   13     10.62      0.00
    1    3   13      4.99      0.00
    2    3   13     -0.30      0.00
    3    3   13      4.30      0.00
    0    4   13     11.36      0.00
    1    4   13      6.25      0.00
    2    4   13      2.05      0.00
    3    4   13      6.33      0.00
    4    4   13      8.83      0.00
    0    5   13     10.76      0.00
    1    5   13      5.20      0.00
    2    5   13      1.16      0.00
    3    5   13      3.22      0.00
    4    5   13      6.66      0.00
    5    5   13      5.28      0.00
    0    6   13      8.20      0.00
    1    6   13      4.75      0.00
    2    6   13     -2.09      0.00
    3    6   13      2.28      0.00
    4    6   13      4.95      0.00
    5    6   13      5.21      0.00
    6    6   13      4.82      0.00
    0    7   13      6.32      0.00
    1    7   13      1.99      0.00
    2    7   13     -1.21      0.00
    3    7   13      0.18      0.00
    4    7   13      3.61      0.00
    5    7   13      3.76      0.00
    6    7   13      3.03      0.00
    7    7   13      1.67      0.00
    0    8   13      8.97      0.00
    1    8   13      4.73      0.00
    2    8   13      1.03      0.00
    3    8   13      3.37      0.00
    4    8   13      6.55      0.00
    5    8   13      5.80      0.00
    6    8   13      2.96      0.00
    7    8   13      2.23      0.00
    8    8   13      1.52      0.00
    0    9   13     11.95      0.00
    1    9   13      7.73      0.00
    2    9   13      4.29      0.00
    3    9   13      6.22      0.00
    4    9   13      6.69      0.00
    5    9   13      6.44      0.00
    6    9   13      2.92      0.00
    7    9   13      3.18      0.00
    8    9   13      3.67      0.00
    9    9   13      5.27      0.00
    0   10   13      8.59      0.00
    1   10   13      6.02      0.00
    2   10   13      2.90      0.00
    3   10   13      3.06      0.00
    4   10   13      5.30      0.00
    5   10   13      5.63      0.00
    6   10   13      3.10      0.00
    7   10   13      2.12      0.00
    8   10   13      4.54      0.00
    9   10   13      4.98      0.00
   10   10   13      3.82      0.00
    0   11   13      2.68      0.00
    1   11   13      0.07      0.00
    2   11   13     -1.80      0.00
    3   11   13      0.97      0.00
    4   11   13      1.98      0.00
    5   11   13      2.59      0.00
    6   11   13      0.25      0.00
    7   11   13      0.16      0.00
    8   11   13      1.76      0.00
    9   11   13      2.34      0.00
   10   11   13      0.90      0.00
   11   11   13     -0.24      0.00
    0   12   13      2.24      0.00
    1   12   13      0.47      0.00
    2   12   13     -0.16      0.00
    3   12   13      1.74      0.00
    4   12   13      2.13      0.00
    5   12   13      1.49      0.00
    6   12   13     -0.22      0.00
    7   12   13     -1.26      0.00
    8   12   13     -0.85      0.00
    9   12   13      0.04      0.00
   10   12   13      0.67      0.00
   11   12   13     -1.18      0.00
   12   12   13     -0.08      0.00
    0   13   13      6.44      0.00
    1   13   13      4.34      0.00
    2   13   13      4.51      0.00
    3   13   13      5.79      0.00
    4   13   13      4.99      0.00
    5   13   13      4.15      0.00
    6   13   13      2.00      0.00
    7   13   13      1.66      0.00
    8   13   13      3.36      0.00
    9   13   13      3.50      0.00
   10   13   13     -0.91      0.00
   11   13   13      0.29      0.00
   12   13   13      1.81      0.00
   13   13   13     -0.46      0.00
    0    0   14     20.80      0.00
    0    1   14      6.54      0.00
    1    1   14     -1.46      0.00
    0    2   14      4.22      0.00
    1    2   14     -2.74      0.00
    2    2   14     -6.63      0.00
    0    3   14      6.11      0.00
    1    3   14      1.34      0.00
    2    3   14     -3.60      0.00
    3    3   14     -0.07      0.00
    0    4   14      8.28      0.00
    1    4   14      1.66      0.00
    2    4   14     -2.47      0.00
    3    4   14      0.94      0.00
    4    4   14      4.10      0.00
    0    5   14      5.32      0.00
    1    5   14     -0.43      0.00
    2    5   14     -3.72      0.00
    3    5   14     -0.82      0.00
    4    5   14      2.07      0.00
    5    5   14      0.92      0.00
    0    6   14      2.49      0.00
    1    6   14     -1.12      0.00
    2    6   14     -6.20      0.00
    3    6   14     -3.19      0.00
    4    6   14     -1.78      0.00
    5    6   14     -1.54      0.00
    6    6   14     -3.37      0.00
    0    7   14      0.07      0.00
    1    7   14     -5.13      0.00
    2    7   14     -6.84      0.00
    3    7   14     -5.49      0.00
    4    7   14     -3.14      0.00
    5    7   14     -1.81      0.00
    6    7   14     -3.30      0.00
    7    7   14     -3.80      0.00
    0    8   14      2.50      0.00
    1    8   14      0.96      0.00
    2    8   14     -4.26      0.00
    3    8   14     -0.88      0.00
    4    8   14      0.55      0.00
    5    8   14      0.36      0.00
    6    8   14     -1.55      0.00
    7    8   14     -2.03      0.00
    8    8   14     -0.34      0.00
    0    9   14      7.75      0.00
    1    9   14      3.82      0.00
    2    9   14      0.99      0.00
    3    9   14      2.75      0.00
    4    9   14      2.44      0.00
    5    9   14      3.04      0.00
    6    9   14     -0.20      0.00
    7    9   14     -0.68      0.00
    8    9   14      2.36      0.00
    9    9   14      3.01      0.00
    0   10   14      5.38      0.00
    1   10   14      1.99      0.00
    2   10   14     -1.01      0.00
    3   10   14      1.62      0.00
    4   10   14      3.17      0.00
    5   10   14      0.68      0.00
    6   10   14      0.71      0.00
    7   10   14     -1.13      0.00
    8   10   14      3.33      0.00
    9   10   14      2.35      0.00
   10   10   14      3.25      0.00
    0   11   14      1.00      0.00
    1   11   14     -1.45      0.00
    2   11   14     -3.09      0.00
    3   11   14     -0.24      0.00
    4   11   14      0.41      0.00
    5   11   14     -1.06      0.00
    6   11   14     -0.63      0.00
    7   11   14     -0.14      0.00
    8   11   14      2.79      0.00
    9   11   14      2.06      0.00
   10   11   14     -1.33      0.00
   11   11   14     -0.27      0.00
    0   12   14      0.73      0.00
    1   12   14     -1.06      0.00
    2   12   14     -1.60      0.00
    3   12   14      0.60      0.00
    4   12   14      0.02      0.00
    5   12   14     -0.62      0.00
    6   12   14     -1.16      0.00
    7   12   14     -0.37      0.00
    8   12   14      0.65      0.00
    9   12   14      0.61      0.00
   10   12   14     -0.43      0.00
   11   12   14     -0.09      0.00
   12   12   14      1.30      0.00
    0   13   14      4.96      0.00
    1   13   14      2.28      0.00
    2   13   14      2.11      0.00
    3   13   14      5.04      0.00
    4   13   14      2.92      0.00
    5   13   14      1.61      0.00
    6   13   14      1.25      0.00
    7   13   14      1.08      0.00
    8   13   14      3.31      0.00
    9   13   14      3.60      0.00
   10   13   14      0.59      0.00
   11   13   14      1.63      0.00
   12   13   14      0.70      0.00
   13   13   14      0.43      0.00
    0   14   14      3.36      0.00
    1   14   14      2.54      0.00
    2   14   14      2.43      0.00
    3   14   14      6.35      0.00
    4   14   14      2.58      0.00
    5   14   14      1.21      0.00
    6   14   14      2.43      0.00
    7   14   14      1.98      0.00
    8   14   14      5.17      0.00
    9   14   14      3.60      0.00
   10   14   14      1.96      0.00
   11   14   14      0.81      0.00
   12   14   14      0.15      0.00
    0    0   15     -5.27      0.00
    0    1   15      9.43      0.00
    1    1   15     -2.83      0.00
    0    2   15      0.51      0.00
    1    2   15     -5.02      0.00
    2    2   15     -8.50      0.00
    0    3   15      4.78      0.00
    1    3   15     -0.58      0.00
    2    3   15     -4.76      0.00
    3    3   15     -1.46      0.00
    0    4   15      4.72      0.00
    1    4   15     -0.60      0.00
    2    4   15     -4.21      0.00
    3    4   15     -0.17      0.00
    4    4   15      1.80      0.00
    0    5   15      2.29      0.00
    1    5   15     -1.48      0.00
    2    5   15     -4.19      0.00
    3    5   15     -1.38      0.00
    4    5   15     -0.49      0.00
    5    5   15      1.36      0.00
    0    6   15     -0.33      0.00
    1    6   15     -3.48      0.00
    2    6   15     -7.71      0.00
    3    6   15     -5.37      0.00
    4    6   15     -3.81      0.00
    5    6   15     -5.12      0.00
    6    6   15     -5.37      0.00
    0    7   15     -0.80      0.00
    1    7   15     -6.35      0.00
    2    7   15     -8.48      0.00
    3    7   15     -7.37      0.00
    4    7   15     -4.84      0.00
    5    7   15     -5.24      0.00
    6    7   15     -6.63      0.00
    7    7   15     -5.95      0.00
    0    8   15     -0.77      0.00
    1    8   15     -3.54      0.00
    2    8   15     -6.40      0.00
    3    8   15     -4.35      0.00
    4    8   15     -2.40      0.00
    5    8   15     -2.61      0.00
    6    8   15     -3.63      0.00
    7    8   15     -3.97      0.00
    8    8   15     -0.78      0.00
    0    9   15      3.28      0.00
    1    9   15     -0.61      0.00
    2    9   15     -2.87      0.00
    3    9   15     -1.55      0.00
    4    9   15      0.17      0.00
    5    9   15     -1.16      0.00
    6    9   15     -2.29      0.00
    7    9   15     -3.83      0.00
    8    9   15     -0.60      0.00
    9    9   15     -0.08      0.00
    0   10   15      2.13      0.00
    1   10   15     -0.68      0.00
    2   10   15     -3.03      0.00
    3   10   15     -1.57      0.00
    4   10   15      0.65      0.00
    5   10   15     -1.66      0.00
    6   10   15     -3.43      0.00
    7   10   15      1.68      0.00
    8   10   15     -1.00      0.00
    9   10   15     -0.57      0.00
   10   10   15     -3.47      0.00
    0   11   15      0.05      0.00
    1   11   15     -3.81      0.00
    2   11   15     -5.33      0.00
    3   11   15     -2.27      0.00
    4   11   15     -1.96      0.00
    5   11   15     -2.47      0.00
    6   11   15     -2.16      0.00
    7   11   15     -3.04      0.00
    8   11   15     -0.38      0.00
    9   11   15     -0.15      0.00
   10   11   15     -3.39      0.00
   11   11   15     -2.28      0.00
    0   12   15     -0.34      0.00
    1   12   15     -4.54      0.00
    2   12   15     -5.03      0.00
    3   12   15     -2.59      0.00
    4   12   15     -2.77      0.00
    5   12   15     -3.35      0.00
    6   12   15     -4.15      0.00
    7   12   15     -3.41      0.00
    8   12   15      0.20      0.00
    9   12   15     -1.62      0.00
   10   12   15     -3.49      0.00
   11   12   15     -2.15      0.00
   12   12   15     -1.10      0.00
    0   13   15      1.56      0.00
    1   13   15     -1.21      0.00
    2   13   15     -0.95      0.00
    3   13   15      1.72      0.00
    4   13   15      0.41      0.00
    5   13   15     -3.27      0.00
    6   13   15      0.57      0.00
    7   13   15      0.24      0.00
    8   13   15      1.02      0.00
    9   13   15      1.20      0.00
   10   13   15     -0.70      0.00
   11   13   15      0.10      0.00
   12   13   15      2.42      0.00
    0   14   15      2.12      0.00
    1   14   15      0.08      0.00
    2   14   15     -1.39      0.00
    3   14   15      1.89      0.00
    4   14   15     -0.48      0.00
    5   14   15     -1.52      0.00
    6   14   15     -0.19      0.00
    7   14   15      0.45      0.00
    8   14   15      1.84      0.00
    9   14   15      1.67      0.00
   10   14   15     -1.75      0.00
    0   15   15      0.37      0.00
    1   15   15     -4.17      0.00
    2   15   15     -1.18      0.00
    3   15   15     -1.12      0.00
    4   15   15     -2.45      0.00
    5   15   15     -2.83      0.00
    6   15   15     -2.42      0.00
    7   15   15     -2.19      0.00
    8   15   15     -2.93      0.00
    9   15   15     -1.61      0.00
    0    0   16     12.27      0.00
    0    1   16      3.33      0.00
    1    1   16     -0.19      0.00
    0    2   16      0.71      0.00
    1    2   16     -2.09      0.00
    2    2   16     -5.84      0.00
    0    3   16      5.16      0.00
    1    3   16      1.37      0.00
    2    3   16     -2.78      0.00
    3    3   16     -0.99      0.00
    0    4   16      5.19      0.00
    1    4   16      1.59      0.00
    2    4   16     -1.94      0.00
    3    4   16      2.45      0.00
    4    4   16      5.08      0.00
    0    5   16      5.60      0.00
    1    5   16      1.81      0.00
    2    5   16     -1.26      0.00
    3    5   16      1.60      0.00
    4    5   16      4.17      0.00
    5    5   16      2.39      0.00
    0    6   16      5.86      0.00
    1    6   16      2.49      0.00
    2    6   16     -0.26      0.00
    3    6   16      0.96      0.00
    4    6   16      2.24      0.00
    5    6   16      1.21      0.00
    6    6   16     -0.28      0.00
    0    7   16      2.18      0.00
    1    7   16      1.39      0.00
    2    7   16     -2.92      0.00
    3    7   16     -2.18      0.00
    4    7   16      0.50      0.00
    5    7   16     -0.11      0.00
    6    7   16     -0.92      0.00
    7    7   16      0.25      0.00
    0    8   16      3.70      0.00
    1    8   16     -0.08      0.00
    2    8   16     -2.34      0.00
    3    8   16     -0.42      0.00
    4    8   16      0.80      0.00
    5    8   16      0.49      0.00
    6    8   16      0.68      0.00
    7    8   16      0.56      0.00
    8    8   16     -0.22      0.00
    0    9   16      6.15      0.00
    1    9   16      1.85      0.00
    2    9   16     -1.30      0.00
    3    9   16      1.57      0.00
    4    9   16      2.28      0.00
    5    9   16      1.67      0.00
    6    9   16      1.06      0.00
    7    9   16      0.69      0.00
    8    9   16      1.12      0.00
    9    9   16      1.36      0.00
    0   10   16      5.68      0.00
    1   10   16      2.45      0.00
    2   10   16     -1.01      0.00
    3   10   16      1.56      0.00
    4   10   16      2.36      0.00
    5   10   16      1.58      0.00
    6   10   16      0.72      0.00
    7   10   16     -0.18      0.00
    8   10   16      1.71      0.00
    9   10   16      0.68      0.00
   10   10   16     -1.80      0.00
    0   11   16      3.65      0.00
    1   11   16      0.10      0.00
    2   11   16     -2.84      0.00
    3   11   16      1.13      0.00
    4   11   16     -0.17      0.00
    5   11   16     -0.89      0.00
    6   11   16     -0.39      0.00
    7   11   16     -0.11      0.00
    8   11   16      0.68      0.00
    9   11   16     -1.33      0.00
   10   11   16     -2.89      0.00
   11   11   16     -2.63      0.00
    0   12   16      2.20      0.00
    1   12   16     -0.89      0.00
    2   12   16     -3.32      0.00
    3   12   16      0.09      0.00
    4   12   16     -0.82      0.00
    5   12   16     -1.93      0.00
    6   12   16     -1.52      0.00
    7   12   16     -0.66      0.00
    8   12   16     -0.17      0.00
    9   12   16      0.22      0.00
   10   12   16     -1.30      0.00
   11   12   16     -0.20      0.00
    0   13   16      3.96      0.00
    1   13   16     -0.08      0.00
    2   13   16     -1.61      0.00
    3   13   16      1.13      0.00
    4   13   16      0.69      0.00
    5   13   16      0.43      0.00
    6   13   16      0.00      0.00
    7   13   16      1.62      0.00
    8   13   16      1.09      0.00
    9   13   16      1.45      0.00
   10   13   16     -0.12      0.00
    0   14   16      2.66      0.00
    1   14   16      0.63      0.00
    2   14   16     -0.71      0.00
    3   14   16      1.29      0.00
    4   14   16      0.17      0.00
    5   14   16     -0.79      0.00
    6   14   16      1.14      0.00
    7   14   16      0.04      0.00
    8   14   16      0.54      0.00
    9   14   16      0.71      0.00
    0   15   16      1.71      0.00
    1   15   16     -1.09      0.00
    2   15   16     -2.10      0.00
    3   15   16      1.30      0.00
    4   15   16     -0.66      0.00
    5   15   16     -1.71      0.00
    6   15   16     -1.49      0.00
    7   15   16     -1.55      0.00
    0   16   16      2.64      0.00
    1   16   16     -2.02      0.00
    2   16   16     -0.17      0.00
    3   16   16      1.65      0.00
    4   16   16     -0.69      0.00
    5   16   16     -1.42      0.00
    0    0   17      4.52      0.00
    0    1   17      0.12      0.00
    1    1   17     -3.64      0.00
    0    2   17     -0.26      0.00
    1    2   17     -4.44      0.00
    2    2   17     -6.74      0.00
    0    3   17      2.61      0.00
    1    3   17     -2.35      0.00
    2    3   17     -4.28      0.00
    3    3   17     -0.70      0.00
    0    4   17      2.44      0.00
    1    4   17     -1.51      0.00
    2    4   17     -2.82      0.00
    3    4   17      0.55      0.00
    4    4   17      2.32      0.00
    0    5   17      3.12      0.00
    1    5   17      0.44      0.00
    2    5   17     -1.02      0.00
    3    5   17      1.10      0.00
    4    5   17      3.24      0.00
    5    5   17      3.89      0.00
    0    6   17      6.85      0.00
    1    6   17      3.56      0.00
    2    6   17      0.24      0.00
    3    6   17      3.57      0.00
    4    6   17      2.42      0.00
    5    6   17      2.62      0.00
    6    6   17      3.04      0.00
    0    7   17      4.14      0.00
    1    7   17      0.82      0.00
    2    7   17      0.21      0.00
    3    7   17      0.91      0.00
    4    7   17      1.28      0.00
    5    7   17      1.85      0.00
    6    7   17      1.34      0.00
    7    7   17      1.44      0.00
    0    8   17      2.87      0.00
    1    8   17      0.24      0.00
    2    8   17     -2.23      0.00
    3    8   17      0.77      0.00
    4    8   17      0.54      0.00
    5    8   17      2.17      0.00
    6    8   17      2.44      0.00
    7    8   17      1.29      0.00
    8    8   17      0.56      0.00
    0    9   17      4.86      0.00
    1    9   17      0.93      0.00
    2    9   17     -1.78      0.00
    3    9   17      0.87      0.00
    4    9   17      1.96      0.00
    5    9   17      1.12      0.00
    6    9   17      1.17      0.00
    7    9   17      0.55      0.00
    8    9   17      0.59      0.00
    9    9   17     -0.13      0.00
    0   10   17      5.12      0.00
    1   10   17      1.17      0.00
    2   10   17     -1.05      0.00
    3   10   17      0.94      0.00
    4   10   17      0.74      0.00
    5   10   17      0.23      0.00
    6   10   17      0.00      0.00
    7   10   17     -0.62      0.00
    8   10   17      0.63      0.00
    9   10   17     -0.76      0.00
   10   10   17     -0.89      0.00
    0   11   17      4.97      0.00
    1   11   17     -0.43      0.00
    2   11   17     -3.09      0.00
    3   11   17      1.62      0.00
    4   11   17      0.25      0.00
    5   11   17     -0.90      0.00
    6   11   17     -0.03      0.00
    7   11   17     -0.68      0.00
    8   11   17     -0.92      0.00
    9   11   17      1.02      0.00
   10   11   17     -1.13      0.00
   11   11   17     -0.48      0.00
    0   12   17      2.48      0.00
    1   12   17     -1.58      0.00
    2   12   17     -3.97      0.00
    3   12   17     -0.12      0.00
    4   12   17     -0.19      0.00
    5   12   17     -1.06      0.00
    6   12   17     -0.41      0.00
    7   12   17     -0.63      0.00
    8   12   17     -0.09      0.00
    9   12   17     -1.04      0.00
   10   12   17     -0.78      0.00
    0   13   17      3.97      0.00
    1   13   17     -0.37      0.00
    2   13   17     -2.46      0.00
    3   13   17      0.06      0.00
    4   13   17      0.25      0.00
    5   13   17     -0.51      0.00
    6   13   17      1.68      0.00
    7   13   17      0.04      0.00
    8   13   17      1.57      0.00
    9   13   17      1.76      0.00
    0   14   17      3.97      0.00
    1   14   17      0.65      0.00
    2   14   17     -0.93      0.00
    3   14   17      2.05      0.00
    4   14   17      0.35      0.00
    5   14   17      1.18      0.00
    6   14   17      2.79      0.00
    7   14   17      0.77      0.00
    0   15   17      3.79      0.00
    1   15   17     -0.61      0.00
    2   15   17     -1.44      0.00
    3   15   17      2.39      0.00
    4   15   17     -0.50      0.00
    5   15   17     -1.40      0.00
    0    0   18      2.60      0.00
    0    1   18     -0.39      0.00
    1    1   18     -2.07      0.00
    0    2   18     -0.15      0.00
    1    2   18     -3.44      0.00
    2    2   18     -3.70      0.00
    0    3   18      1.69      0.00
    1    3   18     -0.10      0.00
    2    3   18     -1.35      0.00
    3    3   18      1.94      0.00
    0    4   18     -0.08      0.00
    1    4   18     -1.86      0.00
    2    4   18     -2.31      0.00
    3    4   18      0.17      0.00
    4    4   18      0.50      0.00
    0    5   18      1.31      0.00
    1    5   18     -0.84      0.00
    2    5   18     -1.96      0.00
    3    5   18      1.03      0.00
    4    5   18      1.18      0.00
    5    5   18     -0.29      0.00
    0    6   18      2.87      0.00
    1    6   18      0.24      0.00
    2    6   18      0.40      0.00
    3    6   18      0.91      0.00
    4    6   18      1.28      0.00
    5    6   18     -0.82      0.00
    6    6   18      0.76      0.00
    0    7   18      2.06      0.00
    1    7   18     -0.77      0.00
    2    7   18     -0.79      0.00
    3    7   18      1.58      0.00
    4    7   18      0.62      0.00
    5    7   18      0.61      0.00
    6    7   18      1.61      0.00
    7    7   18      1.39      0.00
    0    8   18      0.33      0.00
    1    8   18     -1.54      0.00
    2    8   18     -2.24      0.00
    3    8   18      0.79      0.00
    4    8   18      0.62      0.00
    5    8   18      0.22      0.00
    6    8   18      1.21      0.00
    7    8   18      0.35      0.00
    8    8   18     -0.03      0.00
    0    9   18      2.04      0.00
    1    9   18     -0.52      0.00
    2    9   18     -1.21      0.00
    3    9   18      0.27      0.00
    4    9   18     -0.28      0.00
    5    9   18     -0.99      0.00
    6    9   18      0.75      0.00
    7    9   18      0.11      0.00
    8    9   18     -0.68      0.00
    9    9   18      0.05      0.00
    0   10   18      3.35      0.00
    1   10   18     -0.72      0.00
    2   10   18     -1.16      0.00
    3   10   18      0.30      0.00
    4   10   18      1.00      0.00
    5   10   18     -0.59      0.00
    6   10   18      0.36      0.00
    7   10   18     -0.75      0.00
    8   10   18     -0.84      0.00
    9   10   18     -0.41      0.00
   10   10   18      0.39      0.00
    0   11   18      0.77      0.00
    1   11   18     -1.66      0.00
    2   11   18     -3.24      0.00
    3   11   18     -0.09      0.00
    4   11   18     -0.12      0.00
    5   11   18     -2.00      0.00
    6   11   18     -1.12      0.00
    7   11   18     -1.39      0.00
    8   11   18     -1.50      0.00
    9   11   18     -0.39      0.00
    0   12   18      0.38      0.00
    1   12   18     -2.61      0.00
    2   12   18     -3.88      0.00
    3   12   18     -1.40      0.00
    4   12   18     -0.96      0.00
    5   12   18     -1.51      0.00
    6   12   18     -0.61      0.00
    7   12   18     -1.03      0.00
    8   12   18     -0.86      0.00
    0   13   18      1.67      0.00
    1   13   18     -2.13      0.00
    2   13   18     -2.86      0.00
    3   13   18      0.28      0.00
    4   13   18      0.69      0.00
    5   13   18      0.30      0.00
    6   13   18      3.01      0.00
    0   14   18      3.58      0.00
    1   14   18     -0.97      0.00
    2   14   18     -2.97      0.00
    3   14   18      1.18      0.00
    4   14   18      0.61      0.00
    0    0   19      2.78      0.00
    0    1   19      3.06      0.00
    1    1   19      0.04      0.00
    0    2   19      0.09      0.00
    1    2   19      1.36      0.00
    2    2   19      0.62      0.00
    0    3   19      4.19      0.00
    1    3   19      1.50      0.00
    2    3   19      2.70      0.00
    3    3   19      5.35      0.00
    0    4   19      1.50      0.00
    1    4   19      0.22      0.00
    2    4   19      0.75      0.00
    3    4   19      2.27      0.00
    4    4   19      1.54      0.00
    0    5   19      0.59      0.00
    1    5   19     -1.16      0.00
    2    5   19     -1.68      0.00
    3    5   19      0.77      0.00
    4    5   19     -0.62      0.00
    5    5   19     -2.91      0.00
    0    6   19      1.12      0.00
    1    6   19      0.02      0.00
    2    6   19      0.92      0.00
    3    6   19      1.79      0.00
    4    6   19      0.42      0.00
    5    6   19     -1.58      0.00
    6    6   19     -1.09      0.00
    0    7   19     -0.64      0.00
    1    7   19     -0.35      0.00
    2    7   19      0.20      0.00
    3    7   19      2.24      0.00
    4    7   19     -0.20      0.00
    5    7   19     -1.11      0.00
    6    7   19      0.43      0.00
    7    7   19      1.71      0.00
    0    8   19      0.10      0.00
    1    8   19     -0.28      0.00
    2    8   19     -0.65      0.00
    3    8   19      2.11      0.00
    4    8   19      1.15      0.00
    5    8   19     -0.21      0.00
    6    8   19      1.02      0.00
    7    8   19      1.43      0.00
    8    8   19      0.88      0.00
    0    9   19      2.64      0.00
    1    9   19      1.75      0.00
    2    9   19      1.84      0.00
    3    9   19      3.69      0.00
    4    9   19      1.39      0.00
    5    9   19      1.14      0.00
    6    9   19      2.01      0.00
    7    9   19      1.66      0.00
    8    9   19      0.85      0.00
    9    9   19      1.66      0.00
    0   10   19      3.43      0.00
    1   10   19      1.47      0.00
    2   10   19      0.40      0.00
    3   10   19      3.37      0.00
    4   10   19      0.45      0.00
    5   10   19     -0.43      0.00
    6   10   19      1.55      0.00
    7   10   19      0.60      0.00
    8   10   19      0.15      0.00
    0   11   19      1.90      0.00
    1   11   19     -0.25      0.00
    2   11   19     -0.90      0.00
    3   11   19      2.12      0.00
    4   11   19      0.59      0.00
    5   11   19     -0.32      0.00
    6   11   19      0.67      0.00
    7   11   19      1.08      0.00
    0   12   19      1.73      0.00
    1   12   19     -1.18      0.00
    2   12   19     -0.59      0.00
    3   12   19      1.71      0.00
    4   12   19      1.38      0.00
    5   12   19      0.41      0.00
    0   13   19      4.39      0.00
    1   13   19      0.09      0.00
    2   13   19     -2.10      0.00
    3   13   19      3.62      0.00
    0    0   20      5.15      0.00
    0    1   20     -0.14      0.00
    1    1   20     -0.48      0.00
    0    2   20      0.62      0.00
    1    2   20     -1.90      0.00
    2    2   20      0.07      0.00
    0    3   20      0.36      0.00
    1    3   20     -1.26      0.00
    2    3   20      1.06      0.00
    3    3   20     -0.40      0.00
    0    4   20     -1.37      0.00
    1    4   20     -1.76      0.00
    2    4   20     -2.18      0.00
    3    4   20      1.62      0.00
    4    4   20     -1.10      0.00
    0    5   20     -1.22      0.00
    1    5   20     -2.38      0.00
    2    5   20     -2.39      0.00
    3    5   20     -0.90      0.00
    4    5   20     -2.32      0.00
    5    5   20     -2.94      0.00
    0    6   20     -0.19      0.00
    1    6   20     -0.94      0.00
    2    6   20     -0.96      0.00
    3    6   20      0.46      0.00
    4    6   20     -1.56      0.00
    5    6   20     -2.40      0.00
    6    6   20     -2.10      0.00
    0    7   20     -1.77      0.00
    1    7   20     -3.19      0.00
    2    7   20     -2.59      0.00
    3    7   20      1.06      0.00
    4    7   20     -1.06      0.00
    5    7   20     -2.27      0.00
    6    7   20     -1.36      0.00
    7    7   20     -0.81      0.00
    0    8   20     -1.76      0.00
    1    8   20     -3.07      0.00
    2    8   20      1.62      0.00
    3    8   20     -0.16      0.00
    4    8   20     -0.97      0.00
    5    8   20     -1.98      0.00
    6    8   20      0.44      0.00
    7    8   20     -0.00      0.00
    8    8   20      0.76      0.00
    0    9   20      1.94      0.00
    1    9   20      0.07      0.00
    2    9   20     -1.17      0.00
    3    9   20      1.92      0.00
    4    9   20     -0.79      0.00
    5    9   20     -1.16      0.00
    6    9   20      0.97      0.00
    7    9   20      0.04      0.00
    0   10   20      1.27      0.00
    1   10   20     -0.64      0.00
    2   10   20      0.13      0.00
    3   10   20      2.87      0.00
    4   10   20     -1.11      0.00
    5   10   20     -0.53      0.00
    6   10   20      0.91      0.00
    0   11   20      0.23      0.00
    1   11   20     -1.70      0.00
    2   11   20     -0.78      0.00
    3   11   20      0.35      0.00
    4   11   20     -0.43      0.00
    0    0   21      4.63      0.00
    0    1   21      3.06      0.00
    1    1   21      1.70      0.00
    0    2   21      0.57      0.00
    1    2   21     -0.18      0.00
    2    2   21     -2.31      0.00
    0    3   21     -0.74      0.00
    1    3   21     -0.63      0.00
    2    3   21     -0.28      0.00
    3    3   21      1.49      0.00
    0    4   21     -1.57      0.00
    1    4   21     -2.23      0.00
    2    4   21     -2.70      0.00
    3    4   21     -1.29      0.00
    4    4   21     -1.78      0.00
    0    5   21      2.28      0.00
    1    5   21      0.37      0.00
    2    5   21     -0.55      0.00
    3    5   21      0.09      0.00
    4    5   21     -0.23      0.00
    5    5   21     -0.31      0.00
    0    6   21      1.47      0.00
    1    6   21      0.22      0.00
    2    6   21     -0.14      0.00
    3    6   21      0.63      0.00
    4    6   21     -0.07      0.00
    5    6   21     -0.39      0.00
    6    6   21     -0.04      0.00
    0    7   21     -0.93      0.00
    1    7   21     -1.24      0.00
    2    7   21     -0.95      0.00
    3    7   21      0.89      0.00
    4    7   21     -0.61      0.00
    5    7   21     -1.79      0.00
    6    7   21     -0.04      0.00
    7    7   21     -0.66      0.00
    0    8   21     -1.65      0.00
    1    8   21     -2.83      0.00
    2    8   21     -2.17      0.00
    3    8   21     -0.88      0.00
    4    8   21     -1.97      0.00
    5    8   21     -2.20      0.00
    0    9   21     -0.82      0.00
    1    9   21     -1.86      0.00
    2    9   21      0.37      0.00
    3    9   21     -0.62      0.00
    4    9   21     -1.13      0.00
    0    0   22      6.96      0.00
    0    1   22      4.14      0.00
    1    1   22      3.76      0.00
    0    2   22      1.68      0.00
    1    2   22      2.05      0.00
    2    2   22      2.52      0.00
    0    3   22     -0.50      0.00
    1    3   22     -0.24      0.00
    2    3   22      0.98      0.00
    3    3   22     -0.44      0.00
    0    4   22      2.11      0.00
    1    4   22      0.85      0.00
    2    4   22      0.35      0.00
    3    4   22     -0.81      0.00
    4    4   22      1.14      0.00
    0    5   22      3.18      0.00
    1    5   22      1.84      0.00
    2    5   22      0.92      0.00
    3    5   22      0.11      0.00
    4    5   22      1.34      0.00
    5    5   22     -0.01      0.00
    0    6   22      5.85      0.00
    1    6   22      4.22      0.00
    2    6   22      2.91      0.00
    3    6   22      2.66      0.00
    4    6   22      2.17      0.00
    0    7   22      1.82      0.00
    1    7   22      0.92      0.00
    2    7   22      2.16      0.00
    0    0   23      1.11      0.00
    0    1   23     -0.79      0.00
    1    1   23     -0.63      0.00
    0    2   23     -0.45      0.00
    1    2   23      0.11      0.00
    2    2   23     -0.39      0.00
    0    3   23     -1.81      0.00
    1    3   23     -1.42      0.00
    0    0    1     82.65      0.00
   11   14   15     -1.41      0.00
   12   12   16      3.66      0.00
   11   13   16     -1.07      0.00
    8   15   16     -0.60      0.00
    0   16   17      0.73      0.00
    1   16   17      1.45      0.00
   10   11   18     -1.79      0.00
    7   13   18      0.73      0.00
    5   14   18     -1.09      0.00
    9   10   19      2.15      0.00
    8   11   19      0.02      0.00
    6   12   19      1.94      0.00
    4   13   19     -0.07      0.00
    8    9   20      0.00      0.00
    5   11   20     -0.64      0.00
    0   12   20      2.22      0.00
    1   12   20      0.00      0.00
    6    8   21     -0.73      0.00
    5    9   21     -1.48      0.00
    0   10   21     -1.23      0.00
    1   10   21     -1.34      0.00
    2   10   21     -1.66      0.00
    5    6   22      2.24      0.00
    3    7   22      0.62      0.00
    2    3   23     -0.40      0.00
    3    3   23      1.07      0.00
    0    4   23     -2.00      0.00
    1    4   23     -2.18      0.00
    0    0    0      0.00      0.00
# SQUEEZE RESULTS (Version =  11015)
# Note: Data are Listed for all Voids in the P1 Unit Cell
# i.e. Centre of Gravity, Solvent Accessible Volume,
# Recovered number of Electrons in the Void and
# Details about the Squeezed Material
loop_
  _platon_squeeze_void_nr
  _platon_squeeze_void_average_x
  _platon_squeeze_void_average_y
  _platon_squeeze_void_average_z
  _platon_squeeze_void_volume
  _platon_squeeze_void_count_electrons
  _platon_squeeze_void_content
   1 -0.000 -0.000 -0.000       892       247 ' '
   2 -0.021  0.482  0.486      2797       172 ' '
# Missing Reflections Below sin(th)/lambda = 0.25
loop_
  _platon_missing_refln_index_h
  _platon_missing_refln_index_k
  _platon_missing_refln_index_l
  _platon_missing_refln_theta
    0    0    1     1.095
_platon_squeeze_void_probe_radius                  1.20
_platon_squeeze_details
)
TITL djx045_0m P m -3 m     R = 0.13
CELL   18.6011   18.6011   18.6011     90.00     90.00     90.00
SPGR Pm-3m
# Solvent Accessible Volume =    3696.9
# Electrons Found in S.A.V. =     411.7
# Note: Atoms in Void as Cxxx and Qxxx all others
C101 1.000 0.312-0.003 !       6.23 eA-3
C102 0.228 1.000 0.000 !       6.04 eA-3
Q103 0.362 1.000-0.000 !       2.04 eA-3
C104 1.000 0.793 0.075 !       1.81 eA-3
Q105 1.000 0.453-0.000 !       1.46 eA-3
Q106 1.000 0.336 0.336 !       1.36 eA-3
Q107 0.532 0.281-0.006 !       1.27 eA-3
C108 0.500 0.500 0.500 !       0.95 eA-3
C109 0.500 1.000 0.500 !       0.85 eA-3
Q110 0.131 0.500 0.000 !       0.79 eA-3
C111 0.907 0.141 0.007 !       0.78 eA-3
C112 1.000 0.833 0.167 !       0.70 eA-3
C113 0.153 1.000 0.000 !       0.69 eA-3
C114 0.717 0.938 0.024 !       0.67 eA-3
C115 0.252 0.491 0.266 !       0.62 eA-3
Q116 0.500 0.047-0.006 !       0.62 eA-3
Q117 0.320 0.065 0.065 !       0.61 eA-3
Q118 0.151 0.323 0.157 !       0.57 eA-3
Q119 0.031 0.953 0.476 !       0.53 eA-3
Q120 0.410 0.076 0.119 !       0.52 eA-3
)
;
_shelx_shelxl_version_number     2014/7
_olex2_submission_special_instructions 'No special instructions were received'
loop_
_space_group_symop_operation_xyz
'x, y, z'
'-y, x, z'
'-x, -y, z'
'y, -x, z'
'x, -z, y'
'x, -y, -z'
'x, z, -y'
'z, y, -x'
'-x, y, -z'
'-z, y, x'
'z, x, y'
'y, z, x'
'-y, -z, x'
'z, -x, -y'
'-y, z, -x'
'-z, -x, y'
'-z, x, -y'
'y, -z, -x'
'y, x, -z'
'-y, -x, -z'
'-x, z, y'
'-x, -z, -y'
'z, -y, x'
'-z, -y, -x'
'-x, -y, -z'
'y, -x, -z'
'x, y, -z'
'-y, x, -z'
'-x, z, -y'
'-x, y, z'
'-x, -z, y'
'-z, -y, x'
'x, -y, z'
'z, -y, -x'
'-z, -x, -y'
'-y, -z, -x'
'y, z, -x'
'-z, x, y'
'y, -z, x'
'z, x, -y'
'z, -x, y'
'-y, z, x'
'-y, -x, z'
'y, x, z'
'x, -z, -y'
'x, z, y'
'-z, y, -x'
'z, y, x'
loop_
_atom_site_label
_atom_site_type_symbol
_atom_site_fract_x
_atom_site_fract_y
_atom_site_fract_z
_atom_site_U_iso_or_equiv
_atom_site_adp_type
_atom_site_occupancy
_atom_site_site_symmetry_order
_atom_site_calc_flag
_atom_site_refinement_flags_posn
_atom_site_refinement_flags_adp
_atom_site_refinement_flags_occupancy
_atom_site_disorder_assembly
_atom_site_disorder_group
Co1 Co 0.13023(5) 0.0000 0.5000 0.0227(3) Uani 1 4 d S T P . .
Cl1 Cl 0.0000 0.0000 0.5000 0.0259(7) Uani 1 16 d S T P . .
O1 O 0.2360(4) 0.0000 0.5000 0.070(2) Uani 0.984 4 d DS TU P . .
O2 O 0.2749(9) 0.0495(10) 0.5000 0.146(7) Uani 0.492 2 d DS TU P . .
N1 N 0.12684(14) 0.07567(14) 0.42716(13) 0.0222(6) Uani 1 1 d . . . . .
C2 C 0.14629(18) 0.14629(18) 0.3356(2) 0.0258(10) Uani 1 2 d S T P . .
C3 C 0.17803(18) 0.17803(18) 0.2706(2) 0.0257(10) Uani 1 2 d S T P . .
C4 C 0.1486(3) 0.23948(18) 0.23948(18) 0.0281(10) Uani 1 2 d S T P . .
H4 H 0.1073 0.2607 0.2607 0.034 Uiso 1 2 calc RS T P A .
Co2 Co 0.2294(9) 0.0000 0.3544(10) 0.028(4) Uani 0.038 2 d S T P A 1
N2 N 0.16982(16) 0.08762(16) 0.37155(15) 0.0291(7) Uani 0.667 1 d . . . A 1
C1 C 0.16982(16) 0.08762(16) 0.37155(15) 0.0291(7) Uani 0.333 1 d . . . A 2
H1 H 0.2106 0.0595 0.3590 0.035 Uiso 0.333 1 calc R . . A 2
loop_
_atom_site_aniso_label
_atom_site_aniso_U_11
_atom_site_aniso_U_22
_atom_site_aniso_U_33
_atom_site_aniso_U_23
_atom_site_aniso_U_13
_atom_site_aniso_U_12
Co1 0.0298(6) 0.0229(5) 0.0155(5) 0.000 0.000 0.000
Cl1 0.0306(10) 0.0306(10) 0.0167(14) 0.000 0.000 0.000
O1 0.065(5) 0.059(4) 0.087(5) 0.000 0.000 0.000
O2 0.107(13) 0.174(16) 0.157(16) 0.000 0.000 -0.061(10)
N1 0.0241(14) 0.0258(13) 0.0166(12) -0.0023(11) 0.0023(10) -0.0003(10)
C2 0.0267(14) 0.0267(14) 0.024(2) -0.0004(13) -0.0004(13) 0.0033(18)
C3 0.0270(14) 0.0270(14) 0.023(2) 0.0061(13) 0.0061(13) 0.0029(19)
C4 0.028(2) 0.0284(15) 0.0284(15) 0.0021(19) 0.0114(14) 0.0114(14)
Co2 0.016(7) 0.022(8) 0.044(10) 0.000 0.022(7) 0.000
N2 0.0306(16) 0.0323(16) 0.0245(15) 0.0004(12) 0.0082(12) 0.0003(13)
C1 0.0306(16) 0.0323(16) 0.0245(15) 0.0004(12) 0.0082(12) 0.0003(13)
loop_
_atom_type_symbol
_atom_type_description
_atom_type_scat_dispersion_real
_atom_type_scat_dispersion_imag
_atom_type_scat_source
C C 0.0033 0.0016 'International Tables Vol C Tables 4.2.6.8 and 6.1.1.4'
H H 0.0000 0.0000 'International Tables Vol C Tables 4.2.6.8 and 6.1.1.4'
Cl Cl 0.1484 0.1585 'International Tables Vol C Tables 4.2.6.8 and 6.1.1.4'
Co Co 0.3494 0.9721 'International Tables Vol C Tables 4.2.6.8 and 6.1.1.4'
N N 0.0061 0.0033 'International Tables Vol C Tables 4.2.6.8 and 6.1.1.4'
O O 0.0106 0.0060 'International Tables Vol C Tables 4.2.6.8 and 6.1.1.4'
loop_
_geom_angle_atom_site_label_1
_geom_angle_atom_site_label_2
_geom_angle_atom_site_label_3
_geom_angle
_geom_angle_site_symmetry_1
_geom_angle_site_symmetry_3
O1 Co1 Cl1 180.0 . .
N1 Co1 Cl1 88.15(8) 27_556 .
N1 Co1 Cl1 88.15(8) 33 .
N1 Co1 Cl1 88.15(8) . .
N1 Co1 Cl1 88.15(8) 6_556 .
N1 Co1 O1 91.85(8) 33 .
N1 Co1 O1 91.85(8) . .
N1 Co1 O1 91.85(8) 27_556 .
N1 Co1 O1 91.85(8) 6_556 .
N1 Co1 N1 92.12(14) 33 .
N1 Co1 N1 92.12(14) 27_556 6_556
N1 Co1 N1 87.76(14) 33 6_556
N1 Co1 N1 176.30(16) 6_556 .
N1 Co1 N1 176.30(16) 33 27_556
N1 Co1 N1 87.76(14) 27_556 .
Co1 Cl1 Co1 90.0 . 26_556
Co1 Cl1 Co1 90.0 . 2
Co1 Cl1 Co1 90.0 26_556 25_556
Co1 Cl1 Co1 90.0 25_556 2
Co1 Cl1 Co1 180.0 26_556 2
Co1 Cl1 Co1 180.0 . 25_556
O2 O1 Co1 128.2(11) . .
O2 O1 Co1 128.2(11) 6_556 .
O2 O1 O2 104(2) . 6_556
N1 N1 Co1 122.14(8) 44 .
N2 N1 Co1 129.9(2) . .
N2 N1 N1 107.93(18) . 44
C1 N1 Co1 129.9(2) . .
C1 N1 N1 107.93(18) . 44
N2 C2 C3 127.0(2) . .
N2 C2 C3 126.9(2) 44 .
N2 C2 N2 106.1(4) . 44
C1 C2 C3 126.9(2) 44 .
C1 C2 C3 127.0(2) . .
C1 C2 C1 106.1(4) . 44
C4 C3 C2 120.9(2) 11 .
C4 C3 C2 120.9(2) . .
C4 C3 C4 118.1(4) 11 .
C3 C4 C3 121.8(4) 12 .
C3 C4 H4 119.1 12 .
C3 C4 H4 119.1 . .
N2 Co2 N2 109.4(7) 33 .
N1 N2 C2 109.0(3) . .
N1 N2 Co2 108.8(4) . .
C2 N2 Co2 139.4(5) . .
N1 C1 C2 109.0(3) . .
N1 C1 H1 125.5 . .
C2 C1 H1 125.5 . .
loop_
_geom_bond_atom_site_label_1
_geom_bond_atom_site_label_2
_geom_bond_distance
_geom_bond_site_symmetry_2
Co1 Cl1 2.4224(9) .
Co1 O1 1.967(8) .
Co1 N1 1.955(3) .
Co1 N1 1.955(3) 27_556
Co1 N1 1.955(3) 6_556
Co1 N1 1.955(3) 33
Cl1 Co1 2.4225(9) 25_556
Cl1 Co1 2.4225(9) 2
Cl1 Co1 2.4225(9) 26_556
O1 O2 1.172(12) .
O1 O2 1.172(12) 6_556
N1 N1 1.346(5) 44
N1 N2 1.326(4) .
N1 C1 1.326(4) .
C2 C3 1.469(6) .
C2 N2 1.353(4) 44
C2 N2 1.353(4) .
C2 C1 1.353(4) .
C2 C1 1.353(4) 44
C3 C4 1.393(3) 11
C3 C4 1.393(3) .
C4 C3 1.393(3) 12
C4 H4 0.9500 .
Co2 N2 1.996(9) 33
Co2 N2 1.996(9) .
C1 H1 0.9500 .
loop_
_geom_torsion_atom_site_label_1
_geom_torsion_atom_site_label_2
_geom_torsion_atom_site_label_3
_geom_torsion_atom_site_label_4
_geom_torsion
_geom_torsion_site_symmetry_1
_geom_torsion_site_symmetry_4
Co1 N1 N2 C2 179.7(3) . .
Co1 N1 N2 Co2 14.7(6) . .
Co1 N1 C1 C2 179.7(3) . .
N1 N1 N2 C2 -0.2(3) 44 .
N1 N1 N2 Co2 -165.1(6) 44 .
N1 N1 C1 C2 -0.2(3) 44 .
C2 C3 C4 C3 179.8(3) . 12
C3 C2 N2 N1 -179.7(4) . .
C3 C2 N2 Co2 -21.9(10) . .
C3 C2 C1 N1 -179.7(4) . .
C4 C3 C4 C3 1.4(10) 11 12
N2 C2 C3 C4 0.8(7) 44 .
N2 C2 C3 C4 -179.2(5) . .
N2 C2 C3 C4 -0.8(7) . 11
N2 C2 C3 C4 179.2(5) 44 11
N2 C2 N2 N1 0.3(5) 44 .
N2 C2 N2 Co2 158.1(7) 44 .
C1 C2 C3 C4 179.2(5) 44 11
C1 C2 C3 C4 -179.2(5) . .
C1 C2 C3 C4 0.8(7) 44 .
C1 C2 C3 C4 -0.8(7) . 11
C1 C2 C1 N1 0.3(5) 44 .
