#------------------------------------------------------------------------------
#$Date: 2019-11-25 22:30:06 +0200 (Mon, 25 Nov 2019) $
#$Revision: 241967 $
#$URL: file:///home/coder/svn-repositories/cod/cif/4/13/18/4131845.cif $
#------------------------------------------------------------------------------
#
# This file is available in the Crystallography Open Database (COD),
# http://www.crystallography.net/
#
# All data on this site have been placed in the public domain by the
# contributors.
#
data_4131845
loop_
_publ_author_name
'Yan, Yong'
'O'Connor, Alice E'
'Kanthasamy, Gopikkaa'
'Atkinson, George'
'Allan, David R.'
'Blake, Alexander J.'
'Schr\"oder, Martin'
_publ_section_title
;
 Unusual and Tunable Negative Linear Compressibility in the Metal-Organic
 Framework MFM-133(M) (M = Zr, Hf).
;
_journal_issue                   11
_journal_name_full               'Journal of the American Chemical Society'
_journal_page_first              3952
_journal_page_last               3958
_journal_paper_doi               10.1021/jacs.7b11747
_journal_volume                  140
_journal_year                    2018
_chemical_formula_moiety         'C88 H72 Hf6 O32'
_chemical_formula_sum            'C88 H72 Hf6 O32'
_chemical_formula_weight         2708.36
_space_group_crystal_system      tetragonal
_space_group_IT_number           128
_space_group_name_Hall           '-P 4 2n'
_space_group_name_H-M_alt        'P 4/m n c'
_atom_sites_solution_hydrogens   geom
_audit_creation_date             2017-02-05
_audit_creation_method
;
Olex2 1.2
(compiled 2015.09.30 svn.r3233 for OlexSys, GUI svn.r5103)
;
_cell_angle_alpha                90
_cell_angle_beta                 90
_cell_angle_gamma                90
_cell_formula_units_Z            2
_cell_length_a                   18.9320(12)
_cell_length_b                   18.9320(12)
_cell_length_c                   33.138(2)
_cell_measurement_reflns_used    3204
_cell_measurement_temperature    293(2)
_cell_measurement_theta_max      22.0640
_cell_measurement_theta_min      1.8990
_cell_volume                     11877.3(13)
_computing_cell_refinement       'CrysAlisPro 1.171.38.41 (Rigaku OD, 2015)'
_computing_data_collection       'CrysAlisPro 1.171.38.41 (Rigaku OD, 2015)'
_computing_data_reduction        'CrysAlisPro 1.171.38.41 (Rigaku OD, 2015)'
_computing_molecular_graphics    'Olex2 (Dolomanov et al., 2009)'
_computing_publication_material  'Olex2 (Dolomanov et al., 2009)'
_computing_structure_refinement  'ShelXL (Sheldrick, 2015)'
_diffrn_ambient_temperature      293(2)
_diffrn_detector                 'CCD plate'
_diffrn_measured_fraction_theta_full 0.752
_diffrn_measured_fraction_theta_max 0.752
_diffrn_measurement_details
;
List of Runs (angles in degrees, time in seconds):

  # Type    Start    End  Width  t~exp~   \w     \q     \k     \f   Frames
--------------------------------------------------------------------------
  1  \w   -105.00 -74.00   0.20    0.20    --   20.00  70.00 155.77  155
  2  \w   -105.00 -74.00   0.20    0.20    --   20.00  70.00 -24.23  155
  3  \w   -104.80 -66.00   0.20    0.20    --  -20.00 -70.00-155.77  194
  4  \w   -105.40 -66.00   0.20    0.20    --  -20.00 -70.00  24.23  197
  5  \w   -150.00 -94.00   0.20    0.20    --  -20.00  70.00 -24.23  280
  6  \w   -150.00 -94.00   0.20    0.20    --  -20.00  70.00 155.77  280
  7  \w    -96.00 -30.00   0.20    0.20    --   20.00 -70.00  24.23  330
  8  \w    -96.00 -30.00   0.20    0.20    --   20.00 -70.00-155.77  330
;
_diffrn_measurement_device       'abstract diffractometer'
_diffrn_measurement_device_type
'dectris-CrysAlisPro-abstract goniometer imported dectris images'
_diffrn_measurement_method       '\w scans'
_diffrn_orient_matrix_type
'CrysAlisPro convention (1999,Acta A55,543-557)'
_diffrn_orient_matrix_UB_11      -0.0334837000
_diffrn_orient_matrix_UB_12      -0.0064154000
_diffrn_orient_matrix_UB_13      -0.0073491000
_diffrn_orient_matrix_UB_21      0.0125521000
_diffrn_orient_matrix_UB_22      0.0027159000
_diffrn_orient_matrix_UB_23      -0.0194397000
_diffrn_orient_matrix_UB_31      0.0069590000
_diffrn_orient_matrix_UB_32      -0.0356826000
_diffrn_orient_matrix_UB_33      -0.0001645000
_diffrn_radiation_monochromator  synchrotron
_diffrn_radiation_probe          x-ray
_diffrn_radiation_wavelength     0.6889
_diffrn_reflns_av_R_equivalents  0.1807
_diffrn_reflns_av_unetI/netI     0.1295
_diffrn_reflns_Laue_measured_fraction_full 0.752
_diffrn_reflns_Laue_measured_fraction_max 0.752
_diffrn_reflns_limit_h_max       12
_diffrn_reflns_limit_h_min       -12
_diffrn_reflns_limit_k_max       20
_diffrn_reflns_limit_k_min       -20
_diffrn_reflns_limit_l_max       32
_diffrn_reflns_limit_l_min       -32
_diffrn_reflns_number            24489
_diffrn_reflns_point_group_measured_fraction_full 0.752
_diffrn_reflns_point_group_measured_fraction_max 0.752
_diffrn_reflns_theta_full        22.730
_diffrn_reflns_theta_max         22.730
_diffrn_reflns_theta_min         1.896
_diffrn_source                   synchrotron
_exptl_absorpt_coefficient_mu    2.403
_exptl_absorpt_correction_T_max  1.00000
_exptl_absorpt_correction_T_min  0.51393
_exptl_absorpt_correction_type   multi-scan
_exptl_absorpt_process_details
;
CrysAlisPro 1.171.38.41 (Rigaku Oxford Diffraction, 2015)
Empirical absorption correction using spherical harmonics,
 implemented in SCALE3 ABSPACK scaling algorithm.
;
_exptl_crystal_density_diffrn    0.757
_exptl_crystal_F_000             2568
_refine_diff_density_max         2.652
_refine_diff_density_min         -1.073
_refine_diff_density_rms         0.248
_refine_ls_extinction_coef       0.0018(4)
_refine_ls_extinction_expression Fc^*^=kFc[1+0.001xFc^2^\l^3^/sin(2\q)]^-1/4^
_refine_ls_extinction_method     'SHELXL-2014/7 (Sheldrick 2014'
_refine_ls_goodness_of_fit_ref   1.295
_refine_ls_hydrogen_treatment    constr
_refine_ls_matrix_type           full
_refine_ls_number_parameters     75
_refine_ls_number_reflns         3383
_refine_ls_number_restraints     73
_refine_ls_restrained_S_all      3.428
_refine_ls_R_factor_all          0.1961
_refine_ls_R_factor_gt           0.1269
_refine_ls_shift/su_max          0.462
_refine_ls_shift/su_mean         0.057
_refine_ls_structure_factor_coef Fsqd
_refine_ls_weighting_details
'w=1/[\s^2^(Fo^2^)+(0.2000P)^2^] where P=(Fo^2^+2Fc^2^)/3'
_refine_ls_weighting_scheme      calc
_refine_ls_wR_factor_gt          0.3382
_refine_ls_wR_factor_ref         0.3995
_reflns_Friedel_coverage         0.000
_reflns_number_gt                1829
_reflns_number_total             3383
_reflns_threshold_expression     'I > 2\s(I)'
_cod_data_source_file            HfMOF_All.cif
_cod_data_source_block           HfMOF_33.0kbar
_cod_original_cell_volume        11877.2(17)
_cod_database_code               4131845
_chemical_oxdiff_formula         'C88 H72 Hf6 O32'
_shelx_space_group_comment
;
The symmetry employed for this shelxl refinement is uniquely defined
by the following loop, which should always be used as a source of
symmetry information in preference to the above space-group names.
They are only intended as comments.
;
_reflns_odcompleteness_completeness 74.69
_reflns_odcompleteness_iscentric 1
_reflns_odcompleteness_theta     22.73
_olex2_refinement_description
;
1. Fixed Uiso
 At 1.2 times of:
  All C(H) groups
 At 1.5 times of:
  All C(H,H,H) groups
2. Restrained distances
 O13-C12
 1.41 with sigma of 0.01
 C12-O1
 1.41 with sigma of 0.01
 C6-C12 = C9-C3
 1.41 with sigma of 0.02
 C6-C12 = C9-C3
 1.41 with sigma of 0.01
 C9-C3 = C6-C12
 1.41 with sigma of 0.01
 Hf1-O13 = Hf2-O1
 2.11 with sigma of 0.02
 O1-C12 = O13-C12
 1.41 with sigma of 0.02
 C9-C15 = C9-C10
 1.41 with sigma of 0.02
 C10-C11 = C16-C17
 1.45 with sigma of 0.005
 C4-C5 = C7-C8
 1.39 with sigma of 0.01
 C6-C12 \\sim C9-C3
 with sigma of 0.01
 C9-C3 \\sim C6-C12
 with sigma of 0.01
 C11-C10 \\sim C16-C15 \\sim C17-C15
 with sigma of 0.01
 C9-C17 \\sim C15-C17 \\sim C9-C11 \\sim C11-C9D
 with sigma of 0.005
 C3-C7 \\sim C8-C6 \\sim C7-C5 \\sim C6-C4 \\sim C5-C3 \\sim C4-C8
 with sigma of 0.01
3. Restrained planarity
 C12, C6, C5, C4, C3, C9, C8, C7
 with sigma of 0.01
 C9, C3, C8, C7, C6, C12, C5, C4
 with sigma of 0.01
 C9, C3, C8, C4
 with sigma of 0.01
 C17, C15, C16, C10, C9, C11
 with sigma of 0.01
4. Rigid bond restraints
 C6, Hf2, Hf1, C8, C3, C5, C4, C7, C9, C10, C11, C12, C15, C16, C17, O1, O4,
 O13, O19, O20
 with sigma for 1-2 distances of 0.01 and sigma for 1-3 distances of 0.01
5. Uiso/Uaniso restraints and constraints
C6 \\sim Hf2 \\sim Hf1 \\sim C8 \\sim C3 \\sim C5 \\sim C4 \\sim C7 \\sim C9
\\sim C10 \\sim C11 \\sim C12 \\sim C15 \\sim C16 \\sim C17 \\sim O1 \\sim O4
\\sim O13 \\sim O19 \\sim O20: within 1.7A with sigma of 0.04 and sigma for
terminal atoms of 0.08
6. Others
 Fixed Sof: C16(0.5) C15(0.5) C15D(0.00001) C9D(0.00001) H11A(0.5) H11B(0.5)
 H11C(0.5)
 Fixed Uiso: C15D(0.05) C9D(0.05)
7.a Aromatic/amide H refined with riding coordinates:
 C4(H4), C5(H5), C7(H7), C8(H8)
7.b Fitted hexagon refined as free rotating group:
 C9(C16,C15,C15D,C9D,C10)
7.c Idealised Me refined as rotating group:
 C11(H11A,H11B,H11C), C17(H,HA,HB)
;
_shelx_res_file
;
    gkme_30.1_.res created by SHELXL-2014/7

TITL GKME_30 in P4/mnc
REM P4/mnc (#128 in standard setting)
CELL 0.6889 18.931995 18.931995 33.137682 90 90 90
ZERR 2 0.001167 0.001167 0.002404 0 0 0
LATT 1
SYMM -X,-Y,+Z
SYMM -Y,+X,+Z
SYMM +Y,-X,+Z
SYMM 0.5-X,0.5+Y,0.5-Z
SYMM 0.5+X,0.5-Y,0.5-Z
SYMM 0.5+Y,0.5+X,0.5-Z
SYMM 0.5-Y,0.5-X,0.5-Z
SFAC C H Hf O
DISP C 0.003 0.001 10.848
DISP H -0 0 0.623
DISP Hf -0.293 6.108 23452.874
DISP O 0.011 0.006 30.192
UNIT 176 136 12 64
DFIX 1.41 0.01 O13 C12
DFIX 1.41 0.01 C12 O1
DFIX 1.41 C6 C12 C9 C3
DFIX 1.41 0.01 C6 C12 C9 C3
DFIX 1.41 0.01 C9 C3 C6 C12
DFIX 2.11 Hf1 O13 Hf2 O1
DFIX 1.41 O1 C12 O13 C12
DFIX 1.41 C9 C15 C9 C10
DFIX 1.45 0.005 C10 C11 C16 C17
DFIX 1.39 0.01 C4 C5 C7 C8
SADI 0.01 C6 C12 C9 C3
SADI 0.01 C9 C3 C6 C12
SADI 0.01 C11 C10 C16 C15 C17 C15
SADI 0.005 C9 C17 C15 C17 C9 C11 C11 C9D
SADI 0.01 C3 C7 C8 C6 C7 C5 C6 C4 C5 C3 C4 C8
FLAT 0.01 C12 C6 C5 C4 C3 C9 C8 C7
FLAT 0.01 C9 C3 C8 C7 C6 C12 C5 C4
FLAT 0.01 C9 C3 C8 C4
FLAT 0.01 C17 C15 C16 C10 C9 C11
DELU C6 Hf2 Hf1 C8 C3 C5 C4 C7 C9 C10 C11 C12 C15 C16 C17 O1 O4 O13 O19 O20
SIMU 0.04 0.08 1.7 C6 Hf2 Hf1 C8 C3 C5 C4 C7 C9 C10 C11 C12 C15 C16 C17 O1 =
 O4 O13 O19 O20

L.S. 6
PLAN  9
MPLA 6 C3 C4 C5 C6 C7 C8
MPLA 4 C9 C10 C15 C16
CONN 0 C9D
BIND C16 C17
CONN 0 C15D
CONN 1 0 C17
FREE C17 C15D
FREE C17 C15
BIND Hf1 Hf2
BOND
MORE -1
BOND $H
CONF
fmap 2
acta 52
OMIT -4 52
OMIT 1 2 6
OMIT 1 2 10
OMIT 3 5 2
OMIT 1 7 4
OMIT 2 3 13
OMIT 1 3 7
OMIT 1 2 8
OMIT 1 2 2
OMIT 2 3 0
OMIT 0 3 3
OMIT 2 3 1
OMIT 2 4 5
OMIT 1 2 0
OMIT 1 3 3
REM <olex2.extras>
REM <HklSrc "%.\\GKME_30.1_.hkl">
REM </olex2.extras>

WGHT    0.200000
EXTI    0.001761
FVAR       0.28184
HF1   3   -0.046045    0.123224    0.000000    10.50000    0.09734    0.07793 =
         0.05062    0.00000    0.00000    0.00782
HF2   3    0.000000    0.000000    0.073323    10.25000    0.07991    0.07991 =
         0.04340    0.00000    0.00000    0.00000
O1    4   -0.030807    0.088956    0.108435    11.00000    0.07862
O4    4   -0.082446    0.038935    0.035601    11.00000    0.07871
O13   4   -0.064657    0.174322    0.057498    11.00000    0.09596
O19   4   -0.149884    0.163002    0.000000    10.50000    0.08098
O20   4    0.010699    0.223106    0.000000    10.50000    0.10594
C3    1   -0.074842    0.311177    0.191493    11.00000    0.09779
C4    1   -0.093738    0.328162    0.148950    11.00000    0.16417
SPEC 0.3
AFIX  43
H4    2   -0.109287    0.372940    0.141584    11.00000   -1.20000
AFIX   0
C5    1   -0.087151    0.274294    0.120751    11.00000    0.14908
AFIX  43
H5    2   -0.098881    0.284768    0.094163    11.00000   -1.20000
AFIX   0
C6    1   -0.064729    0.206837    0.128941    11.00000    0.10943
C7    1   -0.045889    0.189922    0.171566    11.00000    0.12999
AFIX  43
H7    2   -0.030387    0.145141    0.178959    11.00000   -1.20000
AFIX   0
C8    1   -0.052431    0.243630    0.199665    11.00000    0.12378
AFIX  43
H8    2   -0.040698    0.233143    0.226251    11.00000   -1.20000
AFIX  66
C9    1   -0.080277    0.363598    0.221818    11.00000    0.08665
C16   1   -0.027868    0.415010    0.222258    10.50000    0.03167
C15   1   -0.028795    0.470191    0.250264    10.50000    0.05956
C15D  1   -0.082167    0.468841    0.280312    10.00001   10.05000
C9D   1   -0.134576    0.417429    0.279872    10.00001   10.05000
C10   1   -0.133624    0.366183    0.250037    10.50000    0.09016
AFIX   0
C11   1   -0.187623    0.312377    0.250000    10.50000    0.11543
PART -1
AFIX 137
H11A  2   -0.224080    0.324979    0.268804    10.50000   -1.50000
H11B  2   -0.167244    0.267962    0.257735    10.50000   -1.50000
H11C  2   -0.207464    0.308399    0.223437    10.50000   -1.50000
AFIX   0
PART 0
C12   1   -0.059515    0.154991    0.098383    11.00000    0.11358
C17   1    0.027292    0.418613    0.196855    11.00000    0.25613
AFIX 137
H     2    0.035330    0.466940    0.189381    11.00000   -1.50000
HA    2    0.017330    0.391291    0.173122    11.00000   -1.50000
HB    2    0.068644    0.400182    0.209902    11.00000   -1.50000
AFIX   0
HKLF 4

REM  GKME_30 in P4/mnc
REM R1 =  0.1269 for    1829 Fo > 4sig(Fo)  and  0.1961 for all    3383 data
REM     75 parameters refined using     73 restraints

END

WGHT      0.2000      0.0000

REM Highest difference peak  2.652,  deepest hole -1.073,  1-sigma level  0.248
Q1    1   0.0000  0.0000  0.1911  10.25000  0.05    2.43
Q2    1  -0.2048  0.1005  0.0948  11.00000  0.05    1.68
Q3    1  -0.1224  0.0545  0.0000  10.50000  0.05    1.41
Q4    1  -0.0122  0.2907  0.3074  11.00000  0.05    1.37
Q5    1   0.0408  0.4109  0.1897  11.00000  0.05    1.34
Q6    1  -0.0420  0.1198  0.1000  11.00000  0.05    1.19
Q7    1  -0.0676  0.1719  0.0697  11.00000  0.05    1.17
Q8    1  -0.0521  0.0354  0.0208  11.00000  0.05    1.15
Q9    1   0.0424  0.2199  0.0000  10.50000  0.05    1.14
;
_shelx_res_checksum              74383
_shelx_hkl_file
;
   0   0  -4 17411.0 2233.95   6
   0   0  -4 15858.6 2233.18   3
   0   0   4 15768.0 2232.17   4
   0   0   4 18291.1 2234.60   8
   0   0  -5-3.73886 8.93358   7
   0   0   5-3.76185 10.6051   4
   0   0  -5 2.84350 12.4763   3
   0   0   5 10.0534 16.6287   8
   0   0   6 2485.85 298.857   8
   0   0   6 2013.57 294.446   4
   0   0   7-4.79587 27.7916   8
   0   0  -7-2.56865 16.4893   7
   0   0  -8 7947.59 1074.85   7
   0   0   8 7989.36 1079.61   8
   0   0   9-19.1501 41.1882   8
   0   0  -9 3.25240 23.6405   7
   0   0 -10 28426.9 3838.09   7
   0   0  10 28720.2 3844.67   8
   0   0  11-8.14072 62.1887   8
   0   0 -11 31.4013 26.5975   7
   0   0 -12 31605.1 4171.89   7
   0   0  12 29689.0 4180.30   8
   0   0  13 10.0869 75.4896   8
   0   0 -13-22.5030 33.2045   7
   0   0 -15-113.374 60.3650   7
   0   0  16 24263.1 3284.88   8
   0   0  17 14.8600 128.100   8
   0   0 -17 5.88405 44.7230   7
   0   0  18 10433.9 1259.22   8
   0   0 -18 8717.21 1230.98   7
   0   0 -19 26.5209 58.3532   7
   0   0  19-125.217 156.050   8
   0   0 -20 5301.75 712.718   7
   0   0  20 4771.20 747.926   8
   0  -1  -2 14.2049 9.24532   6
   0   1   2 4.48886 4.87799   4
   0  -1   2 5.23487 7.87509   5
   0   1  -2 5.38038 12.6264   3
   0   1  -3 18697.1 2464.74   3
   0  -1   3 13063.7 2463.66   8
  -1   0   3 18327.8 2462.04   1
   0  -1  -3 20743.3 2463.89   6
   0  -1   3 21027.3 2462.58   5
   1   0  -3 20438.9 2462.94   6
   0   1   3 18284.0 2461.35   4
   0  -1  -3 16498.0 2461.29   7
   0  -1  -4-8.17451 10.1610   7
   0  -1   4-19.8107 12.3388   5
   0  -1  -4-3.09381 14.5041   6
   0   1  -4-18.7687 17.2301   3
   0  -1   4-8.57286 20.8886   8
   1   0  -4 3.20087 9.77689   7
   0   1   4 5.54629 9.44252   4
   1   0  -4-2.79910 17.6796   6
   0  -1   5 2781.35 377.571   8
  -1   0   5 2953.94 372.484   5
   1   0  -5 2988.46 371.806   7
   0  -1  -5 2809.77 375.161   6
   0  -1  -5 2195.41 371.804   7
   0   1  -5 2666.49 375.651   3
   0   1   5 2867.47 372.600   4
   1   0  -6-3.68430 23.4289   3
   1   0  -6 27.3795 14.4411   7
   0  -1  -6 12.5986 20.5052   6
   0  -1   6 22.5205 30.8665   8
   0  -1   6 33.7316 17.3980   5
  -1   0   6 4.29060 14.7771   5
  -1   0   6 6.41548 11.4962   4
   0  -1  -6 2.77293 14.7948   7
   0   1  -6 22.9794 22.8490   3
   1   0  -6-10.2003 22.3349   6
   0   1   6-7.99160 14.9800   4
  -1   0   6 27.1671 20.3470   8
   1   0  -7 1893.70 245.532   6
  -1   0   7 1927.03 246.428   8
   0  -1   7 1765.28 243.984   5
   0  -1  -7 1750.46 246.938   6
   1   0  -7 1574.39 245.240   3
   0   1  -7 1920.40 247.867   3
   0  -1  -7 1775.54 243.449   7
   0   1  -7 1627.86 241.314   7
   1   0  -7 1849.24 242.044   7
   0  -1   8-7.17595 22.5218   5
  -1   0   8 9.09006 17.4718   4
  -1   0   8-28.6914 35.4845   8
   0   1  -8-10.8946 29.8341   3
  -1   0   8-18.6901 19.4081   5
   0  -1  -8 26.3853 29.3299   6
   0  -1   8 7.03997 45.4246   8
   0   1  -8-11.7722 16.7486   7
   0  -1  -8 31.3248 20.9608   7
   0   1   8-3.57230 23.1751   4
   1   0  -8-9.01720 27.1508   3
   1   0  -8-5.02304 17.9443   7
   1   0  -8-4.05588 27.8084   6
  -1   0   9 8048.88 1122.31   8
   1   0  -9 9005.58 1117.47   7
   0   1  -9 8309.13 1122.58   3
   0  -1   9 8109.66 1119.31   5
   0  -1  -9 8346.69 1122.92   6
   0  -1  -9 8042.88 1118.82   7
   1   0  -9 8566.33 1120.26   6
   0  -1   9 7444.15 1126.13   8
   0   1  -9 8607.89 1117.08   7
   0   1   9 7487.71 1119.20   4
   1   0 -10-26.2820 34.9924   3
   0  -1  10 17.8190 28.8972   5
   0  -1 -10 12.3788 29.0863   7
  -1   0  10 6.48427 52.6002   8
   1   0 -10-4.90734 33.6441   6
   0  -1  10 8.56313 59.5404   8
  -1   0  10-6.14158 23.1537   4
   1   0 -10 6.14957 21.8687   7
   0   1 -10-8.98565 23.7961   7
  -1   0  10 23.8093 27.4975   5
   0   1  10-13.7004 32.7665   4
   0   1 -10-26.3179 39.1266   3
   0   1 -11 16232.1 2087.21   7
  -1   0  11 16126.8 2095.39   8
  -1   0  11 11703.1 2086.55   5
   0  -1  11 16798.8 2090.41   5
   1   0 -11 16689.5 2091.20   6
   0  -1 -11 17077.3 2089.61   7
   1   0 -11 15808.8 2087.12   7
  -1   0  11 15207.8 2087.09   4
   0  -1  11 16626.0 2099.00   8
  -1   0  12-24.5494 67.0778   8
   0   1 -12-14.5914 28.3064   7
   1   0 -12 32.2341 39.5709   3
   1   0 -12-22.1754 29.1012   7
  -1   0  12-32.3637 31.9589   4
   0  -1  12 5.40700 43.2957   5
  -1   0  12-17.1737 32.0352   5
   0   1 -12-32.0424 49.4439   3
   1   0 -12 18.0482 43.0120   6
   1   0 -13 14753.7 1985.92   3
  -1   0  13 14362.0 1980.97   4
   0   1 -13 14531.3 1979.75   7
  -1   0  13 15767.3 1981.78   5
   1   0 -13 13876.8 1983.90   6
  -1   0  13 14557.8 1989.95   8
   1   0 -13 14775.6 1979.96   7
   1   0 -14-32.3251 57.5210   3
  -1   0  14-31.3969 45.5708   4
  -1   0  14 29.5820 83.2211   8
   1   0 -14-28.6562 55.1165   6
   0   1  14 62.9986 83.4483   8
   0  -1  14-60.6736 93.3068   8
   0   1 -14-21.1307 37.1526   7
   0  -1 -14-5.40592 40.8238   7
   0  -1 -15 14107.1 1915.68   7
   0  -1  15 14369.2 1931.99   8
   1   0 -16 15.0866 46.0154   7
   0  -1  16-85.7158 124.626   8
   0  -1 -16-12.2552 46.7491   7
  -1   0  16-6.53638 57.5250   4
   0   1 -17 10131.2 1344.99   7
  -1   0  17 10413.3 1362.73   8
   0  -1 -17 9403.39 1346.64   7
   0  -1  17 11340.7 1370.05   8
   0   1  17 9123.20 1362.61   8
   1   0 -17 9905.01 1344.67   7
   0  -1  18-167.764 124.069   8
   0   1 -18-22.5214 54.4048   7
   1   0 -18 5.76425 50.3593   7
  -1   0  18-79.2410 120.603   8
   0  -1 -18-75.3261 57.6024   7
   0   1  18 80.4997 139.284   8
   1   0 -19 2729.40 421.564   7
   0  -1  19 3235.44 469.362   8
   0   1  19 4077.45 469.952   8
   0  -1 -19 3139.88 424.007   7
  -1   0  19 3108.90 447.542   8
   0   1 -19 2985.57 420.760   7
   0  -1  20 39.3423 172.611   8
   0  -1 -20 45.6666 66.7926   7
   1   0 -20-26.3441 59.1277   7
   0  -1  21 1568.66 317.534   8
   0  -1 -21 1666.06 246.021   7
   0  -1 -22 25.4970 74.8710   7
   1  -1  -1 2.38355 10.5832   6
   1  -1  -2 28188.2 3753.70   6
  -1  -1   2 27779.9 3750.69   8
  -1  -1   3 1.52841 8.09270   8
   1  -1  -3 3.86003 9.61083   7
  -1  -1   3 18.3189 17.8641   5
   1   1  -3 18.5376 18.7454   2
   1  -1  -3 13.9419 19.2473   6
  -1  -1   4 2426.53 318.130   8
  -1  -1   4 1702.48 319.925   5
   1  -1  -4 2750.88 319.033   7
   1  -1  -4 2315.38 321.935   6
  -1  -1   5-3.44453 19.6975   5
  -1   1   5 22.5373 12.3229   4
   1  -1  -5-11.9284 13.8332   7
   1   1  -5 12.6766 26.3751   3
   1  -1  -5 8.36983 21.8747   6
  -1  -1   5-2.69813 15.8493   8
  -1  -1   6 668.695 152.018   8
  -1   1   6 1069.04 151.726   4
   1  -1  -6 1281.25 153.009   7
   1  -1  -6 1188.96 157.336   6
  -1  -1   6 1169.54 149.518   4
   1   1  -6 1151.57 152.382   6
   1  -1  -7 5.60188 16.8661   7
   1  -1  -7 2.50845 15.1979   3
  -1   1   7-22.6311 24.7577   8
   1  -1  -7-4.76337 29.2093   6
  -1  -1   7-1.40569 11.3252   4
   1   1  -7 2.62519 19.4004   6
   1   1  -7 11.6139 36.4465   3
  -1   1   7 7.30336 16.7696   4
   1   1  -7-3.56646 13.2322   7
  -1  -1   7 8.84836 30.3316   8
  -1  -1   7-11.0537 23.3870   5
   1   1  -8 1831.24 221.738   7
  -1   1   8 1841.70 226.980   8
  -1  -1   8 1885.49 225.541   5
  -1   1   8 1534.01 222.393   4
  -1  -1   8 1340.33 220.568   4
   1  -1  -8 1650.26 228.266   6
  -1  -1   8 1564.19 228.389   8
   1   1  -8 1635.84 223.646   6
   1   1  -9-40.8557 44.8761   3
  -1  -1   9 6.55996 18.6363   4
  -1  -1   9-6.16045 44.7798   8
   1  -1  -9-6.70829 21.5381   7
  -1   1   9 14.2777 41.0327   8
  -1   1   9 3.16776 22.5424   4
   1   1  -9 22.7204 19.1226   7
   1  -1  -9 10.8701 33.1376   6
   1   1  -9 6.98520 26.8580   6
  -1  -1   9 7.84843 27.5473   5
   1   1 -10 3196.47 564.732   3
   1  -1 -10 4271.24 558.650   7
  -1  -1  10 4121.29 556.523   4
   1   1 -10 4363.94 559.558   6
  -1   1  10 4355.57 558.561   4
  -1  -1  10 3250.42 564.280   8
  -1   1  10 4555.67 563.905   8
   1  -1 -10 4067.23 563.097   6
   1   1 -11 15.0114 49.9780   3
   1  -1 -11 44.2866 39.7235   6
  -1  -1  11-7.88825 61.7840   8
   1   1 -11 19.7675 25.5826   7
   1  -1 -11 11.8987 29.9254   7
  -1   1  11-3.98786 30.7898   4
   1   1 -11 41.3245 36.1053   6
  -1  -1  11-8.92030 32.5713   5
  -1   1  11-19.1550 56.6845   8
  -1  -1  11-6.26381 27.7417   4
  -1   1  12 12577.0 1660.29   8
   1   1 -12 13150.4 1652.24   7
  -1  -1  12 11937.1 1661.91   8
  -1  -1  12 12630.0 1653.03   4
  -1  -1  12 11906.6 1654.64   5
   1   1 -12 12085.6 1655.32   6
  -1   1  12 11122.1 1653.79   4
   1   1 -13 27.4424 30.0140   7
  -1  -1  13 4.23081 37.9790   4
   1   1 -13-65.9461 56.7841   3
  -1  -1  13 5.17730 38.1048   5
  -1   1  13-40.8638 68.9508   8
  -1   1  14 10429.1 1388.73   4
  -1   1  14 9960.46 1395.57   8
   1   1 -15-28.6048 39.6330   7
   1  -1 -15-51.2093 76.1256   6
  -1   1  15-142.011 106.340   8
   1  -1 -15-26.3921 47.3654   7
  -1   1  15-55.7609 59.8364   4
  -1  -1  15 88.5380 106.388   8
  -1  -1  16 6817.93 1053.88   8
   1  -1 -16 7531.83 1048.44   6
  -1   1  16 8190.94 1057.13   8
   1  -1 -16 7965.71 1042.82   7
   1  -1 -17-29.9111 51.2591   7
  -1   1  17 38.0712 65.0429   4
   1   1 -17 43.5141 70.9430   3
  -1  -1  17 62.3851 118.353   8
  -1  -1  17-34.8650 57.7096   5
   1   1 -18 3289.19 444.334   7
   1   1 -18 3337.49 461.943   3
   1  -1 -18 3056.14 447.249   7
  -1   1  18 3189.22 471.644   8
  -1  -1  18 3363.06 471.660   8
   1  -1 -19 27.0035 57.1618   7
  -1  -1  19-57.5469 131.641   8
   1  -1 -20 439.211 93.2327   7
  -1  -1  20 420.827 154.434   8
   1  -1 -21-38.0959 68.0135   7
   1  -1 -22 438.808 102.521   7
   0  -2   0 21109.3 2864.63   8
   0   2   0 21570.9 2864.00   4
   0  -2   0 20945.6 2867.45   5
   0   2   1 5.32190 11.8102   2
   0  -2   1 2.97667 13.7987   5
   0  -2  -1-1.01786 5.53412   8
   0   2   1-3.15480 5.84591   8
   0  -2   1-4.08265 9.84963   8
   0   2   1 3.96118 6.84425   4
   0  -2  -1 8.19052 12.9171   2
   0  -2  -1-7.70985 11.4064   6
   0  -2  -1-4.48438 6.85767   7
   0   2  -2 7391.66 868.871   3
   0  -2  -2 5298.57 863.159   7
   0   2   2 6109.81 862.658   4
   0   2   3 5.90052 11.1681   4
   0  -2  -3-10.5322 15.2240   6
   0   2  -3-37.2953 22.2759   3
   0  -2   3 6.35328 14.0997   5
   0  -2   4 3188.26 421.223   8
   0   2   4 3131.44 415.719   4
   2   0  -4 2670.11 417.075   7
  -2   0   4 3371.82 416.514   1
   0  -2   4 2920.69 417.413   5
   0  -2  -5-31.5949 24.3475   6
   0   2   5 13.5473 15.3833   4
   2   0  -5 4.05687 25.3180   6
   2   0  -5 7.01796 19.5026   2
   2   0  -5 6.56517 18.1118   7
   0  -2   5 3.50303 18.0036   5
   0  -2  -5 2.90641 15.3127   7
  -2   0   5-2.92316 16.3643   1
   0  -2   5-12.1170 32.4286   8
  -2   0   5-4.37291 8.33461   8
   0   2  -5-18.0555 31.1917   3
  -2   0   5-12.3994 23.7889   5
   2   0  -6 1303.89 205.593   7
  -2   0   6 1245.43 206.506   1
   0   2   6 1604.35 206.290   4
   2   0  -6 1580.62 208.658   2
  -2   0   6 1518.67 208.414   5
  -2   0   6 1586.82 202.961   8
   0  -2  -6 1373.64 208.986   6
   0  -2  -6 1653.62 206.493   7
   0   2  -6 1409.01 212.292   3
   2   0  -6 1439.57 209.942   6
   0  -2   6 1444.58 213.860   8
   0   2   7-21.0795 22.7946   4
   0   2  -7-13.9160 40.5870   3
   0  -2  -7 16.7383 28.1874   6
  -2   0   7-5.67261 13.7505   8
  -2   0   7 4.26509 26.7733   1
   0  -2   7 4.01984 24.0604   5
   0  -2  -7-3.61509 20.8119   7
   2   0  -7 31.1685 37.2747   6
  -2   0   7 3.71052 24.5806   5
   2   0  -7-13.8502 32.6931   2
   0  -2   7 7.71570 42.8837   8
   2   0  -7-13.2319 20.6490   7
  -2   0   8 2.32328 17.9824   8
  -2   0   8 42.6582 29.4536   5
   0   2  -8-14.4594 41.3528   3
   0  -2   8 30.2091 27.8811   5
   0  -2  -8 19.8339 22.8748   7
  -2   0   8-7.23228 19.6073   4
   2   0  -8-5.18538 34.3740   2
   2   0  -8 9.57616 38.8666   3
   0   2   8 11.8621 25.8241   4
   2   0  -8-27.7092 41.9733   6
  -2   0   8 19.4076 31.1689   1
   0  -2   8-8.57142 56.2074   8
   0  -2  -8 6.11874 33.5393   6
   2   0  -8 37.6546 24.2797   7
   2   0  -9 28.8606 44.7049   2
   0   2  -9-45.6148 46.3405   3
  -2   0   9 2.60150 22.4256   4
   0   2  -9-12.6475 18.2255   7
   2   0  -9 16.8154 43.2494   3
  -2   0   9-22.4722 25.4243   8
   0   2   9 17.8054 32.4887   4
   0  -2   9-37.0912 61.4173   8
   0  -2  -9 34.5302 27.5484   7
   0  -2   9-23.0383 31.4387   5
   2   0  -9 11.4744 50.9242   6
   2   0  -9 18.1190 24.7257   7
  -2   0   9 14.3375 28.3757   5
   0  -2  -9-6.66474 40.8686   6
   2   0 -10 8650.41 1190.06   6
  -2   0  10 8399.46 1183.88   4
  -2   0  10 9337.29 1185.60   8
   0   2 -10 8115.53 1183.07   7
   0  -2  10 9342.88 1188.77   5
   0  -2 -10 9033.86 1192.92   6
   0   2  10 8791.63 1188.22   4
   0   2 -10 9858.51 1195.39   3
   2   0 -10 9068.38 1190.61   3
   0   2 -11 2.70238 22.9425   7
   2   0 -11 4.11430 32.3377   7
   2   0 -11-40.0828 51.3527   3
  -2   0  11-6.29927 25.0235   4
  -2   0  11-12.3979 34.6457   8
  -2   0  11 7.47209 29.9964   5
   2   0 -11 18.2742 48.9067   6
   2   0 -12 5703.22 667.715   7
  -2   0  12 4478.22 664.254   4
   2   0 -12 4785.38 671.933   3
   0  -2 -12 5731.54 669.621   7
  -2   0  12 4760.47 667.173   8
   0   2 -12 4979.61 663.959   7
   0   2  12 4139.16 669.415   4
   0  -2  12 4442.58 684.303   8
   0   2  13-6.60755 54.0006   4
   2   0 -13-7.32332 53.7114   3
   0  -2 -13 22.6179 41.1446   7
   0   2 -13 18.7884 60.6463   3
   0  -2  13-49.3652 93.4399   8
   2   0 -13-39.7432 51.3405   6
   0   2 -13 55.9866 29.9557   7
  -2   0  13 16.8782 34.9776   5
  -2   0  13 3.92452 34.0923   4
  -2   0  13 43.7441 53.0535   8
   0  -2  13-6.25228 45.4847   5
   0   2 -14 3620.23 581.823   7
   2   0 -14 4409.62 592.426   3
  -2   0  14 4193.77 590.240   8
   2   0 -14 4292.20 590.126   6
   0  -2  14 5211.43 593.091   5
   0  -2 -14 4980.51 589.621   7
   0  -2 -15 25.4601 45.2704   7
   0  -2  15 21.2826 54.7396   5
   2   0 -15-40.1773 60.3487   3
   0  -2  15-84.8109 119.627   8
   0   2 -15 10.7649 72.3837   3
  -2   0  15-24.8610 42.8626   5
   2   0 -15 31.6541 46.5617   7
   0   2 -15-15.6260 35.9335   7
   0  -2 -16 2629.76 369.180   7
   2   0 -16 2696.88 366.922   7
  -2   0  16 2599.22 366.502   4
   0  -2  16 2814.44 372.705   5
   0   2 -16 2595.47 382.187   3
   0  -2  16 2163.08 394.450   8
   2   0 -16 2614.80 371.612   6
   2   0 -17-110.889 73.7984   6
   0  -2 -17 35.2717 57.4792   7
  -2   0  17-24.2058 55.5769   4
   2   0 -17-5.92497 50.2125   7
   0  -2  17-15.8567 141.568   8
   0   2 -17-24.9923 81.5327   3
  -2   0  17-24.9119 77.0297   8
   2   0 -18 570.235 100.134   7
  -2   0  18 459.568 104.648   4
   2   0 -18 706.907 118.428   3
  -2   0  18 484.706 122.589   8
   2   0 -18 475.807 114.665   6
   0  -2 -18 683.548 107.220   7
   0  -2  18 424.540 176.928   8
  -2   0  19 37.8631 69.8837   4
   0  -2 -19 7.78967 64.7262   7
   0  -2  19-35.6127 143.481   8
   2   0 -19 39.0442 75.9230   6
   2   0 -19 13.2335 57.4369   7
   2   0 -20-10.3547 84.8517   6
   0  -2 -20 89.8794 67.4015   7
   2   0 -20-62.8219 70.0551   7
   0  -2  20 19.1072 167.660   8
   0  -2 -21-85.8234 73.2585   7
   0  -2  21 20.0911 186.506   8
   0  -2 -22 36.1454 76.0187   7
   0  -2  22-105.691 192.892   8
   0  -2  23 114.091 208.816   8
   0  -2 -23 18.9927 86.2970   7
  -1   2   0 651.522 96.2913   1
   1  -2   0 595.571 95.3369   7
   1  -2   0 724.978 94.7317   5
   1  -2   0 676.321 98.0611   6
   1  -2   0 812.278 99.1178   8
   1  -2   1 8554.01 1331.13   7
   1  -2   1 10612.1 1334.05   8
   1  -2  -1 9855.84 1330.71   7
   1  -2  -1 10461.0 1333.44   6
  -1   2   1 9286.55 1331.77   1
   1  -2   1 10695.7 1330.24   5
  -1   2  -2 100.028 20.9917   3
   2  -1  -2 45.3014 18.1716   7
   1  -2   2 85.9995 25.7288   8
  -2   1   2 75.1877 16.7417   1
   1  -2   2 46.3909 15.7354   5
   1  -2  -2 54.7428 25.2707   6
  -1  -2   2 74.1609 30.0675   5
  -2   1   3 4242.17 541.579   1
  -1   2   3 3997.69 539.279   4
   1   2  -3 2976.79 543.602   2
  -1  -2   3 3982.39 545.175   5
   2  -1  -3 3700.78 541.580   7
  -1  -2   3 4424.49 539.977   8
   1  -2  -3 4144.07 544.268   6
  -1  -2   4 73.3434 21.2273   8
   2  -1  -4 87.0435 24.5708   7
  -1   2  -4 135.009 28.5507   3
  -1  -2   4 131.527 34.0795   5
   1  -2  -4 96.7231 22.0986   7
   1  -2  -4 34.7787 28.7640   6
   2  -1  -4 103.930 32.8998   6
   1  -2   4 106.411 22.5661   5
  -1   2   4 109.044 20.8923   4
   1   2  -4 124.117 37.0541   2
  -2  -1   4 88.7837 17.7384   8
   2   1  -4 104.288 28.7256   2
  -2   1   4 43.1182 23.3736   1
  -2  -1   5 355.550 66.5008   5
   1  -2   5 372.095 57.6194   5
  -1   2   5 400.931 54.7614   4
   2  -1  -5 252.832 62.9206   6
  -2  -1   5 275.535 53.2921   8
   1  -2  -5 339.133 63.3586   6
  -2   1   5 337.677 59.1758   1
  -1  -2   5 438.618 57.5683   8
   2   1  -5 436.026 64.4045   2
   2  -1  -5 323.899 57.0689   7
   1  -2  -5 498.035 57.2025   7
   1  -2   5 379.820 67.0830   8
  -1  -2   5 349.975 60.9751   5
  -1   2  -5 320.920 59.9677   3
   2  -1  -6 177.526 47.3224   6
  -1  -2   6 103.972 40.1747   5
  -1   2  -6 200.053 40.5687   3
   1  -2  -6 153.766 40.2003   6
  -1  -2   6 108.403 34.0674   8
   2   1  -6 172.778 31.4346   7
   1  -2   6 150.957 31.6048   5
   2   1  -6 133.983 36.2556   6
   1  -2   6 167.080 44.5016   8
  -1   2   6 165.549 29.2571   4
   1  -2  -6 134.396 28.7134   7
  -2   1   6 97.8462 37.0200   1
  -2  -1   6 134.819 43.9078   5
  -2  -1   6 168.638 27.5674   8
  -2  -1   6 122.325 27.7335   1
   2  -1  -6 109.247 30.8583   7
   1   2  -6 217.990 49.7514   3
   2   1  -6 124.743 42.4129   2
   2   1  -7 787.589 146.492   6
   2  -1  -7 1286.59 145.732   3
  -2   1   7 918.675 143.075   4
  -2   1   7 1175.35 142.827   5
  -1  -2   7 1184.71 150.125   8
   2  -1  -7 975.507 155.412   6
  -2  -1   7 1149.69 151.303   5
  -1  -2   7 1198.05 149.676   5
  -1   2   7 777.321 143.433   4
   2   1  -7 1181.01 153.450   2
  -2   1   7 613.637 147.250   1
   1  -2  -7 984.135 145.062   7
   1  -2   7 896.370 155.020   8
  -1   2  -7 1128.34 151.906   3
  -2   1   7 1098.73 140.299   8
   1  -2  -7 1159.97 153.006   6
   1   2  -7 876.616 155.268   3
  -1   2  -8-6.74475 31.6348   3
   2   1  -8 40.9873 43.8721   2
   1  -2   8-8.76787 46.5932   8
   1  -2   8 22.9835 26.1521   5
  -2  -1   8 10.2122 33.6899   5
  -1   2   8 2.56548 20.8810   8
   1  -2  -8 18.3278 36.8269   6
   2  -1  -8-3.88594 25.6633   7
   2   1  -8 12.1661 44.4306   3
  -2  -1   8 27.7961 26.9641   1
  -2  -1   8 12.2499 20.1484   8
   2   1  -8 18.8838 24.3445   7
   2  -1  -8 3.46273 29.7184   3
   2  -1  -8 10.6485 26.7121   2
  -1  -2   8-14.9537 33.5596   5
  -1   2   8 3.32082 22.1728   4
   1   2  -8-7.86782 51.6054   3
  -2   1   8 26.1875 23.2614   4
  -1  -2   8 5.66196 38.6700   8
   1   2  -8-8.16874 15.6721   6
   1  -2  -8 14.5933 21.6254   7
  -2   1   8 13.7158 14.8743   8
  -2   1   8 26.9229 19.3252   5
  -2  -1   8 11.5586 16.2399   4
   2   1  -8 13.3272 37.9854   6
   2  -1  -8 19.8595 47.3205   6
   1   2  -8 7.28669 14.3656   7
  -1  -2   8 28.8945 13.1745   4
  -2  -1   9-3.61094 28.3081   8
   1  -2   9-10.1004 30.6252   5
  -2  -1   9 8.31990 30.8957   1
   1   2  -9 19.2302 16.6343   7
   1  -2   9-19.1893 56.3455   8
  -1  -2   9-10.3408 33.7428   5
   1   2  -9 40.7755 22.5296   6
   1   2  -9-8.49357 54.5226   3
  -2   1   9 18.6668 24.2207   4
   2   1  -9 16.2476 26.3923   7
  -1   2   9 3.33379 30.1197   8
   2   1  -9 29.7512 49.7807   2
   2  -1  -9 31.1700 30.7620   3
   1  -2  -9-19.4271 42.6917   6
   2  -1  -9-13.6347 47.1998   6
   2   1  -9 50.8977 40.9744   6
   1  -2  -9-3.93771 24.7491   7
  -2  -1   9-35.7416 39.4192   5
  -2   1   9 28.5923 20.3260   5
  -1   2  -9-7.40914 38.0993   3
  -1  -2   9-19.8693 46.9145   8
  -2   1   9 6.03710 17.7062   8
  -1  -2   9 10.4041 16.9031   4
   2  -1  -9 12.3937 35.9564   2
  -2  -1   9 6.25668 18.8183   4
   2  -1  -9 8.24380 29.3451   7
  -1   2   9 11.0838 25.7223   4
   2   1  -9 6.87158 48.8898   3
  -2   1  10 159.970 30.8142   8
   2  -1 -10 83.0676 37.1422   7
  -1  -2  10 95.8198 25.0903   4
   1   2 -10 130.256 26.2408   7
  -2   1  10 98.4460 26.8480   5
  -1   2  10 77.6307 35.6598   4
  -2  -1  10 114.418 42.6770   1
   2   1 -10 80.9196 45.1587   6
   2   1 -10 150.400 34.0825   7
  -2   1  10 40.4098 28.5079   4
  -2  -1  10 110.496 26.6753   4
  -1   2  10 41.6619 40.6123   8
  -2  -1  10 58.7236 35.2735   8
   2  -1 -10 126.077 51.7369   6
   1   2 -10 89.6801 61.7194   3
   2  -1 -10 66.8966 36.0547   3
   1  -2 -10 82.4337 47.8071   6
  -1  -2  10 124.571 42.4403   5
   2   1 -10 61.6833 67.9515   3
  -2  -1  10 50.6598 40.1142   5
  -1  -2  10 126.548 63.9715   8
  -1   2  11 3564.36 479.916   8
   1   2 -11 4017.85 474.126   7
  -2   1  11 3424.75 474.595   5
   1   2 -11 3561.74 489.947   3
  -2   1  11 3531.60 475.852   8
   2   1 -11 3476.85 479.149   6
  -1  -2  11 3753.53 480.465   5
  -2  -1  11 2891.37 473.547   4
   2   1 -11 3337.16 486.846   3
   2  -1 -11 3702.85 479.002   3
  -2   1  11 3451.98 476.346   4
   2   1 -12-3.86729 33.9344   7
   2   1 -12-62.4293 63.9893   3
  -2  -1  12 20.1184 40.3817   5
  -2   1  12 25.6498 29.6471   5
  -2   1  12 4.10354 39.1179   8
   1  -2 -12-14.6213 32.7715   7
  -2  -1  12-16.5726 46.7518   8
  -1   2  12-11.9341 51.2825   8
   1  -2  12 48.8888 86.9273   8
   1   2 -12 2.58478 25.5343   7
   2  -1 -12 10.0318 42.3173   3
  -2  -1  12-6.00051 26.7065   4
   2   1 -12 10.5229 45.7635   6
  -2   1  13 3533.84 521.144   5
  -2  -1  13 3480.79 524.249   5
  -2   1  13 3750.29 524.783   8
   2   1 -13 4299.67 523.621   7
  -1  -2  13 4388.25 539.283   8
   1  -2  13 3855.98 545.489   8
   2   1 -13 3843.26 525.983   6
  -2  -1  13 3511.09 520.775   4
   2  -1 -13 4478.59 526.997   3
   1  -2 -13 4104.62 532.478   6
  -1   2  14-7.98094 104.640   8
   1  -2 -14 35.1632 72.0390   6
   2   1 -14-48.5018 62.9323   7
  -2   1  14 8.19332 45.3775   5
   2   1 -14-42.2719 81.3147   6
  -2   1  14-39.1174 55.3319   4
  -2  -1  14-3.89169 53.6213   4
  -2   1  14-111.860 84.7595   8
  -1  -2  14-84.0080 115.021   8
   2  -1 -14-38.8671 60.8214   7
   1   2 -14 12.7471 39.9539   7
   2  -1 -14-48.0955 88.6175   6
  -1  -2  14 67.5604 58.2647   5
   1  -2 -14 44.2268 47.6626   7
   1  -2  14-99.6302 135.010   8
   1   2 -14-62.4556 94.2168   3
   2  -1 -14 6.43786 60.3081   3
  -1   2  14 107.584 59.9893   4
  -1   2  15 2143.68 317.123   8
   1  -2 -15 2146.58 304.681   7
  -2  -1  15 2069.69 310.103   8
  -1  -2  15 1835.16 320.670   8
   1  -2 -15 2402.77 314.483   6
   2  -1 -15 2261.67 311.342   6
   1   2 -15 2505.19 319.295   3
  -2  -1  15 1925.01 299.841   4
  -2   1  15 2135.53 303.425   4
  -1  -2  15 2060.96 304.890   5
   1   2 -15 2270.12 299.078   7
  -1   2  15 2145.83 306.880   4
   2  -1 -15 2246.69 305.366   7
   1  -2  15 2136.96 334.203   8
  -2   1  15 2314.82 308.340   8
   2   1 -15 2196.43 305.544   6
   1  -2 -16 109.186 77.5288   6
   2  -1 -16 282.387 79.8155   6
  -2   1  16 106.578 76.8181   8
   1  -2  16-132.705 136.527   8
   2  -1 -16 130.770 61.7392   7
   2   1 -16 221.124 65.2586   6
  -2  -1  16 154.111 58.2895   5
  -1  -2  16 142.925 95.7747   8
   1   2 -16 92.3708 43.3007   7
  -2   1  16 134.952 59.4807   4
   2   1 -16 182.561 86.8726   3
  -1   2  16 93.6693 67.7698   4
  -1  -2  16 338.786 66.2547   5
   1  -2 -16 142.901 55.2572   7
  -2  -1  16 64.7205 76.5435   8
  -1   2  16 225.852 98.2664   8
   1   2 -16 275.252 92.1679   3
   1   2 -17 310.449 121.033   3
   1  -2 -17 605.976 120.897   6
  -2   1  17 534.272 103.915   4
   1   2 -17 610.490 92.9299   7
  -2   1  17 655.400 116.588   8
   2  -1 -17 336.669 114.595   6
  -2  -1  17 669.336 101.515   5
  -1   2  17 591.941 113.254   4
  -1  -2  17 543.469 104.819   5
   1  -2  17 857.227 181.379   8
   2   1 -17 653.622 98.7601   7
   1  -2 -17 597.833 99.5299   7
  -1  -2  17 671.557 145.437   8
   2   1 -17 555.761 121.367   3
  -2  -1  17 521.047 122.704   8
   2  -1 -17 394.113 102.015   7
   1   2 -18 109.625 90.7533   3
   2   1 -18 32.8092 79.4890   3
   2  -1 -18-55.3801 64.6823   7
   1  -2  18-57.7572 148.554   8
   2  -1 -18-39.6553 72.9677   6
  -1   2  18-60.6070 79.6430   4
  -2   1  18-35.3198 66.1727   4
  -2  -1  18-48.0869 84.3937   8
  -2  -1  18 33.6584 58.2096   5
   2   1 -18 5.63764 51.3108   7
  -1  -2  18-15.5356 64.5004   5
  -1  -2  18 121.301 114.423   8
   1  -2 -18 13.8715 62.2639   7
   1  -2  19 41.5736 167.543   8
  -1  -2  19-24.6257 63.5277   5
   2  -1 -19 10.5113 81.5581   6
   2  -1 -19 21.8676 68.1053   7
  -1   2  19 65.7462 77.8846   4
  -2  -1  19 41.1557 92.4884   8
  -2  -1  19 92.8226 65.1632   5
  -2   1  19 77.8590 70.0622   4
  -1  -2  19 167.231 136.805   8
   1  -2 -19-7.33177 59.8790   7
   1   2 -19 12.9520 92.2485   3
   2   1 -19 46.2777 89.4050   3
   1  -2 -20 77.2857 69.5965   7
   2  -1 -20-44.3595 80.6250   6
   2  -1 -20 22.9069 67.2250   7
  -1  -2  20-8.70459 72.7686   5
   1   2 -20 69.3026 99.0351   3
   1  -2  20 44.9506 190.220   8
  -1  -2  20 14.8460 127.607   8
  -2   1  20-25.8456 79.2690   4
  -1  -2  21 110.860 151.481   8
   1  -2 -21 221.477 80.3610   7
   2  -1 -21 208.819 85.8479   7
   1   2 -21 238.140 119.032   3
  -2   1  21 531.221 106.525   4
   2  -1 -21 256.242 105.716   6
   1  -2 -22 112.332 80.0572   7
  -1  -2  22 147.298 151.794   8
   1  -2 -23 110.156 83.2676   7
   2  -2  -1 4.18618 19.6263   7
  -2   2   1-11.9837 14.4823   1
   2  -2  -2 1819.17 253.907   6
   2  -2  -3 21.6572 29.0922   6
  -2  -2   3 21.0461 12.3849   8
   2   2  -3 5.54643 26.3639   2
  -2  -2   4 244.667 37.8484   8
  -2   2   4 121.857 44.8798   1
   2  -2  -4 312.950 55.4399   6
   2   2  -4 178.362 48.6738   2
   2  -2  -4 308.369 43.7427   7
   2  -2  -5-7.63997 19.9674   7
   2   2  -5 33.7878 37.0111   2
  -2  -2   5-7.91779 16.5721   8
   2  -2  -5 6.64731 40.0302   6
  -2   2   5-10.8672 31.2770   1
  -2  -2   5 7.40343 42.0335   5
   2  -2  -6 6905.54 1204.30   6
   2  -2  -6 9843.67 1201.20   7
  -2   2   6 9005.46 1198.87   4
  -2  -2   6 8075.46 1198.18   8
  -2  -2   6 10452.3 1208.29   5
   2   2  -6 10308.4 1208.24   2
   2   2  -7 15.8286 45.8622   2
   2  -2  -7 25.0504 27.2346   7
   2  -2  -7-14.9036 51.0928   6
   2   2  -7-2.77834 25.5640   6
  -2  -2   7 6.67163 21.7637   8
  -2  -2   7 6.85647 44.0059   5
  -2   2   7-3.20891 22.1143   4
  -2  -2   8 1617.70 190.608   1
   2   2  -8 1157.84 193.200   6
  -2  -2   8 1369.12 193.978   8
   2  -2  -8 1398.02 195.020   7
   2   2  -8 1504.75 207.734   2
   2   2  -8 1202.21 192.178   7
   2  -2  -8 1331.92 204.350   6
  -2   2   9-18.1930 28.3009   4
   2  -2  -9-7.87575 52.9646   6
  -2  -2   9-2.58652 22.1811   1
  -2  -2   9-7.82755 16.2866   4
   2   2  -9-3.09784 25.8209   7
  -2  -2   9-6.48473 42.2985   5
   2   2  -9-10.4585 36.3714   6
  -2  -2   9-17.2426 34.9801   8
   2   2  -9 54.7420 60.4366   2
   2   2  -9 8.13225 59.8580   3
  -2  -2  10 1731.99 217.365   4
  -2  -2  10 1066.14 226.134   5
   2   2 -10 1635.69 222.543   6
   2   2 -10 1565.14 238.752   2
   2   2 -10 1194.72 234.939   3
  -2  -2  10 1590.74 224.332   8
  -2  -2  10 1666.12 220.666   1
  -2  -2  11 3.87814 36.2334   1
  -2  -2  11 45.3618 51.1172   5
  -2  -2  11-4.19245 21.6823   4
  -2   2  11-22.2170 25.7992   8
   2   2 -11 3.84678 36.1242   6
   2   2 -11 9.82133 67.0123   3
   2   2 -11-13.1495 29.2621   7
   2  -2 -11 41.7123 40.9809   7
   2  -2 -12 1606.75 258.099   6
   2   2 -12 1630.24 244.570   7
  -2  -2  12 1832.46 241.534   4
  -2   2  12 1652.97 243.760   8
  -2   2  12 1986.40 248.155   4
   2   2 -13 13.7699 39.4809   6
  -2  -2  13-13.3873 56.6722   8
  -2  -2  13-5.11814 47.8463   1
   2   2 -13 3.67665 33.3169   7
  -2   2  13-20.2703 44.6817   8
  -2  -2  13-17.7515 28.7315   4
   2  -2 -13-43.4212 67.0274   6
  -2   2  13-44.9161 42.6616   4
   2  -2 -13 5.83643 46.7247   7
  -2  -2  14 1362.92 207.445   4
  -2  -2  14 2044.43 241.331   8
   2  -2 -14 1531.55 217.158   7
  -2   2  14 1286.86 215.502   8
  -2   2  14 955.163 209.673   4
   2  -2 -14 1561.38 230.470   6
   2   2 -14 2098.07 222.508   6
   2   2 -15 70.7837 93.7302   3
   2  -2 -15 9.35642 68.0077   6
  -2  -2  15 7.90446 71.1566   8
   2  -2 -15-39.0523 56.6191   7
  -2   2  15 49.8113 57.7313   8
   2   2 -15 24.9406 41.7274   7
  -2  -2  15-28.4117 41.1049   4
  -2   2  15 5.85135 50.2966   4
  -2  -2  15-65.5737 51.3603   5
   2   2 -16-12.0660 86.2524   3
   2  -2 -16-29.3834 73.3333   6
  -2  -2  16 20.2953 54.9679   5
   2   2 -16 26.6201 44.1405   7
  -2   2  16 31.7222 53.9521   4
   2  -2 -16-61.6075 59.4454   7
  -2  -2  16-52.3320 84.2202   8
   2   2 -16 50.0514 53.8609   6
  -2  -2  16 142.129 50.8134   4
   2  -2 -17-20.4352 78.5831   6
  -2  -2  17 9.27247 79.4888   8
  -2   2  17 27.4995 62.2757   4
   2   2 -17-12.3034 86.7641   3
   2  -2 -17 21.5805 61.6874   7
  -2  -2  17 48.8120 60.7042   5
   2  -2 -18 493.165 108.658   6
  -2  -2  18 433.288 113.078   8
   2   2 -18 489.131 125.176   3
  -2   2  18 403.514 102.667   4
  -2  -2  18 465.283 97.0590   5
   2  -2 -18 596.732 100.584   7
  -2  -2  19-15.3041 58.4006   5
   2  -2 -19-63.1080 70.2404   7
  -2  -2  19 31.3493 97.8979   8
   2   2 -19 25.6413 96.6833   3
   2  -2 -19-22.5811 87.4627   6
  -2   2  19 16.2727 75.8429   4
  -2  -2  20 1862.93 278.448   8
   2   2 -20 1785.01 277.765   3
  -2   2  20 2093.87 269.296   4
   2  -2 -20 1632.08 271.468   6
   2  -2 -20 1572.43 260.139   7
  -2  -2  21-70.6359 110.280   8
   2  -2 -21-17.3568 77.2593   7
   2  -2 -21 74.4627 96.8413   6
  -2   2  21-19.3495 86.3701   4
  -2  -2  21-8.50279 69.4532   5
   2  -2 -22 840.145 183.503   6
   2  -2 -22 1192.12 171.863   7
  -2   2  22 907.333 177.964   4
   2  -2 -23-57.0178 86.3511   7
   0  -3   0 6.25892 12.5995   8
   0   3   0-5.01106 25.9878   2
   0  -3   0 3.53050 9.99807   7
   0  -3   0-3.17955 17.3091   6
   0   3   0 12.5231 9.76002   4
   0  -3   0 26.5520 24.9668   5
   0  -3   1 2962.33 363.665   7
   0  -3   1 2819.72 365.990   6
   0   3   1 2678.42 368.996   2
   0  -3   1 2351.39 365.557   8
   0  -3  -1 2833.83 367.787   6
   0   3   1 2471.22 364.042   4
   0  -3   1 2631.36 368.313   5
   0  -3   2-1.34534 8.93860   7
   0  -3  -2-12.0939 12.6591   7
   0   3  -2-15.3565 28.2506   3
   0  -3   2-8.58107 22.7959   5
   0  -3  -2-2.94260 8.61069   8
   0   3   2-21.3941 20.8097   2
   0  -3   2-3.40429 18.7955   8
   0  -3  -2 8.14180 20.7550   6
   0   3  -2-3.08429 7.81417   4
   0  -3   2-6.98476 16.4271   6
   0   3   2-10.9701 13.7102   4
   0  -3   3 122.658 27.7018   5
   0   3  -3 58.4768 35.3588   3
   0  -3  -3 55.2524 17.5303   7
   0  -3   3 39.7539 25.2839   8
   0  -3  -3 72.2756 26.8349   6
   0   3   3 55.3314 18.4547   4
   0   3  -4 33.2712 39.6156   3
   0   3   4 17.1328 17.2963   4
   0  -3   4 13.6233 24.5671   5
   0  -3  -4-5.01282 26.6866   6
   0  -3  -5 597.938 71.7069   6
   0  -3   5 381.266 67.7197   5
   0   3   5 392.228 62.6983   4
   0  -3   5 357.307 72.1870   8
   0   3  -5 304.695 74.8650   3
   3   0  -6-5.50269 29.4537   7
   0  -3   6 58.2156 45.6732   8
   0  -3  -6-19.0272 21.6049   7
  -3   0   6-3.47532 20.5364   1
   0  -3  -6 17.8528 32.8331   6
   0   3   6-10.8509 21.6456   4
   0   3  -6-16.0958 45.0507   3
   0  -3   6 29.4957 30.3243   5
   0  -3  -7 6446.75 964.204   6
  -3   0   7 6997.13 960.297   1
   3   0  -7 7044.57 963.192   7
   0   3   7 7223.79 960.702   4
  -3   0   7 8269.78 966.130   5
   0   3  -7 6638.24 969.195   3
   0  -3   7 6654.88 961.670   5
   3   0  -7 6774.09 964.237   6
   0  -3   7 6562.78 967.231   8
   0  -3  -7 8029.72 961.527   7
   0  -3   8-15.5933 31.3050   5
  -3   0   8-17.8509 45.2211   5
   0   3  -8 9.08969 55.7420   3
   3   0  -8-5.48566 34.8247   2
   3   0  -8 26.9484 35.1529   7
   3   0  -8-26.3989 49.9610   6
  -3   0   8-9.42171 16.7640   8
   0  -3  -8-20.9700 38.2859   6
   0   3   8 4.43528 29.2330   4
  -3   0   8 9.03478 30.8291   1
   3   0  -9 1221.63 146.789   7
   3   0  -9 895.954 153.670   6
  -3   0   9 1243.27 150.578   5
   3   0  -9 1170.29 148.583   2
  -3   0   9 786.838 143.695   1
  -3   0   9 875.497 136.153   8
   0  -3 -10 67.6732 39.2506   7
   0  -3  10 41.6909 73.1385   8
  -3   0  10 15.5416 41.4490   5
   3   0 -10 13.0430 51.4426   2
   3   0 -10 21.4523 39.4710   7
  -3   0  10-28.5078 40.3715   1
  -3   0  10 5.24616 20.0109   8
   3   0 -10-30.9254 59.6554   6
   0   3 -10-16.2223 17.6014   7
   0  -3 -11-8.54064 56.8671   6
   3   0 -11 34.1046 60.3817   3
   0   3  11 41.1526 45.5462   4
   0  -3  11-18.0827 44.9217   5
   3   0 -11 7.06795 54.1366   2
   0   3 -11 30.2667 61.1352   3
  -3   0  11 11.5995 23.0663   8
  -3   0  11 25.3537 47.6164   1
  -3   0  11-19.9986 44.3918   5
   0  -3 -11-38.9737 40.3092   7
   0   3 -11 14.4756 20.2715   7
   0  -3  11 11.3262 82.3254   8
  -3   0  11 24.3492 29.4600   4
   3   0 -11 21.8813 39.6050   7
   3   0 -11-31.8482 66.1175   6
   0   3 -12 41.3912 68.1870   3
  -3   0  12 24.6593 39.7339   5
   3   0 -12-32.4357 67.7631   6
  -3   0  12-26.2635 30.5937   8
   3   0 -12-84.2058 66.1873   2
   0   3 -12-4.71066 22.5079   7
   0   3  12 19.2939 48.8720   4
   0  -3 -12-5.91466 39.7702   7
  -3   0  12 14.6791 33.5759   4
   3   0 -12-11.2088 46.6832   7
   0  -3  12 23.9996 90.4779   8
   0  -3  12-6.32553 45.9733   5
   0  -3 -12 72.4515 61.4955   6
   3   0 -12 15.3369 64.0821   3
  -3   0  12 21.0901 55.4540   1
  -3   0  13 1219.85 179.209   8
   3   0 -13 1282.90 194.618   2
  -3   0  13 1034.13 182.340   5
   0   3 -13 1192.86 175.938   7
   0   3  13 1279.56 190.634   4
   0  -3  13 1371.78 188.438   5
   0  -3 -13 1390.07 187.423   7
   3   0 -13 1267.55 194.992   3
   0   3 -13 1345.89 201.767   3
   0  -3  13 1651.31 222.169   8
   0  -3 -13 1397.42 196.823   6
   3   0 -13 1429.17 195.196   6
   0   3 -14-20.3277 37.9245   7
  -3   0  14 331.355 82.0206   8
  -3   0  14-109.623 84.1294   5
   0  -3 -14 46.1730 56.8606   7
   0  -3  14-7.09647 66.4719   5
   0   3  14-91.3696 78.7566   4
   0   3 -14-55.3899 102.166   3
   3   0 -14 17.9127 178.870   2
   0  -3  14-174.713 148.297   8
   3   0 -15 615.342 126.086   2
   0   3 -15 510.248 122.994   3
  -3   0  15 594.233 98.3597   5
  -3   0  15 641.932 120.067   1
   0  -3  15 497.747 151.946   8
   0   3 -15 621.305 91.2502   7
   3   0 -15 586.015 105.383   7
   0  -3 -15 736.203 107.134   7
   3   0 -15 707.795 118.811   3
   0  -3  15 511.893 104.910   5
  -3   0  15 499.721 95.7634   8
  -3   0  16-4.98766 47.7822   4
   0   3 -16-48.7359 87.0394   3
   0  -3  16 7.99472 57.3637   5
   0  -3  16-90.3158 121.274   8
  -3   0  16 10.1904 46.7450   5
   3   0 -16-6.45305 56.6258   7
   3   0 -16 85.5490 77.0071   6
   3   0 -16 9.27412 72.6291   3
   0  -3 -16 29.1223 56.3902   7
  -3   0  16-28.4460 80.2483   1
   0  -3 -17 129.870 68.8811   7
   3   0 -17 147.053 65.4230   7
   3   0 -17 104.931 77.9329   6
  -3   0  17 190.815 101.279   1
   0  -3  17 275.287 78.4909   5
  -3   0  17 169.107 54.6911   4
   0   3 -17 64.0583 90.8216   3
   0  -3  17 171.365 132.760   8
  -3   0  18 53.1533 89.4230   1
   3   0 -18-54.8869 73.4689   6
   0  -3  18-17.6120 65.6341   5
   0  -3 -18-7.97627 62.0337   7
  -3   0  18-17.7835 54.5563   4
   3   0 -18-76.7220 65.8556   7
   0  -3  18 82.5987 145.807   8
   0   3 -18 122.344 100.476   3
   0  -3  19 1280.57 324.440   8
   0   3 -19 1749.46 299.860   3
   0  -3 -19 1923.90 282.468   7
   3   0 -19 2014.89 281.250   7
  -3   0  19 2021.87 298.313   1
   3   0 -19 2046.76 289.456   6
  -3   0  19 2038.08 278.496   4
   0  -3  20 72.8137 167.523   8
   0   3 -20-30.8455 108.847   3
   0  -3 -20-61.0548 73.0844   7
   0  -3 -21 1650.68 248.595   7
   0  -3  21 1551.92 301.321   8
   0  -3 -22-143.001 79.1957   7
   0  -3  22 181.952 178.899   8
   0  -3  23 411.216 206.090   8
   0  -3  24-158.189 206.193   8
   1  -3   0 1168.17 209.130   8
  -1  -3   0 1575.10 206.278   8
  -1   3   0 1812.33 213.347   3
  -1   3  -1 1324.03 188.870   3
  -1   3   1 1205.31 187.182   3
   1  -3   1 1387.33 184.916   5
  -1   3  -1 1133.44 184.223   1
   1  -3  -1 1556.12 185.146   7
   1  -3  -1 1371.47 190.448   6
   1  -3   1 1445.07 190.480   8
   1  -3  -1 1212.92 184.599   8
   1  -3  -1 1598.66 184.671   5
  -1  -3   1 1412.28 183.662   8
   1   3  -1 835.535 187.594   2
   1  -3   1 1347.77 184.382   7
  -1   3  -2 364.332 72.1133   3
   1   3  -2 629.724 79.6291   2
   1  -3   2 506.334 67.3982   7
   1  -3  -2 504.856 66.6487   7
   1  -3  -2 433.373 64.3004   5
  -1   3   2 470.987 68.3366   3
   1  -3  -2 288.329 72.3491   6
   1  -3  -2 386.510 63.7338   8
  -1  -3   2 478.206 79.0240   5
   1  -3   2 433.919 67.8671   6
   1  -3   2 394.897 65.7881   5
  -1   3  -2 456.269 64.6491   1
   1  -3   2 637.156 80.0654   8
   1  -3  -3 122.373 19.3647   8
   1  -3  -3 149.012 25.9864   7
  -1  -3   3 159.272 44.4349   5
  -1   3   3 163.120 30.6558   2
   1  -3  -3 83.1616 23.3062   5
  -1   3   3 85.3846 23.1887   8
   1  -3  -3 73.8415 37.1556   6
  -1   3   3 114.333 23.7300   4
   1  -3   3 109.835 27.6935   5
   1  -3   3 89.5040 41.7868   8
  -1   3  -3 131.743 36.4847   3
   1  -3  -4 661.551 110.911   6
  -3   1   4 683.193 102.879   1
  -1   3   4 587.779 101.153   4
   1   3  -4 798.833 115.760   2
   1  -3   4 881.861 118.029   8
   3  -1  -4 751.861 108.022   7
  -1  -3   4 875.206 115.110   5
  -1   3  -4 843.168 111.673   3
  -1   3   5 1140.77 165.525   4
  -3   1   5 1335.20 168.686   1
  -1  -3   5 1230.00 167.936   8
   1   3  -5 1420.80 180.524   2
   1  -3  -5 1242.64 173.303   6
  -1  -3   5 1151.72 174.611   5
  -1   3  -5 897.955 172.711   3
   3  -1  -5 1117.23 175.294   6
   3  -1  -6 3624.35 460.140   6
  -1   3  -6 2594.66 456.615   3
   1  -3  -6 3667.94 459.408   6
   1  -3  -6 3762.85 453.279   7
   1  -3   6 3254.35 453.719   5
  -1   3   6 3106.67 451.569   4
   3  -1  -6 3303.50 455.940   7
   1   3  -6 4192.90 463.871   3
   1  -3   6 3558.99 464.061   8
  -1  -3   6 2570.64 453.357   8
   3   1  -6 4109.77 459.617   2
  -3   1   6 3176.99 454.209   1
   1  -3  -7 1219.86 159.289   7
   1  -3   7 901.179 173.118   8
   1  -3  -7 1208.34 166.659   6
   1   3  -7 1132.50 170.481   3
  -3  -1   7 1224.15 172.132   5
  -3   1   7 1219.90 163.447   1
  -1  -3   7 980.062 161.793   8
  -1  -3   7 987.068 165.083   5
   3  -1  -7 1160.64 162.811   7
   3  -1  -7 1082.97 169.414   6
  -1   3  -7 1002.04 165.595   3
  -1   3   7 1139.57 158.314   4
  -3   1   8 4492.37 661.957   1
  -3  -1   8 5755.20 658.208   1
   3   1  -8 4535.18 664.332   2
   3  -1  -8 4653.40 667.018   6
   3   1  -8 4207.20 659.954   7
  -1   3   8 4656.51 658.317   4
   3  -1  -8 4153.92 660.615   7
  -3  -1   8 5064.59 656.736   8
  -1   3  -8 5396.01 668.073   3
   1  -3  -8 5318.78 665.893   6
  -3  -1   9 806.721 104.921   1
  -3   1   9 412.022 110.175   1
  -3   1   9 727.441 99.3182   8
   3   1  -9 698.132 116.731   6
   3  -1  -9 686.483 129.065   6
  -3   1   9 583.076 105.616   5
  -3  -1   9 516.020 116.006   5
  -1  -3   9 705.145 113.256   5
   3  -1  -9 763.291 110.366   7
  -3  -1   9 763.959 102.531   8
   3  -1  -9 844.732 107.225   2
   3   1  -9 703.411 116.956   2
   3   1  -9 684.480 110.292   7
  -3   1  10 444.778 70.6876   5
   3  -1 -10 425.920 98.6909   6
  -1   3 -10 404.142 87.3027   3
   1  -3 -10 396.702 72.9813   7
  -3  -1  10 418.726 68.9844   8
  -3   1  10 337.013 69.2000   4
   3   1 -10 583.753 90.2828   2
  -3   1  10 515.272 64.5584   8
   3  -1 -10 568.334 79.6071   3
  -1  -3  10 470.787 87.5864   8
  -3  -1  10 266.606 81.5556   5
   3  -1 -10 498.642 77.1118   2
   1   3 -10 379.992 61.4819   7
   3   1 -10 403.352 78.9797   7
   3   1 -10 526.091 91.2653   6
  -3  -1  10 510.391 74.8540   1
   1  -3  10 325.652 106.386   8
   1   3 -11 90.3820 24.9042   7
  -3  -1  11 113.336 33.3363   4
   1   3 -11 231.788 86.7359   3
   3   1 -11 125.105 47.0663   7
   3   1 -11 143.690 63.4801   6
   3   1 -11 113.426 71.8096   2
   3  -1 -11 130.184 50.0716   2
  -3   1  11 109.936 26.8654   8
  -3  -1  11 109.809 33.9257   8
  -1   3 -11 218.435 67.3467   3
  -3   1  11 106.845 36.5815   5
  -3  -1  11 88.1786 43.1161   1
   1  -3 -11 97.8157 40.6318   7
   1  -3  11 45.0738 45.9186   5
  -3  -1  11 132.156 55.3988   5
  -1  -3  11 119.219 65.6163   8
   1  -3  11 12.4118 85.1430   8
   3  -1 -11 136.654 51.0833   3
  -1   3  11 115.904 43.8238   4
   1  -3 -11 140.964 56.5767   6
   3   1 -11 147.025 69.8168   3
   3   1 -12 87.1618 46.1895   7
   1   3 -12 91.8181 80.6337   3
   3   1 -12 37.1981 69.8195   2
   3  -1 -12 59.8213 52.1303   2
  -1   3 -12 111.407 69.6403   3
   1  -3  12 92.7574 94.6384   8
  -1   3  12 114.782 44.4230   4
  -3  -1  12 43.7353 46.4915   1
  -3   1  12 77.9401 27.3463   8
  -3  -1  12 88.1629 31.5828   4
   3  -1 -12-29.7401 48.6905   7
  -3  -1  12 51.3921 51.2220   5
  -3   1  12 16.9108 68.4317   1
  -3   1  12 69.0789 33.7639   5
  -1  -3  12 117.742 76.4170   8
  -3  -1  12 48.4377 36.9503   8
   3  -1 -12 77.5224 54.3655   3
   1  -3 -12 136.680 46.2053   7
   1  -3 -12 77.7685 63.3907   6
   3   1 -12 62.9245 73.6741   3
   1  -3  12 68.6235 49.1355   5
   3   1 -12 62.3440 63.4564   6
  -1  -3  12 6.50511 50.7426   5
   1   3 -12 36.3370 23.8865   7
  -3   1  13-4.43315 37.7776   4
  -1   3 -13 86.6081 73.8805   3
  -3   1  13-72.0251 68.6946   1
   1  -3 -13 23.1635 45.2052   7
  -3   1  13 27.5203 33.9335   5
  -1   3  13 11.9289 49.2191   4
  -1   3  13-6.05448 55.7072   8
  -3  -1  13-25.5142 57.2737   5
   3  -1 -13 18.4740 49.8029   7
  -3  -1  13-23.4597 31.5826   4
   1   3 -13 11.8355 83.4406   3
  -3  -1  13 6.10088 54.3237   1
   1  -3  13 84.7318 102.646   8
   1  -3 -13 36.6075 68.1991   6
  -1  -3  13-20.1463 53.1808   5
  -1  -3  13 9.92545 81.6149   8
   3   1 -13 34.7694 62.2629   6
   3   1 -13-29.5856 75.2440   3
  -3   1  13 11.4054 28.6500   8
   3  -1 -13 18.9263 54.2371   3
   1  -3  13 7.25958 54.1046   5
   3   1 -13 44.4021 46.5507   7
   3  -1 -13-6.62043 59.7734   2
   1   3 -13 37.6673 26.9057   7
  -1   3 -14 706.095 120.343   3
  -1   3  14 866.380 109.581   8
  -1   3  14 696.408 98.0901   4
   1   3 -14 157.155 131.421   3
   1  -3 -14 674.777 115.982   6
   3  -1 -14 494.020 123.781   6
   1  -3 -14 593.604 91.8462   7
   1   3 -14 657.193 74.9969   7
  -3   1  14 512.908 80.0873   5
  -3   1  14 248.308 124.913   1
   1  -3  14 513.987 103.111   5
  -1  -3  14 524.874 126.147   8
   3  -1 -14 255.165 113.287   7
  -3  -1  14 304.604 120.626   1
   3  -1 -14 487.996 107.181   3
  -3   1  14 340.686 89.1356   4
  -1  -3  14 381.614 90.2775   5
   1  -3  14 526.511 147.496   8
  -3   1  14 294.169 87.4794   8
  -3  -1  14 298.333 90.5443   4
   1   3 -15 824.631 157.667   3
  -3   1  15 897.121 134.426   4
   1  -3  15 770.671 186.622   8
   3   1 -15 888.335 142.533   6
   3  -1 -15 804.960 140.599   7
   1   3 -15 976.946 127.543   7
  -1   3  15 940.090 154.089   8
  -3   1  15 863.699 129.621   8
  -1  -3  15 860.142 164.175   8
  -1   3 -15 967.886 163.169   3
  -3   1  15 797.855 129.444   5
  -3  -1  15 735.274 129.766   4
   1  -3 -15 529.227 147.729   6
  -3  -1  15 993.257 137.041   8
   3  -1 -15 1249.07 143.038   3
   3  -1 -15 737.617 146.972   2
  -1  -3  15 864.575 140.454   5
   3   1 -15 846.556 163.452   2
   1  -3 -15 884.756 137.708   7
  -1   3  15 1005.39 143.667   4
   3  -1 -15 968.469 155.537   6
  -1   3  16-38.0020 67.2796   4
  -3   1  16 27.5431 51.8735   4
   3  -1 -16 48.1851 60.0597   7
  -3   1  16 16.6173 42.4424   8
   1  -3 -16-32.1525 76.5704   6
   1   3 -16-25.4966 91.8715   3
   3  -1 -16 95.9277 82.4506   6
  -3  -1  16 11.7616 54.6734   8
  -3  -1  16 68.0512 52.5320   5
  -1  -3  16-48.4084 106.814   8
   3   1 -16 56.6122 91.8542   3
   1  -3 -16-13.6002 54.7974   7
  -3   1  16-4.33567 39.8960   5
  -1  -3  16-22.4024 59.1268   5
   1  -3  16-34.2196 135.937   8
   3   1 -16-95.7423 105.628   2
  -3  -1  17 857.275 121.283   5
   3  -1 -17 718.392 137.266   6
  -1  -3  17 727.803 165.142   8
  -1  -3  17 765.721 124.222   5
   1   3 -17 620.075 146.351   3
   3   1 -17 1031.97 124.551   7
  -3  -1  17 573.093 130.345   1
   1  -3 -17 493.879 136.117   6
   1  -3  17 913.367 197.403   8
   3   1 -17 1130.20 155.431   3
   1  -3 -17 593.624 119.739   7
  -3  -1  17 534.729 120.727   8
  -3   1  17 865.193 120.711   4
  -1   3  17 799.153 132.990   4
   3  -1 -17 478.923 119.715   7
   3   1 -17 695.678 154.461   2
  -3  -1  18 1932.82 243.082   8
   3   1 -18 1717.59 245.285   6
   3   1 -18 1535.67 255.714   3
   1  -3 -18 1344.79 240.381   7
  -1   3  18 1787.53 250.535   4
   1  -3  18 2203.04 305.570   8
   3  -1 -18 1497.67 240.804   7
  -1  -3  18 1657.65 270.693   8
   3  -1 -18 1735.72 253.348   6
  -1  -3  18 1559.30 245.564   5
   1  -3 -18 1647.14 257.035   6
  -3  -1  18 1740.17 238.916   5
  -3   1  18 1864.02 240.787   4
   3   1 -18 1619.65 239.879   7
   3   1 -18 1307.05 262.890   2
   1   3 -18 1373.46 254.432   3
   1  -3 -19 268.783 83.0581   7
   1  -3  19 312.518 173.540   8
   3  -1 -19 335.815 100.432   6
   1   3 -19 151.267 107.197   3
   3  -1 -19 248.401 79.1307   7
  -1   3  19 320.699 103.936   4
  -1  -3  19 172.683 81.8733   5
  -1  -3  19 82.5588 133.642   8
  -3   1  19 319.786 78.3546   4
   1  -3  20 2608.41 457.461   8
   1   3 -20 2348.50 418.151   3
  -1  -3  20 2664.07 406.587   5
   1  -3 -20 3035.79 406.298   7
   3  -1 -20 2741.90 403.590   7
  -1  -3  20 2954.14 433.546   8
  -3   1  20 3225.02 405.883   4
  -1   3  20 3219.27 415.461   4
   3  -1 -20 2684.23 411.252   6
   3  -1 -21 75.8207 79.2150   7
   1   3 -21 105.655 120.378   3
  -1  -3  21 56.6448 77.8225   5
   1  -3  21 166.973 203.403   8
   3  -1 -21 68.5339 87.7727   6
   1  -3 -21 96.3785 78.0446   7
  -1  -3  21 46.2328 159.085   8
   1  -3 -22 1838.54 271.027   7
   1  -3  22 1807.53 359.539   8
  -1  -3  22 1520.72 302.205   8
   1   3 -22 1742.72 294.390   3
  -1  -3  22 1901.40 273.758   5
  -1  -3  23 50.4676 161.157   8
   1  -3  23-135.145 235.097   8
   1  -3 -23-9.72601 84.1025   7
   1  -3 -24 71.4794 88.0181   7
   1  -3 -25 282.364 130.438   7
   2  -3   0 113.883 31.7458   7
  -2   3   0 157.035 28.0208   1
   2  -3   0 85.2531 21.1346   5
  -2   3   0 109.795 27.2005   3
   2  -3   0 121.558 34.5590   8
   2  -3  -1 134.768 39.8071   6
   2  -3  -1 197.360 33.8251   7
   2  -3  -1 123.710 23.5154   5
   2  -3   1 92.7376 25.1942   5
  -2   3   1 69.1648 30.9546   1
  -2   3   1 151.947 28.5885   3
   2  -3   1 132.301 39.6554   8
   2  -3  -1 153.477 34.8561   8
   2  -3   1 78.6348 31.9055   7
  -2   3  -1 229.593 29.6911   1
  -2   3  -1 167.052 32.1099   3
   2  -3  -2 2169.16 285.837   8
   2  -3  -2 2273.55 286.633   7
   2  -3   2 1547.76 288.168   8
   2  -3  -2 2393.34 291.457   6
   2  -3   2 2191.20 284.094   5
  -2   3   2 2065.56 287.321   1
  -2   3  -2 1780.78 286.368   3
   2   3  -3 348.953 96.5349   2
   2  -3  -3 814.295 92.4650   8
   2  -3  -3 705.059 94.0142   7
  -2   3  -3 673.947 95.3970   3
   2  -3   3 720.572 91.9796   5
   3  -2  -3 344.630 94.5307   7
   2  -3   3 834.082 104.251   8
   2  -3  -3 541.937 100.320   6
  -2   3   3 489.186 94.8445   1
  -2  -3   4 80.5454 50.3202   5
   3  -2  -4 59.0756 36.3961   7
   2  -3  -4 102.957 51.7856   6
  -2  -3   4 213.959 29.2757   8
   2  -3   4 97.7604 30.0788   5
   3  -2  -4 119.972 48.1218   6
  -2   3  -4 169.271 38.7143   3
   2   3  -4 116.500 48.0353   2
   2  -3   4 79.4539 45.0892   8
  -3   2   4 101.965 34.1325   1
  -2   3  -5 2476.04 350.970   3
   2  -3   5 2766.52 347.693   5
  -2   3   5 2391.99 344.979   4
   3   2  -5 2611.52 353.366   2
   2  -3  -5 2828.58 347.662   7
   3  -2  -5 2067.98 353.592   6
  -2  -3   5 2512.21 345.194   8
   3  -2  -5 2763.45 350.371   7
   2   3  -5 2625.00 356.149   2
   2  -3  -5 1901.28 352.973   6
   3   2  -6 1432.20 209.051   2
   2  -3  -6 1603.26 201.891   7
  -2   3   6 1441.83 199.333   4
  -2  -3   6 1411.15 209.979   5
   3  -2  -6 1168.57 210.268   6
   2   3  -6 1502.69 212.821   2
   2  -3  -6 1476.21 211.808   6
  -3  -2   6 1352.71 198.038   8
   2  -3  -7 12304.2 1691.29   6
  -3   2   7 12310.3 1687.58   1
  -2   3   7 12620.5 1682.76   4
   3   2  -7 12191.0 1690.32   2
   3  -2  -7 13343.9 1692.32   6
   3  -2  -7 13278.8 1686.45   7
  -2   3  -7 11143.9 1688.32   3
  -3  -2   8 45.6121 58.9946   5
  -3  -2   8 69.0354 27.5168   8
   3  -2  -8-18.5125 71.2562   6
  -2  -3   8 48.9106 56.0963   5
   3   2  -8 51.5355 56.7763   2
   3   2  -9 2451.85 318.163   2
  -3  -2   9 2101.42 315.647   5
   3  -2  -9 2344.50 300.477   3
   3  -2  -9 2035.11 299.417   8
  -2  -3   9 2105.62 296.417   4
  -3  -2   9 2437.16 302.434   8
   3   2  -9 2165.20 306.439   6
   2  -3   9 2841.33 328.546   8
   2   3 -10 1385.14 190.717   6
   2  -3 -10 1500.03 198.281   7
   3  -2 -10 1494.84 193.528   3
   2  -3 -10 1398.78 209.955   6
  -3  -2  10 1473.87 210.947   5
  -2  -3  10 1406.85 187.813   4
   3   2 -10 1397.22 200.638   6
  -3   2  10 1108.95 188.629   5
  -3  -2  10 1545.14 192.224   1
   2   3 -10 1481.34 221.564   2
  -2  -3  10 1269.98 197.170   8
   3  -2 -10 1517.56 200.391   7
  -3   2  10 1216.90 209.211   1
  -2  -3  10 1440.46 188.674   1
  -2  -3  11 70.5061 72.8497   5
  -3  -2  11 393.521 53.4305   1
  -2  -3  11 299.453 45.3654   1
   3   2 -11 319.701 61.9674   7
   2   3 -11 244.312 98.9815   3
  -3   2  11 258.060 43.8541   5
   2   3 -11 201.222 47.3851   6
  -3  -2  11 261.616 46.7705   4
   2   3 -11 389.825 104.803   2
  -2  -3  11 269.773 65.7990   8
  -3   2  11 331.178 57.6499   4
   2   3 -11 288.611 51.2908   7
  -3   2  11 288.059 42.4798   8
  -3   2  11 260.364 79.3370   1
  -2   3  11 201.541 55.3361   4
  -2  -3  11 274.352 42.9976   4
   2  -3 -11 220.667 61.2467   7
   3  -2 -11 350.371 65.1404   7
   3  -2 -11 294.951 52.6271   2
   2  -3 -11 175.387 78.2239   6
   3  -2 -11 251.739 52.9296   3
   3  -2 -11 312.628 90.9454   6
   2   3 -12 174.200 46.6141   7
  -3   2  12 159.468 51.6369   4
   2   3 -12 236.106 44.2209   6
   3  -2 -12 184.353 90.9336   6
  -2   3  12 231.777 54.3406   4
  -2  -3  12 208.536 73.6821   5
   3   2 -12 282.384 66.5439   6
   3  -2 -12 263.759 46.4938   3
   2  -3 -12 299.190 58.1048   7
  -3   2  12 230.234 36.2909   8
  -3  -2  12 164.795 40.8124   4
  -2  -3  12 284.381 43.7172   1
  -3   2  12 180.690 83.1245   1
   2   3 -12 119.332 97.0843   3
  -3   2  12 225.498 38.1123   5
  -2   3  12 113.985 39.3169   8
   3  -2 -12 223.765 50.4313   2
   3   2 -12 282.302 63.2079   7
   3  -2 -12 239.303 60.7054   7
  -2  -3  12 167.617 37.6650   4
  -3  -2  12 125.642 45.3595   1
   2  -3 -12 198.677 78.0058   6
  -2  -3  12 208.147 63.7629   8
  -2  -3  13-2.49350 33.4499   4
   3  -2 -13-34.0663 58.2466   2
   2   3 -13-201.533 130.284   3
  -2   3  13 50.0212 53.1123   4
  -3  -2  13 67.8468 51.4381   8
   3   2 -13 34.9030 107.860   2
   3   2 -13 5.67107 62.4623   7
   3   2 -13-144.152 78.1159   6
  -2   3  13 38.2661 44.5499   8
  -2  -3  13-85.0430 48.3344   1
  -3  -2  13 16.8266 37.9934   4
   3  -2 -13-102.897 100.240   6
  -3   2  13 4.96315 58.8425   4
   3  -2 -13 19.6921 57.4298   7
  -3   2  13 26.4289 27.1364   8
  -2  -3  13 7.35201 72.7941   8
   2  -3 -13-67.8972 88.9817   6
   3  -2 -13-28.7319 46.2802   3
   2   3 -13 24.9534 40.4057   6
  -3   2  13 12.7758 29.8568   5
   2   3 -13 3.39811 41.2388   7
   2  -3 -13 6.44632 55.5693   7
  -2  -3  13-148.217 88.2662   5
   2   3 -14 52.5977 40.6600   6
  -2  -3  14 102.304 34.6352   4
  -3   2  14 105.795 29.4385   8
  -3  -2  14 158.550 55.4125   8
   3  -2 -14 44.1964 56.5694   2
  -2   3  14 55.9281 47.0527   8
   2   3 -14 43.1797 40.9752   7
   3  -2 -14 23.9833 42.2428   3
   3  -2 -14 20.8558 91.4342   6
  -2  -3  14-7.79211 68.5974   8
   3   2 -14 11.5306 55.4597   7
  -3   2  14 55.8447 28.9013   5
  -3  -2  14 84.2183 64.2339   5
   2  -3 -14 79.6235 82.3470   6
   2   3 -14 92.0226 100.708   3
  -2   3  14 65.9026 50.4323   4
   3   2 -14-5.84915 60.3172   6
  -2  -3  14 112.765 63.2959   5
  -3  -2  14 71.3991 33.0831   4
  -2  -3  14 84.7387 44.6625   1
   3   2 -14 132.519 104.259   3
   2  -3 -14 121.765 56.9187   7
  -3  -2  14 40.8361 45.9845   1
   3   2 -14 73.7742 108.907   2
   3  -2 -14 68.1040 56.9294   7
  -3   2  14 47.7519 48.6412   4
  -3  -2  15 209.714 70.7738   5
  -3  -2  15 116.867 60.3626   8
   2  -3 -15 10.3786 81.5155   6
   2  -3 -15-14.1876 58.8731   7
   3   2 -15 12.9750 112.571   2
   3   2 -15 64.3936 58.1827   7
   3  -2 -15 113.034 58.2548   7
  -3   2  15 73.4371 53.8628   4
   3   2 -15 60.1110 59.0236   6
  -2  -3  15 174.935 70.2110   5
  -3  -2  15 17.0548 54.8583   1
   2   3 -15 67.9620 94.5324   3
   3   2 -15 38.1666 102.569   3
  -3  -2  15 48.9327 38.4199   4
   3  -2 -15 137.515 91.6621   6
  -2  -3  15 59.5857 74.6236   8
  -2   3  15 38.4244 57.6040   4
  -2   3  16 1461.36 241.440   4
   2   3 -16 1630.17 268.109   3
  -3   2  16 1886.14 240.864   4
   2  -3 -16 1402.19 252.960   6
   2  -3 -16 1850.46 245.875   7
  -2  -3  16 1724.23 245.246   5
  -2  -3  16 1816.13 252.254   8
   3   2 -16 1667.24 240.890   6
  -3  -2  16 1617.11 241.949   8
   3  -2 -16 1477.89 253.798   6
   3   2 -16 1365.22 266.650   2
   3  -2 -16 1618.63 243.181   7
   3   2 -16 1800.90 269.872   3
  -3  -2  16 1806.21 246.460   5
  -3  -2  17 1266.52 209.646   5
   3   2 -17 1232.30 240.649   2
  -2  -3  17 1412.75 212.859   5
  -3  -2  17 1495.57 210.484   8
   2  -3 -17 1447.12 212.277   7
   2   3 -17 1205.08 230.874   3
   3  -2 -17 1496.69 224.206   6
   3  -2 -17 1566.66 213.520   7
  -2  -3  17 1540.45 221.801   8
   2  -3 -17 1256.89 220.562   6
   3   2 -17 1328.93 236.974   3
  -2   3  17 1404.46 211.079   4
  -3   2  17 1388.89 206.492   4
   2  -3 -18 197.019 103.790   6
  -3  -2  18 284.947 87.1380   8
  -2   3  18 270.324 83.0039   4
  -2  -3  18 290.476 86.1941   5
   3   2 -18 222.088 124.092   3
  -2  -3  18 227.587 105.102   8
  -3  -2  18 322.426 81.3780   5
   2   3 -18 286.867 112.910   3
   3  -2 -18 334.055 86.3717   7
   3  -2 -18 358.224 108.273   6
  -3   2  18 258.760 80.6537   4
   3   2 -18 390.818 143.629   2
   2  -3 -18 317.475 84.7286   7
  -3  -2  19 3719.45 621.618   5
  -2   3  19 4475.61 628.857   4
   3  -2 -19 4559.41 625.879   7
  -2  -3  19 4754.72 634.836   8
   3   2 -19 4478.57 650.677   2
   3   2 -19 4731.62 642.966   3
  -3   2  19 4925.29 625.267   4
   2  -3 -19 5193.57 628.231   7
   2  -3 -19 4325.82 634.112   6
   3  -2 -19 4417.52 632.182   6
   2   3 -19 3709.16 636.173   3
  -3  -2  19 4967.70 626.677   8
  -2   3  20 377.318 111.851   4
  -2  -3  20 310.407 137.784   8
   3  -2 -20 484.547 133.628   6
  -2  -3  20 593.685 111.280   5
   3  -2 -20 525.294 107.092   7
   2   3 -20 337.461 132.932   3
  -3  -2  20 457.719 113.650   8
  -3   2  20 328.474 102.595   4
  -3  -2  20 351.601 104.262   5
   2  -3 -20 630.989 137.841   6
   2  -3 -20 534.176 106.472   7
  -2   3  21 3999.70 508.175   4
   2  -3 -21 3529.44 503.692   7
   2  -3 -21 3056.06 508.959   6
   3  -2 -21 4300.84 505.614   7
  -3   2  21 3212.10 500.212   4
  -2  -3  21 3711.54 515.268   8
   2   3 -21 3764.48 522.631   3
  -2  -3  21 3445.07 503.104   5
   3  -2 -21 3328.44 510.648   6
  -3   2  22 111.888 93.2307   4
   2  -3 -22 9.68546 81.2416   7
  -2   3  22 193.784 102.059   4
   3  -2 -22 89.6948 107.844   6
   2  -3 -22 81.9247 110.797   6
   3  -2 -22 83.9263 79.7401   7
  -2  -3  22 65.6424 83.5472   5
  -2  -3  22 89.6837 120.997   8
   2   3 -22-108.532 122.675   3
  -2   3  23 1397.47 223.931   4
   2  -3 -23 1468.86 210.543   7
   2  -3 -23 965.366 221.167   6
   2  -3 -24 211.108 98.9123   7
  -2   3  24 174.861 129.222   4
  -3   3   1 16.4736 22.7351   1
   3  -3  -1-19.8071 33.0657   7
   3  -3  -2 77.2881 37.1984   7
  -3   3   2 36.6570 27.9253   1
   3  -3  -3 15.4550 47.7121   6
   3  -3  -4 5010.43 689.926   6
   3   3  -5-42.5656 49.9937   2
   3  -3  -5-11.7194 36.3753   7
   3  -3  -5 25.9929 57.1049   6
  -3   3   5 63.2163 40.3638   1
  -3  -3   5 7.27735 22.2090   8
  -3  -3   6 3174.82 505.782   5
   3  -3  -6 4007.69 505.436   6
  -3  -3   7 10.8150 66.7274   5
   3   3  -9 3.64588 39.4919   6
   3  -3  -9 85.8936 78.0371   6
  -3   3   9-8.90621 62.2170   1
   3  -3  -9-6.16623 41.8777   7
  -3   3   9-27.2944 35.7632   4
   3   3 -10 611.657 135.280   2
  -3   3  10 509.407 129.674   1
   3   3 -10 642.652 116.357   6
   3  -3 -10 832.572 119.385   7
  -3  -3  10 855.849 115.055   8
  -3   3  10 875.399 115.514   4
   3  -3 -10 546.646 138.340   6
   3   3 -11-71.5739 91.0173   2
  -3  -3  11 9.80781 73.0931   5
   3   3 -11-13.3421 50.3525   6
  -3   3  11-9.93166 40.3212   4
   3  -3 -11-39.2854 47.4177   7
   3  -3 -11 66.6286 86.9814   6
  -3  -3  11-10.1678 40.8556   8
   3  -3 -12 356.427 119.065   6
  -3   3  12 516.271 92.9589   4
   3   3 -12 683.137 131.664   3
  -3  -3  12 561.273 94.1406   8
  -3  -3  12 612.319 81.1155   4
  -3  -3  12 267.677 118.069   5
   3  -3 -12 562.656 99.6774   7
   3   3 -12 546.873 94.3187   6
   3   3 -12 467.361 129.329   2
   3  -3 -13-77.2134 79.2321   7
  -3  -3  13-53.9712 42.3377   4
   3   3 -13-189.329 75.3967   6
  -3  -3  13 70.1648 77.7839   8
   3  -3 -13-213.991 147.015   6
  -3   3  13-159.507 73.1057   4
  -3   3  13-14.8738 18.9657   8
  -3  -3  13-57.9489 40.9949   1
   3   3 -13-249.128 173.725   3
  -3  -3  13-243.272 122.179   5
   3   3 -13-66.5241 140.313   2
   3   3 -14 587.123 146.483   2
   3   3 -14 732.765 104.279   6
   3   3 -14 506.536 110.161   7
  -3  -3  14 616.440 109.442   8
  -3   3  14 456.350 108.404   4
   3  -3 -14 887.150 143.346   6
   3  -3 -14 757.237 114.909   7
  -3  -3  14 808.831 123.689   5
   3   3 -14 587.681 150.445   3
   3   3 -15 73.3150 118.136   2
   3  -3 -15 69.0535 93.6801   6
  -3  -3  15 17.7658 72.0620   5
   3   3 -15 42.6081 113.238   3
  -3  -3  15 13.5563 58.2586   8
  -3   3  15-49.6183 57.2053   4
   3  -3 -15 15.1335 59.0451   7
   3   3 -16 356.916 141.104   3
   3   3 -16 383.434 141.994   2
  -3   3  16 543.314 96.5363   4
  -3  -3  16 511.640 103.230   8
   3  -3 -16 408.480 123.863   6
   3  -3 -16 479.695 101.853   7
  -3  -3  16 554.801 107.324   5
  -3  -3  17 17.2725 74.2293   5
  -3   3  17-7.08570 61.4561   4
   3  -3 -17-8.14217 67.6111   7
   3   3 -17-48.0748 119.396   2
  -3  -3  17 78.8254 79.4662   8
   3   3 -17-76.2059 126.960   3
   3  -3 -17 35.5609 91.8117   6
  -3  -3  18 3432.55 514.526   5
   3  -3 -18 3360.99 523.038   6
   3   3 -18 4074.31 542.795   2
   3   3 -18 4199.67 537.398   3
  -3   3  18 3428.74 511.494   4
  -3  -3  18 4084.42 514.694   8
  -3  -3  19-43.7091 85.7637   8
   3   3 -19 17.3957 154.408   2
   3  -3 -19-61.5101 74.8331   7
  -3  -3  19 8.63177 78.1288   5
   3  -3 -19-62.4367 93.7854   6
   3   3 -19 142.987 116.929   3
  -3   3  19 40.0181 77.6037   4
   3   3 -20 7021.23 955.661   2
   3  -3 -20 7240.44 940.154   6
   3  -3 -20 6125.97 929.417   7
   3   3 -20 7377.97 950.486   3
  -3   3  20 7311.64 930.678   4
  -3  -3  20 6356.44 931.444   8
  -3  -3  20 6716.14 928.787   5
  -3  -3  21 9.92878 93.2508   8
   3   3 -21-64.6419 130.655   3
   3  -3 -21-75.8810 79.5312   7
  -3   3  21 27.4948 82.9647   4
   3   3 -21 56.4168 158.162   2
   3  -3 -21 39.6204 105.306   6
  -3  -3  21-17.7663 80.1948   5
  -3   3  22 2840.90 406.133   4
   3  -3 -22 2927.69 406.361   7
   3  -3 -22 2662.15 414.925   6
   3  -3 -23-28.3393 125.785   6
   3  -3 -23 144.037 93.3902   7
  -3   3  23-94.2924 105.395   4
   3  -3 -24 684.863 133.632   7
   3  -3 -24 585.424 159.661   6
   0  -4   0 884.146 119.663   7
   0   4   0 743.245 129.987   2
   0  -4   0 828.745 128.164   5
   0  -4   0 865.868 124.517   6
   0  -4   1-18.8829 23.7113   6
   0   4   1 6.03744 32.8223   2
   0  -4  -1-11.8266 33.5768   5
   0  -4   1-6.41546 13.5122   7
   0   4  -1 21.8531 42.2119   2
   0   4   1 2.45772 15.8698   4
   0  -4   1 5.68415 30.4307   5
   0  -4   1-6.50859 18.9916   8
   0  -4  -1-9.33701 26.6946   6
   0  -4  -1-7.01450 14.5207   8
   0  -4  -1-10.6958 16.6025   7
   0   4  -1-1.85101 12.2756   4
   0  -4   2 40.0895 24.2585   6
   0   4   2 36.7263 35.1686   2
   0   4   2 49.9725 19.9729   4
   0  -4   2 55.0572 25.8854   8
   0  -4   2 44.5644 34.1344   5
   0  -4  -2 24.2183 36.5219   5
   0  -4  -2 36.0110 19.1919   7
   0  -4  -2 60.5998 15.8529   8
   0  -4   2 81.8585 18.0311   7
   0  -4  -2 76.0317 34.1980   6
   0   4  -2 51.9071 15.2018   4
   0  -4   3-17.3786 21.4155   6
   0  -4   3-10.6451 14.7942   7
   0  -4   3 16.9315 35.8295   5
   0   4   3 21.6754 21.2400   4
   0  -4  -3-26.7004 20.2324   7
   0  -4   3-9.45433 27.5808   8
   0  -4  -3 16.6318 30.5947   6
   0   4  -3 7.10178 35.5637   3
   0   4  -3-3.91113 10.9158   4
   0  -4   4 4732.95 706.718   8
   0  -4  -4 4454.26 703.128   7
   0  -4   4 5724.29 702.162   6
   0   4  -4 5444.33 701.021   1
   0   4  -5-26.0110 49.2407   3
   0  -4   5-11.8387 35.2254   5
   0  -4  -5-19.3979 34.6340   6
   0   4   5-15.1575 26.1358   4
   0  -4  -5 4.02845 23.8402   7
   0   4  -6 2291.11 331.786   3
   0  -4  -6 2301.81 325.207   6
   0  -4   6 2351.20 323.616   5
   0  -4  -8 19274.8 2585.77   7
   0  -4   8 16463.4 2591.05   8
  -4   0   8 18987.3 2584.69   1
   4   0  -8 22463.1 2592.93   6
   4   0  -9 8.21278 66.8540   6
   0   4   9-21.5986 40.0769   4
   0   4  -9 11.1134 75.4678   3
   0  -4  -9 41.9268 48.2702   6
   0  -4   9 44.5165 44.8372   5
  -4   0   9 16.4413 62.7175   5
   0  -4   9 9.95061 71.4003   8
   4   0  -9-31.9211 47.7646   7
  -4   0   9 4.88883 36.4346   1
   0  -4  -9 5.43744 36.9324   7
  -4   0  10 529.010 105.661   5
   0  -4 -10 567.272 88.2343   7
   4   0 -10 384.179 106.569   6
  -4   0  10 507.855 86.5017   1
   4   0 -10 461.697 99.6645   7
   0   4  10 480.381 89.5102   4
   0  -4  10 562.309 118.251   8
   0  -4  10 676.393 93.2163   5
   0   4 -10 275.910 113.732   3
   0  -4 -10 497.541 99.4694   6
   0  -4 -11-12.2795 40.9644   7
   4   0 -11-56.4582 85.9053   6
   0   4  11 38.0875 54.6244   4
   4   0 -11 22.2011 52.7043   2
  -4   0  11 58.3695 60.8372   5
   0  -4 -11 18.7848 62.9007   6
   0   4 -11-47.1614 76.1231   3
   0  -4  11 45.5241 81.3481   8
   0  -4  11 75.3508 47.2656   5
   0   4 -12 6.57638 16.9469   7
   0  -4  12-110.635 99.3870   8
   0  -4  12 56.6888 51.2982   5
   0   4  12 6.87284 55.5769   4
  -4   0  12 20.4093 61.2502   5
   0   4 -12-36.5877 76.9903   3
   4   0 -12-38.6655 55.4990   2
  -4   0  12 47.8965 31.8253   8
   0  -4 -12 25.9591 45.1422   7
   0  -4 -12-69.2357 64.5129   6
   4   0 -13 214.415 123.167   7
   0  -4 -13 301.146 99.4188   6
   0  -4  13 204.860 82.6075   5
   0  -4  13 670.554 145.017   8
   0   4  13 446.234 88.5421   4
   4   0 -13 613.092 148.833   3
  -4   0  13 366.352 69.3963   8
  -4   0  13 358.868 109.191   1
   0  -4 -13 129.595 70.7224   7
   0   4 -13 743.656 142.542   3
  -4   0  14 227.507 65.5110   5
   4   0 -14 137.114 71.8128   7
   4   0 -14 173.712 85.3410   3
  -4   0  14 203.720 69.7608   1
   0  -4  14 189.321 118.710   8
   0  -4 -14 200.757 63.8987   7
  -4   0  14 141.568 51.8236   4
   4   0 -14 105.618 77.6499   2
   0  -4 -14 206.674 74.5922   6
   0  -4  14 137.473 67.4835   5
  -4   0  14 197.652 46.3446   8
   0   4 -14 150.899 83.4019   3
   0   4  14 241.498 74.6630   4
   4   0 -14 196.255 100.684   6
   4   0 -15 10.2558 91.3364   6
  -4   0  15-17.8588 53.9584   5
   0   4  15 8.63939 69.1837   4
   4   0 -15-80.6939 69.6215   7
  -4   0  15-8.08856 70.8280   1
   0  -4  15-15.9825 61.7294   5
   0  -4 -15-15.0396 58.9609   7
   4   0 -15 18.7817 75.9747   2
  -4   0  15-9.53069 46.4046   4
   0  -4  15 14.1801 121.162   8
   4   0 -15-129.634 90.7932   3
   0   4 -15-64.7551 87.9890   3
   0  -4  16 58.6936 70.7444   5
   0  -4  16 238.043 132.178   8
   0   4 -16 26.7363 95.2470   3
   4   0 -16 24.6104 71.5778   7
  -4   0  16 20.0942 46.4333   4
  -4   0  16 112.725 77.3929   1
   4   0 -16-61.9235 91.5226   6
   0  -4 -16 23.5207 54.3045   7
  -4   0  16 63.9608 53.2183   5
  -4   0  17-55.5914 80.5939   1
   4   0 -17 24.9836 77.0117   7
   0  -4  17-17.5711 71.5173   5
   4   0 -17 30.8548 88.3976   6
   0   4 -17-27.3738 94.7305   3
  -4   0  17 48.2440 51.6107   4
   0  -4 -17-24.5873 68.0559   7
   0  -4  17 78.1173 133.460   8
   0  -4  18 2646.41 383.156   5
  -4   0  18 2350.63 384.446   1
   4   0 -18 2791.05 388.532   6
   0  -4 -18 3061.82 382.912   7
   0  -4  18 2252.98 403.323   8
   0   4 -18 2194.59 395.406   3
  -4   0  18 2912.54 375.040   4
   0  -4 -19-8.89709 79.1998   7
   4   0 -19-72.9893 91.2312   6
   0  -4  19 84.1160 146.327   8
   4   0 -19-17.4767 77.3462   7
   0   4 -19 222.819 108.875   3
   0  -4  19-19.2872 77.6988   5
   0  -4 -20 3741.86 593.054   7
   0  -4  20 4448.36 599.184   5
   0   4 -20 4735.25 614.951   3
   0  -4  20 4951.95 632.212   8
   0  -4  21 21.0689 76.2741   5
   0  -4 -21-67.4484 81.0682   7
   0  -4  21 93.8265 163.716   8
   0   4 -21-65.9271 114.092   3
   0  -4  22 2491.29 469.258   8
   0   4 -22 3493.48 459.032   3
   0  -4  23-328.300 192.844   8
   0  -4  24 21.2342 183.618   8
   0  -4  25-408.705 245.458   8
   1  -4   0 7054.07 841.373   6
   1  -4   0 5947.41 836.332   5
   1  -4   0 5561.15 836.760   8
  -1   4   0 6024.69 833.924   4
   1  -4   0 6427.92 835.547   7
  -1  -4   0 6147.78 834.852   7
  -1   4   0 6701.41 840.950   3
   1  -4  -1 314.054 46.4826   5
  -1  -4   1 276.741 62.0481   5
   1  -4   1 214.554 43.9422   7
   1  -4  -1 204.628 44.6328   8
   1  -4   1 124.509 53.1444   8
   1  -4  -1 260.707 45.5381   7
  -1   4   1 302.384 43.3576   4
  -1  -4   1 303.264 42.6858   7
   1  -4   1 205.904 52.8289   6
  -1   4   1 332.620 55.3851   3
   1   4   1 249.111 57.3252   2
  -1   4  -1 189.290 48.2302   1
  -1  -4  -1 242.447 44.8937   7
   1   4  -1 372.926 61.8616   2
  -1  -4   1 306.837 43.6856   8
   1  -4  -1 241.835 58.9804   6
   1  -4   1 299.382 47.2597   5
  -1   4  -1 161.897 54.0978   3
  -1  -4  -2 667.781 80.6334   7
  -1   4  -2 446.904 89.7860   3
   1  -4   2 564.435 81.8041   5
  -1   4   2 516.407 77.6972   4
   1  -4  -2 536.616 89.7085   6
  -1  -4   2 473.212 78.2149   8
   1  -4   2 525.867 90.3472   8
  -1   4  -2 362.636 78.2855   1
  -1  -4   2 522.305 95.0075   5
   1  -4   2 532.529 84.7582   6
  -1   4   2 578.126 85.5640   3
   1  -4  -2 497.912 79.5790   5
   1  -4  -2 535.968 77.0001   8
   1  -4  -2 543.239 79.6044   7
   1  -4   2 642.306 80.0130   7
   1   4  -2 322.727 90.2650   2
  -1  -4   2 630.972 76.7053   7
  -1   4   2 410.239 86.1271   2
  -1   4   3 992.422 172.917   2
   1  -4  -3 1234.64 166.825   8
   1  -4  -3 1468.49 172.029   7
   1   4  -3 1072.58 182.916   2
  -1  -4   3 1092.67 180.788   5
   1  -4   3 1079.14 169.874   7
  -1   4  -3 1279.18 168.904   1
  -1   4  -3 1352.79 180.711   3
   1  -4  -3 1317.98 179.581   6
  -1   4   3 1171.66 169.127   4
   1  -4   3 1194.30 172.125   5
   1  -4  -3 1220.91 169.908   5
   1  -4   3 1346.43 180.448   8
  -1  -4   3 1168.45 170.133   8
  -1   4  -4 268.045 64.5310   3
  -1   4   4 165.938 41.1691   4
  -1  -4  -4 285.611 46.2927   7
   1  -4  -4 264.098 44.9980   7
   1  -4   4 211.912 63.4832   8
  -1  -4   4 275.420 35.0578   7
   1  -4   4 191.439 45.2562   5
  -1   4   4 212.734 44.8984   2
   1  -4   4 167.515 46.0972   6
  -1  -4   4 239.218 62.5041   5
   1  -4  -4 306.602 59.8572   6
   1  -4  -4 222.412 43.2883   5
   1  -4  -4 208.609 35.6805   8
   1  -4  -5 8151.71 1079.41   6
   1  -4  -5 7956.59 1071.89   5
  -1   4   5 7316.96 1071.65   4
  -1   4  -5 7581.54 1080.50   3
   1  -4   5 8698.70 1075.30   5
   1  -4   5 8505.75 1083.85   8
  -1   4   6 2328.44 322.155   4
   1  -4   6 2714.11 326.084   5
  -4   1   6 2499.61 324.178   1
   4  -1  -6 1664.12 327.109   7
   1  -4  -7 3731.99 556.725   2
   4  -1  -7 5690.24 574.856   6
   1  -4   8 128.229 75.8934   8
   1  -4  -8 232.316 48.2259   7
  -1  -4   8 136.199 56.7031   8
   4  -1  -8 287.155 78.9054   6
  -1   4  -9 2104.10 408.626   3
   1  -4   9 3261.32 406.080   5
   1  -4  -9 2900.34 410.652   6
   1  -4  -9 3234.66 403.338   7
   4  -1  -9 2713.43 413.641   6
   4   1  -9 3012.57 409.543   6
  -1  -4   9 3295.58 410.058   8
  -1   4   9 2731.97 401.747   4
   1   4  -9 3095.59 420.142   3
   1  -4   9 2547.31 419.238   8
  -1   4 -10 1379.70 217.809   3
  -4  -1  10 1531.69 219.614   5
  -1  -4  10 1180.16 210.621   5
   4   1 -10 1361.46 213.349   2
  -1   4  10 1330.48 203.933   4
  -1  -4  10 1189.35 214.520   8
   4   1 -10 1308.40 213.917   6
   1  -4  10 1364.43 231.537   8
   1  -4 -10 1262.44 211.415   6
   1   4 -10 1446.21 224.532   3
  -4  -1  10 1558.73 201.762   1
  -4   1  10 1616.22 208.804   5
   1  -4  10 1647.27 208.730   5
   1  -4 -10 1506.33 204.397   7
  -4   1  11 306.583 68.0068   1
   4   1 -11 287.370 67.9989   7
   1  -4 -11 277.833 74.3166   6
  -4  -1  11 250.775 52.0710   1
   4   1 -11 232.415 81.9974   6
   1  -4  11 172.370 61.7240   5
   4  -1 -11 380.223 70.6097   7
   4   1 -11 308.417 79.6129   2
  -1   4 -11 97.1721 77.9863   3
  -1  -4  11 206.541 67.3100   5
  -4  -1  11 190.713 44.4664   8
  -1  -4  11 249.924 78.1169   8
   1  -4 -11 212.802 54.8048   7
   1   4 -11 362.568 102.819   3
  -4   1  11 129.166 60.3206   5
   1  -4  11 260.104 106.388   8
  -1   4  11 207.996 60.2644   4
  -4  -1  11 136.782 80.6173   5
  -1  -4  12 338.697 97.1494   8
   4   1 -12 273.467 81.2652   7
   4  -1 -12 386.240 81.2295   7
   1   4 -12 168.908 108.835   3
  -4   1  12 257.843 64.2098   4
   1  -4  12 317.191 127.280   8
  -1   4 -12 382.092 86.4108   3
  -4   1  12 321.225 67.7655   5
  -4  -1  12 328.182 63.8970   1
  -4  -1  12 177.474 88.2308   5
  -1  -4  12 304.013 78.5008   5
  -4   1  12 390.355 80.6739   1
   4  -1 -12 388.224 111.308   6
   4   1 -12 301.457 95.0946   6
   1  -4  12 218.859 72.3130   5
   4  -1 -12 422.888 81.5186   3
   1  -4 -12 503.765 71.4288   7
   1  -4 -12 299.751 88.3919   6
  -1   4  12 283.738 69.2114   4
  -1   4 -13 504.397 122.507   3
  -1  -4  13 107.879 81.7248   5
   1   4 -13 682.664 155.898   3
  -4   1  13 345.262 92.6903   5
  -1  -4  13 481.352 127.189   8
   1  -4  13 224.034 86.5040   5
   1  -4 -13 432.354 106.007   6
   1  -4 -13 434.670 75.0233   7
   1  -4  13 682.271 174.929   8
  -1   4  13 116.810 73.0609   4
  -4  -1  13 810.306 152.058   5
   4  -1 -14 1738.92 263.419   6
   1  -4 -14 1861.48 244.191   7
  -4   1  14 1725.78 233.982   8
   4   1 -14 1786.82 255.893   6
   4  -1 -14 1965.27 245.917   2
   1  -4  14 1661.26 281.861   8
  -1   4 -14 1649.92 259.825   3
  -4   1  14 1959.39 252.900   1
   1  -4  14 1924.50 248.574   5
  -1  -4  14 1634.26 260.908   8
   4  -1 -14 1702.48 248.688   3
  -4   1  14 1453.58 239.436   4
   1   4 -14 1290.77 261.463   3
  -1  -4  14 1350.35 244.246   5
  -1   4  14 1663.72 244.890   4
   1  -4 -14 1539.12 254.156   6
   4  -1 -14 1783.09 249.698   7
   1   4 -15 169.302 107.695   3
   1  -4  15 214.932 72.3891   5
   1  -4 -15 232.715 64.1206   7
  -4   1  15 257.909 46.7769   8
  -1  -4  15 259.226 105.283   8
   4  -1 -15 171.911 82.3745   7
  -4   1  15 283.877 94.2555   1
   4   1 -15 220.754 101.421   2
  -4   1  15 188.904 55.0871   5
  -4   1  15 179.506 65.2864   4
  -1  -4  15 192.711 71.1471   5
   4  -1 -15 11.4251 104.112   6
  -1   4  15 247.627 76.4602   4
  -4  -1  15 260.953 54.3764   8
   1  -4  15 151.587 133.875   8
   1  -4 -15 265.160 93.0861   6
  -1   4 -15 308.580 100.041   3
   1  -4 -16 1470.84 221.794   7
  -1  -4  16 1513.17 245.915   8
   4   1 -16 1720.62 241.921   2
  -1   4  16 1691.46 229.307   4
   4   1 -16 1495.03 243.359   3
   4  -1 -16 1569.80 242.203   6
   4  -1 -16 1093.27 226.263   7
  -4  -1  16 1652.80 216.668   8
  -1   4 -16 1533.35 246.064   3
   4   1 -16 1379.11 229.727   7
  -1  -4  16 1726.27 229.534   5
   1  -4  16 1048.51 267.311   8
  -4  -1  16 1662.64 224.712   1
  -4   1  16 1678.85 218.955   4
   1  -4 -16 1371.60 237.587   6
   1  -4  16 1318.59 228.122   5
  -4  -1  16 1614.94 226.545   5
   1   4 -16 1496.80 248.617   3
  -4   1  16 1097.33 233.607   1
  -4  -1  17 873.489 130.279   8
  -1   4  17 856.744 144.498   4
   4   1 -17 833.413 157.921   2
  -4   1  17 721.544 130.870   4
   4   1 -17 924.577 169.623   3
  -1   4 -17 846.288 168.169   3
  -1  -4  17 677.471 166.999   8
   1  -4  17 826.366 150.008   5
   4   1 -17 841.904 145.187   7
  -4  -1  17 812.210 140.705   1
  -4  -1  17 762.466 126.502   4
  -1  -4  17 982.011 142.745   5
   1  -4 -17 796.832 137.628   7
  -4  -1  17 862.482 136.797   5
   1   4 -17 880.577 171.253   3
   1  -4 -17 1144.59 163.061   6
   4   1 -17 838.141 149.352   6
   4  -1 -17 766.244 161.004   6
   4  -1 -17 672.134 141.668   7
  -4   1  17 776.592 155.434   1
   1  -4  17 735.606 207.113   8
  -1   4  18 1724.62 271.294   4
   1  -4 -18 1771.83 279.359   6
  -4  -1  18 1704.33 262.222   5
   4  -1 -18 1592.12 278.124   6
  -4   1  18 1758.83 277.074   1
  -1   4 -18 1946.91 288.330   3
  -4   1  18 1975.12 261.451   4
  -1  -4  18 2170.08 292.896   8
   1  -4  18 1283.90 313.010   8
   1  -4 -18 1451.96 264.366   7
   4  -1 -18 1851.10 268.830   7
  -1  -4  18 1803.88 268.806   5
   1   4 -18 1888.77 287.441   3
  -4  -1  18 2145.69 260.474   8
   1  -4 -19 4679.32 646.857   7
  -1  -4  19 4805.12 647.703   5
   4  -1 -19 5154.28 656.574   6
  -1  -4  19 4931.95 665.399   8
   1  -4 -19 3923.98 654.692   6
  -1   4  19 5373.60 654.485   4
  -4   1  19 4175.67 655.233   1
  -4   1  19 4502.88 642.119   4
   1  -4 -20 389.646 98.0932   7
   4  -1 -20 466.882 118.369   6
   4  -1 -20 267.714 100.383   7
   1   4 -20 338.047 134.290   3
  -1  -4  20 209.086 96.6265   5
  -4   1  20 292.554 123.061   1
  -4   1  20 417.329 89.1672   4
   1  -4  20 427.601 188.503   8
  -1   4  20 475.518 121.574   4
  -1  -4  20 214.190 139.722   8
   1  -4 -21 4621.09 645.957   7
  -1   4  21 4626.12 651.603   4
  -1  -4  21 5016.81 667.224   8
   1  -4  21 4069.33 688.242   8
  -1  -4  21 4462.96 646.164   5
   1   4 -21 5116.57 664.598   3
   1  -4  22 165.857 209.187   8
   1   4 -22 411.599 138.012   3
  -1  -4  22 412.256 105.601   5
  -1  -4  22 332.478 158.425   8
   1  -4 -22 379.505 97.8845   7
  -1  -4  23 1572.60 283.436   8
   1  -4  23 1186.67 321.850   8
   1   4 -23 1413.86 266.991   3
   1  -4 -23 1620.31 250.688   7
  -1  -4  23 1809.33 251.227   5
   1  -4 -24 332.387 103.605   7
  -1  -4  24 200.836 101.895   5
   1   4 -24 163.563 133.625   3
   1  -4  24-52.9559 233.493   8
  -1  -4  24 154.144 160.631   8
   1  -4  25-333.135 277.024   8
   1  -4 -25-45.4294 115.155   7
   2  -4   0 939.746 128.546   5
   2  -4   0 958.497 133.632   7
  -2   4   0 866.643 133.274   3
   2  -4   0 820.697 138.938   8
   2  -4   0 898.598 139.022   6
   2  -4   1 4504.28 555.425   5
   2  -4  -1 3790.47 561.515   6
   2  -4  -1 4264.50 553.769   5
  -2   4   1 3203.97 555.651   3
   2  -4  -1 5045.46 562.412   8
  -2   4  -1 3385.72 555.349   1
  -2   4  -1 4243.34 559.137   3
   2  -4   1 4493.30 561.095   6
   2  -4   1 4650.85 564.248   8
  -2   4  -2 1046.78 141.563   3
  -2  -4   2 955.864 134.874   8
   2  -4   2 828.888 138.692   7
   2  -4  -2 865.916 146.390   6
   2   4  -2 905.044 144.543   2
   2  -4  -2 933.875 132.576   5
  -2   4   2 806.814 140.590   1
   2  -4  -2 1185.57 138.825   7
   2  -4  -2 1001.94 140.393   8
   2  -4   2 855.801 150.644   8
  -2   4   3 5071.36 587.471   3
  -2  -4   3 5676.16 605.061   5
   2  -4  -3 4680.43 597.449   6
   2  -4   3 3819.32 587.259   5
  -2   4   3 4261.59 591.810   1
   2  -4  -3 3955.55 583.988   5
   2  -4   4 3144.39 470.155   8
   2  -4  -4 3377.64 454.713   5
   2  -4  -4 4001.77 461.898   7
  -4   2   4 2918.42 459.696   1
   2  -4  -4 2984.60 455.531   8
  -2   4  -4 3824.65 466.674   3
  -2   4   4 3756.16 457.772   3
   4  -2  -5 83.1741 43.8240   7
  -4   2   5 71.1055 30.9079   1
  -2  -4   5 134.268 61.6759   5
  -2   4   5 18.1302 28.8550   2
   2  -4  -5 59.2146 14.9293   8
  -2   4   5 11.5715 20.0182   3
  -2   4   5 15.2913 26.9248   4
  -2   4  -5 7.46321 38.4403   3
   2  -4  -5 17.8681 58.8351   6
   2  -4  -5 43.0061 13.4921   5
   2  -4   5 29.3429 28.7014   5
   4  -2  -6 9107.30 1241.47   6
   2  -4  -7 910.642 136.616   7
   2  -4   8 7556.09 983.804   8
   2  -4   8 6482.90 969.393   5
   4  -2  -8 6760.73 972.938   7
  -2  -4   8 7567.61 968.455   8
   4   2  -8 7247.51 976.674   2
   2  -4  -8 6551.13 975.799   6
   2  -4  -8 7436.75 969.449   7
  -2   4   8 7350.08 967.165   4
   2  -4  -9 746.099 138.885   6
  -4   2   9 712.243 126.090   1
   2  -4  -9 753.534 123.370   7
  -2  -4   9 812.496 141.298   5
   2   4  -9 815.099 150.560   2
  -2  -4   9 802.071 122.908   8
   4  -2  -9 675.847 131.384   7
   2   4  -9 1061.09 148.539   3
   2  -4   9 753.279 156.938   8
   2  -4   9 960.669 127.042   5
  -4  -2   9 596.668 143.035   5
  -2   4  -9 708.479 135.766   3
  -2   4   9 824.103 120.282   4
  -4   2  10 1697.84 254.190   5
   4  -2 -10 1878.82 277.286   6
   2  -4  10 1601.00 281.244   8
   4   2 -10 1847.96 262.490   6
   4  -2 -10 2311.06 267.282   7
  -2   4 -10 1583.28 267.668   3
  -4   2  10 1895.42 265.294   1
  -2  -4  10 1736.48 266.093   5
  -2  -4  10 1874.49 259.275   8
   2  -4 -10 1810.85 258.695   7
  -2   4  10 1816.05 256.614   4
   2   4 -10 2218.95 286.254   2
   2  -4 -10 1539.02 268.122   6
   2   4 -10 1997.20 279.153   3
   4  -2 -11 3316.47 455.106   7
  -2  -4  11 3092.94 458.302   5
  -2   4  11 3233.13 448.740   4
  -2   4 -11 2635.49 458.784   3
   2   4 -11 3766.01 475.601   2
   2  -4 -11 2794.13 449.330   7
   4  -2 -11 4157.60 473.267   6
   2  -4 -11 3981.29 462.732   6
  -2  -4  11 3014.73 452.195   8
   4   2 -11 3274.32 454.396   6
   2  -4  11 3654.80 455.228   5
   2  -4  11 3410.91 475.553   8
   4   2 -12 21.9872 72.9481   6
  -2   4 -12-47.0573 73.0438   3
   4  -2 -12-48.9095 107.326   6
   4  -2 -12-46.4984 51.0023   3
  -2  -4  12-54.5878 83.0616   5
   4   2 -12-86.7976 93.8480   2
  -2   4  12 17.2839 48.5286   4
   2   4 -12-102.174 114.338   2
   2  -4 -12 6.72812 53.8990   7
   2  -4  12 15.6032 119.972   8
  -2  -4  12-50.0931 63.0339   8
   4  -2 -12-24.0013 62.4827   7
   2  -4 -12-10.5159 81.7941   6
  -4   2  12 10.2698 51.6051   4
   2   4 -12-39.6433 116.321   3
  -4   2  12-15.3462 34.2234   5
  -4   2  12-36.8318 75.7526   1
  -4  -2  12-22.6306 38.5203   8
   4   2 -13 1302.10 234.552   6
   4  -2 -13 1884.30 236.787   7
   2   4 -13 1621.63 264.862   2
   4   2 -13 1143.72 241.308   2
   2   4 -13 1457.54 259.594   3
  -4   2  13 1279.68 235.551   1
   2  -4 -13 1731.72 227.294   7
   2  -4 -13 1673.37 239.991   6
  -2   4 -13 1739.27 246.970   3
  -4  -2  13 738.689 237.050   5
  -2  -4  13 1528.56 232.110   8
   2  -4  13 1258.10 260.108   8
  -2  -4  13 1087.52 232.240   5
  -4   2  13 1807.20 224.043   4
   4  -2 -13 1509.04 254.084   6
  -4  -2  13 1847.55 221.676   8
  -2   4  13 1721.62 226.277   4
  -4   2  13 1422.31 214.946   5
   4  -2 -13 1825.80 225.337   3
   2   4 -14 58.6518 110.589   3
   4   2 -14 11.8048 106.902   3
  -4  -2  14 9.31930 82.0419   5
  -4   2  14 115.634 90.3531   1
  -2  -4  14 115.217 69.8286   5
   4   2 -14 237.916 85.2412   6
   4  -2 -14 148.679 108.052   6
   2  -4  14-35.2061 134.511   8
   2  -4 -14 87.5629 88.7034   6
  -4  -2  14 161.282 48.6962   8
   4  -2 -14 24.6309 65.1378   7
  -2   4  14 26.3011 58.5789   4
  -4  -2  14 113.204 38.7910   4
   2  -4 -14 110.393 62.1331   7
   4   2 -14 101.126 71.8244   7
  -2  -4  14 142.758 75.8634   8
  -4  -2  14 133.477 47.2647   1
   4   2 -14 155.601 92.0456   2
  -4   2  14 100.031 51.3088   4
  -4  -2  15 2524.62 363.686   5
  -4   2  15 2398.24 367.315   1
   2  -4 -15 2859.58 358.491   7
   4   2 -15 1936.90 359.297   7
  -2  -4  15 2627.85 363.541   8
  -2   4  15 2421.80 356.166   4
   4   2 -15 2096.00 370.412   2
  -2  -4  15 2702.40 362.444   5
  -4  -2  15 2521.14 352.473   1
   4   2 -15 2923.43 380.809   3
  -4  -2  15 2280.99 347.923   4
  -4   2  15 2837.13 354.261   4
   2  -4  15 2708.56 395.804   8
   4  -2 -15 2726.62 361.745   7
   2   4 -15 2245.72 381.136   3
   2  -4 -15 2440.66 366.273   6
  -4  -2  15 2856.04 352.727   8
   4   2 -15 2451.94 359.736   6
   4  -2 -15 2389.90 373.788   6
  -2   4  16-14.8494 62.7042   4
  -2  -4  16-52.5354 72.9907   5
  -4   2  16-47.5698 99.7394   1
   2  -4 -16 16.0498 61.0490   7
   4   2 -16-39.7208 107.807   2
  -2  -4  16-47.6885 84.7061   8
   4  -2 -16-69.1240 77.8285   7
   4   2 -16-95.6012 120.913   3
   2  -4  16-79.3766 150.239   8
  -4  -2  16-17.1179 50.2947   8
  -4  -2  16 35.2565 72.2823   5
   2  -4 -16 46.5683 90.5484   6
  -4   2  16-30.4458 57.1080   4
   4  -2 -16-12.5110 100.836   6
   2   4 -16 46.7112 116.507   3
   4  -2 -17 3090.64 456.628   6
  -4  -2  17 3458.01 439.934   8
  -4   2  17 3188.76 440.751   4
  -2  -4  17 3388.63 452.400   8
  -4   2  17 2401.12 453.913   1
   2  -4 -17 3574.50 445.749   7
   4   2 -17 2710.55 463.959   2
   4  -2 -17 3120.50 446.492   7
  -2  -4  17 3333.76 447.013   5
  -2   4  17 2899.88 442.574   4
   2   4 -17 3250.96 465.476   3
  -4  -2  17 3165.91 445.542   5
   4   2 -17 2934.33 466.245   3
   2  -4 -17 3187.39 454.115   6
  -4  -2  18 3877.48 645.311   8
  -4   2  18 4412.24 664.663   1
  -4  -2  18 5111.40 653.067   5
   2   4 -18 4315.17 669.852   3
  -2  -4  18 4757.87 659.151   8
   2  -4 -18 5036.17 662.634   6
   4   2 -18 5178.16 671.892   2
   4  -2 -18 5485.30 665.623   6
   4  -2 -18 4363.40 653.019   7
  -2   4  18 4853.86 652.488   4
  -4   2  18 5273.69 649.739   4
   2   4 -19 1839.75 289.747   3
  -2  -4  19 1826.53 266.419   5
   4  -2 -19 1678.20 264.244   7
   2  -4 -19 1555.56 272.140   6
  -4   2  19 1635.96 256.646   4
  -2   4  19 2303.31 269.617   4
   4  -2 -19 1684.93 273.541   6
  -2  -4  19 1597.32 274.780   8
   2  -4 -19 2065.14 264.803   7
  -4  -2  19 1509.17 261.531   5
  -4   2  19 1253.23 280.980   1
  -4  -2  19 1945.22 257.870   8
   2  -4 -20 4703.97 758.534   6
   2   4 -20 5501.96 768.059   3
   2  -4 -20 6115.27 755.049   7
   4  -2 -20 5252.14 753.227   7
   4  -2 -20 4816.35 758.160   6
  -2  -4  20 5639.06 752.805   5
  -2  -4  20 5520.00 759.925   8
  -4   2  20 5139.53 766.330   1
  -2   4  20 5985.33 754.935   4
  -4   2  21 737.759 177.399   1
   4  -2 -21 631.811 141.645   7
  -2  -4  21 479.041 134.806   5
   2  -4 -21 869.593 147.013   7
  -4   2  21 751.443 137.552   4
   4  -2 -21 761.417 158.809   6
  -2   4  21 776.831 152.075   4
  -2  -4  21 822.015 163.148   8
   2   4 -21 1160.82 183.501   3
   2  -4 -21 976.066 166.818   6
  -2   4  22 3726.83 471.245   4
   2  -4 -22 3396.72 474.677   6
  -2  -4  22 2365.60 459.140   5
   4  -2 -22 3041.05 471.580   6
   2  -4 -22 3761.98 465.531   7
  -2  -4  22 3662.85 479.249   8
   4  -2 -22 3158.42 462.854   7
   2   4 -22 3614.12 488.834   3
   2  -4 -23 812.284 155.621   7
   2  -4 -23 777.903 176.149   6
  -2  -4  23 977.973 157.020   5
  -2   4  23 827.797 170.200   4
  -2  -4  23 770.531 176.203   8
   2   4 -23 584.625 177.805   3
   2  -4 -24 289.901 114.253   7
  -2   4  24 281.410 127.279   4
   2  -4 -25 568.077 140.010   7
  -3   4   0 524.919 88.1534   1
   3  -4   0 546.365 96.8237   7
   3  -4   0 770.188 101.050   8
   3  -4  -1 34.9350 41.4636   7
   3  -4   1 65.2037 42.4134   8
  -3   4   1 15.1488 31.2005   1
   3  -4  -1 32.8947 42.1642   8
   3  -4  -1 7.93346 48.7991   6
   3  -4  -2 3758.88 599.824   6
   3  -4  -2 4893.46 597.569   8
  -3   4   2 3847.16 595.343   1
   3  -4   2 5436.51 606.061   8
   3  -4  -3 611.015 112.369   6
   3  -4  -3 612.700 95.5705   8
   3  -4  -4 2830.08 389.117   8
   3  -4  -5 9228.06 1246.43   8
  -3  -4   6-12.9724 29.7946   8
   3   4  -6-10.5165 65.6332   2
  -3   4   6 8.17984 50.4618   1
  -4   3   6-19.7665 44.3086   1
   4  -3  -6 24.2786 48.4350   7
   4  -3  -7 10489.9 1411.00   7
   3  -4  -7 9239.51 1414.89   6
  -3  -4   7 11073.0 1404.07   8
  -4   3   7 10683.1 1408.93   1
  -3   4   7 9385.48 1403.29   4
   3  -4  -7 11064.7 1407.48   7
   4  -3  -7 10825.3 1416.81   6
   4  -3  -8 3214.98 412.785   6
   3   4  -8 2973.62 409.923   2
   4  -3  -8 2625.16 402.323   7
   4   3  -8 3185.86 407.697   2
  -3  -4   8 2974.69 414.113   5
   3  -4  -8 2661.74 397.875   7
  -3   4   8 2585.85 403.458   1
   3  -4  -8 2858.82 412.209   6
  -3   4   8 2934.43 394.576   4
  -4   3   8 2889.33 401.480   1
   4   3  -9 5729.68 720.432   2
   3  -4  -9 5235.64 722.915   6
   4  -3  -9 4679.92 721.435   6
  -4  -3   9 5384.78 706.564   8
  -3  -4   9 5231.00 706.595   8
  -4   3   9 5008.68 714.333   1
   3   4  -9 5359.13 722.810   2
  -3   4   9 4939.06 707.248   4
  -4  -3  10 176.345 105.106   5
  -3   4  10 273.379 62.3743   4
   4  -3 -10 380.197 116.668   6
  -3  -4  10 160.550 90.9055   5
  -4  -3  10 295.854 55.9593   8
   3  -4 -10 260.576 95.4161   6
  -4   3  10 184.206 80.0346   1
   3   4 -10 280.548 52.0651   6
   4   3 -10 214.911 92.6858   2
   4  -3 -10 296.179 78.8798   7
  -3  -4  10 331.432 60.1634   8
   3   4 -10 336.163 101.842   2
   3  -4 -10 210.345 61.8989   7
   4   3 -11 474.803 124.965   2
  -4  -3  11 503.262 135.559   5
   3   4 -11 488.213 89.7916   6
   4  -3 -11 667.350 108.416   7
  -4  -3  11 675.552 94.6539   8
  -4   3  11 557.407 97.0936   4
  -3   4  11 684.784 97.6713   4
   3   4 -11 515.374 139.535   2
  -3  -4  11 601.321 96.8409   8
   4  -3 -11 834.599 140.516   6
  -4   3  11 491.564 111.994   1
  -3  -4  11 277.540 117.475   5
   4   3 -11 670.748 105.550   6
   3  -4 -11 553.637 104.989   7
   3  -4 -11 371.253 129.925   6
  -4   3  12 2635.86 337.755   4
   3   4 -12 2621.60 330.106   6
  -4  -3  12 2644.31 361.877   5
  -3  -4  12 1699.45 322.186   4
  -3  -4  12 2237.84 337.262   8
   4  -3 -12 3902.25 386.998   6
   4   3 -12 4061.90 349.632   6
  -3   4  12 2382.17 335.737   4
   3  -4 -12 4779.73 391.833   6
  -4  -3  12 2454.86 332.310   8
   3   4 -12 3797.71 389.309   2
  -4   3  12 3376.13 368.117   1
   4   3 -12 2409.97 363.563   2
   3  -4 -12 3408.57 348.460   7
  -4  -3  13 335.812 108.503   5
   3  -4 -13 248.229 77.2059   7
  -3  -4  13 139.647 91.5096   5
  -3  -4  13 230.282 70.5629   8
   4   3 -13 440.522 87.2130   6
   3   4 -13 68.4685 117.438   3
  -4   3  13 296.428 69.0229   4
   4  -3 -13 350.288 82.6987   7
  -4  -3  13 290.757 61.6545   8
   3   4 -13 343.306 124.558   2
  -4   3  13 346.280 105.694   1
  -3   4  13 321.378 69.2353   4
   4  -3 -13 214.290 124.838   6
   3  -4 -13 231.790 108.530   6
   4   3 -13 272.528 115.603   2
   3  -4 -14 1832.29 279.035   6
   4   3 -14 1697.44 260.537   6
   3   4 -14 2030.76 292.132   3
   3  -4 -14 1645.87 259.583   7
   3   4 -14 1595.27 287.730   2
  -4   3  14 1931.36 256.669   4
  -3  -4  14 1857.94 259.831   8
  -3  -4  14 1810.87 270.363   5
  -3   4  14 1842.72 257.834   4
   4   3 -14 1833.27 282.855   3
   4  -3 -14 1670.53 284.621   6
  -4   3  14 1350.64 271.168   1
   4   3 -14 2276.06 285.315   2
  -4  -3  14 1828.48 273.402   5
   4  -3 -14 1742.88 262.776   7
  -4   3  15 125.445 100.709   1
  -4  -3  15 194.315 61.7456   8
   3  -4 -15 200.993 108.928   6
   3   4 -15 46.5418 125.248   3
   3  -4 -15 193.496 71.4872   7
   4  -3 -15 8.75946 76.6731   7
   4  -3 -15 93.9123 111.564   6
   4   3 -15 84.9416 105.101   2
  -3  -4  15 144.672 90.1096   5
  -3  -4  15 158.330 68.7988   8
   4   3 -15 223.602 123.765   3
   3   4 -15 65.3538 131.789   2
  -4  -3  15 183.098 95.1634   5
  -3   4  15 61.1655 63.5862   4
  -4   3  15 88.2190 60.6233   4
   4  -3 -16 410.810 92.5421   7
  -3  -4  16 371.578 87.2514   8
  -4   3  16 396.461 77.5178   4
  -4  -3  16 122.885 71.1404   8
   3  -4 -16 275.857 86.5797   7
   4   3 -16 221.973 126.962   2
  -3   4  16 332.777 82.9857   4
  -4   3  16 314.788 123.543   1
   4  -3 -16 390.364 125.464   6
   3  -4 -16 419.242 111.365   6
  -4  -3  16 208.137 98.5320   5
  -3  -4  16 205.425 99.6317   5
   4   3 -16 388.102 134.413   3
   3   4 -16 537.079 157.954   3
   3   4 -16 340.624 141.941   2
  -4   3  17 1474.58 190.193   4
  -4   3  17 995.046 217.964   1
   3   4 -17 1162.38 235.935   3
  -3  -4  17 1287.75 195.092   8
   3  -4 -17 1430.25 197.341   7
  -4  -3  17 1479.46 187.847   8
   3   4 -17 1292.75 243.206   2
  -3  -4  17 1182.94 199.123   5
  -4  -3  17 1237.66 203.347   5
   4   3 -17 1158.28 228.197   3
   4   3 -17 959.396 226.535   2
   4  -3 -17 460.161 192.207   7
  -3   4  17 1477.52 193.102   4
   4  -3 -17 1442.96 217.487   6
   3  -4 -17 1118.95 209.376   6
  -4   3  18 2239.19 298.209   4
   4   3 -18 1981.57 335.649   3
   3  -4 -18 2198.69 316.627   6
   3  -4 -18 2192.72 302.347   7
  -4   3  18 1791.61 319.503   1
  -4  -3  18 2162.35 296.729   8
   3   4 -18 1359.84 339.427   2
  -4  -3  18 1816.19 304.267   5
   4   3 -18 1894.57 327.028   2
   4  -3 -18 2442.48 305.960   7
   4  -3 -18 1719.31 315.651   6
  -3  -4  18 2050.22 302.389   8
  -3  -4  18 2142.73 305.909   5
  -3   4  18 2014.42 298.542   4
   3   4 -18 2056.92 330.197   3
   4  -3 -19 5733.28 778.355   7
  -3  -4  19 6085.49 777.931   8
  -4   3  19 5336.43 772.517   4
   3   4 -19 5545.48 801.674   3
  -3   4  19 6030.03 776.733   4
   3   4 -19 5507.33 807.724   2
  -4  -3  19 5862.34 777.872   5
  -4  -3  19 5805.75 773.705   8
   4  -3 -19 6839.94 793.910   6
   4   3 -19 5400.12 796.473   2
   3  -4 -19 4572.92 783.204   6
   4   3 -19 5625.06 802.753   3
   3  -4 -19 4984.67 775.122   7
  -4  -3  20 259.806 92.4461   8
   4   3 -20 315.200 165.142   3
   3  -4 -20 212.542 95.8606   7
  -4   3  20 142.624 150.208   1
   4   3 -20 386.154 152.494   2
  -4   3  20 349.431 93.4098   4
   4  -3 -20 349.548 104.387   7
  -3  -4  20 258.932 102.207   8
   3   4 -20 394.711 189.411   2
   3   4 -20 445.488 163.127   3
  -3   4  20 309.186 102.122   4
  -4  -3  20 545.942 98.6438   5
   4  -3 -20 590.729 132.951   6
   3  -4 -20 400.025 120.701   6
  -3  -4  20 137.702 96.1239   5
   3  -4 -21 4247.23 597.748   6
   4  -3 -21 3666.78 584.429   7
  -3   4  21 4526.94 586.309   4
  -4   3  21 4012.72 583.469   4
   3   4 -21 4510.37 623.410   2
   3   4 -21 4173.21 609.258   3
  -3  -4  21 4725.30 589.705   8
   4  -3 -21 3278.05 591.790   6
  -4   3  21 3746.64 606.452   1
   3  -4 -21 4738.63 586.956   7
  -3  -4  21 4320.54 585.878   5
  -3  -4  22 502.933 124.883   8
  -4   3  22 622.609 114.472   4
   4  -3 -22 213.927 130.853   6
  -4   3  22 190.948 174.739   1
   3   4 -22 337.712 196.610   2
   3  -4 -22 495.360 144.723   6
   4  -3 -22 478.424 115.855   7
   3   4 -22 413.189 150.419   3
  -3   4  22 493.515 121.536   4
   3  -4 -22 530.150 119.761   7
  -3  -4  22 300.166 111.686   5
   4  -3 -23 1833.29 275.423   6
   4  -3 -23 1525.93 256.784   7
  -4   3  23 1903.36 260.219   4
   3  -4 -23 1546.34 277.468   6
  -4   3  23 1291.28 294.134   1
  -3   4  23 1485.39 260.695   4
   3  -4 -23 1844.95 259.443   7
   4  -3 -24 430.903 145.481   7
  -3   4  24 513.988 144.805   4
   3  -4 -24 571.520 141.770   7
   3  -4 -24 433.788 170.033   6
   3  -4 -25 127.378 125.150   6
  -3   4  25-74.7177 112.100   4
  -4   4   3-6.05512 37.3512   1
   4  -4  -3 9.00795 54.5761   7
   4  -4  -4 26.0210 59.0001   7
   4  -4  -5-66.6136 74.8184   6
  -4   4   6 5666.70 752.732   1
   4  -4  -6 5205.48 760.944   6
   4   4  -7-68.0738 73.3459   2
  -4   4   7-49.8534 61.5718   1
   4  -4  -7-111.082 93.5378   6
  -4  -4   7 4.93957 33.8485   8
   4  -4  -7-65.0818 58.7993   7
  -4  -4   7-28.3400 85.9712   5
   4  -4  -8 7490.47 1020.74   7
   4  -4  -8 7159.61 1029.37   6
   4   4  -8 7749.44 1027.84   2
  -4   4   9-9.61323 65.6259   1
   4   4  -9 24.4248 85.3323   2
  -4  -4   9 20.7194 34.8925   8
  -4  -4   9-14.1736 102.157   5
   4  -4  -9-8.17846 56.3758   7
   4  -4  -9 147.653 111.831   6
  -4   4  10 2293.69 401.180   1
   4   4 -10 3451.61 415.849   2
   4  -4 -10 2960.79 400.100   7
  -4  -4  10 3077.26 393.367   8
  -4   4  10 2570.00 393.505   4
  -4  -4  10 2870.84 416.007   5
   4  -4 -10 3039.93 420.973   6
   4   4 -11 830.179 158.260   2
  -4   4  11 1507.29 168.944   1
  -4  -4  11 362.947 155.954   5
  -4   4  11 591.008 104.918   4
   4  -4 -11 1441.81 211.882   6
  -4  -4  11 104.810 84.0816   8
   4  -4 -11 555.817 124.543   7
  -4   4  12 321.481 78.9648   4
  -4  -4  12 453.936 79.7511   8
   4  -4 -12 368.185 122.683   6
   4   4 -12 387.522 81.7100   6
  -4   4  12 410.751 114.624   1
   4   4 -12 556.487 125.508   2
  -4  -4  12 312.034 116.890   5
   4  -4 -12 419.779 92.3380   7
   4   4 -13 57.8657 114.201   2
  -4   4  13 31.4703 56.0456   4
   4  -4 -13 26.1549 69.1630   7
  -4   4  13 37.2260 90.6766   1
  -4  -4  13 30.2387 53.2551   8
   4  -4 -13 142.475 123.636   6
  -4  -4  13-25.7234 96.6977   5
   4   4 -14 904.243 172.247   2
   4  -4 -14 814.974 169.423   6
   4   4 -14 817.531 177.963   3
  -4  -4  14 891.011 126.384   8
  -4   4  14 593.831 124.619   4
   4  -4 -14 754.410 137.475   7
  -4   4  14 829.552 165.999   1
  -4  -4  14 866.377 156.543   5
   4  -4 -15-9.04756 68.5084   7
   4   4 -15 62.8220 119.822   2
  -4  -4  15 35.8602 97.9655   5
   4  -4 -15-28.6818 116.346   6
  -4  -4  15-47.1099 61.4345   8
  -4   4  15 13.6446 110.698   1
  -4   4  15-34.1079 60.2293   4
   4   4 -15 45.5807 129.796   3
  -4  -4  16 11.8271 94.2957   5
   4   4 -16 129.143 143.287   3
  -4  -4  16-28.5635 62.4775   8
   4  -4 -16-27.9392 78.3237   7
  -4   4  16-93.0221 65.9923   4
  -4   4  16 171.556 112.366   1
   4   4 -16 114.569 124.375   2
   4  -4 -16 114.859 124.509   6
  -4  -4  17-22.3944 65.9254   8
  -4  -4  17 11.6496 95.8091   5
  -4   4  17 74.6775 116.560   1
   4   4 -17 153.529 143.485   2
  -4   4  17-60.3341 67.1752   4
   4   4 -17-154.196 145.469   3
   4  -4 -17 47.9416 80.9287   7
   4  -4 -17-129.367 111.353   6
  -4   4  18 2731.17 446.666   1
   4   4 -18 2953.01 452.579   2
  -4  -4  18 3289.65 421.278   8
  -4   4  18 3171.29 421.020   4
   4  -4 -18 2467.71 422.761   7
   4   4 -18 2880.68 454.396   3
   4  -4 -18 3297.03 445.049   6
   4  -4 -19 58.6363 121.714   6
  -4   4  19 8.42317 81.0849   4
  -4   4  19-16.3144 143.571   1
   4   4 -19-165.743 152.408   2
   4   4 -19-74.6873 168.072   3
  -4  -4  19 22.0340 93.8204   5
   4  -4 -19-30.2617 82.1073   7
  -4  -4  19 75.8915 77.5643   8
  -4   4  20 3097.99 421.468   4
  -4   4  20 2902.13 451.407   1
   4   4 -20 2515.61 456.702   2
   4   4 -20 3835.28 467.699   3
   4  -4 -20 2713.01 425.230   7
  -4  -4  20 3002.73 427.095   5
   4  -4 -20 3082.94 439.040   6
  -4  -4  20 2892.45 421.924   8
   4  -4 -21-120.062 130.681   6
   4  -4 -21-42.8627 95.3148   7
  -4   4  21 65.6502 84.6463   4
  -4  -4  21 9.22447 87.0644   8
   4   4 -21-136.763 174.999   3
  -4  -4  21-52.9586 92.0601   5
   4   4 -21-297.011 180.784   2
  -4   4  21-142.928 149.427   1
  -4   4  22 2188.80 407.662   1
   4  -4 -22 2286.04 384.137   6
   4  -4 -22 2585.85 373.978   7
  -4   4  22 2796.61 370.774   4
   4  -4 -23-15.3818 130.312   6
   4  -4 -23-11.4029 92.6893   7
  -4   4  23-137.282 175.653   1
  -4   4  23-62.4871 97.9795   4
  -4   4  24 61.7606 187.631   1
  -4   4  24 132.122 109.627   4
   4  -4 -24 129.549 106.530   7
   4  -4 -24 158.096 137.775   6
  -4   4  25-11.6794 105.452   4
   4  -4 -25-32.3670 130.409   6
   0   5   0-2.76231 19.1387   4
   0   5   0-25.1507 51.1097   2
   0  -5   0 21.0925 34.2176   6
   0  -5   0 12.0378 20.3555   7
   0  -5   0 13.8506 23.0688   8
   0  -5   0 6.93019 41.2221   5
   0   5  -1 454.945 67.2207   4
   0  -5   1 291.302 69.7996   8
   0  -5   1 318.082 73.9260   6
   0  -5  -1 491.128 85.1435   5
   0  -5   1 488.807 68.3588   7
   0   5  -1 532.682 96.2267   2
   0  -5  -1 537.764 78.9974   6
   0  -5  -1 467.725 67.9880   8
   0  -5  -1 513.970 69.6956   7
   0   5   1 492.469 69.4692   4
   0  -5   1 403.698 79.6136   5
   0   5   1 440.091 86.8680   2
   0  -5  -2 7.32625 45.7314   5
   0  -5   2 20.2889 41.9739   5
   0  -5  -2 14.4067 22.2398   7
   0   5  -2-9.63339 55.8275   2
   0   5   2-10.1763 23.1668   4
   0  -5  -2 8.26069 17.6036   8
   0  -5   2 18.1808 29.1861   8
   0   5  -2-2.15103 15.9933   4
   0  -5  -2 30.7654 38.1910   6
   0  -5   2-4.35666 32.4745   6
   0  -5   2 18.6347 20.3329   7
   0   5   2 27.9356 44.8300   2
   0  -5   3 13.7955 36.5042   5
   0  -5  -3 52.1397 19.6534   8
   0  -5  -3 43.1946 26.2391   7
   0   5   3 3.71006 24.4418   4
   0  -5   3-10.2876 35.2680   8
   0  -5  -3 74.9779 53.6738   5
   0   5  -3 25.2572 55.8707   3
   0  -5   3 29.0388 21.7578   7
   0   5  -3 24.2927 17.1748   4
   0   5   3 12.3656 38.2960   2
   0  -5  -3-13.2220 36.3712   6
   0  -5   3 34.9405 31.4698   6
   0   5  -4-3.18500 28.5124   1
   0   5   4-4.04810 29.9175   4
   0  -5   4 27.5500 29.5985   6
   0  -5  -4-7.06173 43.8168   6
   0   5  -4-8.01252 14.2684   4
   0  -5   4 2.29197 19.2173   7
   0  -5   4-6.88054 41.9414   5
   0   5  -4-27.3741 57.9181   3
   0   5  -5 968.767 122.895   1
   0  -5   5 796.094 122.162   7
   0   5  -5 865.064 119.618   4
   0  -5   5 835.549 125.537   6
   0   5  -6-4.59765 13.0516   1
   0  -5   6 2.48318 23.9615   6
   0  -5  -6-4.94181 33.5564   7
   0  -5   6-11.2841 20.7039   7
   0   5  -6 4.34169 11.5292   4
   0  -5  -7 14883.9 2008.56   6
   0  -5   7 15501.2 2006.37   5
   0  -5  -7 14732.2 2002.54   7
   0   5  -7 13973.3 2012.88   3
   0  -5   8 58.5793 51.8575   5
   0  -5  -8-8.85071 53.9584   6
   0  -5   8-37.0495 68.1756   8
   0   5  -8-12.0422 75.1572   3
   0   5   8-33.3954 43.2798   4
   0  -5  -9 4562.12 605.314   6
   0  -5   9 3900.34 606.937   8
   0   5   9 4557.98 599.018   4
   0   5  -9 4257.46 615.238   3
   0   5 -10 38.9480 85.1258   3
   0   5  10 12.8726 47.4022   4
   0  -5  10-10.9304 85.3034   8
   0  -5  10 37.1979 51.2775   5
   0  -5 -10 6.35211 46.3955   7
   0  -5 -10-9.81587 64.0359   6
   0   5 -11 53.2548 96.0676   3
   5   0 -11-20.8054 68.7287   7
   0   5  11 62.2185 53.7724   4
   0  -5  11 30.7480 54.6558   5
  -5   0  11 34.3700 44.1469   1
   0  -5  11 11.4276 89.3031   8
  -5   0  11 10.2749 80.9105   5
   0  -5 -11 60.3401 46.4498   7
   0  -5 -11 30.8756 67.2993   6
   5   0 -12 1527.65 189.862   6
  -5   0  12 424.357 109.200   1
  -5   0  12 1536.68 171.865   5
   0  -5  12 267.767 110.073   5
   0   5  12 296.881 110.815   4
   0  -5 -12 428.727 106.225   7
   0  -5 -12 689.810 131.999   6
   0   5 -12 371.241 152.964   3
   0  -5  12 493.063 153.517   8
   5   0 -12 1215.83 173.803   7
   0   5  13 2191.40 319.860   4
   5   0 -13 2077.85 333.758   6
   0  -5  13 1977.55 336.601   8
   0  -5  13 2082.87 319.172   5
   0   5 -13 2324.76 338.190   3
   0  -5 -13 1879.40 326.085   6
  -5   0  13 2321.25 323.712   5
  -5   0  13 2458.68 316.812   1
   0  -5 -13 2627.00 320.205   7
   5   0 -13 2043.10 328.517   7
   0   5 -14-14.2744 98.3435   3
   0  -5  14 40.1109 103.180   8
   0  -5 -14 46.8863 76.0552   6
  -5   0  14 77.6286 63.0185   1
   0  -5 -14-69.5673 59.6673   7
   0   5  14 34.2403 69.6961   4
   5   0 -14 10.9849 95.2771   7
  -5   0  14-8.16048 69.9417   5
   5   0 -14 60.5341 107.780   6
   0  -5  14 8.34073 67.4511   5
   0  -5 -15 347.464 86.5144   7
   0  -5  15 236.622 131.051   8
   5   0 -15 522.511 129.443   6
   0  -5  15 266.610 91.9367   5
   0   5 -15 505.073 125.467   3
  -5   0  15 334.974 88.3305   1
   5   0 -15 454.618 117.041   7
  -5   0  15 380.562 76.2736   4
   5   0 -15 594.580 114.305   3
   0  -5 -15 609.451 111.957   6
  -5   0  15 401.420 96.3338   5
   0   5  15 282.475 96.4733   4
  -5   0  16 88.4791 66.4362   1
   5   0 -16 12.4862 113.985   6
   5   0 -16 33.4574 94.1496   7
   0  -5  16-28.9926 121.187   8
  -5   0  16 5.45874 49.7917   4
   0  -5 -16 16.8080 66.6164   7
   0   5 -16-44.1714 103.376   3
   0  -5  16-26.7042 70.8003   5
   0   5  16 135.881 80.3954   4
   0  -5  17 314.583 90.6638   5
  -5   0  17 186.809 81.9654   1
   5   0 -17 279.976 104.715   7
   0  -5  17-15.1141 129.227   8
   0   5 -17 297.164 121.574   3
   5   0 -17 186.077 118.209   6
   0  -5 -17 148.861 76.7841   7
  -5   0  17 198.764 65.7839   4
   0  -5  18 38.5683 79.8242   5
   0  -5 -18 9.09643 68.3485   7
  -5   0  18 26.8850 81.3598   1
   5   0 -18-37.1166 103.079   6
  -5   0  18-17.7305 54.2591   4
   0   5 -18-76.2727 114.129   3
   0  -5  18-78.8793 140.838   8
   5   0 -18-89.8407 96.2445   7
   0  -5  19 3611.87 567.913   8
   0   5 -19 4292.89 563.480   3
   0  -5 -19 3499.61 542.571   7
   0  -5  19 4264.54 547.430   5
   0  -5  20 138.205 150.760   8
   0  -5  20 42.0148 85.0143   5
   0  -5 -20 9.80454 83.0777   7
   0   5 -20-16.2812 122.344   3
   0  -5  21 3499.18 596.350   8
   0  -5  21 4418.01 574.125   5
   0   5 -21 3983.57 589.814   3
   0  -5  22-11.2145 94.9446   5
   0   5 -22 35.3247 124.530   3
   0  -5  22 92.2604 167.484   8
   0  -5  23 253.067 191.216   8
   0  -5  23 317.215 118.866   5
   0   5 -23 611.817 158.433   3
   0   5 -24 156.400 157.725   3
   0  -5  24 398.345 225.822   8
   0  -5  26-90.1370 210.345   8
  -1   5   0 431.225 68.8028   4
  -1  -5   0 463.702 68.9765   7
   1   5   0 517.261 90.6885   2
   1   5   0 495.331 72.3267   4
   1  -5   0 384.836 73.6367   8
  -1   5   0 563.772 87.6689   3
   1  -5   0 459.329 72.1047   7
  -1  -5   0 444.195 69.0724   8
  -1  -5   0 478.534 95.1076   5
   1  -5   0 442.569 75.1975   5
   1  -5   0 407.763 83.2281   6
  -1   5  -1 7878.95 1039.62   3
  -1  -5  -1 5930.86 1029.61   8
   1  -5   1 8263.21 1034.88   5
   1  -5   1 8223.65 1038.02   6
   1  -5  -1 8041.06 1039.38   6
  -1  -5   1 8473.81 1045.15   5
   1  -5  -1 7519.19 1031.73   8
  -1  -5   1 9168.45 1031.32   7
  -1   5  -1 7305.88 1029.93   4
  -1   5  -1 5995.21 1033.28   1
   1   5  -1 8259.83 1031.87   4
  -1   5   1 8637.64 1041.32   2
   1  -5   1 8135.13 1035.67   8
  -1  -5  -1 6896.72 1031.22   7
   1   5  -1 6997.62 1041.25   2
   1  -5   1 8133.57 1031.97   7
  -1   5   1 8302.08 1031.02   4
  -1   5   1 8368.18 1038.03   3
   1   5   1 6702.74 1031.62   4
   1   5   1 8770.36 1041.05   2
  -1   5   2 41.6731 48.0860   2
  -1   5   2 45.3027 42.2998   3
   1  -5  -2 176.581 34.9966   7
   1  -5   2 23.5667 46.9457   6
   1   5   2 52.1772 31.0689   4
   1  -5  -2 81.2436 37.8091   5
  -1   5  -2 135.414 59.3258   3
   1   5  -2 87.5970 61.2970   2
   1  -5   2 90.3195 47.5199   8
  -1  -5   2 105.577 62.1620   5
  -1  -5   2 93.5812 24.4267   7
  -1   5  -2 146.064 26.4715   4
   1  -5  -2 86.5749 28.6193   8
  -1  -5  -2 95.0888 29.7882   7
   1  -5  -2 220.687 58.9194   6
   1  -5   2 65.3039 30.6016   7
  -1   5   2 83.0903 29.2401   4
  -1  -5   2 96.4144 29.8637   8
  -1   5  -2 54.1946 36.4776   1
   1  -5   2 42.3701 34.5689   5
  -1   5   3 299.368 64.1889   2
   1  -5  -3 306.421 69.7429   6
  -1  -5   3 232.115 41.0522   7
   1   5   3 230.938 51.9741   4
   1  -5   3 275.756 48.5897   7
  -1   5  -3 82.0700 71.7148   3
   1  -5   3 359.691 70.7532   8
   1  -5  -3 250.557 48.3367   7
   1  -5  -3 237.095 42.8705   8
   1  -5   3 186.750 58.2268   6
  -1   5  -3 243.500 48.6441   1
  -1  -5  -3 253.585 48.1317   7
  -1  -5   3 309.199 74.8390   5
   1  -5  -3 211.523 51.8655   5
   1  -5   3 360.054 57.3730   5
  -1   5   3 296.602 47.6348   4
  -1  -5   4 3907.17 542.962   7
   1  -5   4 4036.15 549.537   6
   1  -5  -4 3960.26 555.333   6
   1   5   4 3824.56 549.322   4
   1  -5  -4 4213.96 543.867   8
  -1   5  -4 4029.27 559.065   3
  -1   5  -4 4058.85 545.546   1
   1  -5  -5 1417.69 239.741   5
  -1  -5   5 1812.01 233.374   7
   1  -5   5 1487.39 240.137   6
  -1   5   5 1897.50 241.501   2
  -1  -5  -6 6871.60 918.360   7
   1  -5  -6 6907.28 916.922   7
   1  -5   6 5979.31 925.114   8
   1  -5   6 7113.67 914.831   6
   1  -5  -6 6478.73 915.521   5
   1  -5  -7 1305.23 199.282   6
  -1  -5   7 1444.84 200.259   5
  -1  -5   7 1487.42 192.774   8
  -1   5  -7 1241.93 204.120   3
   1  -5   7 1362.22 193.602   5
  -1   5   7 1203.36 186.968   4
   1   5  -7 1048.52 212.319   3
   1  -5  -7 1246.03 188.058   5
   1   5  -7 1513.64 219.038   2
   1   5  -8 10118.0 1234.69   3
   1  -5  -8 9019.16 1227.15   6
  -1   5  -8 8830.65 1230.11   3
  -5   1   8 8827.41 1219.39   1
  -1   5   8 8406.45 1217.94   4
   1  -5   8 9131.67 1221.43   5
  -1  -5   8 9579.53 1222.54   8
  -1  -5   8 8906.67 1225.60   5
   1   5  -9 2484.71 410.083   3
  -1   5   9 2821.47 392.768   4
  -1   5  -9 2663.97 406.738   3
  -5   1   9 3419.29 394.867   1
   1  -5   9 2522.71 409.361   8
   1  -5  -9 2427.52 392.288   7
  -1  -5   9 2933.16 402.002   5
   5  -1  -9 3054.37 405.738   7
  -1  -5   9 2998.14 398.922   8
   1  -5  -9 2869.85 402.470   6
   1  -5  10 792.071 160.528   8
   1  -5 -10 842.419 125.876   7
   5  -1 -10 905.829 154.007   6
   1  -5  10 726.351 129.754   5
  -1  -5  10 648.546 135.824   8
   1  -5 -10 866.719 141.092   6
   5  -1 -10 748.652 143.284   7
  -1  -5  10 964.047 135.612   5
  -5   1  10 652.962 125.688   1
  -1   5  10 966.320 126.032   4
   1   5 -10 872.386 168.478   3
  -1   5 -10 576.465 146.892   3
   1  -5 -11 1744.13 281.047   6
   5   1 -11 1975.91 282.742   6
   1  -5  11 1975.90 300.659   8
  -1  -5  11 1808.21 280.064   5
  -1  -5  11 2023.91 283.255   8
  -5   1  11 2143.41 284.630   5
   1  -5  11 1825.09 275.486   5
  -5  -1  11 2109.45 294.282   5
  -1   5  11 2057.48 274.684   4
  -5   1  11 1950.57 274.545   1
   5  -1 -11 1866.21 289.419   7
   1  -5 -11 1956.81 272.296   7
  -1   5 -11 1576.12 284.950   3
   5  -1 -11 2026.18 295.484   6
   1   5 -11 1865.98 299.300   3
  -1   5 -12-25.0644 105.400   3
  -1  -5  12 261.220 110.237   8
   1   5 -12-101.330 136.286   3
  -1   5  12 6.64324 65.0282   4
  -5   1  12-21.8597 71.4907   1
  -5   1  12-7.62934 97.2588   5
   1  -5 -12 26.7019 58.4126   7
   5  -1 -12-63.8766 102.733   7
  -1  -5  12-34.5407 88.9485   5
   1  -5  12 62.3234 66.9600   5
   1  -5 -12-10.6412 96.0543   6
   1  -5  12-58.4907 139.053   8
   5  -1 -12-24.7243 138.898   6
  -5   1  13 2113.36 312.354   5
  -5   1  13 2241.70 314.869   1
   5  -1 -13 2681.29 340.397   6
   1  -5 -13 2099.89 323.673   6
   5  -1 -13 2145.75 323.252   7
   1  -5  13 2380.54 344.470   8
  -1  -5  13 1895.43 320.455   8
   1   5 -13 2118.09 338.773   3
   1  -5 -13 2260.01 311.268   7
  -1   5  13 2203.77 312.639   4
  -1  -5  13 2267.38 316.840   5
   1  -5 -14 1933.24 281.341   7
   5   1 -14 1943.99 292.541   2
   5  -1 -14 2619.22 315.988   6
  -1   5  14 1958.96 283.581   4
   1  -5  14 1417.86 308.056   8
  -1   5 -14 1824.05 298.452   3
   5  -1 -14 2235.97 296.119   7
   1  -5  14 2024.15 286.887   5
  -5  -1  14 2067.13 278.596   1
  -1  -5  14 2479.44 300.764   8
  -5   1  14 1755.05 281.381   5
   1   5 -14 1723.91 306.361   3
   5   1 -14 2232.36 296.404   7
  -5  -1  14 1881.88 274.735   8
   1  -5 -14 1718.37 294.365   6
  -5  -1  15 2125.97 248.941   1
   5   1 -15 1808.64 259.052   2
  -5   1  15 1828.22 253.699   1
  -1   5 -15 1859.27 268.056   3
   1  -5  15 1598.14 285.799   8
   5  -1 -15 1673.71 259.845   7
  -1  -5  15 1706.60 265.455   8
   1  -5 -15 1634.13 247.904   7
  -1   5  15 1832.68 251.192   4
   1  -5  15 1941.99 255.944   5
   1  -5 -15 1706.76 261.199   6
   5  -1 -15 1762.37 276.153   6
  -5   1  15 1635.99 243.656   4
  -5  -1  15 1813.47 256.707   5
   1   5 -15 1194.40 273.129   3
   5   1 -15 1507.24 261.274   7
   5   1 -15 1851.60 270.314   6
  -1  -5  15 1551.74 252.511   5
  -5  -1  15 1415.18 239.548   8
  -1  -5  16 72.5276 76.0865   5
  -5  -1  16 44.7719 49.7194   4
   1  -5  16 37.7563 75.0751   5
  -5   1  16 59.4539 55.5195   4
  -1   5 -16-71.4667 100.362   3
   5  -1 -16-13.5863 125.019   6
  -5  -1  16-5.19586 43.7043   8
   1  -5 -16 86.9883 93.3967   6
  -5  -1  16 73.7500 54.3189   1
   1  -5 -16-8.00696 64.3847   7
  -1   5  16 25.8176 73.3724   4
   5  -1 -16 32.1512 93.2833   7
   5   1 -16 11.3830 92.7208   2
   5   1 -16 33.9599 109.551   6
   5   1 -16-11.5990 94.4778   7
  -5  -1  16 27.0370 77.7706   5
   1  -5  16-34.8237 131.849   8
   1   5 -16 31.7714 121.237   3
  -1  -5  16 24.5256 96.7964   8
  -5   1  16 65.1365 75.3108   1
   5   1 -16-109.083 103.911   3
   5   1 -17 2099.61 311.448   7
   1  -5  17 2356.56 303.313   5
   5  -1 -17 1956.74 318.824   6
  -1   5 -17 2336.72 319.409   3
   1  -5  17 1805.58 337.142   8
  -1  -5  17 1914.30 299.271   5
  -5   1  17 1852.33 301.207   1
   1  -5 -17 1962.04 296.270   7
   5   1 -17 2186.62 309.459   6
   1  -5 -17 2208.27 312.721   6
  -5   1  17 1984.40 289.438   4
  -5  -1  17 2026.50 298.309   5
   1   5 -17 1947.67 318.643   3
  -1   5  17 2010.65 300.827   4
   5  -1 -17 2197.93 306.205   7
  -1  -5  17 1850.87 312.698   8
   1  -5  18 728.907 235.312   8
   1  -5 -18 1362.33 208.613   6
   1   5 -18 1319.29 228.831   3
  -1  -5  18 1289.42 217.530   8
  -1   5  18 1196.21 199.411   4
  -5   1  18 1266.32 185.506   4
   1  -5 -18 1348.01 190.202   7
  -1  -5  18 1190.56 197.026   5
  -5   1  18 1199.70 201.405   1
   5  -1 -18 880.964 201.055   7
   1  -5  18 1175.25 198.053   5
  -1   5 -18 1693.72 224.534   3
   5  -1 -18 1155.30 215.915   6
  -1   5  19 2128.05 288.080   4
  -5   1  19 1745.61 270.544   4
   1   5 -19 2125.38 303.781   3
  -1  -5  19 1912.18 298.346   8
  -5   1  19 2253.32 289.537   1
   1  -5  19 1825.76 286.183   5
   1  -5 -19 1529.98 275.535   7
   5  -1 -19 1959.14 288.643   7
   5  -1 -19 1796.04 299.982   6
  -1   5 -19 2086.04 307.368   3
   1  -5  19 1845.89 344.063   8
  -1  -5  19 1721.28 278.064   5
   1  -5 -19 1895.13 295.313   6
  -1  -5  20 4176.21 652.866   5
  -1   5 -20 5781.21 678.668   3
  -1  -5  20 3847.28 666.289   8
  -1   5  20 5477.87 662.034   4
  -5   1  20 4967.25 659.045   1
   5  -1 -20 5388.00 667.244   6
   5  -1 -20 4455.39 658.503   7
   1  -5 -20 3950.05 661.159   6
   1  -5 -20 4364.49 651.548   7
   1   5 -20 5051.99 674.761   3
   1  -5  20 4506.57 686.936   8
  -5   1  20 5010.68 648.591   4
  -1  -5  21 634.788 157.434   5
  -1   5  21 1038.22 172.620   4
   1  -5  21 638.497 228.604   8
   1  -5 -21 977.252 157.102   7
  -1  -5  21 1073.46 196.984   8
   1   5 -21 774.685 192.926   3
  -1   5 -21 956.488 197.371   3
   1  -5 -22 2081.63 290.760   7
  -1  -5  22 1922.83 289.068   5
   1  -5  22 1485.13 346.671   8
   1   5 -22 1974.93 311.086   3
  -1  -5  22 1759.57 313.172   8
   1  -5 -23 420.423 126.238   7
  -1  -5  23 658.987 170.197   8
   1   5 -23 626.829 170.489   3
   1  -5  23 535.453 225.805   8
  -1  -5  23 595.554 131.107   5
  -1  -5  24 829.200 216.780   8
  -1  -5  24 475.550 139.290   5
   1   5 -24 612.310 190.612   3
   1   5 -25 330.203 162.106   3
  -1  -5  25 405.470 122.152   5
   1  -5 -26-50.0793 112.090   7
   1  -5  26 164.913 239.780   8
   1  -5  27 430.339 272.002   8
   1  -5 -27 248.466 128.086   7
  -2   5   0 12057.9 1653.94   1
   2  -5   0 11990.0 1658.11   6
   2  -5   0 12653.7 1658.20   8
  -2   5   0 12330.2 1656.99   3
   2  -5   1 1292.37 188.844   6
   2  -5  -1 1175.05 178.393   5
   2  -5  -1 1406.41 193.969   6
  -2   5  -1 1149.28 181.728   1
   2  -5  -1 1492.56 188.117   8
   2  -5   1 1224.00 192.455   8
  -2   5   1 1270.37 186.138   3
  -2   5  -1 1318.38 187.973   3
   2  -5   1 1329.64 180.853   5
  -2   5   1 1097.71 184.176   1
   2  -5  -1 1460.81 183.504   7
   2  -5   2 8360.13 1073.27   5
   2  -5  -2 8423.32 1074.17   8
  -2  -5   2 3785.60 1076.79   5
   2  -5  -2 8566.22 1082.78   6
  -2   5  -2 7571.71 1072.15   1
   2  -5   2 8625.14 1084.39   8
  -2   5  -2 8890.61 1080.61   3
   2  -5  -2 8678.33 1071.16   5
   2  -5  -3 9132.56 1205.58   5
   2  -5   3 9034.91 1211.83   6
   2  -5   3 9604.88 1209.27   5
   2  -5   3 7576.87 1209.75   7
  -2   5   3 9370.45 1210.86   3
  -2   5  -3 8770.04 1207.14   1
   2  -5  -4 4450.59 595.041   5
  -2   5   4 3971.02 599.364   3
  -2   5   4 4881.22 602.022   2
   2  -5  -4 4356.71 595.154   8
   2  -5  -5 2695.77 374.864   8
   2  -5  -5 2868.24 382.645   7
  -2   5   5 3082.69 381.954   2
   2  -5   5 2874.64 399.126   8
   2  -5  -5 2708.54 375.539   5
  -2   5   5 2679.55 380.616   3
  -2   5   6 5852.68 862.567   4
   2  -5   6 6604.31 865.997   5
   2  -5  -6 6408.00 857.378   8
  -2   5   6 6603.70 862.012   2
  -2   5   6 6274.48 861.784   3
   2   5  -6 6145.84 878.221   2
   2  -5  -6 6637.41 865.706   7
   2  -5  -6 6154.99 873.996   6
   2  -5  -7 9415.28 1424.80   5
  -2  -5   7 11989.1 1445.18   5
  -2   5   7 11186.2 1431.18   4
   2  -5   7 11382.3 1434.01   5
  -2  -5   7 12357.7 1433.11   8
  -2   5   7 10532.6 1427.44   3
   5  -2  -7 9938.35 1441.43   7
  -5   2   7 12177.5 1434.00   1
   5  -2  -7 10974.6 1446.58   6
  -2   5  -7 9673.81 1440.19   3
   2  -5  -7 10779.7 1441.84   6
   5  -2  -8 2956.22 498.678   7
   2  -5   8 3957.15 492.905   5
   5  -2  -8 3790.16 505.628   6
  -2  -5   8 3348.22 489.535   8
  -2   5   8 3478.24 488.373   4
   2  -5  -8 3667.51 501.918   6
  -5   2   8 3750.20 491.730   1
  -2  -5   9 4522.30 598.737   8
  -2   5  -9 3995.14 606.804   3
   2  -5   9 4748.80 601.272   5
   2   5  -9 4172.93 617.251   2
  -2   5   9 4061.12 596.714   4
  -2  -5   9 4312.61 609.889   5
  -5   2   9 4176.93 599.718   1
   2   5  -9 5017.92 616.860   3
   2  -5  -9 4103.62 608.827   6
   5  -2  -9 4989.17 616.699   6
   2   5 -10 5021.33 720.666   3
   2  -5 -10 4821.10 715.682   6
   2   5 -10 5183.26 724.184   2
  -5   2  10 5286.91 705.762   1
   2  -5  10 4399.12 719.644   8
   2  -5 -10 5136.62 704.513   7
  -2   5  10 5027.91 702.245   4
  -2  -5  10 5335.97 713.483   5
   5  -2 -10 5175.37 714.627   7
  -2  -5  10 5518.88 705.239   8
   5  -2 -10 5282.55 719.091   6
  -2  -5  11-10.4259 99.2926   5
   2  -5  11-94.2544 154.554   8
  -2   5  11 257.978 61.9298   4
  -5   2  11 356.135 78.6603   1
   5  -2 -11-78.2590 128.298   6
  -2  -5  11 28.9638 73.6213   8
   2  -5  11 230.824 72.3341   5
   2   5 -11-40.7712 149.316   3
   5   2 -11 196.692 83.5436   6
   2  -5 -11 157.606 106.850   6
  -5   2  11 289.908 79.2660   5
   2   5 -11 62.5220 165.774   2
  -2   5 -11 248.472 90.4214   3
  -5  -2  11 81.4129 118.255   5
   5  -2 -11 62.6964 83.1850   7
   2  -5 -11 265.957 64.4330   7
   5  -2 -12 7020.74 1016.71   6
  -2   5 -12 7200.59 1011.32   3
   2  -5 -12 7615.70 1002.28   7
  -2   5  12 6605.90 998.688   4
   2  -5  12 6498.74 1018.34   8
   5  -2 -12 7889.83 1009.45   7
   5   2 -12 8040.74 1011.26   2
  -2  -5  12 6836.35 1001.95   8
   2   5 -12 7652.30 1024.56   2
   5   2 -12 7715.71 1004.82   6
  -5   2  12 7571.85 1004.52   1
  -2  -5  12 8312.89 1009.94   5
   2   5 -12 7533.11 1017.07   3
  -5   2  12 6987.26 998.326   5
   2  -5 -12 7047.26 1009.25   6
   2  -5  12 7807.34 1004.31   5
   2  -5 -13 596.567 128.798   7
   5  -2 -13 681.554 177.830   6
   2   5 -13 732.092 185.798   2
  -2  -5  13 711.194 145.570   5
   2  -5  13 805.386 133.319   5
  -2   5 -13 874.825 154.604   3
  -5  -2  13 724.580 157.538   5
   2  -5 -13 721.112 145.988   6
   5  -2 -13 934.600 148.727   7
  -5   2  13 776.916 137.160   1
   5   2 -13 832.744 140.668   6
   2   5 -13 825.767 172.099   3
  -2   5  13 778.903 127.268   4
   5   2 -13 989.890 154.540   2
  -5  -2  13 712.677 120.264   8
   2  -5  13 640.987 174.328   8
  -2  -5  13 935.389 136.657   8
  -2  -5  14 3925.15 503.689   8
  -2   5 -14 3339.66 512.237   3
  -2   5  14 3804.21 498.659   4
   2   5 -14 3603.88 523.097   3
  -5  -2  14 3549.62 493.037   8
   2  -5  14 2439.81 528.376   8
   5   2 -14 3977.39 507.681   6
  -5   2  14 3340.90 494.854   4
  -2  -5  14 3018.39 505.564   5
   2  -5 -14 3601.31 499.279   7
   5   2 -14 3672.48 510.124   2
  -5   2  14 3673.13 504.704   1
  -5  -2  14 3137.82 510.647   5
   5  -2 -14 3541.01 520.610   6
   2   5 -14 3893.26 530.427   2
   2  -5 -14 4170.68 512.185   6
   5  -2 -14 4044.67 507.751   7
   2   5 -15 281.522 152.274   3
  -5   2  15 426.323 87.2155   4
   5   2 -15 224.434 112.364   2
   5  -2 -15 431.324 114.280   7
   2   5 -15 422.227 166.551   2
  -5   2  15 478.318 111.921   1
  -2  -5  15 468.880 106.261   8
   5  -2 -15 482.703 152.388   6
  -5  -2  15 455.618 81.2596   8
   2  -5  15 456.825 106.665   5
  -5  -2  15 280.769 116.517   5
   2  -5 -15 464.429 94.6854   7
  -2   5  15 356.131 93.5354   4
   2  -5  15 517.627 163.792   8
   2  -5 -15 505.900 118.323   6
  -2  -5  15 506.637 99.5917   5
  -2   5 -15 390.621 117.846   3
  -2  -5  16 4119.67 581.461   5
   5   2 -16 3893.14 588.366   2
   5  -2 -16 4483.63 585.172   7
   2  -5 -16 4447.01 587.882   6
  -5  -2  16 4047.50 571.076   8
   2  -5  16 3612.52 609.410   8
   5  -2 -16 4589.00 598.397   6
   2  -5 -16 4124.38 578.461   7
  -2   5 -16 3847.94 590.027   3
  -5   2  16 4244.34 585.110   1
  -5  -2  16 4744.69 586.219   5
   2   5 -16 4313.26 602.873   3
  -5   2  16 3645.23 572.222   4
  -2  -5  16 4688.50 584.063   8
  -2   5  16 4191.32 577.740   4
   5   2 -16 4198.37 596.366   3
  -2  -5  17 257.154 107.688   5
   5  -2 -17 466.137 122.107   7
   2  -5 -17 412.645 103.717   7
   2   5 -17 691.438 161.527   3
   2  -5  17 510.424 187.623   8
  -5  -2  17 492.188 89.7376   8
   2  -5 -17 570.088 134.158   6
   5   2 -17 504.045 150.605   3
  -5  -2  17 627.285 121.594   5
  -5   2  17 367.002 126.852   1
   5   2 -17 406.029 130.295   2
   5  -2 -17 627.839 157.257   6
  -2  -5  17 461.279 121.637   8
  -2   5  17 545.693 102.297   4
  -5   2  17 445.658 95.3477   4
  -5   2  18 3309.59 509.522   1
  -2  -5  18 3898.55 508.015   8
   5  -2 -18 4344.55 522.059   6
  -2  -5  18 4223.58 505.031   5
  -2   5  18 3576.68 500.346   4
   5  -2 -18 4249.72 508.721   7
  -5  -2  18 3896.65 504.251   5
   2  -5  18 3545.58 543.874   8
   2  -5 -18 3904.81 512.419   6
  -5  -2  18 2465.40 489.168   8
   2   5 -18 3723.63 528.400   3
   2  -5 -18 3282.09 499.102   7
  -5   2  18 3800.44 495.339   4
  -2  -5  19 3890.81 551.690   8
   2  -5  19 3105.45 591.651   8
   2   5 -19 4248.65 574.734   3
   5  -2 -19 3244.25 563.561   6
   5  -2 -19 4367.63 552.821   7
  -2  -5  19 4002.85 547.891   5
  -5   2  19 3439.48 538.995   4
   2  -5 -19 4000.56 555.181   6
   2  -5 -19 4000.58 545.645   7
  -5   2  19 4195.32 556.069   1
  -2   5  19 4159.76 547.407   4
   2   5 -20 3522.22 538.170   3
   2  -5 -20 4085.09 513.636   7
  -5   2  20 3942.93 507.462   4
  -2  -5  20 3679.07 513.053   5
  -2   5  20 3739.82 514.638   4
   5  -2 -20 3803.04 517.668   7
   2  -5 -20 2736.74 517.235   6
  -5   2  20 2914.14 517.965   1
   2  -5  20 3756.18 570.944   8
   5  -2 -20 3396.75 527.023   6
  -2  -5  20 4007.30 521.293   8
  -5   2  21 3932.21 457.848   4
  -2  -5  21 3327.88 472.973   8
  -2   5  21 3150.98 463.300   4
   2  -5 -21 2487.56 458.318   7
   5  -2 -21 3453.33 466.079   7
   2  -5 -21 3257.85 474.035   6
  -5   2  21 2927.68 472.660   1
  -2  -5  21 3729.50 463.807   5
   2   5 -21 3291.43 484.833   3
   5  -2 -21 2566.21 469.429   6
  -2  -5  22 1786.33 279.757   5
   2  -5 -22 1874.50 294.932   6
  -2  -5  22 2067.92 298.582   8
   5  -2 -22 2456.53 303.751   6
  -2   5  22 2024.47 289.611   4
   2  -5 -22 1999.14 282.598   7
   2   5 -22 1019.93 295.124   3
   5  -2 -22 1578.81 285.449   7
   2  -5 -23 659.670 173.385   6
  -2  -5  23 619.849 152.241   5
   2   5 -23 852.798 192.873   3
  -2   5  23 912.711 165.388   4
   2  -5 -23 707.494 156.563   7
  -2  -5  23 1000.97 182.825   8
   2  -5 -24 1520.23 236.049   6
  -2   5  24 1199.00 219.265   4
   2   5 -24 1346.55 249.232   3
  -2  -5  24 978.828 223.701   8
  -2  -5  24 933.297 196.534   5
  -2  -5  25 74.6032 151.400   8
   2  -5 -26 453.933 145.208   7
   2  -5 -27 52.4697 116.314   7
   3  -5   0 769.897 118.017   6
   3  -5   0 723.688 93.8661   5
   3  -5   0 684.062 116.303   8
  -3   5   0 778.661 101.356   1
  -3   5   0 427.363 97.8799   3
   3  -5   0 311.183 105.034   7
   3  -5   1 6920.21 832.810   6
   3  -5  -1 6115.27 830.772   8
   3  -5   1 5842.59 822.644   5
  -3   5   1 4947.29 823.525   3
  -3   5  -1 6793.42 825.101   1
  -3   5  -1 6003.81 827.790   3
   3  -5   1 6946.50 835.840   8
   3  -5  -2 465.958 80.8072   8
  -3   5  -2 358.188 64.9781   3
   3  -5  -2 267.728 48.4003   5
  -3   5   2 271.449 56.4801   3
   3  -5   2 154.101 80.8848   8
   3  -5   2 300.904 54.9660   5
  -3   5   3 7056.46 863.721   3
  -3   5   3 5861.53 867.439   1
   3  -5  -3 6185.58 859.226   5
   3  -5  -4 1123.12 185.203   6
   3  -5  -4 1081.75 167.552   8
  -3   5   4 1053.07 171.802   1
  -3   5   4 1175.31 162.015   3
   3  -5   4 1220.31 188.837   8
  -3   5   5 2695.05 396.350   1
  -5   3   5 3123.86 393.041   1
  -3  -5   5 2680.75 413.816   5
  -3   5  -5 2498.86 397.222   3
   3   5  -5 3212.65 408.384   2
   3  -5  -5 2761.31 387.328   8
   3  -5  -5 2845.42 407.460   6
   3  -5   6 9254.49 1220.46   8
   5  -3  -6 8314.56 1214.66   7
  -3  -5   6 8954.04 1204.01   8
  -3  -5   6 8796.43 1222.83   5
  -3   5  -6 9263.35 1213.02   3
   3  -5  -6 9044.17 1219.47   6
   5  -3  -6 9421.78 1219.59   6
   3  -5   6 8847.27 1206.51   5
  -3   5   6 8684.08 1203.82   4
   3   5  -6 8802.71 1218.89   2
   3  -5  -6 8397.84 1198.94   8
  -5   3   6 10600.0 1208.81   1
   3  -5   7 5319.44 653.150   5
   3  -5  -7 4430.63 640.918   8
   5  -3  -7 5559.54 663.144   7
   5  -3  -7 5537.94 670.148   6
   3  -5  -7 4174.11 661.800   6
  -5   3   7 4856.57 651.815   1
   3   5  -7 4594.73 663.028   2
  -3   5   7 4837.60 648.586   4
  -3  -5   7 5447.82 649.613   8
  -3  -5   7 4916.79 668.481   5
   5  -3  -8 8224.06 1144.15   6
  -3  -5   8 8636.53 1129.06   8
   3  -5   8 9303.93 1152.22   8
  -3   5   8 7970.36 1128.54   4
   5  -3  -8 8168.96 1139.57   7
   3   5  -8 8279.65 1144.01   2
  -3  -5   8 7957.83 1144.61   5
   3  -5  -8 8315.01 1143.43   6
  -3   5  -8 7867.12 1139.05   3
   3  -5  -8 8721.69 1132.45   7
  -3   5   9 5698.88 753.049   4
  -3  -5   9 5478.48 768.364   5
   3  -5  -9 5537.19 756.025   7
   3  -5  -9 5243.73 767.822   6
   5  -3  -9 5413.22 769.995   6
  -5   3   9 5789.82 758.120   1
  -3  -5   9 5490.26 752.648   8
  -3   5  -9 5224.12 762.987   3
   3   5  -9 5480.71 771.806   2
  -5   3  10 1292.26 213.029   1
  -3  -5  10 1111.51 226.356   5
   3  -5 -10 1498.48 237.047   6
  -3   5  10 1456.70 205.673   4
   3  -5 -10 1617.10 212.173   7
  -5  -3  10 1503.21 240.483   5
   5  -3 -10 1509.68 239.053   6
   5  -3 -10 1404.75 223.260   7
  -3  -5  10 1391.39 205.890   8
   3   5 -10 1388.74 235.333   2
  -3  -5  11 3997.28 559.529   5
   3   5 -11 3878.97 570.786   2
  -3   5  11 3049.18 543.685   4
  -5  -3  11 4202.32 570.740   5
   5  -3 -11 4664.96 559.229   7
   5  -3 -11 4030.97 573.428   6
  -3  -5  11 4590.63 546.418   8
   3  -5 -11 3595.94 549.225   7
   3  -5 -11 4123.80 567.149   6
   5   3 -11 4437.76 561.326   2
   5   3 -12 120.590 71.6568   6
  -5  -3  12 28.1157 45.7812   8
  -3  -5  12 60.9356 58.4770   8
  -5  -3  12 248.562 116.834   5
   3  -5 -12 130.261 107.472   6
   3   5 -12-15.8917 117.627   2
   5  -3 -12 72.7669 79.6778   7
   3   5 -12 42.2523 112.592   3
  -3   5  12 50.3817 58.6625   4
   5   3 -12 187.715 89.4902   2
  -5   3  12 196.294 82.9679   1
   3  -5 -12 116.754 65.4146   7
  -3  -5  12 184.015 99.6254   5
   5  -3 -12 239.516 125.322   6
  -5  -3  13 6980.51 873.880   5
   3   5 -13 7014.72 877.775   3
  -5   3  13 5827.68 863.000   1
   3  -5 -13 6413.78 859.247   7
   5   3 -13 6336.20 869.298   2
   5   3 -13 5973.29 857.247   6
   5  -3 -13 6902.14 864.606   7
  -3   5  13 6244.31 854.729   4
  -5  -3  13 6048.89 852.135   8
  -5   3  13 6050.27 853.485   4
  -3  -5  13 6802.88 868.080   5
   5  -3 -13 5635.39 875.622   6
   3   5 -13 6096.20 876.025   2
   3  -5 -14 1071.49 173.573   7
  -5  -3  14 1346.11 201.170   5
   5  -3 -14 990.074 182.970   7
   3   5 -14 711.126 208.435   3
   5  -3 -14 1056.77 220.631   6
   3   5 -14 693.389 213.779   2
  -5   3  14 1103.94 167.029   4
   5   3 -14 1166.33 197.216   2
  -5   3  14 1086.16 187.404   1
  -5  -3  14 1108.25 165.252   8
  -3  -5  14 1000.90 193.068   5
   3  -5 -14 1174.85 199.874   6
  -3  -5  14 1160.73 172.999   8
  -3   5  14 1251.80 171.140   4
  -5   3  15 1826.64 274.593   4
   5  -3 -15 1651.16 307.710   6
  -3  -5  15 2220.73 294.232   5
   5  -3 -15 2038.28 285.758   7
   3  -5 -15 2002.71 281.217   7
   5   3 -15 1975.07 301.761   2
   3   5 -15 1993.67 311.291   3
  -3  -5  15 1731.07 278.551   8
  -5   3  15 1969.98 292.178   1
  -3   5  15 1767.06 276.288   4
   3  -5 -15 1708.82 295.280   6
   3   5 -15 2267.51 324.217   2
  -5  -3  15 1956.95 296.329   5
  -5  -3  15 1996.70 272.482   8
   5   3 -16-28.9141 101.455   2
  -3  -5  16-57.5412 88.8054   5
  -5  -3  16 87.0341 111.304   5
  -5  -3  16-25.3439 53.1296   8
  -3   5  16 85.9054 70.6936   4
  -3  -5  16 8.65954 73.9793   8
   3  -5 -16 8.85737 68.3536   7
   5   3 -16-73.7217 121.227   3
  -5   3  16-24.4189 98.3733   1
   3  -5 -16 81.4170 105.883   6
   5  -3 -16 106.904 92.7147   7
   3   5 -16-56.0845 153.196   2
   5  -3 -16 62.3282 134.327   6
  -5   3  16-27.5310 62.6457   4
   3   5 -16 105.526 147.916   3
  -5  -3  17 3610.99 427.932   5
  -5  -3  17 3336.65 411.846   8
  -3  -5  17 3160.65 418.505   8
   5   3 -17 2574.29 433.603   2
   3  -5 -17 3188.74 419.269   7
   3  -5 -17 2634.05 430.272   6
  -5   3  17 2651.05 411.775   4
   5  -3 -17 3138.18 424.869   7
  -3   5  17 2797.44 414.765   4
   3   5 -17 3208.75 452.777   3
   3   5 -17 3371.93 457.175   2
   5  -3 -17 1477.39 431.954   6
  -5   3  17 2002.89 423.527   1
   5   3 -17 3489.76 444.402   3
  -3  -5  17 3358.68 424.834   5
  -3   5  18 1644.54 247.938   4
  -5  -3  18 1732.99 260.695   5
   3  -5 -18 1488.20 249.293   7
  -5   3  18 1740.86 244.566   4
   3   5 -18 1543.01 304.198   2
   5  -3 -18 1800.67 256.740   7
   3  -5 -18 1348.74 265.696   6
  -3  -5  18 1477.92 249.964   8
   5   3 -18 1697.78 287.911   3
  -3  -5  18 1661.04 258.920   5
  -5  -3  18 1761.72 242.940   8
   3   5 -18 1815.43 295.191   3
   5   3 -18 1583.41 276.858   2
  -5   3  18 1636.52 269.211   1
   5  -3 -18 1722.94 282.822   6
   3   5 -19 3331.99 547.568   3
   5  -3 -19 3882.05 537.135   6
  -3   5  19 3490.76 519.974   4
  -5   3  19 3591.54 533.195   1
  -3  -5  19 3931.37 522.986   8
   5   3 -19 3053.40 535.799   2
   5  -3 -19 3470.35 523.807   7
  -3  -5  19 3805.21 524.766   5
  -5  -3  19 3860.01 524.433   5
   3  -5 -19 3041.15 528.678   6
  -5  -3  19 4174.88 514.433   8
   5   3 -19 3614.06 549.124   3
  -5   3  19 4061.04 516.154   4
   3   5 -19 3083.85 552.754   2
  -5   3  20 3903.70 584.241   1
   5  -3 -20 4297.30 575.350   7
   3  -5 -20 4302.75 571.031   7
  -3  -5  20 4097.63 571.937   8
  -3   5  20 4511.53 572.877   4
   5  -3 -20 3901.44 585.641   6
   3   5 -20 3981.53 599.640   3
   3  -5 -20 3847.06 583.451   6
   3   5 -20 4929.77 615.646   2
  -5   3  20 3914.65 564.893   4
  -3  -5  20 3481.35 571.795   5
  -5   3  21 2048.44 269.155   4
   3   5 -21 1583.88 328.232   2
  -3   5  21 1766.75 275.481   4
   3  -5 -21 1627.59 270.837   7
  -5   3  21 1758.62 291.912   1
  -3  -5  21 1106.09 265.768   5
   5  -3 -21 1907.84 281.018   7
   3   5 -21 2341.35 324.443   3
   5  -3 -21 1957.42 295.741   6
   3  -5 -21 1908.75 291.666   6
  -3  -5  21 2212.04 281.545   8
   3   5 -22 1457.25 310.732   3
  -3  -5  22 1525.64 274.632   5
   5  -3 -22 2051.48 300.011   6
  -3   5  22 2155.21 284.785   4
   3  -5 -22 1652.47 272.574   7
  -5   3  22 1520.60 302.233   1
  -5   3  22 2132.66 273.622   4
  -3  -5  22 1796.15 283.658   8
   3   5 -22 1836.32 334.528   2
   3  -5 -22 1639.50 289.410   6
   5  -3 -22 1762.47 283.487   7
   3  -5 -23 1477.55 254.105   6
  -5   3  23 1663.71 274.095   1
   3  -5 -23 1141.86 233.859   7
  -5   3  23 1521.19 235.388   4
  -3  -5  23 1634.77 241.476   5
  -3  -5  23 1638.57 251.162   8
   3   5 -23 1416.82 280.315   3
   5  -3 -23 1302.78 244.993   7
   5  -3 -23 1596.56 263.967   6
  -3   5  23 1798.66 245.076   4
   3   5 -23 1377.42 314.138   2
   3  -5 -24 130.728 132.092   6
  -3  -5  24 186.261 124.863   8
   3  -5 -25 243.134 115.923   7
   3  -5 -26-85.8449 136.036   6
   3  -5 -26-88.3482 112.124   7
  -3   5  26-110.029 124.122   4
   3  -5 -27 960.887 184.302   7
   3  -5 -27 809.548 198.481   6
  -4   5   0 544.464 88.9357   1
   4  -5  -1 195.825 66.3566   7
   4  -5  -1 192.983 68.9521   8
  -4   5   1 100.715 48.4649   1
   4  -5  -2 1551.99 224.381   8
   4  -5  -2 1614.92 234.979   6
   4  -5  -2 1323.05 227.606   7
  -4   5   2 1576.60 219.801   1
  -4   5   3 349.901 75.8765   1
   4  -5  -3 396.134 81.1513   8
   4  -5  -3 229.806 85.9650   7
  -5   4   3 352.947 69.6118   1
   4  -5  -4 978.112 151.236   7
   4  -5  -4 1063.59 145.937   8
  -4   5   4 778.670 145.223   1
   4  -5  -4 911.943 163.426   6
  -4   5   5 781.368 122.724   1
   5  -4  -5 740.364 149.168   6
   4  -5  -5 756.991 150.093   6
   4  -5  -5 493.253 119.764   8
   4  -5  -5 993.038 130.580   7
   5  -4  -6 1538.68 286.797   7
   4  -5  -6 2210.93 275.913   8
  -5   4   6 2137.89 280.349   1
   5  -4  -6 1927.09 301.125   6
   4   5  -6 1724.26 289.823   2
   4  -5  -6 1751.24 298.727   6
  -4  -5   7 4917.22 799.527   5
   4  -5  -7 5698.44 798.990   6
   4  -5  -7 5933.12 778.301   8
  -4  -5   7 5895.75 780.969   8
   4   5  -7 4941.00 792.212   2
   5  -4  -7 6408.25 801.713   6
   4  -5  -8 585.568 118.514   7
   5  -4  -8 781.606 133.326   7
  -4  -5   8 817.084 154.998   5
   4   5  -8 945.422 143.338   2
   5  -4  -8 912.264 158.373   6
  -4  -5   8 594.189 105.283   8
  -4   5   8 530.137 128.071   1
   4  -5  -8 749.105 157.447   6
  -5   4   8 583.312 117.091   1
  -4   5   9 3005.44 464.315   1
  -4  -5   9 3420.33 452.728   8
  -5  -4   9 3411.88 485.859   5
  -4  -5   9 3325.05 478.866   5
   4   5  -9 3712.46 474.231   2
   5  -4  -9 3222.85 464.943   7
  -4   5   9 3435.74 454.396   4
   5  -4  -9 2640.92 476.296   6
   4  -5  -9 2880.09 474.890   6
  -5  -4  10 2501.22 351.219   5
  -4   5  10 2109.53 312.187   4
  -4  -5  10 2135.67 346.597   5
   5   4 -10 2583.90 338.358   2
   5  -4 -10 1966.39 325.420   7
  -4   5  10 2360.92 331.764   1
   5  -4 -10 2345.93 355.397   6
   4  -5 -10 2105.78 321.598   7
  -4  -5  10 2053.52 310.982   8
   4   5 -10 2494.94 341.918   2
  -5   4  10 2847.06 327.332   1
   4  -5 -10 1693.71 347.265   6
  -5   4  11 81.5395 72.8404   1
  -4   5  11-25.2865 52.8677   4
  -4   5  11-24.2163 84.9903   1
  -4  -5  11-36.7672 49.9206   8
   5  -4 -11-83.5293 89.7580   7
   4   5 -11-44.5057 118.712   2
   4  -5 -11-52.3294 73.1451   7
   5  -4 -11 47.3127 138.802   6
   4  -5 -11-193.570 139.844   6
  -4  -5  11 104.236 114.916   5
  -5  -4  11 24.0168 44.7811   8
   5   4 -11 13.3607 94.2025   2
  -5  -4  11-48.9841 114.596   5
  -4   5  12 1098.67 240.662   1
  -4  -5  12 919.411 246.726   5
   4   5 -12 1677.94 252.785   2
  -5  -4  12 1348.49 215.636   8
  -4   5  12 1589.59 220.232   4
   5  -4 -12 1480.23 231.367   7
   5   4 -12 1612.70 244.986   2
  -5   4  12 1499.00 218.781   4
  -4  -5  12 1758.31 220.621   8
   5  -4 -12 1475.29 260.293   6
   4  -5 -12 1343.06 254.799   6
   4  -5 -12 1745.08 229.523   7
  -5   4  12 1856.48 240.386   1
  -5  -4  12 983.030 252.268   5
   4   5 -13 2317.47 311.862   2
  -4   5  13 2008.85 275.490   4
  -4  -5  13 2324.43 305.805   5
  -4   5  13 1409.76 295.245   1
   4  -5 -13 1592.30 281.760   7
  -5   4  13 1679.83 273.174   4
   5  -4 -13 1602.94 310.756   6
   4  -5 -13 1954.60 307.627   6
  -5   4  13 2178.10 291.323   1
  -5  -4  13 2241.83 308.903   5
   5   4 -13 2200.57 299.397   2
   5  -4 -13 1827.61 289.491   7
  -5  -4  13 2057.68 273.488   8
   5   4 -14 949.791 184.337   2
  -4  -5  14 890.620 144.560   8
  -4   5  14 798.270 176.063   1
  -4  -5  14 1197.04 181.142   5
   4   5 -14 1026.33 195.840   3
  -5   4  14 994.715 146.042   4
   5  -4 -14 872.786 200.619   6
  -4   5  14 824.775 144.859   4
  -5  -4  14 717.284 185.008   5
  -5  -4  14 803.549 141.089   8
   4  -5 -14 911.506 185.152   6
   4  -5 -14 953.685 155.797   7
  -5   4  14 790.398 167.313   1
   4   5 -14 946.809 194.556   2
   5  -4 -14 1073.52 162.129   7
  -5   4  15 631.747 122.949   4
  -4  -5  15 725.958 164.484   5
  -5  -4  15 920.122 168.893   5
  -4   5  15 468.879 160.676   1
  -5   4  15 501.927 146.042   1
   5  -4 -15 511.829 175.195   6
   5  -4 -15 740.247 143.110   7
   4  -5 -15 894.732 139.122   7
   4   5 -15 787.264 184.773   3
  -4  -5  15 598.715 123.817   8
   4   5 -15 466.215 174.114   2
  -5  -4  15 930.345 123.575   8
   5   4 -15 569.216 160.728   2
  -4   5  15 814.411 124.999   4
   4  -5 -15 684.428 164.973   6
  -5  -4  16 471.842 104.087   8
   5   4 -16 543.536 178.450   3
   5   4 -16 415.176 148.603   2
  -5  -4  16 618.181 150.882   5
  -4  -5  16 731.232 148.824   5
   4   5 -16 646.017 176.609   2
  -4  -5  16 633.057 110.347   8
   5  -4 -16 362.011 123.186   7
  -4   5  16 439.957 108.624   4
  -5   4  16 725.586 108.775   4
   4  -5 -16 668.696 159.321   6
  -5   4  16 626.621 141.371   1
   4  -5 -16 368.796 118.351   7
   4   5 -16 503.222 175.706   3
  -4   5  16 917.534 167.448   1
   5  -4 -16 527.620 170.707   6
   4   5 -17 219.897 149.664   3
  -4  -5  17 127.192 108.399   5
   4  -5 -17 99.8293 85.5752   7
  -4  -5  17 195.360 76.1041   8
   5  -4 -17 394.773 142.959   6
  -5  -4  17 135.243 110.279   5
  -5  -4  17 230.353 72.8076   8
  -5   4  17 121.737 68.9542   4
   4   5 -17 279.786 165.047   2
   5   4 -17 132.684 138.899   2
  -4   5  17 31.9412 141.744   1
   4  -5 -17 246.511 136.467   6
  -4   5  17 105.138 74.2851   4
  -5   4  17 127.263 124.818   1
   5  -4 -17 110.843 91.5021   7
   5   4 -17 252.841 152.380   3
  -4  -5  18 656.026 132.785   8
   4  -5 -18 729.111 144.762   7
  -5  -4  18 764.836 159.087   5
  -4   5  18 350.226 180.187   1
   5  -4 -18 771.054 151.809   7
   5  -4 -18 409.859 172.494   6
  -5   4  18 598.365 173.482   1
  -5   4  18 801.172 130.180   4
   4   5 -18 481.629 202.794   2
   4  -5 -18 617.724 173.161   6
  -4   5  18 704.467 134.137   4
   5   4 -18 552.845 199.172   3
  -5  -4  18 871.690 128.420   8
   5   4 -18 564.036 171.260   2
   4   5 -18 654.204 205.441   3
  -4  -5  18 1002.64 158.404   5
  -4  -5  19 2358.40 344.159   5
   5   4 -19 2490.27 378.085   3
   5  -4 -19 2887.32 361.164   6
   4   5 -19 1580.97 368.873   3
   4   5 -19 2481.22 379.870   2
  -4   5  19 2368.81 327.814   4
  -5  -4  19 2608.22 325.868   8
   5  -4 -19 2087.08 335.336   7
  -5  -4  19 1891.37 339.609   5
  -4  -5  19 2508.96 328.305   8
   5   4 -19 2131.50 357.545   2
  -5   4  19 1951.54 325.395   4
  -5   4  19 2003.46 347.087   1
   4  -5 -19 2230.37 332.590   7
   4  -5 -19 2122.22 349.498   6
  -5  -4  20 820.535 134.032   8
   5   4 -20 700.617 195.891   2
  -5  -4  20 710.265 166.258   5
  -4  -5  20 912.446 149.981   8
   4  -5 -20 724.205 181.342   6
   4   5 -20 678.419 218.098   3
  -4   5  20 891.015 145.669   4
  -4  -5  20 753.272 154.080   5
   5   4 -20 612.771 211.067   3
   4   5 -20 309.596 196.755   2
   5  -4 -20 988.386 185.948   6
  -5   4  20 733.789 137.855   4
  -5   4  20 757.809 191.226   1
   5  -4 -20 493.114 153.072   7
   4  -5 -20 646.722 147.916   7
   5  -4 -21 2224.28 340.909   7
   4  -5 -21 2430.75 338.198   7
  -5   4  21 2544.08 333.904   4
  -4  -5  21 2069.80 333.898   8
  -5   4  21 1858.59 354.753   1
   4   5 -21 2360.97 386.011   2
   5  -4 -21 2023.87 356.546   6
  -4   5  21 2056.85 333.815   4
  -4  -5  21 2431.62 341.408   5
  -5  -4  21 2423.93 330.066   8
   4   5 -21 2366.68 381.244   3
   4  -5 -21 2349.96 355.022   6
   5  -4 -22 839.002 173.376   6
  -5   4  22 523.111 129.670   4
  -4  -5  22 794.870 147.684   8
   5  -4 -22 566.718 141.330   7
  -4  -5  22 433.945 134.604   5
  -5   4  22 691.059 185.825   1
   4   5 -22 869.042 220.985   3
   4   5 -22 748.531 217.546   2
   4  -5 -22 720.354 147.257   7
  -4   5  22 802.801 143.835   4
   4  -5 -22 388.978 167.630   6
   4  -5 -23 620.362 203.854   6
  -5   4  23 1289.97 259.193   1
  -5   4  23 890.274 179.198   4
   5  -4 -23 909.628 188.934   7
  -4  -5  23 851.023 187.469   5
  -4  -5  23 829.146 185.739   8
   5  -4 -23 1350.38 236.903   6
  -4   5  23 954.218 179.012   4
  -5   4  24 246.587 113.415   4
   5  -4 -24 16.7671 144.138   6
   4  -5 -25-25.3471 105.288   7
  -4   5  25-207.825 202.831   1
   4  -5 -26 183.377 122.235   7
   4  -5 -26 122.745 145.107   6
  -4   5  26 243.352 204.028   1
  -4   5  26 12.8897 131.262   4
  -5   5   2 329.259 71.0916   1
   5  -5  -3-12.6669 91.6847   6
  -5   5   3 6.83812 49.7251   1
   5  -5  -3-58.8282 74.6974   7
   5  -5  -4 563.169 123.040   7
  -5   5   4 469.506 95.2613   1
   5  -5  -4 605.912 137.839   6
   5  -5  -5-11.4610 84.3499   7
   5  -5  -5-27.5539 105.903   6
  -5   5   5 15.7139 51.7742   1
   5  -5  -6 638.396 151.169   6
   5  -5  -7-59.5448 117.452   6
  -5   5   7 44.7764 65.6853   1
   5  -5  -8 3818.57 553.836   7
   5  -5  -8 4134.98 578.387   6
  -5  -5   9 17.7089 131.411   5
   5  -5  -9 21.3666 77.9831   7
   5  -5  -9 160.495 133.263   6
  -5   5   9-30.5009 81.3535   1
   5   5  -9-28.0525 93.3821   2
   5  -5 -10 117.607 83.8135   7
   5   5 -10-85.8866 113.204   2
  -5  -5  10 70.3140 48.1183   8
   5  -5 -10-99.0750 135.100   6
  -5  -5  10-17.5501 111.071   5
  -5   5  10 172.089 84.3107   1
  -5   5  11-47.1451 55.6557   4
  -5   5  11-11.3983 85.3289   1
  -5  -5  11 35.0149 123.455   5
   5  -5 -11-118.828 140.526   6
  -5  -5  11 13.0789 55.0978   8
   5  -5 -11 31.7045 82.2227   7
   5   5 -11-131.596 108.548   2
   5  -5 -12 1164.15 218.923   6
   5  -5 -12 1018.33 179.226   7
   5   5 -12 848.079 193.584   2
  -5   5  12 1326.34 194.304   1
  -5   5  12 1014.58 165.650   4
  -5  -5  12 1059.43 163.573   8
  -5  -5  12 1304.99 221.190   5
   5  -5 -13-34.4609 145.846   6
  -5  -5  13-48.7993 138.546   5
  -5  -5  13 34.2122 57.2387   8
  -5   5  13-101.963 97.6357   1
   5  -5 -13-32.4627 89.8820   7
  -5   5  13-14.1727 62.2350   4
   5   5 -13-78.0811 129.685   2
  -5  -5  14 1542.52 269.616   8
   5   5 -14 1502.34 296.991   2
   5  -5 -14 1985.62 285.394   7
   5  -5 -14 2190.09 318.644   6
  -5   5  14 1913.87 291.640   1
  -5  -5  14 1890.27 307.692   5
  -5   5  14 2201.24 273.629   4
  -5  -5  15 15.7180 123.136   5
  -5  -5  15-21.8296 61.2868   8
  -5   5  15 167.789 113.088   1
   5  -5 -15 11.0109 85.6623   7
  -5   5  15 45.1945 64.2314   4
   5  -5 -15-34.7706 134.187   6
   5   5 -15 83.6761 129.172   2
   5  -5 -16 315.028 112.906   7
  -5  -5  16 255.023 137.566   5
   5   5 -16 532.749 162.951   3
  -5   5  16 251.262 124.444   1
  -5   5  16 249.563 82.8926   4
   5   5 -16 190.912 141.550   2
  -5  -5  16 338.591 83.6351   8
   5  -5 -16 502.883 158.493   6
   5  -5 -17 568.323 133.718   7
   5   5 -17 414.844 175.633   3
  -5   5  17 81.0049 94.4654   4
   5   5 -17 197.992 162.395   2
  -5  -5  17-29.4821 132.398   5
  -5  -5  17 109.302 81.1566   8
  -5   5  17 414.150 173.687   1
  -5  -5  18 434.987 142.026   5
   5  -5 -18 533.483 166.283   6
  -5   5  18 340.315 148.142   1
   5   5 -18 167.940 159.925   2
  -5  -5  18 276.377 90.8826   8
   5  -5 -18 360.349 114.648   7
  -5   5  18 414.103 102.199   4
   5   5 -18 285.391 179.371   3
   5  -5 -19 70.6176 103.002   7
  -5  -5  19 8.48462 77.2502   8
  -5  -5  19-84.9993 127.893   5
   5  -5 -19-51.9967 153.862   6
   5   5 -19-60.0892 177.803   3
   5   5 -19 57.6035 140.163   2
  -5   5  19-8.85959 79.7850   4
  -5   5  19 286.028 152.303   1
  -5   5  20 1817.40 333.516   1
  -5   5  20 2197.97 308.846   4
   5   5 -20 1740.32 353.069   3
  -5  -5  20 2020.76 304.392   8
   5  -5 -20 2011.37 313.798   7
   5   5 -20 2107.81 351.684   2
  -5  -5  20 2326.55 325.867   5
   5  -5 -20 2280.72 339.558   6
  -5  -5  21-73.9451 90.1446   8
   5   5 -21-143.188 174.356   2
  -5   5  21-92.0677 154.058   1
   5   5 -21 43.5147 183.133   3
  -5   5  21-9.73030 90.0503   4
   5  -5 -21-148.019 112.198   7
   5  -5 -21-51.7662 138.262   6
  -5  -5  21 13.2592 114.201   5
  -5   5  22 574.450 142.820   4
   5  -5 -22 750.203 194.868   6
  -5  -5  22 766.620 162.083   5
  -5  -5  22 779.519 144.251   8
   5  -5 -24-13.3013 119.739   7
  -5   5  24 62.2912 175.731   1
   5  -5 -25 124.989 149.218   6
  -5   5  25 281.626 187.312   1
  -5   5  25-35.3745 105.559   4
   5  -5 -25-95.6164 114.884   7
  -5   5  26 452.816 221.301   1
   5  -5 -26 295.018 151.288   7
  -5   5  26 460.046 140.477   4
   5  -5 -26 651.733 188.087   6
   0   6   0 292.002 84.3420   2
   0   6   0 156.716 42.6575   4
   0  -6   0 187.910 66.3708   5
   0  -6   0 212.510 43.6304   8
   0  -6   0 232.392 54.1464   6
   0  -6   0 230.145 44.0910   7
   0  -6  -1 3.94467 27.4277   7
   0  -6   1-17.5624 42.5472   6
   0   6   1-3.72017 28.3793   4
   0  -6  -1 6.77664 44.6547   6
   0  -6   1 7.04258 28.8546   7
   0  -6   1-40.9151 57.1603   5
   0   6  -1 3.08970 23.8402   4
   0  -6  -1 16.7939 58.9232   5
   0  -6  -1 7.43415 25.3621   8
   0   6   1-46.7977 65.0779   2
   0   6   2 388.150 102.890   2
   0  -6  -2 388.538 101.799   5
   0   6  -2 556.272 82.2532   4
   0   6   2 524.284 86.1158   4
   0  -6  -2 595.339 83.4758   8
   0  -6   2 659.802 93.3679   6
   0  -6  -2 635.421 97.4429   6
   0  -6   2 522.874 82.6152   7
   0  -6   3 34.6794 39.5297   6
   0  -6  -3-8.83651 61.1760   5
   0   6  -3-24.1019 69.3767   2
   0  -6   3 5.69733 42.3045   8
   0   6   3 7.78492 54.6506   2
   0  -6  -3-16.3796 25.0389   8
   0   6  -3-9.97171 22.1825   4
   0  -6   3-33.9661 26.8232   7
   0   6  -4-52.2345 67.9018   3
   0  -6   4 105.422 53.0555   5
   0   6  -4 17.5668 21.4654   4
   0  -6   4 25.5017 46.7278   8
   0  -6  -4 26.9467 64.3082   5
   0  -6  -4 87.3333 39.8549   7
   0  -6   4 14.5871 24.8286   7
   0  -6   4 57.6307 38.5675   6
   0  -6   5 59.3581 35.9158   6
   0  -6  -5 50.7515 58.2674   6
   0  -6   5-28.7063 49.9007   8
   0   6  -5 78.3781 84.7564   3
   0  -6   5-49.0589 56.0579   5
   0  -6  -5-25.9158 35.8736   7
   0   6  -5 31.6966 34.4721   1
   0  -6   5 2.89431 26.5539   7
   0   6   5 10.1050 37.7961   4
   0   6  -5-7.62062 18.7370   4
   0   6  -6 2464.53 307.763   1
   0  -6   6 2423.29 309.701   6
   0   6  -6 2064.15 304.922   4
   0  -6  -6 2259.22 313.754   7
   0   6  -6 2246.42 331.776   3
   0  -6   6 2187.55 320.749   8
   0  -6  -6 2166.00 322.153   6
   0   6   6 2317.81 313.642   4
   0  -6   6 2358.11 321.082   5
   0  -6  -7 18.7235 58.0919   6
   0   6  -7 25.6593 14.3668   4
   0   6  -7-76.0844 92.5554   3
   0   6   7-52.4079 51.2506   4
   0  -6  -7-5.85221 39.3587   7
   0   6  -7 1.72821 15.4914   1
   0  -6   7-24.8475 55.6975   5
   0  -6   7-5.83223 27.3271   6
   0  -6   8 1882.57 238.422   6
   0  -6   8 1310.90 253.038   5
   0   6  -8 1645.14 234.721   4
   0  -6  -8 2129.45 248.498   7
   0   6   8 1919.23 248.706   4
   0  -6  -8 1713.12 255.258   6
   0   6  -8 1868.59 269.807   3
   0   6   9-79.5477 52.1668   4
   0  -6   9-30.2362 78.6829   8
   0  -6  -9 30.9068 66.8795   6
   0  -6   9 8.51824 60.6396   5
   0   6  -9 69.3488 103.368   3
   0  -6 -10 656.676 117.560   6
   0  -6  10 706.899 130.228   8
   0   6  10 614.920 103.701   4
   0  -6  10 362.108 108.228   5
   0   6 -10 385.987 142.716   3
   0  -6 -11-11.2162 83.8218   6
   0   6 -11-29.6216 114.469   3
   0  -6  11-93.4909 98.5008   8
   0  -6 -11-43.3783 54.9051   7
   0  -6  11-25.5214 66.4575   5
   6   0 -11-218.243 119.733   6
   0   6  11-22.6051 62.4999   4
   0  -6  12 4538.33 644.766   5
   0  -6  12 4048.95 650.797   8
   0  -6 -12 4437.08 649.421   6
   0  -6 -12 5003.76 642.807   7
   0   6  12 5235.76 644.190   4
   6   0 -12 4600.19 654.506   6
   0   6 -12 4238.63 658.546   3
  -6   0  13-73.0056 108.308   5
   0  -6 -13-24.2466 81.5176   6
   0   6  13 68.0143 72.6232   4
   0  -6  13-113.022 111.467   8
   0   6 -13 46.4499 114.891   3
   0  -6  13-35.5404 69.5817   5
   0  -6 -13 7.93405 59.8232   7
   6   0 -13 161.922 122.478   6
   6   0 -14 1574.09 261.081   6
   0   6 -14 1543.17 264.377   3
   0  -6  14 1343.76 255.407   8
   0  -6 -14 1773.44 237.822   7
   0   6  14 1748.81 242.169   4
   0  -6  14 1323.16 237.881   5
  -6   0  14 1678.90 232.341   1
   0  -6 -14 1632.90 250.910   6
  -6   0  15 123.659 61.8393   1
   0  -6 -15-38.9878 93.3016   6
   0  -6  15-65.1186 75.2765   5
   6   0 -15 55.5715 129.842   6
   6   0 -15-83.4403 105.319   7
   0   6 -15 31.8018 116.101   3
   0  -6 -15 25.8767 63.0394   7
   0   6  15 19.3319 79.5363   4
   0  -6  15 111.234 125.199   8
  -6   0  16 282.835 81.2529   1
   0  -6  16 374.181 133.684   8
   6   0 -16 416.191 142.696   6
   0  -6 -16 305.228 87.4675   7
   0   6 -16 243.046 127.913   3
   0  -6  16 219.429 89.8484   5
   6   0 -16 357.381 120.217   7
   0   6  16 286.459 101.795   4
   0  -6  17 74.5508 133.851   8
   0  -6 -17 18.6604 73.6175   7
   0   6 -17-16.2433 118.067   3
  -6   0  17-49.2135 62.8488   4
  -6   0  17-32.3565 70.7930   1
   0  -6  17 58.9745 82.4179   5
   0   6  17-10.8029 92.2945   4
   6   0 -17-43.5976 102.454   7
   6   0 -17-87.7105 131.232   6
   0   6 -18 727.485 175.980   3
  -6   0  18 619.852 120.249   1
   6   0 -18 381.949 150.831   7
   0  -6  18 761.547 130.744   5
   0  -6 -18 666.697 128.211   7
  -6   0  18 494.588 109.538   4
   6   0 -18 570.023 173.889   6
   0  -6  18 726.752 184.727   8
   0  -6 -19-50.0870 88.5351   7
   0  -6  19-176.682 150.141   8
   0  -6  19 63.1435 89.1897   5
   0   6 -19-101.259 133.208   3
   0  -6 -20 1359.25 206.688   7
   0   6 -20 973.986 224.761   3
   0  -6  20 1361.38 211.936   5
   0  -6  20 1404.05 254.981   8
   0  -6  21-33.9080 97.7316   5
   0   6 -21-158.381 127.041   3
   0  -6  21 17.4344 153.615   8
   0  -6  22 1075.35 235.484   8
   0  -6  22 1166.84 193.209   5
   0   6 -22 909.870 215.196   3
   0   6 -23-18.8914 151.675   3
   0  -6  23 12.0355 106.525   5
   0  -6  25 277.721 187.654   8
   0   6 -26 259.961 175.415   3
   0  -6  26 62.9924 196.996   8
   0  -6  27-223.173 195.845   8
  -1   6   0 7612.84 1053.23   3
   1  -6   0 6374.53 1050.49   6
  -1   6   0 8391.66 1058.49   2
  -1  -6   0 8321.42 1044.81   7
  -1   6   0 7902.69 1043.74   4
   1  -6   0 8076.66 1048.80   5
   1   6   0 7069.22 1044.68   4
   1  -6   0 6816.50 1044.78   7
  -1  -6   0 10240.0 1054.12   6
   1  -6  -1 1258.74 185.939   5
  -1  -6  -1 1501.22 192.195   6
  -1  -6  -1 1365.16 181.382   7
   1  -6  -1 1355.30 195.505   6
  -1  -6  -1 1343.75 205.688   5
   1   6  -1 1242.79 180.642   4
   1  -6   1 1305.00 185.787   5
  -1  -6   1 1690.36 191.857   6
  -1   6  -1 1308.11 197.184   3
   1  -6  -1 1372.08 183.385   7
   1  -6   1 1268.91 191.644   6
   1  -6   1 1162.03 181.777   7
  -1   6   1 1078.08 197.110   2
   1  -6  -1 1299.01 181.153   8
  -1   6  -1 927.508 184.978   1
  -1   6   1 1228.51 193.964   3
  -1   6  -1 1214.68 179.017   4
  -1  -6   1 1341.64 180.086   7
   1  -6   2 1790.76 279.478   6
   1   6  -2 2224.64 271.464   4
   1   6   2 2339.53 275.109   4
  -1   6  -2 1793.04 269.771   4
   1  -6  -2 1801.19 270.395   8
   1   6  -2 2223.61 294.904   2
   1  -6  -2 2147.70 284.132   6
  -1  -6   2 1910.18 269.804   7
  -1   6   2 2517.59 287.924   2
  -1   6  -2 1612.64 274.037   1
   1  -6   2 1783.91 272.233   7
  -1  -6  -2 2160.80 281.363   6
  -1   6   2 2062.30 281.279   3
   1  -6   3 150.026 60.5827   8
  -1   6  -3 58.3670 25.2072   4
   1  -6  -3 90.2151 44.1231   5
  -1   6   3 55.4288 60.9680   2
  -1   6  -3 81.6618 42.3473   1
   1  -6  -3 48.0140 27.1647   8
   1   6  -3 228.517 90.7040   2
  -1  -6   3 49.0005 37.4308   8
   1  -6   3 142.565 56.9665   6
   1  -6   3 17.0661 35.8110   7
  -1  -6   3 43.5881 25.3580   7
   1  -6  -4 1007.10 129.887   8
   1  -6   4 864.991 134.373   7
  -1  -6  -4 836.043 135.304   7
  -1  -6   4 916.870 156.960   5
   1  -6   4 761.433 148.608   8
  -1  -6   4 1040.06 138.222   8
  -1   6   4 1077.67 145.979   2
   1  -6   4 829.051 140.310   5
   1  -6  -4 870.035 138.098   5
   1   6  -4 1155.08 167.182   2
  -1   6  -4 596.981 131.244   1
   1  -6  -4 1080.86 138.003   7
   1  -6   4 939.494 141.502   6
  -1   6  -4 1014.84 129.513   4
  -1   6  -4 719.473 158.008   3
   1  -6  -5 1989.57 285.446   7
  -1   6  -5 1757.78 303.083   3
   1   6  -5 2503.00 315.241   2
   1  -6  -5 2019.65 296.754   6
  -1   6  -5 2331.36 281.839   1
   1  -6  -5 1992.44 286.474   5
  -1   6   5 2189.30 284.970   4
   1  -6   5 2023.87 287.863   6
  -1  -6   5 2139.92 287.347   8
   1  -6  -5 1965.90 279.321   8
   1   6   5 1927.93 287.162   4
   1  -6   5 1862.13 284.541   7
  -1   6   5 2031.41 289.507   2
  -1  -6  -5 1994.61 286.465   7
  -1  -6   5 1840.19 299.121   5
  -1  -6  -6 1297.19 165.702   6
   1  -6  -6 843.953 149.924   5
  -1  -6   6 1053.85 139.585   7
  -1  -6   6 999.149 167.229   5
   1  -6  -6 1021.87 150.354   7
   1   6   6 1119.45 153.382   4
   1  -6   6 888.641 165.555   8
  -1   6  -6 1004.56 174.274   3
   1   6  -6 927.260 174.813   3
   1  -6   6 950.255 150.999   6
  -1  -6   6 892.671 151.666   8
   1  -6   6 1009.81 154.645   5
  -1  -6  -6 950.213 148.862   7
  -1   6   6 955.424 147.703   4
   1  -6  -6 1197.59 167.391   6
   1   6  -7 3986.18 450.946   3
  -1   6   7 3319.99 427.837   4
   1  -6  -7 4042.58 441.580   6
   1  -6   7 3222.70 444.322   8
  -1  -6   7 2568.21 439.040   5
  -1   6  -7 3328.37 446.809   3
   1  -6   7 3113.22 425.654   6
   1   6   7 3436.99 432.664   4
  -1  -6  -7 3699.74 431.251   7
   1  -6  -7 2986.36 428.497   5
   1   6  -7 2620.07 419.505   1
   1  -6   7 3270.22 430.907   5
   1  -6  -8 2375.77 318.953   5
  -1  -6   8 2354.33 321.552   8
   1  -6   8 2265.33 320.494   5
   1  -6  -8 2213.32 317.666   7
   1   6  -8 2635.06 348.212   2
  -1   6   8 2175.35 316.854   4
  -1   6  -8 1719.82 333.811   3
   1  -6  -8 2358.11 327.924   6
   1   6   8 2338.69 322.601   4
   1  -6   8 2131.49 313.672   6
  -1  -6  -8 2591.79 320.469   7
  -1  -6   8 2115.81 327.235   5
   1  -6   9 2120.98 319.558   5
  -1  -6   9 2178.99 322.837   8
  -1  -6  -9 2500.22 319.752   7
  -1   6   9 2364.29 316.974   4
   1   6   9 2513.11 322.212   4
   1  -6   9 2242.60 311.179   6
   1  -6  -9 2121.59 326.305   6
  -1   6  -9 1802.13 331.817   3
   1   6  -9 2306.49 352.626   2
   1   6  -9 1994.64 341.924   3
  -1  -6  10 4025.08 565.942   5
  -1  -6  10 3310.29 561.360   8
   1  -6  10 3948.09 576.319   8
   1  -6  10 4006.96 558.215   5
   1  -6 -10 4292.57 566.532   6
   1   6 -10 3659.22 580.429   3
  -1   6  10 4459.63 557.235   4
  -1   6 -10 4458.80 576.223   3
  -1   6  11 392.156 80.9865   4
  -1  -6  11 363.064 97.7978   5
   1  -6 -11 502.514 97.5021   6
  -1  -6  11 248.386 93.5306   8
   1  -6 -11 447.256 79.3976   7
  -1   6 -11 512.535 121.741   3
   1   6 -11 349.928 129.631   3
   6  -1 -11 360.463 124.394   6
   1  -6  11 357.443 87.0094   5
   1  -6  11 113.417 121.984   8
  -6   1  11 234.742 71.0867   1
   6  -1 -12 2103.70 337.835   6
   1  -6  12 2451.06 317.309   5
   6  -1 -12 1726.97 328.165   7
  -6   1  12 2345.78 314.147   1
   1  -6 -12 2235.22 312.733   7
  -1  -6  12 2001.96 318.921   5
  -1   6  12 2476.57 314.648   4
   6   1 -12 2105.11 326.964   6
   1   6 -12 2102.62 340.160   3
  -1  -6  12 2363.36 323.706   8
   1  -6  12 1807.08 337.073   8
   1  -6 -12 2004.91 323.365   6
  -1   6 -12 2226.57 337.382   3
   1   6 -13 2929.06 446.955   3
  -1   6 -13 3040.42 440.067   3
   1  -6  13 2663.68 444.392   8
  -6  -1  13 3439.48 448.803   5
   6  -1 -13 3053.34 447.407   6
   6   1 -13 2718.40 435.640   6
  -6   1  13 3318.47 424.385   1
  -1  -6  13 3209.13 433.461   8
   1  -6 -13 3301.79 425.443   7
   6  -1 -13 2748.71 438.409   7
   1  -6  13 2795.70 425.754   5
  -1   6  13 2910.67 425.141   4
   1  -6 -13 2703.93 435.120   6
  -6   1  13 3572.86 435.585   5
  -1  -6  13 2887.94 430.282   5
   1  -6  14 1572.57 215.097   5
  -1  -6  14 1635.32 218.200   5
  -6  -1  14 1343.61 235.752   5
   1  -6  14 1356.71 244.473   8
   1  -6 -14 1736.56 227.906   6
   6  -1 -14 1235.66 245.122   6
   6  -1 -14 1450.21 234.473   7
  -6   1  14 1269.73 210.821   1
  -1  -6  14 1322.63 226.747   8
   1  -6 -14 1311.78 210.764   7
  -1   6 -14 1414.54 233.291   3
   1   6 -14 1511.73 250.521   3
  -1   6  14 1326.70 212.550   4
   6   1 -14 1124.70 230.985   6
   1  -6 -15 1028.76 189.649   6
   6  -1 -15 878.863 205.373   6
  -6  -1  15 965.315 185.497   5
   1   6 -15 1058.72 208.814   3
   1  -6  15 1358.75 176.907   5
   6  -1 -15 1275.46 197.681   7
  -1   6 -15 1343.62 199.828   3
   1  -6  15 818.136 207.048   8
   6   1 -15 1169.58 198.097   6
  -1  -6  15 802.032 171.630   5
  -1   6  15 973.092 170.886   4
  -6   1  15 953.146 167.390   1
   1  -6 -15 1067.89 166.640   7
  -1  -6  15 1198.87 186.704   8
   6   1 -16 2070.44 287.771   6
  -1  -6  16 1734.72 263.086   5
   1  -6 -16 1785.60 274.627   6
  -1   6  16 1638.57 262.806   4
   1  -6 -16 1989.13 261.558   7
  -1   6 -16 2019.16 286.264   3
   1  -6  16 1746.61 262.373   5
  -6  -1  16 1722.65 271.353   5
  -1  -6  16 1629.37 277.541   8
   1  -6  16 1206.10 291.872   8
   6  -1 -16 2100.83 285.961   7
   6  -1 -16 1634.75 291.827   6
   1   6 -16 1452.60 288.121   3
  -6   1  16 1744.68 262.024   1
   6  -1 -17 13.9243 106.762   7
  -6   1  17 6.58379 59.8275   4
  -1  -6  17-12.6816 117.076   8
  -1  -6  17 60.5236 78.8869   5
   1  -6  17-229.615 162.121   8
   1   6 -17-17.6045 135.430   3
   6  -1 -17 236.000 149.706   6
   1  -6 -17 81.1194 80.6327   7
  -1   6 -17 110.123 112.509   3
   1  -6  17 112.415 81.3658   5
  -1   6  17-29.2892 84.5819   4
  -6   1  17 46.3766 77.9408   1
   1  -6 -17 124.056 109.639   6
   1  -6 -18 1993.12 290.958   7
   1  -6  18 2122.49 298.570   5
   1  -6  18 2188.52 347.365   8
  -6   1  18 1509.50 287.856   1
   6  -1 -18 2213.74 332.635   6
   1   6 -18 2004.48 329.810   3
  -1  -6  18 2161.71 296.145   5
   6  -1 -18 2266.01 317.951   7
  -1   6  18 2083.50 297.305   4
  -1   6 -18 2338.22 324.240   3
   1  -6 -18 1824.68 311.384   6
  -6   1  18 1789.09 282.862   4
  -1  -6  18 1825.44 315.100   8
  -1  -6  19 1083.90 184.910   5
  -6   1  19 886.461 186.785   1
   1  -6 -19 1088.78 204.467   6
  -1   6  19 1035.76 195.771   4
   6  -1 -19 1044.98 203.384   7
   1   6 -19 823.281 215.457   3
  -1   6 -19 1224.15 213.672   3
   1  -6  19 1202.08 186.295   5
  -6   1  19 1283.97 177.382   4
   1  -6 -19 1446.75 187.606   7
   6  -1 -19 1313.35 229.353   6
  -1  -6  19 735.042 208.218   8
   1  -6  19 1016.83 237.134   8
   1  -6 -20 1152.49 230.827   6
   1  -6 -20 1339.17 212.796   7
   1  -6  20 1365.13 280.880   8
   6  -1 -20 1519.57 238.142   7
  -1   6  20 1114.49 222.510   4
   6  -1 -20 1382.82 250.099   6
   1  -6  20 1415.21 219.739   5
  -1   6 -20 1799.27 247.604   3
  -1  -6  20 1302.76 217.923   5
   1   6 -20 929.705 237.011   3
  -1  -6  20 1525.76 245.394   8
   1   6 -21 926.847 247.872   3
   1  -6  21 1348.43 286.929   8
  -1   6 -21 1203.46 252.984   3
  -1   6  21 1587.61 236.704   4
  -1  -6  21 1260.18 222.763   5
   1  -6 -21 1420.93 223.172   7
  -1  -6  21 1233.81 243.927   8
   1  -6  21 1850.10 232.941   5
  -1  -6  22 1064.67 176.246   5
   1   6 -22 740.663 199.953   3
  -1   6 -22 917.158 205.118   3
  -1  -6  22 841.413 204.394   8
  -1   6  22 916.203 181.407   4
   1   6 -23 149.761 150.659   3
  -1  -6  23 385.383 121.668   5
   1  -6 -24 332.523 124.806   7
   1  -6  24 162.208 202.876   8
   1  -6  25 23.8392 227.584   8
   1  -6 -25-86.2753 112.532   7
  -1  -6  25-152.593 158.072   8
   1   6 -26 330.970 159.040   3
   1  -6  26 354.864 234.192   8
   1  -6 -26 142.758 124.901   7
  -1  -6  26 281.793 120.707   5
  -1  -6  26 428.855 181.884   8
  -1  -6  27 529.423 191.594   8
   1  -6  27 156.941 238.084   8
   1  -6  28 252.303 261.423   8
   2  -6   0 4585.30 589.914   5
   2  -6   0 3602.18 592.932   8
  -2   6   0 4272.37 597.374   3
   2  -6   0 4962.09 601.548   6
   2  -6  -1 13252.5 1675.26   5
  -2   6   1 11358.6 1681.28   3
  -2   6  -1 12766.7 1677.63   1
   2  -6  -1 11783.8 1677.10   8
   2  -6   1 13567.6 1676.62   5
   2  -6   1 11391.6 1682.85   6
  -2   6  -1 11421.1 1682.19   3
  -2   6   2 1014.89 145.905   3
   2  -6   2 763.184 138.183   7
  -2  -6   2 1140.15 169.740   5
  -2   6  -2 814.637 135.609   1
   2  -6   2 793.951 144.452   6
  -2  -6   2 1009.38 134.266   8
   2  -6  -2 840.325 131.967   5
   2   6  -2 1168.53 158.714   2
   2  -6  -2 940.842 136.317   8
   2  -6  -3 2653.75 356.235   5
  -2  -6   3 2305.58 353.721   7
  -2   6  -3 2783.19 358.174   1
   2  -6   3 2421.74 373.345   8
   2   6  -3 2831.41 377.371   2
   2  -6  -3 2777.44 360.956   7
  -2   6   3 2736.68 365.975   3
  -2  -6   4 2635.93 466.472   5
   2  -6  -4 3351.22 446.248   8
   2   6  -4 3771.47 470.067   2
  -2  -6   4 3545.68 450.648   8
   2  -6  -4 3396.77 464.900   6
   2  -6   4 3166.62 454.603   6
   2  -6  -4 3051.69 446.746   5
  -2   6   4 3381.87 449.214   4
   2  -6   4 3186.85 465.240   8
   2  -6  -4 3272.02 451.755   7
   2  -6   4 3104.09 451.220   5
  -2   6  -4 3431.18 447.961   1
  -2   6  -4 3034.80 460.947   3
  -2   6   5 2716.82 336.982   4
   2  -6  -5 2809.64 339.269   7
   2  -6   5 2330.40 355.556   8
  -2  -6   5 2437.09 330.632   7
  -2   6   5 2280.69 340.392   2
   2  -6   5 2272.69 340.949   6
   2  -6  -5 2005.05 348.134   6
  -2   6   5 2269.83 338.758   3
  -2   6  -5 2347.11 349.697   3
   2  -6  -5 2321.25 330.540   8
   2  -6   5 2592.58 339.731   5
   2  -6  -6 5312.71 703.026   8
  -2  -6   6 5326.31 702.783   7
   2  -6   6 5446.80 711.865   6
  -2   6   6 5339.41 708.974   4
   2  -6  -6 4861.62 704.388   5
   2  -6   6 5702.28 727.847   8
   2  -6   6 5219.15 711.770   5
   2  -6  -6 5900.16 712.122   7
  -2   6  -6 5057.89 720.330   3
   2  -6  -6 5328.77 721.669   6
  -2   6   6 4129.44 709.018   3
   2  -6  -7 5926.66 892.229   6
  -2   6   7 6846.03 881.655   4
  -2  -6   7 6268.08 894.592   5
  -2  -6   7 6660.29 873.995   7
   2  -6  -7 6480.18 876.225   5
   2  -6   7 6079.69 898.372   8
  -2   6   7 6308.31 879.722   3
   2   6  -7 6133.23 899.436   2
  -2   6  -7 5247.96 891.055   3
  -2  -6   7 6984.81 883.427   8
   2  -6   8 3670.34 515.950   8
   2  -6   8 3809.07 497.074   5
   2  -6  -8 3428.93 485.943   5
  -2   6   8 3997.21 493.729   4
   2  -6  -8 3743.66 508.286   6
  -2   6  -8 4285.16 510.244   3
  -2  -6   8 3090.62 493.332   8
  -2   6   8 3524.05 489.621   3
   2   6  -9 6564.23 797.573   2
  -2   6  -9 6600.31 786.652   3
  -2  -6   9 5944.05 784.327   5
   2  -6   9 5918.39 774.766   5
   6  -2  -9 5737.53 787.183   6
  -2   6   9 6059.32 771.343   4
  -6   2   9 5936.50 773.046   1
   2  -6  -9 4781.34 762.996   5
   2  -6  -9 5507.44 785.196   6
  -2   6   9 5707.78 766.020   3
   2   6  -9 6350.78 791.058   3
  -2  -6   9 6757.16 775.051   8
  -6   2  10 870.619 148.626   1
   2  -6  10 759.200 146.885   5
   2   6 -10 1148.65 234.384   2
   2  -6 -10 872.161 155.110   7
   2  -6 -10 1535.44 196.416   6
  -2  -6  10 1488.18 165.407   8
  -2   6 -10 744.206 162.160   3
   6  -2 -10 963.104 182.184   7
  -2  -6  10 808.756 189.654   5
   2   6 -10 1400.69 213.722   3
  -2   6  10 773.637 133.422   3
  -2   6  10 846.377 148.895   4
   6  -2 -10 1281.55 200.050   6
   2  -6  11 11623.1 1514.07   5
  -6   2  11 11597.8 1512.47   1
   2   6 -11 9829.46 1528.29   2
   2  -6  11 10408.4 1528.09   8
   6  -2 -11 11323.5 1526.39   6
   2  -6 -11 12149.9 1512.94   7
   6  -2 -11 9089.27 1521.75   7
  -2  -6  11 10833.7 1512.00   8
  -2  -6  11 12221.9 1521.21   5
  -2   6  11 11721.9 1510.63   4
   2  -6 -11 11398.8 1521.11   6
   2   6 -11 9409.37 1523.53   3
  -6   2  12 1382.31 214.409   1
   2   6 -12 1832.71 254.111   3
  -2  -6  12 1398.84 215.393   8
   2  -6  12 1239.62 216.242   5
   2  -6 -12 1210.78 226.461   6
   2  -6  12 1473.55 255.972   8
   2  -6 -12 1656.03 216.231   7
  -2   6  12 1395.81 212.904   4
   6  -2 -12 1580.15 235.112   7
  -2   6 -12 1489.89 231.902   3
  -6  -2  12 1639.84 255.050   5
   6  -2 -12 1459.70 245.285   6
   2   6 -12 1336.86 257.622   2
  -2  -6  12 1331.45 227.055   5
   6  -2 -13 3158.22 519.405   6
  -2   6 -13 3628.39 515.806   3
   6  -2 -13 4118.73 519.483   7
  -2  -6  13 4329.23 512.402   5
   2  -6 -13 3689.90 499.878   7
   2  -6  13 3064.17 500.266   5
  -2   6  13 3538.08 498.054   4
   2   6 -13 2972.77 518.752   3
   2   6 -13 3224.32 530.090   2
  -6   2  13 3480.90 500.615   1
   2  -6  13 3264.18 525.042   8
  -2  -6  13 4272.03 504.166   8
   2  -6 -13 3837.73 511.048   6
  -6  -2  13 3207.58 522.088   5
  -6  -2  14 2123.00 335.576   5
  -2  -6  14 2261.62 320.157   5
  -2  -6  14 2610.89 316.595   8
  -2   6 -14 1602.03 320.651   3
   2  -6  14 2503.12 314.946   5
  -2   6  14 1991.86 307.337   4
   2  -6  14 2155.77 350.714   8
   2   6 -14 2094.75 345.874   2
   2  -6 -14 1931.01 323.479   6
   6  -2 -14 1698.29 320.334   7
   2   6 -14 1937.72 340.758   3
   2  -6 -14 2379.66 312.349   7
   6  -2 -14 2354.97 348.243   6
  -2  -6  15 4256.42 583.165   8
  -2   6 -15 4355.78 594.456   3
   6  -2 -15 4773.17 605.662   6
  -6  -2  15 4175.78 596.529   5
   2   6 -15 3903.69 602.586   3
  -2  -6  15 4549.46 587.114   5
   6  -2 -15 4075.12 592.522   7
   2  -6 -15 4077.46 588.409   6
   2   6 -15 4432.22 617.485   2
  -2   6  15 4262.18 579.183   4
   2  -6  15 4094.47 582.161   5
   2  -6 -15 4047.10 579.562   7
   2  -6  15 3992.36 609.172   8
  -6   2  15 3757.83 579.846   1
   6  -2 -16 971.155 157.145   7
  -6  -2  16 554.885 147.696   5
   2  -6  16 570.748 124.883   5
   2  -6  16 607.125 197.906   8
   2   6 -16 917.997 174.715   3
  -6   2  16 462.987 108.455   4
   2  -6 -16 529.165 142.752   6
   2   6 -16 310.042 200.480   2
  -2   6 -16 564.443 143.592   3
  -2  -6  16 807.281 133.044   5
   2  -6 -16 619.474 120.861   7
  -2   6  16 493.324 121.304   4
   6  -2 -16 636.373 179.985   6
  -6   2  16 602.276 125.975   1
  -2  -6  16 667.439 131.328   8
   2   6 -17 3530.26 557.547   3
   6  -2 -17 3528.18 551.343   6
  -2  -6  17 2754.27 530.066   5
   2  -6  17 4083.44 571.021   8
  -2   6 -17 4161.21 548.292   3
   2   6 -17 3661.96 570.708   2
  -6  -2  17 3198.79 537.274   5
  -6   2  17 4235.31 534.748   1
  -6   2  17 3889.55 523.606   4
  -2   6  17 4183.89 529.994   4
   2  -6  17 3957.94 535.675   5
   6   2 -17 3958.41 540.469   2
   6  -2 -17 4225.17 544.425   7
  -2  -6  17 3986.89 533.867   8
   2  -6 -17 3142.03 539.245   6
   2  -6 -17 3919.52 530.561   7
   2  -6 -18 614.668 145.867   6
  -6   2  18 199.093 106.413   1
   2  -6 -18 168.821 100.074   7
  -2  -6  18 434.277 104.055   5
   2   6 -18 437.998 199.636   2
   2  -6  18 65.0242 185.620   8
  -6   2  18 514.690 89.8166   4
  -2  -6  18 249.721 118.597   8
  -2   6 -18 326.255 133.818   3
  -2   6  18 270.334 99.3550   4
   2   6 -18 363.323 182.572   3
   6  -2 -18 555.390 169.397   6
   6  -2 -18 246.439 125.815   7
   2   6 -19 3236.50 575.832   3
  -2   6  19 4251.12 553.901   4
   2  -6 -19 4206.67 553.006   7
  -6   2  19 4143.66 557.536   1
   2   6 -19 4068.11 597.616   2
   6  -2 -19 3648.95 560.755   7
   6  -2 -19 4204.59 577.161   6
  -2  -6  19 3798.23 555.184   5
  -6   2  19 4077.47 546.783   4
   2  -6  19 2477.79 592.112   8
   2  -6 -19 4246.47 564.798   6
  -2  -6  19 3694.23 558.891   8
   2  -6 -20 1429.67 265.301   6
  -2  -6  20 1505.86 258.925   5
  -6   2  20 1664.84 262.509   1
  -2  -6  20 1793.61 268.674   8
  -2   6  20 1729.39 258.698   4
   6  -2 -20 1832.79 271.606   7
   2   6 -20 1703.73 296.746   3
   2  -6  20 1695.77 340.455   8
   6  -2 -20 1585.35 283.748   6
   2  -6 -20 1597.58 255.054   7
   2   6 -20 1708.03 323.402   2
  -6   2  20 1674.41 247.126   4
   2   6 -21 3673.87 516.927   3
  -2   6  21 3927.56 489.491   4
   2  -6 -21 3320.95 500.186   6
   2  -6  21 2705.96 536.395   8
   2  -6 -21 3871.06 487.926   7
   6  -2 -21 2827.42 491.259   7
   6  -2 -21 3132.82 504.573   6
  -6   2  21 3369.29 490.781   1
  -2  -6  21 3191.33 492.690   8
  -6   2  21 3429.96 478.766   4
   2   6 -21 3387.75 533.199   2
   2   6 -22 486.484 243.676   2
   2   6 -22 831.862 207.715   3
  -2   6  22 1040.38 173.389   4
  -2  -6  22 776.842 178.657   8
   2  -6 -22 774.353 189.457   6
  -2  -6  22 928.486 170.179   5
   2   6 -23 1343.89 266.110   3
  -2  -6  23 1467.18 241.181   8
   2   6 -23 1473.62 319.622   2
  -2  -6  23 1074.49 221.162   5
   2  -6 -24 36.6147 104.754   7
  -2  -6  24 11.8301 105.779   5
   2   6 -24 160.361 163.273   3
  -2  -6  25 1317.54 252.182   8
  -2   6  25 1570.39 236.707   4
   2  -6 -25 1134.31 225.892   7
  -2  -6  26-12.5503 109.794   5
   2  -6 -26-13.0844 114.775   7
   2  -6 -27 976.538 199.644   7
   2  -6 -28 28.2318 125.352   7
   2  -6 -29 941.907 203.272   7
  -3   6   0 3702.32 514.383   3
   3  -6   0 3750.25 523.499   8
   3  -6  -1 1493.25 199.726   5
  -3   6   1 1326.78 206.737   3
   3  -6  -1 1405.24 216.735   8
   3  -6  -1 1477.73 209.954   7
  -3   6  -1 1309.47 208.190   3
   3  -6  -2 7881.93 1161.21   5
   3  -6  -2 9283.20 1170.59   8
  -3   6   2 8281.02 1168.87   1
   3  -6  -2 9176.55 1177.43   6
  -3   6   2 9463.69 1167.34   3
  -3   6   3 373.275 86.8632   1
   3  -6  -3 348.217 55.9753   5
   3  -6   3 263.238 112.485   8
   3  -6  -3 129.492 98.9247   6
   3  -6  -3 361.841 74.8571   8
  -3   6   3 453.848 68.9909   3
   3  -6  -3 185.555 71.8010   7
   3  -6   3 260.700 65.0510   5
  -3  -6   3 335.316 64.1603   8
   3   6  -3 440.963 96.9912   2
   3  -6   3 642.818 91.5021   6
  -3   6  -3 258.819 78.5357   3
  -3  -6   4 2542.33 364.767   5
   3  -6  -4 2290.51 332.039   5
   3  -6  -4 2388.12 337.679   8
   3  -6  -4 2201.01 357.964   6
   3  -6  -4 2629.71 343.754   7
  -3   6   4 2567.47 337.829   3
   3   6  -4 2632.32 357.367   2
  -3   6   4 2479.71 345.294   1
   3  -6  -5 4034.35 583.596   6
  -3   6  -5 4147.61 574.220   3
  -3  -6   5 3944.96 585.492   5
   3  -6  -5 4150.46 559.400   5
   3  -6   5 3866.33 566.054   5
   3  -6  -5 4106.47 561.732   8
   3  -6   5 5190.58 590.437   8
  -3   6   5 3958.12 564.216   4
  -3   6   5 3586.08 573.216   1
  -3   6   5 4580.87 564.212   3
  -3   6   6 3424.72 450.871   3
   3  -6   6 3350.93 477.972   8
  -3  -6   6 3631.82 481.437   5
   3  -6  -6 2607.37 445.808   5
   3  -6   6 3933.39 458.031   5
  -3  -6   6 3136.82 452.900   8
  -3   6   6 3455.96 453.505   4
  -3   6  -6 3533.40 466.004   3
  -3   6   6 3906.71 455.967   2
   3   6  -6 3835.24 475.541   2
   3  -6  -6 3682.68 476.221   6
   3  -6  -6 3498.13 447.731   8
   3  -6  -6 3329.83 457.300   7
  -6   3   7 3971.26 521.677   1
   3  -6   7 4492.52 524.306   5
  -3   6   7 3781.15 514.996   3
  -3   6  -7 4750.07 534.684   3
   6  -3  -7 5526.65 549.433   6
  -3  -6   7 3929.94 520.246   8
   3  -6  -7 3702.23 511.182   8
  -3   6   7 3859.47 517.692   2
   3  -6   7 3951.36 546.025   8
   3  -6  -7 3477.05 511.162   5
   3  -6  -7 3618.90 539.957   6
   3  -6  -7 3368.44 520.975   7
  -3   6   7 3924.92 519.285   4
  -3   6   7 3155.89 530.264   1
   3  -6   8 8414.74 1081.98   5
  -3  -6   8 8479.13 1079.13   8
   3   6  -8 8307.70 1097.96   2
   6  -3  -8 7989.63 1096.53   6
   3  -6  -8 7323.81 1093.10   6
   3  -6  -8 7691.84 1069.76   8
   6  -3  -8 7253.75 1091.62   7
  -3   6   8 7693.93 1078.17   4
  -6   3   8 9018.46 1082.32   1
  -3   6   8 7926.67 1073.43   3
  -3   6   8 8031.90 1074.31   2
  -3   6  -9 3418.58 562.070   3
   6  -3  -9 3980.94 581.723   6
   3   6  -9 5090.95 592.166   2
   3  -6   9 3232.02 550.735   5
  -3   6   9 3892.56 549.686   4
   3  -6   9 4037.77 585.480   8
  -6   3   9 3994.37 552.741   1
   6  -3 -10 10966.6 1442.07   6
  -3  -6  10 10470.0 1437.76   5
   6  -3 -10 9991.98 1436.45   7
  -3  -6  10 10907.1 1423.94   8
   3  -6  10 10872.0 1428.03   5
  -6   3  10 10564.1 1426.80   1
  -3   6 -10 10114.4 1436.42   3
   3  -6 -10 11032.8 1427.10   7
  -3   6  10 9646.22 1422.41   4
   3  -6 -10 10742.9 1438.00   6
  -3  -6  11 63.8534 62.0947   8
   3  -6  11 170.387 72.5196   5
  -6   3  11-8.65104 67.7082   1
  -3  -6  11 190.845 107.671   5
   3   6 -11 402.226 139.100   2
  -6  -3  11 72.3529 120.706   5
   6  -3 -11-46.9094 136.131   6
  -3   6 -11 228.296 87.3432   3
  -3   6  11 223.653 65.5379   4
   6  -3 -11 279.986 107.254   7
   3  -6 -11 169.580 68.2216   7
   3  -6 -11 136.969 102.590   6
  -3  -6  12 6783.90 930.853   5
   3   6 -12 5995.74 936.336   2
   3   6 -12 6532.82 935.831   3
  -3  -6  12 7879.61 918.628   8
   3  -6 -12 6119.21 918.162   7
   6  -3 -12 6865.59 932.260   7
   6  -3 -12 5972.33 935.448   6
   3  -6  12 7050.77 946.824   8
  -6   3  12 6732.85 920.269   1
  -6  -3  12 7487.79 944.202   5
   3  -6 -12 6530.83 931.002   6
  -3   6  12 6478.46 915.914   4
  -3   6  13 2540.11 336.012   4
  -6  -3  13 2277.43 372.581   5
   3   6 -13 3026.07 373.242   3
   3   6 -13 1983.87 370.405   2
   3  -6  13 2613.73 385.167   8
   3  -6 -13 2136.21 336.880   7
   6   3 -13 2340.21 341.285   6
   6  -3 -13 2352.07 356.421   7
   6  -3 -13 2721.73 374.474   6
  -3   6 -13 2314.35 352.726   3
   3  -6 -13 2334.99 354.403   6
  -3  -6  13 1557.57 348.299   5
  -3  -6  13 2666.82 337.182   8
  -6   3  14 4035.19 504.487   1
   3  -6  14 3721.58 542.126   8
   6  -3 -14 3793.84 519.632   7
  -3  -6  14 2797.63 494.760   8
   3  -6 -14 3882.70 517.651   6
  -6  -3  14 3495.42 522.191   5
  -3   6  14 4373.50 498.669   4
   3   6 -14 3164.53 531.189   2
   3   6 -14 3569.96 529.111   3
   3  -6 -14 3383.77 497.305   7
   6  -3 -14 3046.17 523.850   6
   3   6 -15 1909.15 282.596   2
  -3  -6  15 1681.08 248.862   5
   3   6 -15 1685.09 275.834   3
  -3  -6  15 1904.92 233.973   8
  -3   6  15 1405.79 222.777   4
   6   3 -15 1252.67 239.378   2
  -6   3  15 1350.57 233.462   1
   6  -3 -15 1380.98 271.392   6
   6  -3 -15 1534.89 247.685   7
  -6  -3  15 1361.25 256.165   5
  -6   3  15 1541.28 222.012   4
   3  -6 -15 1459.86 250.068   6
   3  -6 -15 1220.58 226.424   7
   3   6 -16 2763.38 457.162   3
   6  -3 -16 2615.46 432.869   7
  -6  -3  16 3491.35 445.504   5
  -3  -6  16 2759.46 433.349   5
  -6   3  16 2946.02 430.172   1
  -3   6  16 2910.69 421.850   4
   3   6 -16 3822.74 468.284   2
   3  -6 -16 2784.64 435.044   6
  -6   3  16 2976.36 417.563   4
   6   3 -16 3015.71 437.268   2
   6  -3 -16 3182.91 454.038   6
  -3  -6  16 3103.78 425.457   8
   3  -6 -16 2971.92 422.900   7
  -6  -3  17-42.1855 67.8527   8
   3   6 -17-168.138 206.190   2
   6  -3 -17-124.807 161.378   6
  -3   6  17-53.2029 94.9292   4
  -6   3  17 37.1961 67.1564   4
  -3  -6  17 25.2148 118.398   5
  -3  -6  17 9.56168 97.0270   8
   6   3 -17 148.511 122.910   2
  -6   3  17-11.7563 100.120   1
   3  -6 -17-14.6797 125.399   6
  -6  -3  17 28.1480 116.479   5
   6  -3 -17-120.024 112.161   7
   3   6 -17-58.6123 173.420   3
   3  -6 -17 77.6667 84.6979   7
  -6  -3  18 4895.25 622.509   8
  -6   3  18 3936.12 622.804   4
   3  -6 -18 4991.36 630.216   7
   3   6 -18 3789.48 660.515   2
   3  -6 -18 4807.99 643.044   6
  -6   3  18 3973.06 635.378   1
   6   3 -18 4835.83 653.618   3
  -3   6  18 5193.34 630.456   4
  -3  -6  18 4994.08 637.464   5
   6   3 -18 4615.80 644.133   2
   6  -3 -18 4022.97 654.707   6
  -3  -6  18 4641.21 629.175   8
   6  -3 -18 3334.73 632.880   7
  -6  -3  18 4641.00 638.922   5
  -3  -6  19 1063.08 185.778   5
   6  -3 -19 929.775 219.567   6
   3   6 -19 1270.11 252.953   2
  -6   3  19 1032.23 169.123   4
   3  -6 -19 838.032 177.257   7
   3  -6 -19 968.661 205.041   6
   3   6 -19 1486.17 248.936   3
  -6   3  19 1239.25 192.507   1
  -3   6  19 877.160 171.992   4
   6  -3 -19 1016.43 194.571   7
  -3  -6  19 1072.48 187.081   8
  -3  -6  20 3370.35 466.250   8
   3   6 -20 3328.13 508.615   3
  -6   3  20 3254.12 472.591   1
  -3  -6  20 3608.74 470.245   5
   6  -3 -20 3607.38 493.917   6
   3   6 -20 3508.91 518.725   2
  -3   6  20 3308.54 465.857   4
   3  -6 -20 3438.91 465.382   7
   3  -6 -20 3150.65 479.584   6
   6  -3 -20 2521.90 471.220   7
  -6   3  20 3059.42 458.099   4
   6  -3 -21 1089.23 218.268   7
  -6   3  21 1289.75 216.842   1
  -3  -6  21 1086.97 211.814   8
   6  -3 -21 1037.21 241.456   6
   3   6 -21 965.742 278.924   2
   3   6 -21 1475.98 271.483   3
  -3  -6  21 1476.29 214.275   5
  -3   6  21 1186.78 206.921   4
  -6   3  21 1425.49 199.738   4
   3  -6 -21 1148.41 223.149   6
   3  -6 -21 1113.70 205.581   7
  -3  -6  22 2293.22 316.104   8
   3  -6 -22 1621.14 323.614   6
  -3  -6  22 2225.15 315.156   5
  -6   3  22 1873.72 320.872   1
   3   6 -22 1351.50 353.527   3
   6  -3 -22 2153.07 342.826   6
   6  -3 -22 2146.01 321.091   7
  -6   3  22 2286.31 302.430   4
   3   6 -22 2515.17 374.774   2
  -3   6  22 1630.11 310.682   4
   3   6 -23-74.4775 230.761   2
  -3  -6  23 95.4764 121.636   5
   6  -3 -23 51.7958 157.128   6
  -3  -6  23 50.0168 158.745   8
   3   6 -23-277.877 241.440   3
   6  -3 -23-157.008 144.841   7
   3  -6 -23 141.196 109.946   7
   3  -6 -24 929.207 216.717   6
   3  -6 -24 562.029 186.447   7
  -3   6  24 1355.76 199.071   4
   3   6 -24 1383.56 262.441   3
  -3  -6  24 1289.22 199.034   5
  -3  -6  25 26.5781 131.940   8
   3  -6 -25 70.6288 137.965   6
  -3   6  25 347.912 127.920   4
   3  -6 -25 88.4999 119.521   7
   3  -6 -26 719.979 201.848   7
   3  -6 -26 723.346 226.333   6
  -3   6  27 211.665 142.573   4
   3  -6 -27 54.4967 121.708   7
   3  -6 -27 128.718 140.703   6
  -3   6  28 1608.22 244.390   4
   3  -6 -28 933.624 222.672   7
   4  -6   0 1906.36 249.947   6
   4  -6   0 1120.13 240.101   7
  -4   6   0 1768.34 232.195   1
  -4   6  -1 686.389 138.929   1
   4  -6  -1 705.357 163.929   6
   4  -6   1 1034.16 163.329   6
   4  -6  -1 1132.94 165.087   8
  -4   6   1 1164.85 144.994   1
   4  -6  -1 1023.56 158.369   7
   4  -6   2 1189.17 175.362   8
  -4   6   2 843.192 146.233   1
   4  -6  -2 999.076 161.918   8
   4  -6  -2 1027.28 171.202   6
   4  -6  -2 900.395 157.164   7
   4  -6  -3 2393.11 371.406   8
   4  -6  -3 2755.89 384.929   6
   4  -6  -3 2588.62 372.107   7
  -4   6   3 2549.42 366.886   1
   4  -6   3 2930.48 385.493   8
   4  -6   4-29.2380 97.3697   8
   4  -6  -4-40.3177 72.0456   8
  -4   6   4-8.46216 58.0985   1
   4  -6  -4-9.11653 66.0497   7
   4  -6  -4-53.5385 104.480   6
   4  -6  -5 1618.28 262.750   7
   4   6  -5 1815.23 275.008   2
  -4   6   5 1476.11 260.742   1
   4  -6  -5 2077.09 260.741   8
   4  -6  -5 2025.67 287.363   6
   4  -6   5 2016.73 286.554   8
  -4  -6   6 1911.34 304.310   8
  -4   6   6 1967.07 317.267   1
  -6   4   6 1993.37 308.293   1
   4  -6  -6 2351.22 315.718   7
  -4  -6   6 1910.40 336.806   5
   4  -6  -6 1693.27 330.556   6
   4  -6  -6 2707.61 307.772   8
   6  -4  -7 2930.83 376.945   6
   4   6  -7 2590.13 364.738   2
  -4  -6   7 2216.61 376.435   5
   6  -4  -7 2348.03 362.668   7
   4  -6  -7 2026.35 370.627   6
   4  -6  -7 2255.04 347.438   7
  -4  -6   7 2570.24 340.919   8
  -4  -6   8 1795.57 306.911   5
   4  -6  -8 2208.37 316.382   6
  -6   4   8 2016.80 272.021   1
   6  -4  -8 2134.36 309.545   6
   6  -4  -8 1303.32 291.250   7
  -4   6   8 1570.02 265.753   4
   4   6  -8 1973.34 295.893   2
  -4  -6   8 2044.86 264.889   8
  -4  -6   9 3799.66 518.360   8
   4   6  -9 3529.82 539.650   2
   4  -6  -9 4705.95 551.147   6
  -4   6   9 3861.09 518.758   4
   6  -4  -9 4172.46 548.369   6
  -4   6   9 3312.12 530.796   1
   4  -6  -9 3460.59 524.039   7
  -4  -6  10 78.6105 56.0894   8
  -6   4  10 91.5574 69.5498   1
  -4   6  10-12.4638 95.9859   1
   6  -4 -10 146.579 103.369   7
   4   6 -10 141.807 118.477   2
  -4   6  10-19.7753 59.9456   4
   4  -6 -10 72.0195 69.4462   7
  -4  -6  10-48.3149 121.092   5
   6  -4 -10-32.8835 140.136   6
   4  -6 -10-15.5906 124.874   6
  -4  -6  11 6188.97 756.491   8
  -4   6  11 5775.82 756.450   4
   4  -6 -11 5242.22 775.666   6
   6  -4 -11 5348.79 770.292   7
   4  -6 -11 5418.45 760.480   7
   4   6 -11 5333.00 776.802   2
  -4  -6  11 5514.31 778.347   5
  -6  -4  11 5285.28 790.345   5
  -6   4  11 5501.32 762.098   1
   6  -4 -11 5127.16 783.211   6
  -4   6  11 4789.40 768.423   1
   4  -6 -12 2597.71 353.236   6
   6  -4 -12 1660.31 338.896   7
  -4   6  12 2581.51 321.884   4
  -4  -6  12 1977.62 344.638   5
  -4   6  12 1954.27 339.139   1
   6  -4 -12 2098.76 355.159   6
   4   6 -12 1943.48 356.229   2
  -6  -4  12 2520.66 368.260   5
  -6   4  12 2271.51 330.133   1
   4  -6 -12 2468.39 328.263   7
  -4  -6  13 736.096 199.409   5
   4   6 -13 875.755 222.046   2
  -4   6  13 1049.11 204.460   1
   6  -4 -13 1246.27 203.738   7
  -4  -6  13 1179.41 172.520   8
   4  -6 -13 1291.61 185.418   7
   6  -4 -13 855.106 231.632   6
   4  -6 -13 1364.30 221.304   6
  -6   4  13 941.061 186.692   1
  -6  -4  13 906.584 230.294   5
  -4   6  13 1272.77 177.495   4
  -6  -4  14 2301.72 422.378   5
   4  -6 -14 2455.65 418.608   6
   6  -4 -14 2906.13 435.173   6
  -4   6  14 2822.27 394.224   4
  -4  -6  14 3563.92 397.018   8
  -4   6  14 2709.45 417.393   1
  -4  -6  14 2795.28 419.728   5
   4  -6 -14 2532.42 397.684   7
  -6   4  14 2524.87 391.781   4
   4   6 -14 2390.54 420.854   3
   6   4 -14 3003.55 417.683   2
  -6   4  14 3052.76 405.164   1
   4   6 -14 2888.50 427.640   2
   6  -4 -14 2821.74 411.700   7
  -6  -4  15 2151.66 310.055   5
   4   6 -15 2281.27 309.544   3
  -4   6  15 1404.74 288.768   1
   4   6 -15 2242.06 305.314   2
  -6  -4  15 1629.57 255.965   8
  -4  -6  15 1706.39 291.459   5
   4  -6 -15 1700.12 291.147   6
  -6   4  15 1633.36 275.401   1
   6  -4 -15 2263.43 286.495   7
  -4  -6  15 1669.67 260.691   8
   4  -6 -15 1627.39 265.370   7
   6  -4 -15 2109.36 317.017   6
  -6   4  15 1925.05 259.665   4
  -4   6  15 1793.19 261.250   4
   6   4 -15 1388.99 280.796   2
  -6   4  16 625.524 107.869   4
  -6  -4  16 501.234 97.3254   8
  -4  -6  16 590.210 143.675   5
  -4  -6  16 442.969 104.918   8
   6  -4 -16 410.240 134.877   7
   4  -6 -16 366.832 112.822   7
  -4   6  16 512.830 108.294   4
   6  -4 -16 504.818 164.336   6
  -6   4  16 583.423 134.322   1
   4   6 -16 449.206 171.513   2
   4  -6 -16 544.678 155.903   6
  -6  -4  16 327.992 152.373   5
   6   4 -16 236.997 138.889   2
  -4   6  16 585.780 166.327   1
   4   6 -16 608.803 178.158   3
   4   6 -17 1086.87 264.969   2
  -6   4  17 1306.60 207.165   4
  -6   4  17 1766.08 230.429   1
   4   6 -17 893.976 262.051   3
  -4  -6  17 1532.90 212.207   8
  -4  -6  17 1327.22 232.372   5
   6   4 -17 1039.84 236.654   2
   4  -6 -17 1379.56 218.754   7
   6  -4 -17 941.916 229.326   7
  -4   6  17 1204.92 208.379   4
   6  -4 -17 1547.85 269.258   6
   4  -6 -17 1264.88 250.486   6
  -6  -4  17 1576.86 205.524   8
  -6  -4  17 1287.97 247.092   5
   4   6 -18 203.821 184.740   3
  -6  -4  18 257.019 148.677   5
  -6   4  18 364.771 89.5947   4
   4  -6 -18 319.689 102.380   7
   6  -4 -18 111.203 165.755   6
  -6   4  18 41.3794 119.635   1
   6   4 -18 124.507 149.704   3
   6  -4 -18 228.881 120.064   7
  -4  -6  18 221.657 130.738   5
  -6  -4  18 234.503 81.2806   8
  -4  -6  18 283.471 96.6250   8
   4   6 -18 375.317 184.694   2
  -4   6  18 127.136 94.4815   4
   6   4 -18 315.566 138.487   2
   4  -6 -18 227.416 132.972   6
   6   4 -19 1442.15 242.320   2
  -6   4  19 1424.17 230.377   1
   6   4 -19 894.682 263.189   3
  -6  -4  19 1395.98 234.374   5
   4   6 -19 1508.00 280.478   3
  -4  -6  19 1159.58 206.169   8
  -4  -6  19 1375.03 231.290   5
   4  -6 -19 1226.48 216.812   7
   4  -6 -19 1202.52 245.777   6
   6  -4 -19 1282.88 256.569   6
  -6   4  19 1670.18 209.916   4
   4   6 -19 1330.43 275.583   2
  -4   6  19 1368.30 211.034   4
  -6  -4  19 1063.93 198.825   8
   6  -4 -19 1506.47 234.032   7
  -6  -4  20 1096.23 204.643   5
   6  -4 -20 713.789 203.854   7
  -4  -6  20 1203.66 192.302   8
  -6   4  20 926.344 211.012   1
   4   6 -20 830.647 263.331   3
  -4  -6  20 968.220 203.385   5
   4   6 -20 1088.10 258.189   2
   4  -6 -20 1058.17 192.774   7
  -4   6  20 1123.75 184.309   4
  -6  -4  20 1289.79 178.959   8
  -6   4  20 1344.27 186.900   4
   6  -4 -20 923.756 240.471   6
   4  -6 -20 1156.26 222.606   6
   6  -4 -21 1480.74 273.801   7
  -6   4  21 1583.62 252.512   4
   4   6 -21 1649.90 327.167   3
   4   6 -21 1186.69 308.706   2
  -4   6  21 1940.88 260.590   4
  -4  -6  21 1779.19 271.183   5
  -6   4  21 1613.98 283.490   1
   4  -6 -21 1700.45 283.768   6
  -4  -6  21 1915.86 262.306   8
   6  -4 -21 1209.83 293.036   6
   6  -4 -22 163.715 179.926   6
  -4  -6  22 474.442 139.447   5
   4   6 -22 164.041 225.010   2
   4   6 -22 67.7193 245.047   3
  -4  -6  22 32.9130 147.359   8
   6  -4 -22-14.2258 131.099   7
  -6   4  22 240.341 153.284   1
  -6   4  22 505.964 113.685   4
   4  -6 -23 147.150 116.936   7
   4   6 -23 24.0458 257.640   2
  -6   4  23 300.346 112.428   4
  -4  -6  23 303.762 144.230   5
   6  -4 -23 54.2920 158.276   6
   4  -6 -24 52.9816 148.932   6
   4  -6 -24 101.051 113.918   7
  -4  -6  24 138.572 130.494   5
  -4   6  24 36.5232 111.335   4
   4  -6 -25 596.024 176.577   6
   4  -6 -25 273.502 141.768   7
  -4   6  25 689.407 151.861   4
   4  -6 -26 73.7227 151.488   6
   4  -6 -26 295.625 133.924   7
  -4   6  26 349.119 140.597   4
  -4   6  27 217.275 239.379   1
   4  -6 -27 406.464 146.128   7
   4  -6 -27 226.091 172.760   6
  -4   6  27 635.831 155.983   4
   4  -6 -28 77.0047 165.578   6
   4  -6 -28 348.047 145.871   7
  -5   6   1 1188.63 180.787   1
   5  -6  -1 1285.15 207.370   6
  -5   6   2 21.5566 52.7165   1
   5  -6  -2-40.0856 103.899   6
   5  -6  -2-99.3536 88.3595   7
   5  -6  -3 264.538 121.132   6
   5  -6  -3 313.374 95.3868   8
  -5   6   3 307.808 77.6241   1
   5  -6  -3 419.610 103.500   7
   5  -6  -4 547.359 153.829   6
  -5   6   4 550.921 107.666   1
   5  -6  -4 519.094 115.972   8
   6  -5  -4 604.660 147.299   6
   5  -6  -4 480.368 130.183   7
  -6   5   4 715.688 105.442   1
   5  -6  -5-46.6921 122.169   7
  -5   6   5 104.963 81.3510   1
   5  -6  -5-150.494 154.492   6
   5  -6  -5 117.200 80.2626   8
   6  -5  -5 134.590 153.844   6
   5  -6  -6-90.7974 103.873   7
   5  -6  -6 298.660 96.7637   8
  -5   6   6 93.1547 87.3952   1
   6  -5  -6 47.0108 150.710   6
   5  -6  -6 109.873 154.923   6
   6  -5  -7 1069.88 219.813   6
  -6   5   7 1346.58 181.039   1
   6  -5  -7 783.233 198.148   7
   5  -6  -7 1119.75 178.227   8
   5  -6  -7 1289.64 222.484   6
   6  -5  -8 642.557 150.913   7
  -6   5   8 758.001 128.536   1
  -5  -6   8 884.221 183.586   5
   6  -5  -8 1039.32 186.654   6
  -5  -6   9 337.055 148.475   5
   5  -6  -9 368.137 109.195   7
   6  -5  -9 367.518 127.251   7
  -6   5   9 289.208 93.5316   1
   5  -6  -9 380.601 148.725   6
  -5   6   9 243.933 107.519   1
   6  -5  -9 556.829 166.647   6
   5   6  -9 669.932 134.130   2
  -5  -6  10 542.533 179.065   5
  -5  -6  10 731.854 109.637   8
   5  -6 -10 606.748 128.280   7
  -6   5  10 596.310 126.691   1
  -5   6  10 668.136 138.251   1
   6  -5 -10 877.669 148.715   7
   6  -5 -10 576.737 183.717   6
   5  -6 -10 601.240 174.682   6
   5   6 -10 499.301 146.971   2
  -5   6  10 496.466 109.585   4
   6  -5 -11 1218.26 184.007   7
  -5  -6  11 482.857 203.219   5
   5  -6 -11 945.277 210.343   6
  -5   6  11 791.857 180.166   1
  -6   5  11 1071.56 171.758   1
  -5  -6  11 1049.49 152.263   8
   6  -5 -11 966.317 218.326   6
  -6  -5  11 769.194 213.347   5
   5  -6 -11 846.206 165.176   7
   5   6 -11 1054.08 198.201   2
  -5   6  11 1015.25 154.541   4
  -5  -6  12 71.6090 151.081   5
   5  -6 -12 338.170 104.649   7
  -6  -5  12 343.310 166.860   5
  -5  -6  12 246.491 72.0722   8
  -6   5  12 317.639 104.657   1
   5   6 -12 229.799 133.329   2
   6  -5 -12 330.097 116.947   7
  -5   6  12 352.470 118.075   1
  -5   6  12 417.455 82.0369   4
   5  -6 -12 324.137 159.819   6
   6  -5 -12 304.280 170.577   6
  -5  -6  13 1278.57 256.698   8
  -6  -5  13 1525.91 308.379   5
   6  -5 -13 2185.88 315.353   6
  -5  -6  13 2096.40 300.964   5
   5  -6 -13 1773.44 308.789   6
   5   6 -13 1743.23 294.931   2
  -5   6  13 1877.66 259.601   4
   6  -5 -13 2107.51 285.290   7
   5  -6 -13 1746.38 271.789   7
  -6   5  13 1840.73 271.663   1
   6   5 -13 2376.98 297.216   2
  -5   6  13 1902.31 284.251   1
   6  -5 -14 276.262 115.421   7
  -6   5  14 148.205 104.639   1
   5   6 -14 70.7311 133.662   2
  -5   6  14 145.512 124.075   1
  -6  -5  14 93.6159 146.872   5
  -5  -6  14 69.3579 142.418   5
  -5  -6  14 137.519 65.2162   8
   5  -6 -14 201.652 95.4258   7
  -5   6  14 23.3071 70.7933   4
   5  -6 -14 217.057 163.071   6
   6  -5 -14 351.877 178.062   6
  -6  -5  14 14.9738 64.7604   8
  -6   5  14 145.254 76.1709   4
   6   5 -14 64.8171 108.931   2
  -6  -5  15 1972.13 277.013   8
  -6  -5  15 2029.92 328.511   5
   5  -6 -15 2505.76 330.445   6
  -5   6  15 1523.40 302.861   1
  -5  -6  15 1950.85 312.228   5
  -6   5  15 2238.73 298.559   1
   6  -5 -15 1367.59 291.780   7
   5   6 -15 2318.48 322.766   2
  -6   5  15 1933.58 278.804   4
   5  -6 -15 1830.70 287.976   7
  -5   6  15 2054.03 279.216   4
   6  -5 -15 1704.25 331.208   6
  -5  -6  15 1717.53 277.087   8
   6   5 -15 2001.28 308.721   2
  -6   5  16 576.472 162.616   1
  -6  -5  16 312.663 158.102   5
   5  -6 -16 2014.74 266.555   6
  -5   6  16 1225.67 203.056   1
   6  -5 -16 628.221 163.433   7
  -6  -5  16 513.391 110.211   8
   6   5 -16 338.957 162.368   2
  -5  -6  16 495.919 118.217   8
  -5   6  16 372.989 121.824   4
  -6   5  16 225.593 115.689   4
   6  -5 -16 352.635 208.369   6
  -5  -6  16 226.942 164.073   5
   5   6 -16 458.087 193.883   3
   5   6 -16 600.369 182.980   2
  -5  -6  17 16.8365 75.7260   8
   5   6 -17 115.061 175.145   3
  -5  -6  17 95.4932 128.443   5
  -6  -5  17-101.468 135.512   5
  -6   5  17-14.1749 122.787   1
   6   5 -17-17.4300 134.192   2
   5  -6 -17-72.2911 142.244   6
  -6  -5  17 186.789 78.5335   8
  -6   5  17 8.30057 75.2950   4
  -5   6  17 68.6803 78.9027   4
   5  -6 -17 69.9902 99.6183   7
   6  -5 -17 77.9919 165.696   6
  -5   6  17 49.5331 135.052   1
   5   6 -17 116.570 146.680   2
   6  -5 -17 133.853 118.030   7
  -5  -6  18 46.9041 135.313   5
   6   5 -18-76.1131 156.038   3
  -5  -6  18 52.4564 78.4882   8
   5   6 -18-20.1106 154.704   2
   5   6 -18 160.810 179.532   3
  -5   6  18 69.4788 150.750   1
   6  -5 -18 58.0548 161.824   6
  -5   6  18 44.9314 79.5339   4
  -6   5  18 194.567 128.766   1
  -6  -5  18-164.668 145.868   5
  -6   5  18 111.000 78.7646   4
   6   5 -18 71.9108 144.962   2
  -6  -5  18-50.0824 75.1650   8
   6  -5 -18 176.973 120.293   7
   5  -6 -18-17.9604 150.687   6
   5  -6 -18 59.6203 103.271   7
   6  -5 -19 698.854 210.014   6
   6   5 -19 913.738 230.127   3
   5  -6 -19 792.508 161.754   7
   5   6 -19 743.250 210.707   2
  -5   6  19 834.077 144.326   4
   5   6 -19 633.370 223.531   3
  -5   6  19 631.002 192.911   1
  -6  -5  19 950.891 139.743   8
  -6   5  19 726.479 185.056   1
  -6   5  19 487.074 137.545   4
  -5  -6  19 910.065 142.794   8
   6  -5 -19 545.955 163.930   7
  -6  -5  19 513.984 185.944   5
   5  -6 -19 760.439 187.744   6
  -5  -6  19 717.398 177.340   5
   6   5 -19 724.837 192.950   2
   6   5 -20 342.667 173.215   2
   6  -5 -20 481.708 183.922   6
  -6   5  20 479.333 111.229   4
   6   5 -20 270.866 207.307   3
   5   6 -20 448.144 199.116   2
   5   6 -20 375.445 203.992   3
  -6  -5  20 457.903 154.321   5
  -5  -6  20 476.949 146.438   5
   6  -5 -20 263.959 135.278   7
  -5  -6  20 443.588 110.810   8
  -6  -5  20 437.052 104.252   8
  -5   6  20 176.182 107.026   4
  -6   5  20 488.685 161.338   1
   5  -6 -20 397.188 169.040   6
  -6  -5  21 787.008 130.384   8
  -5  -6  21 466.553 162.350   5
   5   6 -21 688.658 237.658   3
  -6  -5  21 518.750 161.924   5
  -6   5  21 547.722 132.702   4
  -5  -6  21 685.404 134.870   8
   6  -5 -21 400.888 189.693   6
   5   6 -21 700.842 208.957   2
   5  -6 -22 25.8697 117.423   7
  -5  -6  22-163.690 110.911   8
  -5  -6  22 14.1357 142.001   5
  -5   6  22-263.114 213.112   1
   5   6 -22 23.5725 236.695   3
  -6   5  23 143.883 151.782   1
  -5  -6  23 13.5779 107.556   5
   5   6 -23 191.883 222.397   3
   5  -6 -23-39.7710 111.908   7
   6  -5 -23 115.798 128.536   7
  -5   6  23 21.0703 182.762   1
  -5   6  23-33.8830 100.606   4
   5  -6 -23 18.4017 147.278   6
  -5   6  24-43.9191 196.184   1
  -6   5  24 37.2293 159.695   1
  -5   6  24 258.911 117.329   4
   6  -5 -24 228.033 166.451   6
   5  -6 -24-204.094 160.622   6
   5  -6 -24-54.3926 115.719   7
  -6   5  24 110.357 117.948   4
   6  -5 -24 44.3122 126.426   7
   5  -6 -25 55.8405 135.975   7
   6  -5 -25 364.290 169.894   6
  -5   6  25 252.138 211.657   1
   6  -5 -25 528.040 158.798   7
  -6   5  25 545.914 125.234   4
  -6   5  25 327.885 188.426   1
   5  -6 -25 507.267 183.920   6
  -5   6  25 443.110 135.518   4
  -5   6  26 64.7625 126.478   4
   6  -5 -26 15.4260 138.087   7
   5  -6 -26-114.735 138.058   7
  -5   6  26-95.8801 211.549   1
   5  -6 -26 171.233 166.947   6
  -5   6  27 340.169 140.855   4
   5  -6 -27 406.068 174.548   6
  -5   6  27 351.595 240.048   1
   5  -6 -27 477.459 156.446   7
   6  -6  -3-60.0437 129.960   6
  -6   6   3-152.946 78.4797   1
   6  -6  -4-14.4528 102.801   7
  -6   6   4 8.01204 58.2471   1
   6  -6  -4-78.3857 133.922   6
  -6   6   5 25.2626 64.6773   1
   6  -6  -5 86.7473 108.696   7
   6  -6  -5 16.3277 129.354   6
   6  -6  -6 879.869 193.686   7
  -6   6   6 1034.04 164.958   1
   6  -6  -6 1180.77 212.944   6
   6  -6  -7 35.1661 141.249   6
  -6   6   8 468.276 107.910   1
   6  -6  -8 548.348 169.692   6
  -6   6   9 52.8772 85.9271   1
   6  -6  -9-149.575 110.787   7
   6  -6  -9-37.8675 140.007   6
  -6   6  10-121.974 91.1383   1
   6  -6 -10 13.4992 99.1917   7
   6  -6 -10 19.4843 156.595   6
  -6  -6  11 106.232 157.657   5
   6  -6 -11-93.9787 100.029   7
   6  -6 -11-79.0208 169.784   6
  -6   6  11 81.4988 92.5013   1
  -6   6  12 1028.63 180.775   1
  -6  -6  12 1078.76 233.667   5
   6  -6 -12 1323.11 194.040   7
  -6   6  12 833.049 161.572   4
   6   6 -12 943.102 198.320   2
   6  -6 -12 1246.65 232.066   6
  -6   6  13-47.2022 71.4855   4
  -6  -6  13-40.9308 162.137   5
   6  -6 -13-106.597 107.538   7
   6   6 -13-17.0800 119.476   2
  -6   6  13-128.890 108.582   1
   6  -6 -13 284.492 172.629   6
  -6   6  14 1398.81 245.918   1
  -6  -6  14 2169.66 288.550   5
   6  -6 -14 1702.76 249.368   7
   6   6 -14 1305.11 258.169   2
   6  -6 -14 1343.84 274.488   6
  -6   6  14 1385.66 225.009   4
  -6  -6  15-8.22226 74.9137   8
  -6   6  15-107.417 92.7376   4
   6  -6 -15-159.634 131.923   7
   6   6 -15-124.578 145.808   2
  -6   6  15-140.158 124.945   1
   6  -6 -15-81.4243 205.976   6
  -6  -6  15-76.6211 176.573   5
  -6   6  16 738.041 135.022   4
   6  -6 -16 756.855 160.531   7
   6  -6 -16 571.408 223.451   6
  -6  -6  16 860.722 204.428   5
  -6  -6  16 702.840 133.833   8
   6   6 -16 730.640 178.650   2
  -6   6  16 754.523 172.476   1
   6  -6 -17-27.0724 116.002   7
  -6  -6  17-109.379 164.108   5
   6   6 -17 263.270 155.643   2
  -6  -6  17 60.8698 72.4669   8
  -6   6  17 91.6403 130.084   1
  -6   6  17-43.5274 81.9883   4
   6  -6 -17-40.5547 166.727   6
  -6   6  18 368.338 106.745   4
  -6  -6  18 550.536 173.172   5
   6  -6 -18 321.962 175.546   6
   6  -6 -18 454.253 144.927   7
   6   6 -18 403.894 184.706   3
  -6   6  18 611.424 168.068   1
   6   6 -18 345.754 172.359   2
  -6  -6  18 472.941 108.731   8
   6   6 -19-105.185 189.884   3
  -6  -6  19-9.17895 79.3668   8
   6   6 -19-59.5157 158.171   2
   6  -6 -19 181.663 176.084   6
  -6   6  19 27.9175 90.8715   4
  -6  -6  19-103.911 148.391   5
   6   6 -20 902.244 242.085   3
  -6  -6  20 1031.03 201.866   5
  -6  -6  20 598.384 143.779   8
   6   6 -20 1025.95 232.071   2
   6   6 -21 189.010 195.295   2
   6   6 -21-22.9915 233.368   3
  -6  -6  21-32.7744 154.783   5
  -6  -6  21 58.7916 96.7593   8
   6  -6 -21-14.2980 150.768   7
  -6   6  21 108.528 186.797   1
   6   6 -22 150.494 187.120   2
   6  -6 -22 537.622 181.647   6
  -6  -6  22 810.917 169.757   5
   6  -6 -22 320.542 144.718   7
  -6   6  22 224.501 181.109   1
   6   6 -22 549.889 242.577   3
  -6  -6  22 558.568 126.682   8
  -6   6  22 643.004 130.511   4
   6  -6 -23-102.751 143.670   7
  -6   6  23 55.0203 104.382   4
  -6   6  23-96.8075 169.892   1
   6  -6 -23 138.628 179.246   6
   6  -6 -24-14.9815 134.049   7
   6  -6 -24-59.8428 168.149   6
  -6   6  24 462.339 123.042   4
  -6   6  24 60.1730 171.703   1
   6  -6 -25 30.6113 126.291   7
  -6   6  25-108.744 119.400   4
  -6   6  25 83.2197 182.583   1
   6  -6 -25-19.8697 168.187   6
  -6   6  26 365.108 126.347   4
   6  -6 -26 109.602 149.832   7
   6  -6 -26 563.432 196.127   6
  -6   6  26 129.650 192.951   1
  -6   6  27 67.4286 190.241   1
   6  -6 -27-48.6991 136.121   7
   6  -6 -27-80.6717 171.241   6
  -6   6  27 118.338 129.627   4
   0   7   0 8.14431 33.2582   4
   0  -7   0 14.2488 38.1342   8
   0   7   0-23.4433 85.9109   2
   0  -7   0-22.1807 50.6899   6
   0  -7   1 1016.92 141.034   8
   0  -7   1 464.221 150.089   5
   0  -7   1 1015.30 146.241   6
   0  -7   1 1016.41 138.039   7
   0   7  -1 986.297 136.618   4
   0   7  -1 854.136 165.117   2
   0  -7   2-16.1964 32.1689   7
   0  -7  -2 19.1310 67.7303   5
   0   7  -2 26.2195 89.8787   2
   0  -7  -2 9.79397 34.3631   7
   0  -7   2 9.22893 61.7474   5
   0  -7   2 16.7975 43.6879   8
   0   7  -2 10.5724 74.8598   3
   0   7  -2 13.8340 29.0859   4
   0  -7   2-64.5688 46.7286   6
   0   7  -3 1461.54 267.614   3
   0  -7  -3 1568.28 261.057   5
   0  -7   3 1754.61 252.389   8
   0   7  -3 2482.29 287.192   2
   0   7  -3 1368.18 244.082   4
   0  -7   3 2009.65 247.196   7
   0  -7  -3 1708.21 246.646   8
   0  -7   3 2270.94 255.328   6
   0  -7  -3 2303.82 264.218   6
   0  -7   3 2023.01 264.375   5
   0  -7   4 13.7361 51.3863   8
   0  -7  -4-36.2997 64.8367   6
   0   7  -4-23.6102 89.3660   3
   0  -7  -4 49.3113 39.4962   7
   0  -7   4 14.4530 32.4514   7
   0  -7  -4-80.4208 77.5732   5
   0   7   4 35.5290 65.1086   2
   0  -7   4-9.19264 57.0468   5
   0   7  -4 57.9904 96.0291   2
   0   7  -4-2.85483 25.6480   4
   0   7   4 21.5909 43.7990   4
   0  -7   4 5.52870 45.7669   6
   0  -7  -5 95.4446 67.1741   6
   0  -7   5 170.265 60.7415   8
   0  -7  -5 82.5600 74.3137   5
   0   7  -5 137.240 103.652   2
   0   7   5 213.375 51.6922   4
   0   7  -5 124.900 93.9146   3
   0  -7   5 110.232 64.7823   5
   0  -7   5 68.0766 38.0641   7
   0  -7  -5 98.3412 46.3464   7
   0   7  -5 74.2466 29.3999   4
   0   7  -5 162.982 50.2133   1
   0  -7   5 165.669 49.4152   6
   0  -7  -6-20.9150 79.7975   5
   0   7  -6 55.9748 39.4431   1
   0   7  -6-52.9368 102.516   3
   0  -7   6-9.15355 63.3787   5
   0  -7   6 36.0803 42.0717   6
   0  -7  -6-18.2955 47.7961   7
   0  -7  -6 29.9536 71.0378   6
   0  -7   6 8.22204 61.5330   8
   0  -7   6 21.6293 37.1791   7
   0   7  -6 20.3000 24.7779   4
   0   7   6-24.6113 51.1213   4
   0  -7  -7 738.127 107.340   7
   0  -7   7 648.025 119.066   8
   0   7  -7 586.890 88.5112   4
   0  -7   7 504.467 95.8182   7
   0  -7  -7 885.219 126.691   6
   0  -7   7 779.599 98.7466   6
   0   7   7 573.420 105.779   4
   0   7  -7 655.754 147.270   3
   0  -7   7 665.687 117.140   5
   0   7  -7 563.007 91.7411   1
   0   7  -8-248.884 156.762   3
   0  -7   8-121.945 95.5138   5
   0  -7   8-199.455 59.5835   6
   0  -7  -8-75.9570 91.7429   6
   0  -7  -8-101.189 59.6592   7
   0   7   8-34.5080 66.6056   4
   0  -7  -9 101.623 83.0694   6
   0  -7   9-9.31323 80.4759   5
   0   7  -9-30.3805 129.378   3
   0  -7  -9 70.9675 54.3086   7
   0   7   9 43.9023 61.8348   4
   0   7  -9 88.9793 20.3725   4
   0   7 -10 46.8670 112.093   3
   0   7  10 15.5028 59.8173   4
   0  -7 -10-14.8757 55.4228   7
   0  -7 -10-11.7607 84.7535   6
   0  -7  10 28.2791 70.5189   5
   0  -7  11 2158.30 312.572   8
   0   7 -11 2079.43 324.832   3
   0   7  11 1823.04 294.715   4
   0  -7  11 2089.03 297.786   5
   0  -7 -11 2181.64 306.879   6
   0  -7 -12-50.4934 89.0158   6
   0  -7  12-47.7904 74.6176   5
   0  -7  12-49.0832 102.242   8
   0   7 -12-66.3748 124.646   3
   7   0 -12 77.2865 99.7936   6
   0   7  12 17.2917 68.7321   4
   0  -7  13 4387.76 592.749   5
   7   0 -13 4202.47 605.197   6
   0   7  13 4156.61 591.537   4
   0  -7 -13 4601.21 590.265   7
   0  -7 -13 3964.88 598.639   6
   0  -7  13 3972.16 600.889   8
   0  -7 -14 107.613 97.7650   6
   0  -7 -14 88.2459 74.2147   7
   0   7  14-9.70172 80.8131   4
   0  -7  14-26.0551 116.941   8
   0   7 -14-102.959 132.902   3
   7   0 -14-112.325 135.808   6
   0  -7  14-49.3801 73.5800   5
   0  -7  15 1746.55 297.113   5
   0  -7 -15 2312.86 312.531   6
   7   0 -15 2073.37 323.826   6
   0   7  15 2459.48 304.870   4
   0  -7  15 1651.94 312.105   8
   0  -7 -15 1955.36 295.858   7
   0   7 -15 1994.92 322.589   3
   0   7 -16-17.4678 135.439   3
   7   0 -16 92.3364 142.816   6
   0  -7  16-102.481 84.4984   5
   0  -7 -16-76.2872 74.4064   7
   0  -7  16 42.8759 126.658   8
   0   7  16-43.3292 91.3244   4
   0   7  17 568.760 147.238   4
   0   7 -17 797.916 189.545   3
   0  -7  17 491.867 127.654   5
   0  -7  17 721.553 182.651   8
   0  -7 -17 365.987 120.063   7
   7   0 -17 450.190 179.580   6
   0   7 -18-212.469 140.290   3
   0  -7 -18-30.7334 85.5352   7
   7   0 -18 231.313 168.116   6
   0  -7  18-64.4262 88.7665   5
   0  -7  18-15.1866 126.228   8
   0  -7 -19 349.818 104.102   7
   0   7 -19 502.780 156.212   3
   0  -7  19 376.444 159.365   8
   0  -7  19 463.223 117.102   5
   0   7 -20 91.2922 142.986   3
   0  -7  20-48.6837 153.549   8
   0  -7  20-22.8106 92.2056   5
   0   7 -21 446.392 163.729   3
   0  -7  21 540.838 132.646   5
   0  -7  23 211.294 171.047   8
   0  -7  24 38.4647 104.849   5
   0   7 -24-140.827 153.564   3
   0  -7  24-110.398 164.790   8
   0  -7  25 158.690 120.926   5
   0   7 -25 229.892 170.182   3
   0  -7  26-68.7213 116.697   5
   0   7 -26 195.945 167.368   3
   0  -7  26 19.6168 171.641   8
   0  -7  27 911.682 265.028   8
   0   7 -27 1162.06 256.423   3
   0  -7  28-285.769 208.419   8
   0  -7  29 294.051 209.051   8
   1   7   0 4203.07 562.924   4
  -1  -7   0 3993.52 562.004   8
   1   7   0 4010.57 576.425   2
  -1  -7   0 4314.61 570.366   6
  -1  -7  -1 1517.33 222.827   8
  -1  -7   1 1513.92 248.449   5
   1   7  -1 1407.30 243.235   2
   1  -7   1 1681.83 236.087   6
   1  -7   1 1530.57 226.309   8
   1   7  -1 1379.46 223.340   4
  -1  -7   1 1614.70 221.808   7
   1   7   1 1856.41 242.994   2
  -1   7  -1 1675.13 221.263   4
  -1   7  -1 1945.95 252.478   2
  -1   7   1 1664.87 239.248   3
  -1   7   2 945.464 153.998   3
   1  -7  -2 1232.80 157.283   6
  -1  -7   2 809.763 165.926   5
   1   7  -2 1112.65 171.218   2
   1  -7  -2 766.332 140.757   5
  -1   7  -2 590.295 141.021   1
   1  -7  -2 1028.40 140.465   7
   1  -7  -2 835.879 134.476   8
   1  -7   2 801.275 143.694   5
   1  -7   2 908.472 143.998   8
  -1  -7   2 1108.03 134.083   7
  -1  -7  -2 976.445 136.814   7
   1  -7   2 837.791 137.723   7
  -1   7   2 990.175 136.051   4
   1   7  -2 942.462 136.106   4
  -1   7  -2 755.977 159.636   3
  -1  -7   2 971.774 138.245   8
   1  -7   2 868.331 148.336   6
  -1   7  -3 1236.85 186.163   3
  -1  -7   3 324.161 172.437   5
   1  -7  -3 805.099 159.598   5
   1  -7  -3 1161.92 152.424   8
   1  -7   3 1010.38 161.929   5
  -1  -7  -3 1323.49 173.828   6
  -1  -7   3 1273.28 152.772   7
   1  -7   3 926.284 165.670   8
  -1   7  -3 1089.67 160.465   1
   1   7   3 918.270 159.513   4
   1  -7   3 1145.61 157.267   7
   1  -7  -3 1072.50 158.208   7
  -1   7   3 1060.70 155.366   4
   1   7  -3 1160.05 153.966   4
  -1  -7  -3 964.619 156.312   7
   1  -7   3 1124.58 165.543   6
  -1   7   3 1092.83 174.027   2
   1  -7  -3 1290.65 174.813   6
  -1   7  -3 963.248 151.227   4
   1   7  -3 1296.04 191.897   2
   1  -7   4 83.5243 60.0846   6
  -1   7  -4 173.678 92.9283   3
  -1   7   4 78.5815 71.7243   2
  -1  -7  -4 116.921 68.9316   6
  -1   7  -4 81.8445 46.0221   1
  -1  -7   4 216.668 81.0265   5
   1  -7  -4 33.2397 52.2860   5
  -1  -7   4 148.096 50.4942   8
   1  -7   4 68.6030 57.5249   5
  -1  -7   4 61.0844 29.6676   7
   1  -7  -4 67.0398 34.7803   8
   1   7  -4 100.368 100.962   2
   1  -7   4 43.3804 66.1360   8
  -1   7  -4 136.711 33.9025   4
   1  -7  -4 39.6299 75.4876   6
   1   7   4 158.372 53.1100   4
   1  -7  -4 78.4490 48.4387   7
  -1   7   4 97.8395 45.9199   4
  -1  -7  -4 68.5728 42.2432   7
   1  -7   4 162.581 49.9607   7
  -1   7   5 393.798 98.4638   4
   1  -7   5 663.137 111.788   5
   1  -7   5 445.378 98.9281   7
   1  -7  -5 568.076 106.036   5
   1  -7   5 484.288 109.572   6
   1   7  -5 588.315 146.274   2
  -1   7  -5 322.367 125.247   3
   1  -7   5 444.208 117.928   8
  -1  -7   5 509.050 103.655   8
  -1   7  -5 747.280 97.9202   1
  -1  -7  -5 394.570 114.485   6
   1  -7  -5 639.949 92.8004   8
   1  -7  -5 810.814 127.859   6
  -1   7   5 520.222 111.068   2
   1  -7  -5 614.634 102.828   7
  -1   7  -5 704.557 92.1208   4
  -1  -7   5 768.852 92.9033   7
  -1  -7  -5 764.018 102.549   7
  -1  -7   5 404.669 125.564   5
   1   7   5 765.928 108.257   4
  -1  -7  -6 654.238 131.785   6
  -1   7  -6 719.963 108.014   4
   1   7  -6 793.338 156.467   3
   1   7   6 704.506 123.195   4
  -1  -7   6 566.414 136.722   5
   1  -7   6 665.590 117.617   7
  -1   7   6 777.361 119.907   4
   1  -7   6 758.842 141.853   8
   1  -7   6 797.445 126.858   5
   1  -7  -6 686.392 124.665   5
   1  -7  -6 890.161 143.005   6
   1   7  -6 584.010 165.759   2
   1  -7  -6 728.322 119.662   7
   1  -7   6 901.648 125.322   6
  -1  -7   6 806.104 124.848   8
  -1  -7  -6 854.626 121.090   7
  -1   7  -6 823.233 111.930   1
  -1  -7   6 734.514 109.097   7
  -1   7  -6 738.912 151.244   3
   1  -7   7 911.410 137.382   6
   1   7  -7 980.992 171.442   3
  -1   7   7 957.963 135.223   4
   1   7  -7 743.068 175.385   2
  -1  -7  -7 1088.02 136.171   7
  -1  -7   7 975.711 141.006   8
  -1   7  -7 800.526 121.980   4
   1  -7  -7 889.845 134.571   7
  -1  -7   7 845.255 122.350   7
  -1  -7   7 892.040 156.318   5
   1  -7  -7 810.745 139.266   5
  -1   7  -7 730.944 163.058   3
   1  -7   7 797.627 137.639   5
   1   7  -7 698.270 124.379   1
   1  -7   7 907.351 160.289   8
   1   7   7 1024.34 142.083   4
   1  -7  -7 951.349 156.363   6
  -1   7  -8 1708.03 342.822   3
   1  -7   8 1943.99 309.570   5
   1  -7  -8 1718.54 306.152   5
   1  -7  -8 2218.75 306.353   7
   1  -7   8 2426.81 334.605   8
  -1   7   8 2234.28 306.788   4
   1   7   8 2537.71 316.755   4
   1  -7   8 2393.00 308.348   6
   1  -7  -8 2282.05 328.060   6
  -1  -7  -8 2033.42 305.233   7
   1  -7   9 3281.47 483.371   5
   1  -7  -9 2975.06 481.527   5
  -1  -7  -9 3775.06 484.569   7
  -1   7  -9 3562.06 500.560   3
   1   7  -9 3467.67 518.664   2
   1  -7   9 3622.32 498.731   8
  -1   7   9 3615.18 482.064   4
  -1  -7   9 3620.34 490.808   5
   1  -7  -9 3687.93 483.192   7
   1   7   9 3259.93 484.562   4
   1   7  -9 3525.06 504.489   3
   1  -7 -10 486.932 147.912   6
  -1  -7  10 726.955 149.463   5
   1   7 -10 1100.09 179.613   3
   1   7 -10 934.250 200.855   2
   1  -7  10 808.775 139.190   5
  -1  -7 -10 989.784 138.569   7
  -1   7  10 1022.01 135.232   4
  -1  -7  10 786.896 140.557   8
  -1   7 -10 451.080 157.298   3
   1   7  10 636.036 140.074   4
  -1   7  11 2221.60 259.189   4
  -1  -7  11 1803.91 265.868   8
   1  -7 -11 1574.74 269.603   6
   1   7 -11 1124.06 299.678   2
   7  -1 -11 1997.95 285.983   6
   1  -7  11 1904.45 261.112   5
   1  -7  11 1491.56 279.464   8
  -1   7 -11 1225.66 272.070   3
  -1  -7  11 1771.83 266.440   5
   1   7 -11 1677.25 292.941   3
   7  -1 -12 3157.55 401.459   6
   1   7 -12 2088.18 400.019   3
  -1   7 -12 2638.58 393.916   3
  -1  -7  12 2315.59 380.877   5
  -1   7  12 2710.74 375.051   4
   1  -7  12 2807.89 377.360   5
  -1  -7  12 2367.45 379.599   8
   1  -7  12 2436.69 393.815   8
   1  -7 -12 2883.90 388.436   6
   1  -7 -12 2879.85 374.884   7
   1  -7 -13 1283.32 203.440   6
  -1  -7  13 886.423 193.408   5
   7   1 -13 1005.88 206.451   6
  -1   7 -13 911.648 207.330   3
   1  -7  13 971.293 217.671   8
   7  -1 -13 1152.64 222.407   6
   1   7 -13 1213.88 223.188   3
  -1  -7  13 1293.89 199.526   8
   1  -7 -13 1477.09 186.755   7
   1  -7  13 1274.53 188.670   5
  -1   7  13 1181.44 187.884   4
   7  -1 -14 3699.40 571.315   6
  -1  -7  14 3686.27 555.984   5
   1  -7 -14 4087.21 551.062   7
  -1  -7  14 4307.38 560.069   8
   1   7 -14 4588.80 583.380   3
   1  -7  14 3787.40 570.668   8
  -1   7  14 4461.80 554.355   4
   1  -7  14 4023.20 552.736   5
   1  -7 -14 3639.79 560.859   6
  -7  -1  14 4171.36 582.261   5
  -1   7 -14 3224.38 565.272   3
   7   1 -14 3644.12 563.604   6
  -7   1  15 522.851 133.741   1
   1  -7 -15 931.026 142.310   7
   1  -7 -15 870.283 164.943   6
  -7  -1  15 828.593 187.898   5
   7   1 -15 618.366 177.996   6
  -1  -7  15 964.097 151.243   5
   1   7 -15 1161.05 206.303   3
  -1  -7  15 912.419 162.077   8
  -1   7 -15 845.955 172.202   3
   7  -1 -15 680.045 193.565   6
   1  -7  15 866.028 188.855   8
   1  -7  15 991.290 148.574   5
  -1   7  15 710.302 147.701   4
   1  -7 -16 1272.04 190.740   7
   1  -7 -16 1240.41 209.214   6
  -7   1  16 1082.35 184.423   1
  -1  -7  16 1114.66 195.611   5
   7  -1 -16 1270.68 238.946   6
  -1  -7  16 1172.16 209.435   8
   7  -1 -16 988.241 216.672   7
  -1   7 -16 1403.02 223.300   3
   1   7 -16 1412.66 235.909   3
   1  -7  16 1036.29 192.725   5
   7   1 -16 1037.67 219.432   6
  -1   7  16 1329.84 196.832   4
   1  -7  16 1028.47 230.970   8
   1  -7 -17 851.940 224.611   6
  -7   1  17 1022.38 195.993   1
  -1  -7  17 1231.82 208.181   5
   7  -1 -17 1492.66 245.918   7
  -1   7  17 1122.71 207.224   4
   1  -7 -17 1385.63 203.883   7
  -1   7 -17 1281.18 237.914   3
   1  -7  17 1166.86 257.281   8
  -1  -7  17 2276.49 242.663   8
   1   7 -17 1402.87 255.420   3
   7  -1 -17 1283.49 255.633   6
   1  -7  17 1223.77 210.191   5
  -1  -7  18-12.9596 119.842   8
   7  -1 -18-34.8263 138.839   7
  -1   7 -18-68.1335 115.670   3
   1  -7 -18-19.9245 80.8261   7
   1  -7  18 105.018 150.433   8
   1  -7  18 55.0840 84.6978   5
   1  -7 -18 60.5388 117.227   6
  -1  -7  18 55.4325 90.2500   5
  -1   7  18 10.9815 96.9287   4
  -7   1  18 9.25989 85.1855   1
  -7   1  18-14.3328 67.4836   4
   1   7 -18 57.7653 156.733   3
   7  -1 -18-35.4850 156.594   6
   1  -7  19 767.815 184.550   5
  -1   7  19 1521.63 200.410   4
   1  -7 -19 1058.28 208.762   6
  -1  -7  19 908.758 204.016   8
  -1   7 -19 1242.34 217.536   3
  -1  -7  19 969.604 189.329   5
   1   7 -19 1439.84 231.501   3
   7  -1 -19 911.944 224.353   7
   1  -7 -19 1174.50 182.788   7
  -7   1  19 1046.49 170.959   4
   7  -1 -19 783.484 225.451   6
   1  -7  19 1106.62 236.856   8
  -7   1  19 1089.90 179.603   1
   1  -7 -20 591.353 160.200   6
  -1  -7  20 273.003 128.185   5
  -1  -7  20 455.345 148.948   8
   1  -7  20 742.594 132.758   5
  -1   7 -20 919.969 172.149   3
   1   7 -20 330.491 178.527   3
  -1   7  20 664.617 144.356   4
   1  -7  20 357.991 190.106   8
  -1  -7  21 441.507 133.235   5
  -1   7 -21 653.020 165.336   3
   1   7 -21 296.031 172.549   3
   1  -7  21 728.087 140.007   5
   1  -7 -22-23.2366 99.7709   7
   1  -7  22-122.837 169.561   8
   1  -7  23 274.123 127.705   5
  -1  -7  23 598.908 168.666   8
   1  -7  23 62.1381 193.051   8
   1  -7 -23 252.109 114.714   7
  -1   7 -23 383.246 154.790   3
   1  -7  24-21.7357 198.990   8
  -1  -7  24-12.5782 115.295   5
   1  -7 -24-12.4078 94.1836   7
   1   7 -24-141.851 140.422   3
  -1  -7  24-159.921 153.357   8
  -1   7 -24-21.0748 143.967   3
  -1  -7  25 116.681 114.982   5
   1  -7  25 160.153 203.537   8
  -1  -7  25 300.716 160.915   8
   1   7 -25 144.046 161.421   3
   1  -7 -25 247.099 126.292   7
  -1  -7  26 1173.13 218.047   8
   1  -7  26 958.197 266.315   8
  -1  -7  26 811.384 181.406   5
   1   7 -26 360.438 208.789   3
  -1  -7  27 54.5609 121.329   5
   1  -7  27 297.390 228.343   8
   1   7 -27 153.611 170.199   3
  -1  -7  27 535.122 190.245   8
   1  -7  28 484.920 247.288   8
  -1  -7  28 565.372 200.360   8
   2  -7   0 5682.94 779.068   7
   2   7   0 6879.18 794.155   2
  -2   7   0 5148.34 781.109   1
  -2  -7   1 5793.84 746.773   5
  -2  -7   1 5341.85 721.387   8
   2  -7  -1 5065.96 732.893   6
  -2   7   1 5447.69 720.108   4
   2  -7  -1 5525.71 723.621   7
  -2   7   1 4587.46 729.857   3
   2   7  -1 6121.78 738.545   2
  -2   7   1 4675.94 726.913   1
  -2   7   2 2424.43 323.748   3
  -2  -7   2 1753.78 338.427   5
   2  -7  -2 2215.81 309.351   5
   2  -7   2 2029.47 310.202   5
   2  -7  -2 2089.59 309.355   8
  -2  -7   2 2297.04 307.597   7
   2  -7  -2 2126.49 328.961   6
   2   7  -2 2436.39 331.096   2
  -2   7   2 2445.44 309.608   4
   2  -7  -2 2306.24 312.060   7
  -2   7  -2 2349.73 325.116   3
   2  -7   2 2214.60 322.466   8
  -2   7   2 1995.92 318.562   1
   2   7  -3 229.687 96.9639   2
  -2  -7   3 350.769 95.6802   5
   2  -7  -3 146.029 90.8430   6
  -2   7   3 314.491 53.7861   4
   2  -7  -3 215.572 48.4654   5
  -2   7   3 128.302 77.3312   3
  -2   7  -3 179.287 56.3117   1
   2  -7   3 160.392 55.8296   5
   2  -7  -3 223.649 50.3906   8
  -2   7  -3 324.432 91.5017   3
  -2  -7   3 108.109 41.7328   7
   2  -7   3 168.954 81.5556   6
   2  -7  -3 195.230 60.5765   7
  -2   7   3 152.797 80.5999   2
   2  -7   3 194.991 63.0455   7
  -2  -7   3 279.469 52.8833   8
   2  -7   3 188.511 85.8383   8
   2  -7   4 1433.17 259.074   8
  -2  -7   4 1607.24 262.865   5
   2  -7  -4 1389.91 235.473   5
   2  -7   4 1728.42 241.702   5
   2   7  -4 1568.06 264.505   2
   2  -7  -4 1692.75 257.725   6
  -2   7  -4 1367.78 254.362   3
  -2   7  -4 1546.82 236.404   1
   2  -7   4 1809.60 252.146   6
  -2  -7   4 1993.12 233.678   7
  -2   7   4 1855.46 238.922   4
   2  -7  -4 1592.67 240.470   7
  -2   7   4 1482.89 246.815   3
   2  -7  -4 1811.18 234.460   8
  -2   7   4 1714.36 252.393   2
   2  -7   4 1591.15 243.561   7
  -2  -7   5 478.847 117.176   5
   2   7  -5 250.649 110.963   2
  -2   7   5 162.317 78.6789   3
   2  -7  -5 340.477 102.774   6
   2  -7  -5 235.070 54.6691   5
   2  -7   5 160.661 64.8200   5
   2  -7   5 221.090 108.281   8
  -2   7   5 300.401 61.6929   4
  -2   7  -5 176.487 49.0942   1
   2  -7  -5 199.706 66.8901   7
   2  -7  -5 244.283 48.1024   8
  -2  -7   5 333.880 48.1426   7
  -2   7  -5 185.681 96.7116   3
   2  -7   5 210.115 80.2202   6
  -2   7   5 160.554 83.5346   2
  -2  -7   5 336.440 63.3010   8
  -2   7   6 2356.07 362.384   3
   2  -7  -6 2284.96 353.593   5
   2  -7   6 2757.04 362.482   5
  -2   7   6 2940.24 358.800   4
   2  -7   6 2241.37 378.066   8
   2  -7  -6 2724.72 361.697   7
   2   7  -6 2572.47 384.726   2
  -2  -7   6 2992.88 351.014   7
   2  -7  -6 2274.99 350.462   8
  -2  -7   6 2465.92 376.131   5
   2  -7  -6 2415.48 373.622   6
   2  -7   6 2402.69 362.290   6
  -2   7   6 2617.01 363.323   2
  -2   7   7 2329.08 357.742   3
   2  -7  -7 2275.00 348.616   5
  -2   7  -7 2781.14 375.440   3
  -2  -7   7 1974.02 370.221   5
   2  -7  -7 2202.94 357.550   7
  -2   7   7 2566.17 355.748   4
  -2  -7   7 3068.54 345.278   7
   2  -7   7 2079.08 378.126   8
   2  -7   7 2270.72 358.586   6
   2  -7  -7 1802.30 372.478   6
  -2  -7   8 4898.13 734.697   5
  -2   7  -8 5230.87 735.747   3
  -2   7   8 5569.68 720.277   3
   2  -7  -8 5520.58 738.580   6
   2  -7  -8 5249.98 722.130   7
  -2   7   8 5048.27 719.750   4
   2  -7   8 5487.73 721.888   6
   2  -7   8 4806.56 739.673   8
  -2  -7   9 45.2004 59.9286   8
  -2  -7   9 128.336 100.927   5
  -2   7  -9 82.3652 97.2067   3
   2   7  -9 70.2950 130.730   2
   2  -7  -9 122.491 60.0101   7
   2  -7   9 65.2603 60.0054   5
   2   7  -9 145.669 112.778   3
  -2   7   9 13.2060 53.8151   4
   2  -7   9 77.9362 63.3345   6
   2  -7   9-30.1444 116.665   8
  -2   7   9 97.9879 56.8678   3
   2  -7  -9 25.1313 93.3202   6
   2   7 -10 6426.00 1012.53   3
   7  -2 -10 8574.53 1018.81   6
  -2   7 -10 7414.34 1010.03   3
   2  -7  10 7368.35 997.821   5
   2  -7 -10 6901.70 1006.80   6
  -2   7  10 6835.81 995.422   4
   2  -7  10 7279.23 1014.90   8
  -2  -7  10 7844.23 998.861   8
  -2  -7  10 7558.51 1007.94   5
   2   7 -10 7220.93 1022.76   2
  -2   7 -11 2185.17 254.387   3
  -2  -7  11 1715.15 231.278   8
   7  -2 -11 1280.12 260.134   6
   2   7 -11 1538.94 265.955   3
   2  -7  11 1132.60 230.103   5
  -2  -7  11 1306.52 239.014   5
   2   7 -11 1429.39 277.315   2
   2  -7 -11 1628.20 250.770   6
  -2   7  11 1663.62 227.459   4
  -2   7 -12 3578.75 465.565   3
   7  -2 -12 3921.76 480.305   6
   2  -7  12 3287.72 474.305   8
   2   7 -12 3190.99 471.222   3
   2  -7 -12 3228.15 447.264   7
  -2   7  12 3270.27 444.869   4
   2   7 -12 3579.65 485.772   2
   2  -7  12 3287.64 448.327   5
  -7   2  12 3272.95 446.148   1
   2  -7 -12 2653.42 458.870   6
  -2  -7  12 2290.68 453.131   5
   2   7 -13 3809.18 524.374   3
  -2   7 -13 3378.24 505.538   3
  -2  -7  13 3212.33 496.094   8
  -2  -7  13 3707.59 504.701   5
   2  -7  13 3374.16 493.904   5
   2   7 -13 3395.30 528.223   2
   2  -7  13 3415.40 522.036   8
  -7   2  13 4053.98 493.869   1
  -2   7  13 3960.03 492.262   4
   2  -7 -13 3115.11 504.162   6
   7  -2 -13 3143.70 516.732   6
   2  -7 -13 3299.43 492.319   7
   2  -7  14 2312.39 427.942   8
  -7  -2  14 2868.90 436.066   5
  -2   7 -14 3022.70 415.414   3
   2  -7  14 3064.58 404.481   5
   7   2 -14 2689.44 408.475   6
  -2  -7  14 3180.95 412.012   5
   2  -7 -14 3082.09 400.298   7
   7  -2 -14 2297.01 422.646   7
   2   7 -14 3328.01 437.717   3
   2   7 -14 2259.79 441.175   2
  -2  -7  14 2811.53 402.339   8
   7  -2 -14 2262.29 420.907   6
  -7   2  14 2816.15 397.376   1
   2  -7 -14 2695.04 414.986   6
  -2   7  14 2739.03 397.732   4
   2   7 -15 3185.82 563.302   3
  -2  -7  15 4198.44 550.686   5
   2  -7  15 3675.97 574.146   8
   2  -7  15 3896.11 544.437   5
  -2   7  15 3809.45 539.834   4
  -2  -7  15 3943.18 544.374   8
  -7  -2  15 3754.92 569.752   5
   7  -2 -15 3401.07 558.336   7
  -2   7 -15 3980.96 556.761   3
   2  -7 -15 3432.17 550.735   6
   2  -7 -15 4363.99 543.150   7
   7  -2 -15 3610.99 567.426   6
   2   7 -15 3934.65 583.465   2
  -7   2  15 4093.62 541.521   1
   2  -7  16 2825.98 373.734   5
  -2  -7  16 2602.90 374.122   8
  -2  -7  16 2720.87 376.774   5
  -2   7  16 2537.48 368.001   4
   2  -7 -16 2375.95 382.786   6
   2  -7 -16 2429.76 367.187   7
   2   7 -16 2056.63 421.018   2
   2  -7  16 1934.64 404.855   8
   7  -2 -16 2517.91 406.008   6
   7  -2 -16 2756.42 393.631   7
  -2   7 -16 2136.57 382.841   3
  -7   2  16 3331.17 371.730   1
  -7  -2  16 2075.53 398.200   5
   2   7 -16 2262.14 402.178   3
   2  -7 -17 459.332 140.990   6
  -2  -7  17 510.584 125.154   8
  -2  -7  17 297.479 124.911   5
   7  -2 -17 462.257 155.768   7
  -7   2  17 429.253 107.831   1
   2   7 -17 91.6379 224.524   2
  -2   7 -17 438.975 140.389   3
   2  -7  17 245.057 103.990   5
   2  -7  17 324.617 190.753   8
   2  -7 -17 408.384 108.695   7
   2   7 -17 200.134 182.051   3
  -2   7  17 371.273 108.225   4
   7  -2 -17 410.915 185.313   6
  -2   7 -18 2332.27 384.205   3
  -7   2  18 2801.23 368.843   1
   7  -2 -18 2544.24 408.696   6
   2   7 -18 2765.45 406.532   3
  -2  -7  18 2372.63 376.236   8
  -2   7  18 2046.39 367.926   4
  -7   2  18 2172.80 357.926   4
   7  -2 -18 2642.72 390.351   7
  -2  -7  18 2823.67 379.203   5
   2  -7 -18 2637.79 369.740   7
   2   7 -18 3099.31 423.786   2
   2  -7  18 2173.15 416.492   8
   2  -7 -18 2543.28 383.988   6
   2  -7  18 3219.27 376.618   5
  -2  -7  19 363.568 125.931   8
   2  -7 -19 422.922 145.700   6
  -2  -7  19 476.808 115.930   5
   2  -7  19 444.964 119.538   5
  -7   2  19 322.866 110.816   1
   7  -2 -19 373.418 146.062   7
  -7   2  19 295.279 89.9517   4
   2  -7  19 493.392 197.463   8
   7  -2 -19 244.384 180.253   6
   2   7 -19 206.291 161.029   3
  -2   7 -19 383.016 142.948   3
   2  -7 -19 239.757 111.975   7
  -2   7  19 355.965 116.296   4
   2   7 -19 48.0814 206.102   2
   2  -7 -20 1820.19 331.662   6
  -2  -7  20 2018.22 318.949   5
   2   7 -20 1676.19 353.769   3
  -7   2  20 2091.47 305.783   4
  -2  -7  20 2114.15 326.221   8
  -7   2  20 2214.43 315.964   1
  -2   7  20 2495.89 324.001   4
  -2   7 -20 1845.75 337.436   3
   7  -2 -20 2077.75 355.776   6
   2   7 -20 1967.75 380.272   2
   7  -2 -20 2594.11 347.243   7
  -2  -7  21 155.112 123.415   8
   2   7 -21 396.897 191.041   3
   7  -2 -21 238.818 148.046   7
  -2  -7  21 193.298 110.378   5
   2   7 -21 452.769 235.215   2
   7  -2 -21 204.293 167.231   6
  -2  -7  22 1262.66 185.951   5
   2  -7 -22 668.727 173.654   7
   2  -7  22 623.020 265.008   8
   2  -7 -23 104.467 141.397   6
   2  -7 -23 86.3206 100.257   7
  -2   7  23-133.944 123.060   4
   2  -7  23 125.908 225.512   8
  -2  -7  23-318.709 136.107   8
   2   7 -24 636.907 204.993   3
   2   7 -24 512.131 270.791   2
  -2  -7  24 774.417 162.887   5
   2  -7 -24 691.161 189.172   6
   2  -7  24 1035.03 274.124   8
  -2   7  24 794.123 173.716   4
  -2  -7  24 906.686 191.698   8
   2  -7 -24 405.941 165.887   7
  -2  -7  25 433.993 136.565   5
   2   7 -25 128.854 170.775   3
   2   7 -25 220.985 236.975   2
   2  -7 -25 52.4463 127.394   7
  -2  -7  25 689.428 163.598   8
  -2   7  25 730.519 159.733   4
  -2   7  26 735.344 181.331   4
   2  -7 -26 515.531 153.664   7
  -2  -7  26 458.247 144.339   5
  -2  -7  26 532.160 181.692   8
   2   7 -26 340.093 264.965   2
   2   7 -26 753.165 206.879   3
  -2  -7  27 928.566 181.402   5
  -2  -7  27 1407.15 226.984   8
   2  -7 -28 609.992 171.124   7
   2  -7 -29 316.899 143.420   7
   2  -7 -30 470.933 166.822   7
  -3   7   0 9327.88 1213.38   1
   3  -7   0 8322.36 1221.20   6
   3  -7   0 8882.28 1215.26   7
   3  -7   1 1444.48 227.457   5
   3  -7   1 1946.38 253.171   8
  -3   7   1 1607.41 234.945   1
   3  -7   1 1626.82 237.190   7
   3  -7  -1 1759.02 237.617   7
  -3   7  -1 1652.80 233.598   1
   3  -7   1 1269.18 242.377   6
  -3   7   1 1769.50 237.864   3
   3  -7  -1 1489.97 251.669   6
   3  -7   2 3390.72 468.989   5
  -3   7   2 2999.66 474.009   1
   3  -7  -2 3428.36 474.370   8
   3  -7   2 3395.03 487.366   8
   3  -7  -2 3338.88 487.704   6
   3  -7  -2 3601.19 474.693   7
   3  -7   2 3583.18 477.639   7
  -3   7  -2 3089.79 476.956   3
   3   7  -2 3860.79 486.683   2
  -3   7  -2 3940.12 470.904   1
   3  -7  -2 3094.12 465.345   5
  -3   7  -3 3251.14 420.960   3
  -3   7   3 3065.06 409.056   4
  -3  -7   3 3157.59 441.220   5
   3  -7  -3 2961.26 405.762   5
  -3   7   3 2722.54 413.776   3
   3  -7  -3 2781.47 411.206   8
   3  -7  -3 2927.42 414.784   7
  -3   7   3 2576.18 418.025   1
   3   7  -3 3668.12 433.581   2
   3  -7  -3 2892.72 431.717   6
   3  -7   3 3032.58 432.237   8
   3  -7   4 71.6392 110.615   8
  -3   7   4-19.9169 70.2934   1
   3  -7  -4 53.5341 61.0845   7
  -3  -7   4 5.96099 46.6559   8
   3  -7   4 19.9059 47.7492   5
   3  -7  -4 42.1462 32.4316   5
  -3   7  -4-10.8611 68.6531   3
   3  -7   4 83.5876 77.2004   6
   3   7  -4 27.6812 89.8566   2
  -3   7   4 21.2353 52.8648   3
   3  -7  -4 44.9933 49.5222   8
   3  -7  -4-13.2694 95.6904   6
  -3   7   4 33.5697 46.5992   4
  -3  -7   4-50.6720 114.193   5
   3   7  -5 1483.56 237.161   2
  -3   7  -5 1539.22 219.492   3
  -3  -7   5 1154.28 201.790   8
   3  -7  -5 1531.12 196.722   5
   3  -7   5 1489.71 205.270   5
   3  -7  -5 1538.39 199.046   8
  -3  -7   5 1347.98 236.718   5
  -3   7   5 1722.75 204.521   4
   3  -7  -5 1345.24 210.772   7
   3  -7  -5 1258.26 237.333   6
   3  -7   5 1526.91 238.994   8
   3  -7   5 1434.75 218.505   6
  -3   7   5 1124.63 217.120   1
  -3   7   5 1063.00 204.040   3
  -3   7   5 1053.24 212.030   2
  -3  -7   6 582.746 158.118   5
   3  -7  -6 535.499 83.6139   5
  -3   7   6 509.987 134.020   2
   3  -7   6 541.322 177.493   8
   3  -7   6 689.092 112.984   6
  -3   7   6 561.452 103.764   3
   3  -7  -6 302.161 105.944   7
   3  -7   6 881.750 105.828   5
   3  -7  -6 629.478 87.4352   8
  -3   7  -6 552.552 129.175   3
  -3   7   6-66.6949 166.569   1
   3  -7  -6 303.935 155.937   6
  -3   7   6 423.284 108.760   4
   3  -7  -7 3569.08 435.292   8
   3  -7  -7 3168.55 434.955   5
  -3   7   7 2651.59 442.526   4
   3  -7   7 3351.05 447.227   5
  -3  -7   7 3487.40 475.690   5
   3  -7   7 3278.50 476.455   8
  -3   7   7 2380.54 457.412   1
  -3   7  -7 3515.45 458.422   3
  -3   7   7 3482.75 442.839   3
  -3   7   7 3045.85 444.715   2
   3  -7  -7 2625.87 469.171   6
   3  -7  -7 2923.45 448.402   7
  -3   7   8 802.720 132.901   4
  -3   7   8 512.322 128.606   2
   3  -7  -8 1171.02 141.300   7
  -3  -7   8 641.138 175.086   5
   3  -7   8 754.617 139.067   5
   3  -7  -8 689.385 169.992   6
  -3   7  -8 1034.00 158.271   3
  -3  -7   8 848.742 134.040   8
   3   7  -8 1032.04 180.374   2
   3  -7   8 947.717 185.090   8
  -3   7   8 936.429 127.811   3
  -3   7  -9 10338.0 1365.27   3
  -3  -7   9 10519.6 1371.54   5
   3  -7   9 8928.67 1372.42   8
   3  -7   9 9987.02 1355.85   5
   7  -3  -9 9556.53 1372.49   6
  -3  -7   9 11143.9 1353.72   8
   3  -7  -9 10082.8 1369.04   6
   3   7  -9 9932.44 1372.71   2
   3  -7  -9 9462.32 1354.52   7
  -3   7   9 9463.88 1351.53   4
   3  -7 -10 57.4657 112.043   6
  -3   7 -10 204.687 99.2439   3
  -3  -7  10 220.663 115.759   5
  -7   3  10 280.905 74.8018   1
  -3  -7  10 349.706 73.3074   8
   3  -7  10 224.567 80.0419   5
   3  -7  10-37.1603 145.025   8
  -3   7  10 268.395 74.7774   4
   7  -3 -10 490.530 157.080   6
   3   7 -10 70.4806 139.436   2
   3  -7  11 3280.94 511.732   8
  -3  -7  11 3485.91 499.595   5
  -3  -7  11 3936.62 483.102   8
   3  -7  11 3804.41 486.214   5
   3  -7 -11 3456.26 501.215   6
   7  -3 -11 3423.71 502.643   7
   3  -7 -11 3513.26 483.620   7
  -3   7  11 3320.42 478.937   4
  -3   7 -11 2949.50 494.433   3
  -7   3  11 3151.26 481.055   1
   7  -3 -11 2955.47 508.303   6
   3   7 -11 3952.56 514.115   2
   3   7 -12 4189.19 530.782   3
  -3  -7  12 3166.48 497.459   8
  -3  -7  12 3475.39 519.066   5
   3  -7 -12 3218.18 499.375   7
  -3   7  12 4001.85 499.383   4
  -3   7 -12 3915.40 518.007   3
   3  -7 -12 3639.72 519.091   6
   7  -3 -12 3498.00 521.404   7
  -7   3  12 3697.61 502.183   1
   7  -3 -12 3546.83 528.099   6
   3  -7  12 3562.07 503.603   5
   3   7 -13 3367.67 453.375   3
  -3   7 -13 2739.06 436.438   3
   3   7 -13 2867.56 463.649   2
  -3  -7  13 2671.51 434.144   5
  -7   3  13 2928.82 423.391   1
  -3  -7  13 3124.38 422.782   8
   7  -3 -13 2778.32 456.221   6
   7  -3 -13 2322.40 444.312   7
  -3   7  13 3267.42 420.810   4
   3  -7 -13 3304.44 424.722   7
   3  -7 -13 2715.88 440.852   6
   3  -7  13 3087.85 464.735   8
   3   7 -14 4267.82 663.337   3
   3  -7 -14 5129.70 655.059   6
  -3   7 -14 4505.18 651.026   3
  -7  -3  14 5284.19 673.530   5
   3  -7  14 3888.15 670.952   8
  -3  -7  14 4821.19 636.014   8
   3  -7 -14 4451.86 635.641   7
   3  -7  14 5097.58 640.689   5
   7  -3 -14 4463.58 666.304   6
   3   7 -14 4821.18 669.228   2
  -3   7  14 4328.66 632.868   4
   7  -3 -14 3805.69 652.876   7
  -3  -7  15 2279.87 316.428   5
  -7  -3  15 2019.99 340.169   5
   3   7 -15 1983.94 331.053   3
   3  -7 -15 1684.06 292.383   7
   3   7 -15 1808.03 343.658   2
   7  -3 -15 1991.91 323.064   7
  -3  -7  15 1889.01 291.380   8
  -3   7  15 1985.64 293.874   4
  -7   3  15 2112.50 295.115   1
  -3   7 -15 1875.06 311.303   3
   3  -7 -15 2515.10 319.276   6
   3  -7  15 2034.22 356.852   8
   7  -3 -15 1987.41 342.023   6
  -3   7  16 2259.68 326.770   4
  -3  -7  16 2405.46 352.197   5
  -7  -3  16 1955.77 367.074   5
   3   7 -16 1953.83 382.440   3
   3   7 -16 2343.79 392.979   2
  -7   3  16 2151.55 332.683   1
   3  -7  16 2901.07 405.181   8
   3  -7 -16 1894.66 328.049   7
   7  -3 -16 1979.65 377.482   6
   7  -3 -16 2302.92 354.747   7
  -3   7 -16 2162.89 354.048   3
  -3  -7  16 2465.43 333.355   8
   3  -7 -16 2681.63 359.045   6
  -7   3  17 2548.01 382.584   4
  -3  -7  17 3100.74 409.278   5
  -3  -7  17 2932.16 392.274   8
   3   7 -17 2156.82 426.001   3
   7  -3 -17 2872.46 415.206   7
   3  -7  17 2563.11 450.939   8
   3   7 -17 2872.48 444.833   2
   3  -7 -17 2506.42 390.336   7
  -3   7  17 2550.96 389.183   4
  -7   3  17 2777.33 395.003   1
  -7  -3  17 2191.74 414.551   5
   3  -7 -17 3320.38 412.233   6
   7  -3 -17 3179.48 434.478   6
   3   7 -18-21.3296 167.063   3
  -7   3  18 95.3124 78.1603   4
   3   7 -18 46.4551 195.367   2
   7  -3 -18-33.4649 134.375   7
   3  -7 -18 84.6577 92.6344   7
  -7   3  18 23.2488 99.3419   1
  -3   7  18-88.9772 90.2615   4
   7  -3 -18 19.8908 182.497   6
   3  -7 -18 158.783 131.011   6
  -3  -7  18-13.2293 104.399   5
  -3  -7  18-21.2317 93.7393   8
  -3  -7  19 2928.59 378.710   8
  -7   3  19 2275.83 364.931   4
  -3   7  19 2813.33 375.659   4
  -3  -7  19 2647.47 384.999   5
   3  -7 -19 2908.83 393.592   6
   3   7 -19 2144.25 427.627   2
   3   7 -19 2544.01 417.623   3
   3  -7 -19 2310.50 372.552   7
  -7   3  19 2810.36 377.863   1
   7  -3 -19 2492.74 416.760   6
   7  -3 -19 2195.05 390.341   7
   3   7 -20 22.2385 189.538   3
   3  -7 -20 131.616 131.161   6
   7  -3 -20 252.477 145.843   7
  -3  -7  20 181.357 114.663   8
  -3  -7  20 90.0816 117.985   5
   7  -3 -20 137.463 184.972   6
   3   7 -20 684.884 242.023   2
  -7   3  20 286.553 118.892   1
  -3   7  20 346.781 115.051   4
  -7   3  20 143.673 83.8070   4
   7  -3 -21 1053.12 227.556   7
   3   7 -21 1210.27 267.689   3
  -3  -7  21 1019.27 208.285   5
  -7   3  21 1316.45 191.462   4
   3   7 -21 1151.80 297.648   2
   7  -3 -21 914.290 253.807   6
  -7   3  21 1151.58 207.984   1
   7  -3 -22 202.926 169.893   7
  -7   3  22 266.638 141.314   1
  -7   3  22 90.6870 101.641   4
   3  -7 -22-11.9152 119.578   7
   7  -3 -22 346.963 201.827   6
  -3   7  22 239.606 128.983   4
  -3  -7  22 12.8278 134.423   5
   3  -7 -23 388.512 168.104   6
   3  -7 -23 343.903 137.334   7
  -3  -7  24 106.294 131.218   8
   3   7 -24 90.3149 191.496   3
   3  -7 -24 165.331 115.523   7
   3   7 -24-26.8338 227.235   2
  -3  -7  24 155.008 115.034   5
  -3   7  24 132.304 127.333   4
   3  -7 -24 289.283 149.939   6
   3  -7 -25 536.867 178.946   6
   3  -7 -25 433.026 152.828   7
  -3  -7  25 685.067 159.404   5
   3   7 -25 219.741 267.150   2
  -3  -7  25 800.936 171.954   8
   3   7 -25 660.752 218.545   3
  -3   7  25 738.475 164.653   4
  -3  -7  26 406.094 146.997   5
   3  -7 -26 529.588 173.621   6
  -3  -7  26 732.249 172.434   8
   3  -7 -26 501.431 153.540   7
  -3   7  26 606.697 161.867   4
   3  -7 -27 791.525 195.900   6
  -3   7  27 609.979 170.496   4
   3  -7 -27 478.070 166.854   7
   3  -7 -28 553.124 178.295   7
  -3   7  28 935.943 202.744   4
  -3   7  29 602.220 177.105   4
   3  -7 -29 226.400 149.977   7
   3  -7 -30 502.722 173.125   7
   4  -7   0-10.9544 78.2643   7
   4  -7   0-12.3801 99.7494   6
  -4   7   0-7.07516 51.6541   1
   4  -7   0-12.8404 104.168   8
  -4   7  -1 6092.34 788.568   3
   4  -7   1 6740.86 803.951   8
   4  -7   1 5555.79 780.346   5
   4  -7  -1 5755.09 798.149   6
  -4   7  -1 6095.30 783.203   1
  -4   7   1 5147.19 783.907   1
   4  -7   1 5335.47 791.224   7
   4  -7   2 545.818 147.135   8
  -4   7   2 963.669 126.418   1
  -4   7  -2 632.720 109.163   1
   4  -7  -2 284.270 148.105   6
   4  -7   2 679.020 109.141   5
   4  -7  -2 638.359 132.093   7
   4  -7   2 634.524 143.732   6
  -4   7  -2 698.563 118.705   3
  -4   7   2 668.575 117.668   3
  -4   7  -3 1081.75 174.481   3
   4  -7   3 1160.87 180.324   6
   4  -7  -3 788.572 172.665   8
   4  -7  -3 1003.34 172.119   7
  -4   7   3 1223.94 165.124   3
   4  -7   3 1046.78 156.183   5
   4  -7   3 982.621 201.158   8
   4  -7  -3 1091.00 202.321   6
  -4   7   3 897.053 167.163   1
   4  -7  -4 692.294 165.712   8
   4  -7   4 1048.68 159.124   5
   4  -7  -4 884.589 213.070   6
   4  -7  -4 958.735 175.238   7
  -4   7  -4 1347.55 181.287   3
  -4   7   4 934.057 174.945   1
   4  -7  -5-155.575 88.8952   8
  -4   7   5-10.0476 97.7181   1
   4  -7   5-29.8712 66.9119   5
  -4   7  -5 104.619 93.9644   3
   4  -7  -5-197.721 169.840   6
   4  -7   5-149.559 166.208   8
   4  -7  -5-94.0081 81.8825   7
  -4   7   6 884.460 157.922   1
   4  -7  -6 938.653 189.951   6
   4  -7   6 713.627 183.344   8
   4  -7  -6 924.842 135.747   8
   4  -7  -6 925.923 152.943   7
  -4   7  -6 1098.41 159.643   3
  -4  -7   6 787.515 187.807   5
  -4   7   6 764.091 137.563   4
  -4   7   7 591.158 154.806   1
  -4  -7   7 837.807 191.660   5
  -4   7   7 775.241 139.318   4
  -4   7  -7 627.536 156.567   3
   4  -7   7 1129.00 201.085   8
   4  -7  -7 1047.47 195.302   6
   4  -7  -7 845.478 149.146   7
   4   7  -7 1048.39 179.766   2
  -4  -7   7 1148.70 140.106   8
  -4   7  -8 3379.45 430.947   3
  -4   7   8 3037.76 412.396   4
   4  -7   8 3412.25 454.782   8
   4  -7  -8 2719.63 417.793   7
  -4  -7   8 2852.90 411.256   8
   4   7  -8 2927.63 439.824   2
   7  -4  -8 4070.52 453.913   6
  -7   4   8 2795.89 414.165   1
   4  -7  -8 3463.88 447.077   6
  -4  -7   8 2797.32 445.069   5
  -4   7   8 2380.22 424.629   1
   4   7  -9 214.483 129.701   2
  -4  -7   9 69.8699 54.3771   8
   7  -4  -9 86.5689 148.822   6
  -4  -7   9 86.9823 134.760   5
  -4   7   9 6.88236 56.8299   4
   4  -7   9-79.8365 143.228   8
   4  -7  -9 16.2720 126.522   6
  -7   4   9-50.6219 61.1134   1
   7  -4  -9-47.5632 110.268   7
  -4  -7  10 2751.93 497.097   5
   7  -4 -10 3086.41 493.701   7
   7  -4 -10 3195.47 505.523   6
   4  -7 -10 3643.27 499.775   6
  -7   4  10 3118.49 474.321   1
  -4   7  10 3577.91 472.162   4
  -4  -7  10 3767.87 472.931   8
   7  -4 -11 2287.81 286.355   7
  -4  -7  11 1059.08 278.018   5
   7  -4 -11 955.991 280.068   6
  -4  -7  11 1416.53 241.852   8
  -4   7  11 1649.16 267.310   1
   4  -7 -11 1677.54 250.565   7
  -4   7  11 1960.08 246.093   4
  -7   4  11 1663.55 248.770   1
   4   7 -11 2118.20 284.685   2
   4  -7 -11 1964.70 282.810   6
   7  -4 -12 790.519 177.534   7
   4   7 -12 478.948 187.564   2
  -4  -7  12 1305.55 194.636   5
  -7   4  12 920.226 151.346   1
  -4  -7  12 892.852 137.868   8
   4  -7 -12 660.788 187.880   6
   4  -7 -12 957.710 150.248   7
  -4   7  12 753.416 137.288   4
  -4   7  12 615.179 177.003   1
   7  -4 -12 912.015 218.557   6
  -4  -7  13 6626.71 851.286   8
   7  -4 -13 7316.71 875.759   7
  -4   7  13 5932.50 850.532   4
   4   7 -13 6365.03 879.977   2
   7  -4 -13 7051.92 885.611   6
   4  -7 -13 5810.08 869.880   6
  -7   4  13 5868.64 854.890   1
  -4   7  13 5406.66 866.010   1
   7  -4 -14 568.714 208.927   6
  -7  -4  14 586.363 210.341   5
   4   7 -14 414.346 186.064   2
  -4  -7  14 494.062 166.671   5
   7  -4 -14 672.703 166.771   7
   4  -7 -14 518.832 126.779   7
  -4  -7  14 717.000 119.799   8
  -7   4  14 768.219 134.501   1
  -4   7  14 444.912 166.299   1
   4   7 -14 678.447 181.418   3
  -4   7  14 585.000 117.319   4
   4  -7 -14 966.514 182.861   6
  -4  -7  15 3097.32 391.689   8
  -7  -4  15 3379.17 441.533   5
   4   7 -15 2985.61 434.497   3
   4  -7 -15 2607.62 395.526   7
   4   7 -15 1633.53 422.973   2
  -4   7  15 2234.05 416.886   1
   4  -7 -15 2018.68 412.919   6
   7  -4 -15 2355.24 421.266   7
  -4   7  15 2582.26 391.780   4
   7  -4 -15 3669.49 453.653   6
  -7   4  15 3314.29 401.384   1
  -4  -7  15 3120.97 417.263   5
   4   7 -16 781.976 233.074   3
  -4  -7  16 1514.32 225.591   5
   4   7 -16 1280.99 251.674   2
  -7   4  16 1090.95 176.847   4
  -4   7  16 1306.35 188.251   4
  -7   4  16 1135.84 193.404   1
  -4  -7  16 1226.19 184.563   8
   7  -4 -16 1009.43 219.241   7
   4  -7 -16 1038.70 192.107   7
  -7  -4  16 1064.53 245.459   5
   4  -7 -16 873.643 222.399   6
   7  -4 -16 688.746 245.973   6
   4   7 -17 328.435 189.089   3
  -7  -4  17 461.281 172.838   5
  -4  -7  17 335.827 106.192   8
  -4  -7  17 423.723 144.536   5
   4   7 -17 238.775 194.317   2
  -7   4  17 293.116 94.5940   4
  -7   4  17 427.993 121.633   1
   7  -4 -17 688.453 203.757   6
   4  -7 -17 532.747 108.358   7
  -4   7  17 386.916 106.449   4
   7  -4 -17 275.347 153.783   7
   4  -7 -17 442.228 154.450   6
  -7   4  18 725.813 141.832   4
   4  -7 -18 1187.99 193.137   6
   4   7 -18 536.755 220.317   3
   4   7 -18 1092.53 234.723   2
   4  -7 -18 925.784 155.845   7
  -4  -7  18 784.034 150.251   8
   7  -4 -18 754.701 181.043   7
  -4   7  18 726.480 148.461   4
  -4  -7  18 415.281 163.132   5
   7  -4 -18 645.261 210.948   6
  -7   4  18 766.748 164.858   1
  -7  -4  18 674.372 193.841   5
   4  -7 -19 327.673 153.625   6
  -7  -4  19 83.0575 140.269   5
   4   7 -19 223.203 194.228   3
  -4  -7  19 104.251 131.572   5
   7  -4 -19 16.3084 122.136   7
   4   7 -19-161.147 198.535   2
  -7   4  19-144.633 112.813   1
  -4   7  19 50.6181 93.5511   4
  -7   4  19 68.7410 79.2567   4
  -4  -7  19 40.5509 95.1429   8
   7  -4 -19-20.6890 196.337   6
  -7   4  20 477.172 118.794   4
  -4  -7  20 613.106 157.151   5
   4   7 -20 731.693 243.384   2
   7  -4 -20 462.388 175.054   7
   7  -4 -20 573.692 218.862   6
  -4  -7  20 629.869 134.981   8
  -7   4  20 604.542 157.214   1
   4   7 -20 481.510 223.301   3
   4  -7 -21-12.0639 107.956   7
   7  -4 -21-40.5579 196.296   6
  -7   4  21-18.2754 85.7116   4
   7  -4 -21-16.4290 148.892   7
   4   7 -21-47.0804 243.096   3
  -4  -7  21-112.573 173.512   5
  -7   4  21-197.664 135.795   1
   4  -7 -22 107.397 148.192   6
  -4   7  22 357.612 112.418   4
  -7   4  22 360.646 106.127   4
   4  -7 -22-49.5545 109.295   7
   7  -4 -22 629.245 207.096   6
   4  -7 -23 36.3371 148.689   6
   4   7 -23 51.0269 236.723   2
  -4  -7  23-71.0018 116.486   8
  -4   7  23 241.429 118.811   4
   4  -7 -23 89.1239 117.500   7
   4  -7 -24 278.526 161.317   6
   7  -4 -24 205.121 157.559   7
   4   7 -24 73.0355 206.577   3
  -4  -7  24 527.271 132.834   8
  -4  -7  24 338.789 139.996   5
   4  -7 -24 130.914 121.776   7
  -4   7  24 216.383 128.043   4
   4  -7 -25 396.921 167.524   6
  -4  -7  25 350.577 142.411   5
   4  -7 -25 269.523 142.915   7
   4   7 -25 293.818 237.264   2
  -4  -7  25 661.654 145.630   8
  -4   7  25 705.552 146.715   4
   4   7 -25 145.590 199.263   3
   4  -7 -26 270.405 186.795   6
  -4   7  26 307.280 145.402   4
   4  -7 -26 277.541 143.332   7
   4  -7 -27 1460.11 228.931   7
  -4   7  27 1282.58 225.211   4
   4  -7 -28 120.678 170.684   6
  -4   7  28 90.3021 259.001   1
   4  -7 -28-14.9154 128.806   7
  -4   7  28 217.228 144.400   4
  -4   7  29 255.748 276.844   1
   4  -7 -29 416.414 155.966   7
   4  -7 -29 407.554 189.480   6
  -4   7  29 228.949 162.770   4
   5  -7   0 4557.99 632.997   6
  -5   7   0 4311.90 612.154   1
   5  -7   0 4741.76 636.024   8
  -5   7   1-112.684 71.5886   1
   5  -7   1-210.816 141.660   8
   5  -7  -1-223.235 122.013   7
   5  -7  -1-183.614 149.478   6
   5  -7  -1-93.0316 136.818   8
   5  -7   1-103.466 140.868   6
  -5   7   2 981.507 146.003   1
   5  -7  -2 781.876 169.243   7
   5  -7  -2 673.929 179.744   6
  -5   7   3 8.58697 62.9305   1
   5  -7  -3-113.812 102.739   7
   5  -7  -3-90.7401 124.056   6
   5  -7  -4 286.990 104.557   8
  -5   7   4 355.455 88.3718   1
   5  -7  -4 232.724 100.940   7
   5  -7  -4 221.303 139.763   6
  -5   7   5 106.487 80.3063   1
   5  -7  -5 250.548 95.8120   8
   5  -7  -5 154.201 99.3803   7
   5  -7  -5 197.883 132.875   6
   5  -7  -6 380.346 123.273   7
   5  -7  -6 578.993 117.133   8
   5  -7  -6 547.908 166.706   6
  -5   7   6 588.144 110.552   1
  -5   7   7 10.8566 86.2617   1
   7  -5  -7 17.4537 134.679   6
  -7   5   7-16.8721 63.1176   1
   5  -7  -7 17.6359 142.580   6
   5  -7  -7 57.1286 87.5049   7
   7  -5  -8 341.540 124.201   7
  -7   5   8 149.588 74.7079   1
  -5  -7   8 239.424 150.145   5
  -5   7   8 159.871 95.9471   1
   5  -7  -8 234.917 95.8935   7
   5  -7  -8 126.326 150.463   6
   5   7  -8 129.644 116.432   2
   7  -5  -8 163.480 157.162   6
   7  -5  -9 346.437 157.274   7
  -5  -7   9 796.496 188.591   5
  -7   5   9 674.444 123.181   1
  -5  -7   9 686.421 117.680   8
   5   7  -9 809.310 164.973   2
   5  -7  -9 770.645 188.516   6
  -5   7   9 666.606 118.734   4
   7  -5  -9 954.859 199.877   6
  -5  -7  10 375.734 165.066   5
  -7   5  10 503.287 96.3214   1
   7  -5 -10 394.201 131.403   7
  -5   7  10 304.250 112.990   1
   5   7 -10 218.947 126.634   2
  -5   7  10 310.496 82.6170   4
   7  -5 -10 249.150 162.332   6
  -5  -7  10 210.669 74.7687   8
   5  -7 -10 203.595 164.755   6
   7  -5 -11-81.8386 121.134   7
  -5  -7  11-38.1635 147.380   5
  -5  -7  11 84.5454 65.9771   8
   5   7 -11 68.9706 124.422   2
  -7   5  11 172.322 81.6456   1
  -5   7  11 37.8890 68.8959   4
   5  -7 -11-44.6997 88.0739   7
  -5   7  11 120.122 112.790   1
   7  -5 -11-79.3555 159.415   6
   5  -7 -11 18.6227 153.247   6
   5  -7 -12 2032.49 355.106   7
  -5  -7  12 2474.98 383.820   5
  -7   5  12 2668.75 357.456   1
  -5   7  12 2096.04 362.466   1
   7  -5 -12 2355.12 398.002   6
   7  -5 -12 2364.93 372.066   7
   5   7 -12 2774.63 387.123   2
  -5   7  12 2382.21 345.851   4
   5  -7 -12 2534.47 389.262   6
  -5  -7  12 2652.37 346.357   8
   5   7 -13 73.8628 150.068   2
  -5   7  13 133.440 121.022   1
  -7   5  13 56.6723 94.8488   1
  -5  -7  13-92.1351 145.115   5
  -5  -7  13 96.4128 70.2635   8
   5  -7 -13 34.2979 99.8525   7
   7  -5 -13 81.2006 131.155   7
  -5   7  13 144.035 76.6316   4
   5  -7 -13-150.051 159.983   6
   7  -5 -13-21.2476 190.943   6
  -5  -7  14 3256.50 407.490   8
  -7  -5  14 2064.54 461.263   5
  -5   7  14 2639.56 425.644   1
  -7   5  14 2830.94 417.277   1
   7  -5 -14 2988.57 434.334   7
   5  -7 -14 3189.35 421.538   7
  -5   7  14 2496.36 407.445   4
  -5  -7  14 3255.78 439.059   5
   7  -5 -14 3320.70 470.818   6
   5   7 -14 2803.18 443.190   2
   5  -7 -14 2615.90 447.771   6
   7  -5 -15-160.674 145.375   7
   5   7 -15 39.0265 159.509   2
  -7  -5  15 88.2319 183.141   5
  -5  -7  15-53.1596 156.181   5
  -5   7  15-452.967 194.480   1
   5  -7 -15-352.226 152.019   7
  -5  -7  15 33.9432 79.6317   8
  -7   5  15-16.3406 77.7408   4
   7  -5 -15-86.8612 212.553   6
  -7   5  15-110.012 113.981   1
   5  -7 -15-582.623 240.029   6
   5   7 -16 1493.96 245.214   3
   5   7 -16 545.059 206.332   2
  -7  -5  16 1039.96 235.395   5
  -5  -7  16 1232.42 210.084   5
   5  -7 -16 983.965 181.573   7
  -5   7  16 1039.24 203.750   1
  -7   5  16 766.794 160.960   4
  -5   7  16 816.156 164.004   4
  -7   5  16 971.612 180.706   1
   7  -5 -16 813.733 202.556   7
   7  -5 -16 1354.64 263.595   6
  -5  -7  16 1109.77 164.358   8
   5  -7 -16 972.308 211.322   6
   5   7 -17-60.7550 178.235   3
   5   7 -17 41.7436 156.148   2
  -5  -7  17-51.0852 146.810   5
  -7   5  17-76.6557 77.1290   4
   5  -7 -17 24.2025 104.659   7
  -5   7  17-27.4833 86.7175   4
   7  -5 -17-32.3611 134.368   7
  -7   5  17 13.3804 111.483   1
  -5   7  17 123.315 129.675   1
  -5  -7  17-27.0830 80.6228   8
   7  -5 -17 196.230 184.539   6
  -7  -5  17-100.357 170.414   5
   5  -7 -17-112.858 170.262   6
  -5  -7  18 149.639 91.3007   8
   5   7 -18 342.295 174.345   2
   5   7 -18-105.866 188.665   3
   7   5 -18-18.2370 140.451   2
  -5  -7  18-50.1474 139.056   5
   7  -5 -18 241.548 153.748   7
  -5   7  18-47.5365 80.9201   4
  -7   5  18 13.7726 117.961   1
   7  -5 -18 43.4348 212.734   6
  -7   5  18 96.2444 85.8685   4
  -7  -5  18 116.131 161.972   5
   5  -7 -18 168.234 161.366   6
  -7  -5  19 108.789 156.883   5
  -7   5  19 188.927 92.1102   4
  -5  -7  19 222.392 87.6115   8
   5   7 -19 198.919 177.565   2
   7  -5 -19 43.0454 207.331   6
   7   5 -19 92.9582 148.271   2
  -5  -7  19 326.172 149.614   5
  -7   5  19 86.5242 129.851   1
   5   7 -19 110.924 180.674   3
   7  -5 -19 32.6196 138.034   7
   5   7 -20 158.501 181.234   2
  -7  -5  20 174.903 152.226   5
  -5  -7  20 222.846 151.101   5
   5   7 -20 347.235 215.157   3
  -7   5  20 212.495 91.2054   4
   5  -7 -20 191.571 122.281   7
  -5  -7  20 140.619 100.315   8
  -5   7  20 159.354 177.319   1
   7  -5 -20 383.195 209.103   6
  -5   7  21-248.340 207.015   1
  -5  -7  21 127.318 159.929   5
   5   7 -21 24.0135 233.457   3
   5  -7 -21-52.2482 132.782   7
   5  -7 -21-322.063 199.139   6
  -5   7  21-226.851 116.903   4
   7  -5 -22 33.3590 140.445   7
  -5   7  22 21.5207 184.523   1
   5  -7 -22-57.4219 155.949   6
   5  -7 -22 53.4703 116.474   7
  -5   7  22 147.386 116.241   4
  -7   5  22 15.9909 140.892   1
   7  -5 -23 62.3830 174.462   6
   5   7 -23 97.7912 205.721   2
  -5   7  23 94.4188 108.777   4
  -7   5  23 72.4680 97.7075   4
   5  -7 -23 13.6844 122.347   7
  -5  -7  23-56.0287 106.779   8
   7  -5 -23 16.9169 139.254   7
  -7   5  23 115.136 147.394   1
  -5   7  23 22.3954 190.839   1
   5  -7 -23 172.674 147.083   6
   5  -7 -24 116.797 158.354   6
   5   7 -24 175.065 206.636   2
   5   7 -24-229.233 233.337   3
  -5  -7  24 243.735 113.422   8
   5  -7 -24-56.0945 120.376   7
  -5  -7  24 14.4394 119.697   5
  -7   5  24 10.7898 103.538   4
  -5   7  24 306.922 114.138   4
   7  -5 -24-16.8803 149.450   7
  -5   7  24 163.424 202.205   1
   7  -5 -24 125.101 189.085   6
  -7   5  24 67.7071 152.824   1
   5  -7 -25-98.4562 168.108   6
   7  -5 -25-124.088 181.334   6
   7  -5 -25-85.7611 156.121   7
   5  -7 -25 215.728 133.515   7
  -7   5  25 33.9921 104.898   4
  -5   7  25 365.493 215.990   1
  -5   7  25 231.387 125.497   4
  -7   5  25 156.895 153.871   1
  -5   7  26 560.411 255.830   1
   5  -7 -26 1112.14 231.690   6
   5  -7 -26 649.385 182.119   7
  -5   7  26 847.915 183.724   4
   5  -7 -27-80.8732 164.567   6
   5  -7 -27 91.0382 130.796   7
  -5   7  27-105.464 231.354   1
  -5   7  27-14.1116 126.672   4
   5  -7 -28 556.269 195.306   6
   5  -7 -28 827.567 181.855   7
  -5   7  28 221.533 252.767   1
  -5   7  28 533.156 173.722   4
   5  -7 -29 41.8356 166.360   6
   5  -7 -29-113.889 139.612   7
   6  -7  -1 661.271 160.904   6
  -6   7   2-7.95865 57.5568   1
   6  -7  -2-173.083 138.555   6
  -6   7   3 108.351 62.9891   1
   6  -7  -3 136.099 117.689   7
   6  -7  -3 115.119 138.285   6
  -6   7   4 376.165 85.8067   1
   6  -7  -4 407.206 134.934   7
   6  -7  -5 339.272 146.028   7
   6  -7  -5 442.134 129.150   8
  -6   7   5 693.146 115.026   1
   7  -6  -6 18.1462 152.177   6
  -6   7   6 98.2667 76.7748   1
   6  -7  -6-102.075 114.680   7
   6  -7  -6 36.7125 157.329   6
   7  -6  -7 2094.67 305.996   6
   6  -7  -7 2482.50 314.041   6
  -6   7   7 1521.23 263.309   1
   6  -7  -7 1597.96 279.381   7
   7  -6  -8 330.805 165.900   6
  -7   6   8 57.3736 75.8839   1
   7  -6  -8 250.831 125.516   7
   6  -7  -8-41.9248 107.287   7
   6  -7  -8 292.804 163.835   6
  -7   6   9 141.462 80.7726   1
   7  -6  -9 160.765 169.534   6
   7  -6  -9 452.264 140.061   7
   6  -7  -9 341.891 168.053   6
  -7   6  10-95.3282 86.8411   1
   6  -7 -10 13.4736 103.610   7
   7  -6 -10-62.5192 172.490   6
   7  -6 -10 99.7870 120.394   7
  -6   7  10 131.128 97.0709   1
   6  -7 -10 164.262 179.141   6
  -6  -7  11 65.2811 153.127   5
  -6   7  11-12.5123 102.828   1
   7  -6 -11 301.272 188.625   6
  -7   6  11-55.5264 93.2125   1
  -6   7  11 230.722 76.1471   4
   7  -6 -11 162.225 127.558   7
   6  -7 -11 13.3867 109.196   7
   6  -7 -11 41.7913 175.550   6
  -6   7  12 249.792 118.571   1
  -6  -7  12 21.5418 155.236   5
   6   7 -12-35.8777 134.432   2
  -7   6  12 279.124 97.6420   1
  -6   7  12 81.0037 73.3417   4
   6  -7 -12 146.572 112.991   7
   7  -6 -12-48.3189 121.347   7
   7  -6 -12-66.1953 190.185   6
   6  -7 -12 42.0453 179.608   6
  -6   7  13 1369.21 226.594   1
   6  -7 -13 927.107 273.660   6
   6  -7 -13 769.194 210.573   7
  -6  -7  13 1316.22 264.156   5
  -6  -7  13 1383.99 191.510   8
   7  -6 -13 1636.40 296.409   6
  -6   7  13 1139.94 190.988   4
  -7   6  13 1360.36 212.798   1
   7  -6 -13 1503.21 237.352   7
   6   7 -13 640.534 230.513   2
  -7  -6  14 46.8592 190.808   5
  -6   7  14-174.941 142.490   1
  -6  -7  14-34.4106 72.3894   8
  -6  -7  14 20.8208 170.158   5
  -7   6  14-109.015 80.1828   4
   7  -6 -14-90.3293 194.766   6
  -6   7  14 33.8981 82.4036   4
   6  -7 -14-202.148 134.188   7
  -7   6  14 12.7007 98.9304   1
   6   7 -14-56.0400 156.726   2
   6  -7 -14-231.697 198.401   6
   7  -6 -14 210.293 137.044   7
  -7  -6  15 1121.78 246.680   5
   6  -7 -15 1037.43 198.483   7
  -6   7  15 842.227 163.902   4
  -6  -7  15 993.303 166.722   8
   6   7 -15 1328.80 225.666   2
  -6   7  15 1112.45 199.175   1
  -6  -7  15 856.871 236.180   5
  -7   6  15 1222.74 197.375   1
   7  -6 -15 795.406 262.677   6
   6  -7 -15 781.271 243.567   6
  -7   6  15 904.955 164.019   4
   7  -6 -15 916.008 207.903   7
   6   7 -16 116.879 147.035   2
  -6  -7  16 19.9536 162.555   5
   7  -6 -16 113.341 185.254   6
  -7   6  16 41.0446 114.898   1
   6  -7 -16 41.9339 179.777   6
  -6  -7  16 63.0170 79.0555   8
   6  -7 -16 27.3622 115.983   7
  -7  -6  16-22.2308 189.435   5
  -6   7  16-15.8231 128.535   1
  -6   7  16 44.4735 81.2282   4
  -7   6  16 95.9902 85.2805   4
   7  -6 -16 15.9815 125.794   7
   7   6 -17 303.975 146.446   2
  -6  -7  17-116.759 149.417   5
   7  -6 -17-16.1800 139.901   7
  -7   6  17 71.4530 84.1566   4
   6  -7 -17 20.7920 173.535   6
  -6  -7  17-55.6317 86.2015   8
  -6   7  17 183.037 85.5424   4
  -7  -6  17 105.046 158.783   5
  -7   6  17 200.656 126.599   1
   7  -6 -17 293.350 219.577   6
   6   7 -17 200.462 159.633   2
   6   7 -18 42.5774 189.555   3
   7   6 -18 174.010 152.035   2
  -7  -6  18-60.8517 177.528   5
  -6  -7  18 113.820 163.593   5
  -6  -7  18 75.9931 79.5175   8
  -7   6  18 9.15197 86.2880   4
   7  -6 -18-90.1112 208.903   6
   6   7 -18-103.349 159.557   2
  -6  -7  19 809.711 140.147   8
   6   7 -19 951.808 239.752   3
  -7  -6  19 685.517 204.962   5
  -6  -7  19 851.302 196.743   5
  -6   7  19 443.689 185.189   1
   6  -7 -19 283.083 164.605   7
   7   6 -19 569.901 196.920   2
   6   7 -19 1097.52 216.882   2
  -7   6  20 509.284 179.882   1
   7   6 -20 760.064 258.336   3
   6   7 -20 231.166 235.913   3
  -7  -6  20 94.5614 175.072   5
  -6  -7  20 234.834 189.492   5
   6  -7 -20 668.619 165.817   7
   7  -6 -20 81.2433 168.961   7
  -7  -6  20 127.633 110.025   8
   7   6 -20 744.004 203.931   2
  -6   7  20 715.126 210.483   1
  -6   7  20 367.191 123.896   4
   6  -7 -20 537.339 246.611   6
   7   6 -21 948.254 254.510   3
  -7  -6  21 1317.51 211.880   5
   7  -6 -21 902.762 219.266   6
   6  -7 -21 758.244 221.848   6
  -7   6  21 718.279 200.862   1
   6  -7 -21 231.746 175.963   7
   7  -6 -21 312.980 191.415   7
  -6   7  21 898.142 154.958   4
  -7   6  21 958.511 156.142   4
  -6   7  21 644.406 204.961   1
  -7  -6  21 902.406 155.206   8
   7   6 -21 1045.19 220.580   2
   6   7 -22-391.117 187.940   2
  -7   6  22 85.9704 150.488   1
  -6  -7  22 10.7219 93.6211   8
   6  -7 -22 147.603 137.611   7
  -6   7  22 32.9829 97.3941   4
  -7   6  22-10.3511 92.4878   4
   7  -6 -22-133.650 143.200   7
   7  -6 -22-195.731 191.980   6
   6  -7 -22-144.235 171.683   6
  -6   7  22-99.9624 168.717   1
   6   7 -23 164.591 191.462   2
  -6   7  23 144.920 188.988   1
   6   7 -23 180.734 217.893   3
  -6  -7  23-11.0902 98.3093   8
  -6  -7  23 99.0812 142.455   5
  -6   7  23-46.1167 104.207   4
   6  -7 -23 150.505 132.559   7
  -7   6  23 32.3844 105.053   4
  -7   6  23 159.330 159.446   1
   7  -6 -23-42.9662 185.270   6
   6  -7 -23-103.624 173.275   6
  -7   6  24 36.4808 166.452   1
   7  -6 -24 21.5203 179.269   6
   7  -6 -24-84.7334 148.714   7
  -6   7  24-21.4531 183.825   1
  -7   6  24 146.360 106.278   4
  -6   7  24-36.0504 117.356   4
   6  -7 -24-61.4434 130.420   7
   6  -7 -24-247.539 160.964   6
  -7   6  25 564.339 196.592   1
   6  -7 -25 207.588 188.026   6
   6  -7 -25-47.0581 139.124   7
  -7   6  25 164.344 120.459   4
  -6   7  25 445.300 224.858   1
  -6   7  25 188.347 122.593   4
   7  -6 -25 17.2334 156.721   7
   7  -6 -25 405.446 217.042   6
   6  -7 -26-250.285 172.393   6
  -6   7  26 65.2175 129.610   4
   7  -6 -26-87.6873 149.746   7
  -7   6  26 58.2391 170.200   1
  -6   7  26-69.4002 198.514   1
   6  -7 -26-160.413 145.996   7
   7  -6 -26-128.608 166.372   6
  -7   6  26-110.858 108.949   4
   6  -7 -27 315.639 185.843   6
   6  -7 -27 164.185 156.088   7
   7  -6 -27 393.176 163.969   7
  -6   7  27 48.1748 211.070   1
  -6   7  27 380.754 141.343   4
  -6   7  28 197.127 227.997   1
   6  -7 -28 16.8348 149.234   7
   6  -7 -28-21.2293 171.237   6
  -6   7  28-213.939 124.697   4
   7  -7  -4 1382.46 255.686   6
   7  -7  -5-17.0354 130.465   7
  -7   7   5-18.1868 67.2237   1
   7  -7  -5 18.7764 153.870   6
   7  -7  -6 2472.74 396.842   7
  -7   7   6 2824.58 375.925   1
   7  -7  -6 2220.62 406.859   6
  -7   7   7 9.95994 83.5443   1
   7  -7  -7-34.3837 124.449   7
   7  -7  -7 160.652 164.028   6
   7  -7  -8 4038.93 606.108   6
   7  -7  -9 282.478 202.395   6
  -7   7  10 568.819 121.054   1
   7  -7 -10 329.983 152.314   7
   7  -7 -10 731.107 218.051   6
   7  -7 -11-130.670 147.326   7
  -7   7  11-59.4492 96.5450   1
   7  -7 -11-227.544 210.345   6
   7  -7 -12-97.0643 157.963   7
   7  -7 -12-23.1465 218.180   6
  -7   7  12-86.7746 110.247   1
  -7   7  13-51.6248 77.5173   4
  -7   7  13 25.8867 112.959   1
   7  -7 -13-117.306 217.528   6
   7  -7 -13 32.0693 134.464   7
  -7  -7  14 551.849 242.568   5
   7  -7 -14 1082.30 199.041   7
  -7   7  14 734.813 147.553   4
  -7   7  14 1055.28 181.100   1
   7  -7 -14 822.766 256.721   6
   7  -7 -15 112.629 130.524   7
  -7  -7  15 46.9801 191.845   5
   7  -7 -15 164.213 201.004   6
  -7   7  15-26.7774 80.7930   4
  -7   7  15-70.8162 116.449   1
  -7  -7  16 45.8102 173.793   5
   7  -7 -16 373.696 212.306   6
  -7   7  16 45.5984 93.5025   4
  -7  -7  17 66.9322 185.973   5
   7   7 -17 40.0790 157.087   2
  -7  -7  18 540.439 210.020   5
  -7   7  18 550.020 164.245   1
   7  -7 -18 354.391 157.204   7
   7   7 -18 795.494 184.064   2
   7  -7 -19 195.809 163.976   7
  -7  -7  19 167.465 210.353   5
  -7   7  19 98.9593 163.504   1
  -7   7  19 19.5848 98.9726   4
  -7   7  20 2392.96 339.650   1
  -7   7  20 2643.46 307.153   4
   7  -7 -20 2386.13 378.081   6
   7  -7 -21 32.9933 133.027   7
  -7   7  21-87.3661 155.638   1
  -7   7  21-31.3214 95.6910   4
  -7  -7  21 32.0410 98.1422   8
   7  -7 -21-90.7585 184.144   6
   7   7 -21-304.249 173.358   2
  -7   7  22 569.423 188.186   1
   7   7 -22 859.228 260.280   3
  -7  -7  22 853.186 197.256   5
  -7  -7  22 800.320 146.342   8
   7  -7 -22 267.831 170.716   7
   7   7 -22 22.1378 188.480   2
  -7   7  22 757.478 148.951   4
   7  -7 -22 447.537 212.413   6
  -7   7  23-56.7785 170.473   1
   7  -7 -23-156.751 174.832   6
   7  -7 -23-16.9918 145.720   7
  -7   7  23-22.4552 99.5661   4
  -7   7  24 156.174 173.183   1
   7  -7 -24 155.407 166.165   7
  -7   7  24 186.629 117.235   4
   7  -7 -24 310.311 209.701   6
  -7   7  25-20.1432 173.643   1
   7  -7 -25 35.1239 162.393   7
  -7   7  25-36.6466 115.010   4
   7  -7 -25 155.609 180.944   6
  -7   7  26-104.080 182.738   1
   7  -7 -26 357.662 169.300   7
  -7   7  26-12.7169 126.035   4
   7  -7 -26-88.2680 178.482   6
  -7   7  27-107.696 189.570   1
   7  -7 -27 145.842 161.841   7
   7  -7 -27 22.1532 167.716   6
  -7   7  27 13.2751 121.817   4
   7  -7 -28-111.020 194.929   6
  -7   7  28 13.7762 138.085   4
   7  -7 -28-93.0137 183.026   7
   0   8   0 531.188 132.435   2
   0  -8   0 409.798 103.646   5
   0  -8   0 438.684 82.9177   8
   0  -8   0 470.009 80.4426   7
   0  -8  -1 8.90542 62.5056   6
   0  -8   1 34.7288 46.3296   8
   0   8   1 113.831 99.7778   2
   0  -8  -1-103.962 79.3188   5
   0  -8  -1-20.3278 40.2538   8
   0   8  -1 70.1784 105.001   2
   0  -8   1 31.0490 74.2702   5
   0  -8  -1-5.43809 43.9840   7
   0   8   1-66.3368 45.8251   4
   0   8  -2 1815.90 271.102   3
   0  -8   2 2001.98 260.415   5
   0  -8  -2 1352.45 259.498   5
   0   8   2 1868.52 246.119   4
   0  -8   2 1646.34 247.478   8
   0  -8  -2 1885.64 246.657   7
   0  -8  -2 1789.18 243.776   8
   0   8  -2 1490.44 279.675   2
   0  -8   2 1339.23 248.725   6
   0   8   2 1839.51 269.939   2
   0  -8  -2 1781.38 258.101   6
   0  -8  -3-19.4859 72.2092   6
   0  -8  -3-11.7110 45.6806   7
   0   8  -3-88.0494 102.529   3
   0  -8   3-13.6197 44.2528   7
   0   8  -3-34.4694 36.7401   4
   0  -8   3-40.4659 83.6282   5
   0  -8  -3-14.1663 42.1522   8
   0   8  -3-61.9768 120.574   2
   0  -8   3-20.3333 57.7998   8
   0  -8   3-127.584 64.7346   6
   0   8   3-104.547 53.2808   4
   0   8   3-77.1435 95.4429   2
   0  -8   4 53.2901 92.2505   6
   0  -8  -4 132.249 90.7842   6
   0  -8   4 223.074 95.2989   8
   0   8  -4-113.563 205.928   2
   0   8  -4-131.986 171.213   3
   0  -8   4 61.8182 121.132   5
   0   8   4 282.848 64.4499   4
   0  -8  -4 128.662 59.1935   7
   0   8  -4 130.425 53.9280   4
   0  -8   4 26.0747 64.0913   7
   0  -8  -5 435.930 119.745   6
   0  -8  -5 263.139 87.2588   7
   0   8   5 372.363 89.8314   4
   0   8  -5 483.123 115.262   1
   0  -8   6 1157.16 154.340   6
   0  -8  -6 1383.74 183.281   5
   0  -8   6 960.764 169.780   5
   0  -8  -6 1137.95 175.536   6
   0  -8  -6 1033.63 153.846   7
   0   8  -6 961.342 193.530   3
   0   8  -6 843.490 148.642   1
   0   8  -6 638.121 198.037   2
   0   8   6 950.669 155.153   4
   0   8  -6 998.881 141.463   4
   0  -8   6 954.123 161.176   8
   0  -8   6 948.543 148.999   7
   0  -8   7-26.0783 51.1724   6
   0  -8  -7-34.4092 81.5783   6
   0   8  -7 2.64397 29.6617   4
   0  -8  -7-58.0183 94.1310   5
   0   8  -7 30.4995 117.669   3
   0  -8   7 18.4127 72.8850   8
   0  -8  -7-7.01488 53.7229   7
   0  -8   7 13.2703 46.8932   7
   0   8  -7 69.0690 41.9558   1
   0   8  -7-74.0360 123.839   2
   0  -8   7 10.2930 82.0671   5
   0   8   7-21.7940 59.3343   4
   0  -8  -8 59.6115 85.5435   6
   0  -8  -8 34.9478 93.8551   5
   0  -8  -8-21.9850 58.6358   7
   0   8  -8 63.6147 122.252   3
   0  -8   8 40.9624 75.9903   5
   0  -8   8-78.7659 78.7763   8
   0   8   8 15.3383 65.7136   4
   0  -8  -9 74.0652 85.8502   6
   0  -8   9-62.4739 76.3363   5
   0  -8   9-63.1439 88.5256   8
   0  -8  -9 15.3013 61.4525   7
   0   8  -9-147.703 139.337   3
   0   8   9 8.05282 68.6006   4
   0  -8 -10 382.495 108.746   6
   0   8 -10 304.951 140.930   3
   0  -8 -10 486.897 89.8706   7
   0  -8  10 241.359 102.134   5
   0   8  10 220.620 90.8560   4
   0  -8 -11-8.32156 66.2196   7
   0  -8 -11 13.2016 97.2328   6
   0  -8  11 61.5792 74.6870   5
   0   8 -11 17.4432 132.091   3
   0   8  11 62.5967 77.4096   4
   0   8 -12 2585.89 419.831   3
   0  -8  12 2847.21 396.376   5
   0   8  12 2940.99 393.919   4
   0  -8  12 2667.99 401.286   8
   0  -8 -12 2532.14 402.064   6
   0  -8 -13-56.0287 107.265   6
   0   8 -13-126.655 143.749   3
   0  -8  13-76.0262 109.229   8
   0  -8  13 20.8937 81.8131   5
   0   8  13 138.162 88.8334   4
   0   8 -14 2953.87 552.877   3
   0   8  14 3777.42 533.344   4
   0  -8 -14 4163.72 531.408   7
   0  -8  14 3779.44 533.393   5
   0  -8 -14 3597.07 542.740   6
   0  -8  14 4028.23 544.986   8
   0  -8 -15 74.2293 116.833   6
   0   8 -15-92.4960 147.089   3
   0  -8  15-97.5928 91.6734   5
   0  -8  15 96.5862 122.615   8
   8   0 -15-107.568 143.325   6
   0   8  15-98.8528 101.467   4
   0  -8 -15-29.2142 81.8505   7
   0  -8 -16 1156.91 176.619   6
   8   0 -16 763.773 191.067   6
   0  -8  16 494.957 173.142   8
   0   8 -16 843.336 198.697   3
   0  -8  16 441.731 148.378   5
   0  -8 -16 999.818 148.055   7
   0   8  16 759.353 159.824   4
   0  -8  17 43.4965 131.948   8
   0   8 -17-56.9053 146.366   3
   0  -8  17 22.3414 96.3018   5
   0  -8 -17 10.4606 86.0110   7
   8   0 -17-16.8033 143.979   6
   0   8  17 12.0425 109.002   4
   0  -8  18-44.6416 131.377   8
   0  -8  18 56.8532 95.0865   5
   0   8 -18-172.730 145.887   3
   0  -8 -18-32.4721 98.0320   7
   0   8 -19 57.3179 148.001   3
   0  -8  19-46.5280 96.9314   5
   0  -8  21 97.3891 151.047   8
   0  -8  22 100.953 111.890   5
   0   8 -22 19.8925 150.726   3
   0  -8  22-16.7790 151.597   8
   0  -8  23-26.0007 104.731   5
   0   8 -23 162.316 147.087   3
   0  -8  23 208.653 158.893   8
   0  -8  24 308.801 121.898   5
   0  -8  24 122.071 157.586   8
   0   8 -24 103.416 157.693   3
   0  -8  25-90.9195 165.030   8
   0  -8  25 68.7576 113.806   5
   0   8 -25-42.6255 156.206   3
   0  -8  26 989.287 240.133   8
   0  -8  26 1232.78 201.559   5
   0   8 -26 640.001 240.193   3
   0  -8  27 14.5106 124.335   5
   0   8 -27 229.127 167.517   3
   0  -8  27 39.9742 181.659   8
   0   8 -28 119.482 190.476   3
   0  -8  28 1322.11 228.562   8
   0  -8  29-129.234 179.676   8
   0  -8  30 177.400 214.786   8
  -1   8   0 369.737 108.178   3
  -1  -8   0 301.081 118.312   5
   1   8   0 431.807 115.187   2
  -1   8   0 269.505 63.4949   4
  -1  -8   0 408.933 67.3856   7
  -1   8   0 228.409 114.352   2
   1  -8   0 330.450 73.0629   8
   1  -8   0 298.649 70.2620   7
  -1  -8   0 359.204 66.7619   8
   1  -8   0 359.608 82.5406   5
   1  -8   0 197.242 90.3555   6
  -1   8  -1 1803.24 307.493   3
  -1   8   1 2436.88 309.505   3
  -1  -8  -1 2104.98 317.255   5
  -1  -8   1 2054.42 312.985   5
   1  -8   1 1762.32 297.520   5
   1  -8  -1 2084.07 289.902   8
  -1  -8  -1 1733.60 288.142   8
   1   8  -1 2024.79 318.277   2
  -1   8  -1 1878.30 317.030   2
  -1   8   1 2208.99 288.678   4
  -1  -8  -1 2264.68 290.074   7
   1   8   1 2328.76 312.308   2
  -1  -8   1 2016.20 290.739   8
   1  -8  -1 2188.06 305.089   6
  -1   8   1 2048.15 313.631   2
   1  -8  -1 2203.06 291.596   7
   1  -8  -1 2042.73 297.260   5
  -1  -8   2 181.504 55.1694   8
  -1   8  -2 49.9911 107.107   3
  -1  -8  -2 28.7243 110.764   5
   1  -8   2 167.154 68.0453   8
  -1  -8   2 117.144 82.3242   5
   1   8  -2 275.458 114.665   2
   1  -8   2 106.587 66.3022   5
   1  -8  -2 215.134 53.3086   8
  -1   8   2 119.546 102.715   2
   1   8   2 306.757 96.4150   2
  -1  -8   2 267.003 76.4725   6
  -1   8  -2 148.616 123.160   2
   1  -8  -2 166.152 56.2161   7
  -1   8   2 178.136 58.1971   4
  -1  -8  -2 246.592 55.8842   7
  -1  -8  -2 160.048 81.4645   6
   1   8   2 145.782 60.1644   4
   1  -8  -2 121.501 83.4709   6
   1   8  -2 294.421 54.8689   4
   1  -8  -3 1002.26 141.185   7
  -1  -8  -3 1164.22 161.112   6
  -1  -8   3 758.721 138.678   8
  -1  -8  -3 787.966 177.659   5
  -1  -8   3 394.986 172.145   5
  -1   8  -3 209.958 173.918   3
   1   8  -3 898.996 179.203   2
   1  -8   3 765.726 151.458   5
   1   8  -3 1011.15 136.559   4
   1  -8   3 812.157 154.612   6
  -1  -8   3 1019.15 132.775   7
  -1  -8  -3 900.868 138.769   7
  -1   8  -3 895.590 131.436   4
  -1   8   3 928.218 139.071   4
   1  -8   3 977.961 149.271   8
   1   8   3 944.060 144.731   4
   1  -8  -3 754.806 159.270   6
   1  -8  -4 208.306 74.8956   7
  -1  -8  -4 313.145 94.4962   6
  -1  -8  -4 376.295 152.820   5
  -1  -8   4 286.581 139.017   5
   1  -8  -4 31.0146 91.0708   5
  -1   8  -4 287.882 143.264   3
  -1   8  -4 325.331 60.4096   4
   1  -8   4 86.2847 104.582   5
   1   8   4 346.170 81.1243   4
   1  -8  -4-43.2894 123.309   6
  -1  -8   4 39.4752 71.1575   8
   1   8  -4-47.8938 173.668   2
   1  -8   4 372.730 86.3892   7
  -1  -8  -4 305.514 71.1900   7
  -1   8   4 547.346 82.5165   4
  -1   8  -4 352.315 92.2933   1
   1  -8   4-178.621 113.731   6
  -1  -8   4 171.977 54.6238   7
   1  -8   4 34.8528 116.549   8
  -1  -8  -5-100.329 95.3352   6
   1  -8  -5-68.0055 85.7527   5
  -1  -8   5-219.914 144.266   5
   1  -8  -5-111.548 118.092   6
   1  -8   5-124.390 72.2172   7
  -1  -8   5 14.0291 74.1450   8
  -1  -8   5-178.451 58.0931   7
   1  -8   5-240.285 98.6293   5
  -1  -8  -5-78.8736 60.5338   7
   1  -8   5-235.419 112.976   8
  -1   8  -5-173.623 49.9474   4
   1  -8  -5 112.475 73.9981   7
  -1   8   5-99.4861 75.8355   4
  -1   8  -5-242.365 169.373   3
   1  -8  -5-98.3914 49.7360   8
  -1   8  -5-152.857 74.4829   1
   1  -8   5-263.384 104.814   6
   1   8  -5-233.003 186.134   2
   1   8   5-119.119 77.9773   4
  -1   8  -6 314.486 57.6785   4
   1   8  -6 311.921 130.477   3
  -1  -8  -6 450.936 105.324   6
   1  -8  -6 288.121 86.9205   5
  -1  -8   6 567.631 117.135   5
  -1  -8   6 237.596 59.3487   7
  -1  -8  -6 511.129 78.8993   7
  -1  -8   6 199.328 80.2298   8
   1  -8   6 528.760 103.208   8
   1  -8   6 376.983 85.2946   6
   1   8  -6 296.850 135.557   2
   1  -8   6 356.106 75.5020   7
   1  -8  -6 424.232 80.5383   7
  -1   8   6 387.046 77.2331   4
  -1   8  -6 277.268 65.7585   1
  -1   8  -6 339.812 115.037   3
   1  -8   6 322.133 86.5643   5
   1   8   6 344.889 86.4273   4
   1  -8  -6 218.236 93.4299   6
  -1   8  -7 698.566 107.056   1
   1   8  -7 754.298 173.163   3
  -1   8  -7 619.621 159.937   3
   1  -8  -7 607.080 126.594   5
  -1  -8   7 778.508 138.300   5
   1  -8   7 881.893 126.386   5
  -1  -8   7 549.262 123.730   8
   1   8  -7 837.363 187.441   2
  -1   8  -7 722.868 105.171   4
  -1  -8  -7 1150.45 151.925   6
  -1  -8  -7 863.589 124.122   7
  -1   8   7 688.792 119.999   4
   1   8  -7 593.436 112.632   1
   1  -8   7 567.874 121.844   6
   1  -8   7 722.433 141.979   8
   1   8   7 725.956 131.318   4
   1  -8  -7 823.825 122.735   7
   1  -8  -7 778.429 140.660   6
   1  -8   8 1352.83 196.295   5
   1   8  -8 1314.11 225.884   3
  -1  -8   8 1407.12 208.905   5
  -1  -8   8 1231.22 195.206   8
   1   8   8 1213.25 198.614   4
   1  -8  -8 1337.25 207.469   6
   1  -8   8 1020.91 206.718   8
  -1  -8  -8 1501.63 194.860   7
  -1   8  -8 1205.14 175.279   4
   1   8  -8 1118.62 235.431   2
  -1   8   8 1277.11 192.271   4
  -1   8  -8 1493.64 225.801   3
   1  -8  -8 1131.80 187.158   7
   1  -8  -8 1315.39 195.402   5
   1  -8  -9 137.643 93.9226   6
   1   8  -9 129.779 132.428   3
  -1  -8   9 189.455 90.6783   5
   1  -8   9 145.478 81.7691   5
   1  -8   9 300.976 103.722   8
  -1   8  -9 239.257 117.423   3
   1  -8  -9 164.665 76.0446   7
  -1  -8  -9 256.059 74.7816   7
  -1   8   9 249.079 76.1016   4
   1   8   9 118.075 86.3069   4
   1   8  10 819.193 155.899   4
   1  -8 -10 730.972 165.657   6
   1   8 -10 610.989 187.982   3
  -1   8 -10 947.186 184.090   3
  -1  -8  10 957.933 160.049   5
   1  -8  10 800.926 172.930   8
  -1  -8 -10 1158.35 147.300   7
  -1   8  10 1004.97 148.740   4
   1  -8 -10 724.868 144.882   7
   1  -8  10 839.123 150.320   5
   1  -8 -11 1773.03 253.966   6
   1  -8  11 1356.89 240.450   5
   1   8 -11 1856.95 275.194   3
  -1  -8  11 1676.44 246.164   8
  -1   8  11 1551.87 236.613   4
  -1   8 -11 1444.95 264.062   3
  -1  -8  11 1515.59 247.188   5
   1  -8 -11 1629.17 236.916   7
   1   8 -11 1729.52 290.826   2
   1  -8 -12 947.632 171.397   6
  -1   8 -12 817.672 185.251   3
   1   8 -12 652.065 209.445   2
   1   8 -12 1062.01 204.552   3
  -1  -8  12 1014.46 158.701   8
  -1  -8  12 1054.71 170.465   5
   1  -8  12 851.629 150.301   5
  -1   8  12 636.004 151.893   4
   1   8 -13 3552.19 500.275   3
  -1   8 -13 3422.15 491.826   3
   1  -8  13 3509.92 468.781   5
   1   8 -13 4003.87 521.803   2
  -1  -8  13 3278.68 473.191   8
  -1   8  13 2883.07 464.068   4
  -1  -8  13 3966.15 477.575   5
   1  -8  13 2448.31 481.577   8
   1  -8 -13 3413.62 481.958   6
   1  -8 -14 315.520 116.815   6
  -1  -8  14 157.791 95.9083   8
   8  -1 -14 261.171 149.114   6
   1   8 -14 500.956 167.467   3
  -1  -8  14 330.009 104.635   5
   1  -8  14 305.691 96.9374   5
  -1   8 -14 171.860 124.640   3
   1  -8 -14 176.950 83.8166   7
   1   8 -14 229.311 178.772   2
  -1   8  14 277.754 98.9348   4
   1  -8  14 168.370 134.976   8
   1  -8  15 2856.77 433.172   8
  -1  -8  15 3334.14 420.052   8
  -1  -8  15 2493.05 410.719   5
   1  -8  15 2712.81 408.485   5
  -1   8  15 2772.68 409.237   4
   1  -8 -15 3298.09 406.525   7
  -1   8 -15 2323.79 424.440   3
   1   8 -15 2307.91 435.355   3
   8   1 -15 2492.91 424.423   6
   8  -1 -15 2868.28 436.269   6
   1  -8 -15 3232.12 420.632   6
   1  -8 -16 289.347 91.2527   7
   1  -8 -16 272.898 126.356   6
   1  -8  16 161.097 151.755   8
   1   8 -16 338.437 178.573   3
  -1  -8  16 12.2159 124.646   8
   1  -8  16 247.738 101.963   5
  -1   8 -16 229.515 137.766   3
  -1  -8  16 140.599 102.713   5
   8   1 -16 72.5084 144.541   6
   8  -1 -16 158.515 158.561   6
  -1   8  16 400.582 105.770   4
   1  -8 -17 640.553 142.383   6
  -1  -8  17 150.376 119.277   8
   1  -8  17 266.524 101.839   5
   1   8 -17 101.355 157.151   3
   1  -8  17 148.958 153.597   8
  -1   8 -17 268.266 138.537   3
  -1  -8  17 246.288 100.704   5
   1  -8 -17 247.571 93.1555   7
   8  -1 -17 314.034 185.612   6
  -1   8  17 221.487 106.082   4
   1  -8 -18 112.293 129.963   6
   8  -1 -18 341.823 199.164   6
   1   8 -18 473.075 167.724   3
  -1  -8  18 570.720 124.654   5
  -1   8 -18 526.657 146.358   3
   1  -8  18 344.279 117.526   5
   1  -8  18 204.346 159.629   8
  -1  -8  18 371.071 139.694   8
   1  -8 -18 319.705 111.769   7
  -1   8  18 361.107 123.747   4
   1  -8 -19 148.020 120.519   6
  -1   8 -19-36.5796 135.484   3
   1  -8  19 82.8536 103.489   5
  -1  -8  19 241.046 113.364   5
   1   8 -19 61.4699 158.255   3
   8  -1 -19 136.321 178.366   6
   1  -8 -20 275.682 110.366   7
  -1  -8  21-14.3853 137.587   8
   1  -8  21-225.115 172.190   8
   1  -8 -21 165.819 109.382   7
  -1   8  21 94.8930 127.431   4
  -1  -8  22-44.4868 134.750   8
   1  -8 -22 109.856 110.223   7
   1  -8  22 337.999 113.372   5
   1   8 -22 103.858 158.299   3
  -1   8 -22-99.1246 160.719   3
  -1  -8  22 100.264 119.192   5
   1  -8  22-38.9231 166.673   8
  -1   8  22 56.6884 129.526   4
   1  -8  23-120.233 114.101   5
  -1   8 -23 61.5361 140.230   3
  -1  -8  23-76.8482 106.359   5
   1  -8  23-274.222 198.077   8
   1   8 -23-20.9736 157.134   3
  -1  -8  23-122.624 144.571   8
   1  -8 -23 38.2503 109.263   7
   1  -8  24 123.784 116.828   5
   1   8 -24 106.231 168.241   3
   1  -8  24-245.236 175.146   8
  -1  -8  24 79.4012 142.997   8
  -1   8 -24 21.2699 158.517   3
   1  -8 -24-78.8254 115.009   7
  -1  -8  24 118.244 115.685   5
  -1  -8  25 915.753 167.407   5
   1  -8  25 834.248 235.988   8
   1   8 -25 512.484 194.866   3
  -1   8 -25 509.336 196.011   3
  -1  -8  25 608.157 187.497   8
   1   8 -26 174.646 161.757   3
   1  -8  26 282.539 206.497   8
  -1  -8  26 166.888 155.849   8
  -1   8 -26 299.574 169.933   3
  -1  -8  26-13.8414 119.710   5
  -1  -8  27 1019.80 214.814   5
  -1  -8  27 1361.92 243.572   8
   1  -8  27 1671.93 285.167   8
   1   8 -27 605.622 243.109   3
  -1  -8  28 568.824 180.373   8
  -1  -8  28 72.3994 126.165   5
   1  -8  28-24.2344 211.186   8
   1   8 -28 23.1423 163.717   3
  -1  -8  29 188.139 176.952   8
   1  -8  29 497.732 233.744   8
  -1  -8  29 476.216 140.159   5
  -2   8   0 7657.26 1038.49   4
  -2   8   0 7158.83 1045.40   1
   2  -8   0 7855.23 1044.34   8
  -2   8   0 7079.77 1050.70   3
   2  -8   0 7764.36 1053.55   6
   2   8   0 8794.01 1058.08   2
  -2  -8  -1 802.511 193.919   5
   2  -8  -1 848.918 145.041   5
  -2   8  -1 788.418 150.661   1
  -2   8   1 595.267 158.907   1
   2  -8   1 942.392 146.471   5
   2  -8   1 1150.96 161.716   8
   2  -8  -1 1012.31 149.252   7
   2  -8   1 941.374 150.825   7
   2  -8   1 942.740 168.838   6
  -2   8  -1 688.334 139.104   4
  -2   8   1 1002.97 185.809   2
  -2  -8   1 976.996 194.601   5
   2  -8  -1 930.336 172.761   6
   2  -8  -1 672.294 144.988   8
   2   8  -1 767.106 177.640   2
  -2  -8  -1 1173.10 140.824   7
  -2   8  -1 931.088 171.650   3
  -2  -8   1 1029.40 142.881   8
  -2   8   1 1110.92 142.001   4
  -2  -8   2 2260.38 350.578   5
   2  -8   2 2364.41 309.375   5
   2  -8   2 2477.56 311.626   7
  -2   8   2 1408.15 317.097   1
   2  -8   2 1917.53 319.867   8
   2  -8  -2 1602.98 325.574   6
  -2   8   2 2429.15 306.108   4
  -2   8   2 1376.72 331.355   2
  -2  -8   2 2550.91 305.783   8
  -2   8  -2 2158.49 332.782   3
   2  -8  -2 1926.16 307.530   7
   2   8  -2 2541.75 337.678   2
   2  -8   3 529.197 108.425   5
   2  -8  -3 264.921 105.988   7
  -2  -8   3 435.507 78.3870   7
   2  -8   3 486.927 143.496   8
  -2  -8   3 117.037 75.2558   8
   2   8  -4 764.212 173.707   2
  -2  -8   4 657.940 165.818   5
  -2   8   4 247.150 166.304   3
   2  -8   4 756.327 127.001   5
   2  -8  -4 797.245 126.670   5
  -2  -8   4 685.490 109.938   7
   2  -8   4 868.924 160.069   8
   2  -8   4 626.682 174.942   6
  -2   8   4 437.170 122.277   4
  -2  -8   4 912.224 121.873   8
   2  -8  -4 1129.16 140.373   7
   2  -8  -4 1527.10 187.407   6
  -2   8  -4 616.347 111.200   4
  -2   8  -4 280.711 162.504   3
   2  -8   5 949.189 172.490   6
  -2  -8   5 1252.41 196.324   5
   2   8  -5 910.508 192.925   2
  -2   8   5 769.803 169.327   2
  -2   8   5 1043.24 171.847   3
   2  -8   5 844.372 157.029   5
  -2  -8   5 1067.26 156.675   8
  -2   8   5 1183.49 156.008   4
   2  -8   5 1009.42 183.998   8
  -2   8  -5 1071.00 189.584   3
   2  -8   5 876.195 165.415   7
   2  -8  -5 936.464 152.993   5
   2  -8  -5 1211.18 149.384   8
  -2   8  -5 1050.64 151.905   1
   2  -8  -5 970.364 159.267   7
   2  -8  -5 756.008 178.692   6
  -2   8   6 251.490 88.7048   2
   2  -8  -6 311.291 58.0202   8
  -2  -8   6 451.770 125.966   5
  -2  -8   6 326.900 55.4775   7
   2  -8   6 256.180 74.7978   5
   2   8  -6 220.443 141.469   2
   2  -8  -6 364.971 67.4666   5
  -2   8  -6 323.486 113.370   3
   2  -8   6 549.403 119.980   8
   2  -8  -6 218.379 75.1192   7
  -2   8   6 108.177 86.5811   3
  -2   8   6 325.960 72.5539   4
  -2  -8   6 273.878 73.8057   8
   2  -8   6 284.034 95.7490   6
   2  -8  -6 190.658 104.576   6
   2  -8  -7 1697.17 249.141   8
   2  -8  -7 1604.75 253.472   5
  -2  -8   7 2011.90 261.237   8
  -2   8  -7 1665.91 282.511   3
   2  -8  -7 1701.90 260.551   7
  -2   8   7 1782.88 258.633   4
  -2  -8   7 1650.52 279.709   5
  -2   8   7 1954.73 267.074   3
   2   8  -7 2235.36 303.849   2
  -2   8   7 1913.96 265.730   2
   2  -8   7 1979.82 266.666   6
   2  -8  -7 2310.88 285.520   6
   2  -8   7 1601.67 285.093   8
   2  -8  -8-88.3206 61.7251   7
  -2   8   8 42.8096 77.1262   3
  -2  -8   8-128.887 113.777   5
   2  -8   8-25.6078 60.1754   5
  -2   8  -8 43.9403 101.371   3
   2  -8  -8 13.2445 98.6798   6
   2  -8   8 101.920 115.677   8
  -2   8   8 70.0481 61.2915   4
  -2   8  -9 2029.25 324.546   3
   2   8  -9 1697.72 328.954   3
   2  -8   9 2130.72 330.204   8
  -2  -8   9 2176.21 327.527   5
   2  -8   9 1952.48 305.309   5
   2  -8  -9 2239.20 307.119   7
  -2   8   9 2237.41 304.365   4
   2  -8  -9 2325.53 325.073   6
   2   8 -10 1653.24 235.404   3
   2  -8  10 1023.34 195.078   5
  -2  -8  10 939.122 215.379   5
  -2  -8  10 1254.67 191.800   8
  -2   8 -10 1050.69 209.816   3
   2  -8 -10 1203.28 193.236   7
   2  -8  10 1478.03 232.085   8
  -2   8  10 1321.21 191.945   4
   2   8 -10 1515.82 248.413   2
   2  -8 -10 1350.88 215.213   6
  -2  -8  11 1947.78 296.055   5
   2   8 -11 1657.06 310.866   3
   2  -8  11 2200.56 280.417   5
  -2  -8  11 1823.84 277.490   8
   2  -8 -11 1847.38 276.744   7
   2   8 -11 1906.00 327.222   2
  -2   8  11 2065.44 277.659   4
   2  -8  11 1845.78 307.514   8
  -2   8 -11 1312.28 292.336   3
   2  -8 -11 1876.01 295.188   6
  -2   8 -12 4172.20 579.609   3
  -2  -8  12 4640.80 577.201   5
   2  -8  12 3931.71 562.266   5
  -2  -8  12 4465.53 562.758   8
  -2   8  12 3204.13 558.265   4
   2  -8 -12 4274.21 575.944   6
   2   8 -12 4438.94 607.496   2
   2  -8 -13 828.116 148.853   7
  -2  -8  13 943.122 157.048   8
  -2  -8  13 741.494 168.310   5
  -2   8 -13 846.203 176.105   3
   2  -8  13 1164.24 156.390   5
   2   8 -13 774.078 222.834   2
  -2   8  13 754.099 148.639   4
   2  -8 -13 637.214 164.457   6
   2   8 -13 926.016 210.249   3
   8  -2 -13 628.047 197.210   6
   2   8 -14 4424.20 691.793   3
  -2   8 -14 4993.06 678.877   3
   2  -8  14 5032.65 664.435   5
   2  -8 -14 4747.13 662.711   7
  -2  -8  14 5567.03 674.830   5
   2  -8  14 4750.99 685.148   8
   8  -2 -14 4916.60 690.313   6
   2  -8 -14 3761.92 669.272   6
  -2  -8  14 4576.91 665.198   8
  -2   8  14 4873.99 662.307   4
   2  -8  15 874.189 153.945   5
   2  -8 -15 1056.56 184.955   6
   2   8 -15 93.5996 291.199   2
  -2   8  15 876.735 155.255   4
   2   8 -15 589.364 237.970   3
  -2   8 -15 747.869 168.336   3
  -2  -8  15 991.434 186.081   5
   2  -8  15 529.006 212.584   8
   2  -8 -15 811.580 151.300   7
   8  -2 -15 961.154 218.664   6
  -2  -8  15 277.185 165.492   8
   2   8 -16 2972.49 456.257   3
  -2   8 -16 3236.60 435.948   3
  -8   2  16 2767.05 409.659   1
  -2  -8  16 2921.46 424.117   5
   2  -8  16 2753.30 414.803   5
   2  -8  16 2405.47 446.537   8
  -2   8  16 3012.24 413.392   4
   2  -8 -16 3045.67 414.880   7
   2  -8 -16 2676.18 426.736   6
   8  -2 -16 3077.37 451.932   6
  -2  -8  16 2905.98 419.662   8
   2   8 -16 2758.41 469.827   2
  -8   2  17 847.906 158.767   1
   2  -8 -17 1152.09 196.650   6
   8  -2 -17 895.181 244.432   6
   2   8 -17 1086.45 234.134   3
   2  -8  17 1197.27 175.197   5
  -2  -8  17 1084.00 184.152   8
   2   8 -17 564.440 244.456   2
  -2  -8  17 990.621 184.222   5
  -2   8  17 912.689 166.987   4
   2  -8  17 659.313 219.395   8
   2  -8 -17 809.534 165.192   7
  -2   8 -17 858.087 197.174   3
   2  -8 -18 32.3565 121.305   6
   2  -8  18 119.551 103.392   5
   2   8 -18 25.0541 219.360   2
  -2  -8  18 25.5790 105.478   5
   8  -2 -18 81.6660 180.379   6
  -8   2  18 49.8172 83.1420   1
  -2   8 -18-36.0966 133.637   3
   2   8 -18 130.549 178.487   3
  -2   8  18 142.448 107.819   4
  -2  -8  18 35.5404 112.123   8
   8  -2 -18 59.4388 140.536   7
  -2  -8  19 634.623 146.133   5
  -8   2  19 482.855 126.838   1
   8  -2 -19 764.594 199.706   7
   2   8 -19 657.272 207.083   3
  -8   2  19 633.410 120.053   4
   8  -2 -19 476.108 206.419   6
  -8   2  20 95.4883 90.9295   1
   2  -8 -20 82.6999 100.628   7
  -8   2  20-106.892 79.3672   4
   2  -8  20 172.228 174.055   8
   8  -2 -20 186.507 186.546   6
   8  -2 -20-20.3970 161.485   7
   2  -8  21 604.304 222.813   8
  -2   8  21 442.272 133.109   4
  -2   8 -21 160.423 160.685   3
   2  -8  21 646.554 143.348   5
   2  -8 -21 522.785 157.050   6
   2  -8 -21 85.1771 127.412   7
  -2  -8  21 501.247 158.533   8
   2   8 -21-26.5770 233.738   2
   8  -2 -21 615.274 192.478   7
  -2  -8  22 27.1654 126.255   8
   2  -8  22 22.6597 185.684   8
   2  -8 -22-178.484 138.240   6
  -2   8 -22 20.8665 144.418   3
   2   8 -22-44.8000 176.061   3
   2   8 -22-487.700 243.888   2
   2  -8 -22 62.6480 106.375   7
  -2   8  22-13.2853 120.904   4
  -2  -8  22 103.713 107.645   5
   2   8 -23 110.490 242.853   2
  -2  -8  23 126.120 133.128   8
  -2  -8  23 117.751 119.384   5
   2   8 -23 155.615 171.557   3
   2  -8 -23 179.902 110.139   7
   2  -8 -23 237.296 161.348   6
   2  -8  23 23.6796 215.442   8
  -2   8  23-55.9575 134.216   4
   2  -8  24 168.662 210.204   8
   2  -8 -24 278.016 149.648   6
  -2  -8  24 405.626 151.555   8
   2   8 -24 422.794 243.014   2
   2   8 -24 89.8851 181.462   3
  -2  -8  24 461.610 137.497   5
   2  -8 -24 370.545 142.919   7
  -2   8  24 723.283 152.158   4
   2  -8 -25 163.691 124.339   7
   2  -8  25 50.6378 217.629   8
  -2   8  25 170.102 146.978   4
   2   8 -25 180.746 174.537   3
  -2  -8  25 133.999 117.832   5
  -2  -8  25 30.0302 138.103   8
   2   8 -25 172.712 257.534   2
  -2  -8  26 1248.92 224.601   8
  -2  -8  26 697.177 203.080   5
   2   8 -26 647.558 311.689   2
   2   8 -26 1034.39 253.835   3
   2  -8 -26 883.558 212.038   7
  -2  -8  27 270.041 150.099   8
   2   8 -27 182.319 187.774   3
   2  -8 -27 144.693 135.041   7
  -2  -8  27 322.210 128.865   5
  -2  -8  28 848.010 204.941   8
  -2  -8  28 860.646 196.217   5
   2  -8 -28 956.499 200.684   7
   2  -8 -29 340.172 143.913   7
   3  -8   0 415.213 149.983   8
   3  -8   0 434.344 99.3391   5
  -3   8   0 599.658 147.074   3
  -3   8   0 565.169 120.811   1
   3  -8   0 778.018 141.501   7
   3  -8   0 678.877 165.863   6
  -3   8  -1 8975.87 1194.09   3
   3  -8  -1 8035.75 1179.39   5
   3  -8   1 8709.58 1181.48   5
   3  -8  -1 9101.53 1189.19   8
   3  -8   1 7679.69 1196.94   6
  -3   8   1 9432.09 1181.02   4
   3  -8   1 9193.21 1189.58   7
   3  -8  -1 8480.80 1190.76   7
  -3   8   1 8782.42 1192.06   3
   3  -8  -1 7336.00 1197.85   6
   3  -8   1 7876.25 1193.26   8
  -3   8  -1 9810.90 1186.68   1
  -3   8   1 8824.09 1188.90   1
   3  -8   2-225.473 149.852   6
   3  -8   2-323.036 150.848   8
  -3  -8   2-132.412 172.812   5
   3  -8  -2-132.641 88.2117   8
   3  -8   2-131.587 71.6889   5
  -3   8  -2-127.377 109.984   3
  -3   8  -2-56.0106 72.6983   1
   3   8  -2-86.7942 119.787   2
  -3   8   2-103.682 77.8807   4
   3  -8  -2-208.510 100.534   7
   3  -8  -2-530.197 187.896   6
   3  -8   2-145.652 109.539   7
   3  -8  -3 3605.14 501.963   7
  -3   8  -3 2984.97 508.266   3
  -3  -8   3 4209.42 533.947   5
  -3  -8   3 3795.58 496.939   8
  -3   8   3 2353.63 498.919   3
  -3   8  -3 4350.82 498.461   1
   3  -8   3 3341.74 497.028   5
   3  -8   3 3579.24 506.983   7
  -3   8   3 3698.78 496.134   4
   3  -8   3 3323.99 511.681   6
   3   8  -3 4768.44 524.265   2
   3  -8  -3 4075.13 523.878   6
  -3   8   3 3360.74 506.359   1
   3  -8   3 3808.55 517.262   8
   3  -8  -4 492.988 81.6600   8
  -3   8  -4 516.863 79.6364   1
  -3  -8   4 383.911 147.383   5
  -3   8   4 347.543 102.226   3
   3  -8   4 340.154 83.9845   5
  -3  -8   4 331.549 78.6730   8
   3  -8  -4 414.781 95.0137   7
   3  -8  -4 399.299 72.0539   5
   3  -8   4 473.815 130.782   8
  -3   8  -4 358.406 105.626   3
  -3   8   4 416.859 114.194   1
   3  -8   4 246.170 95.3780   7
  -3   8   4 428.011 81.7658   4
   3  -8  -4 608.283 140.294   6
   3   8  -4 427.758 120.902   2
   3  -8  -5 55.9598 39.2602   5
  -3  -8   5 35.8169 121.801   5
   3  -8   5 37.8958 50.9318   5
  -3   8   5-57.5114 92.9294   1
  -3  -8   5 33.6752 52.2364   8
   3  -8  -5 58.4509 42.6854   8
   3  -8   5 223.056 118.762   8
  -3   8  -5 75.9240 93.3886   3
  -3   8   5-78.0521 89.0583   2
  -3   8   5 88.2756 53.6481   4
   3  -8  -5 8.27696 63.7631   7
   3   8  -5 142.823 122.644   2
   3  -8  -5 43.2374 117.120   6
  -3   8   5 142.218 74.7900   3
   3   8  -6 430.258 149.096   2
  -3   8   6 253.318 119.734   1
  -3  -8   6 472.653 150.498   5
   3  -8   6 521.765 149.316   8
  -3   8   6 359.246 99.3073   3
   3  -8  -6 436.077 74.7208   5
   3  -8  -6 644.834 103.990   7
  -3   8   6 507.288 115.137   2
  -3  -8   6 522.397 89.0376   8
  -3   8   6 415.866 88.5396   4
   3  -8  -6 541.282 77.3459   8
   3  -8   6 508.099 93.1912   5
  -3   8  -6 539.061 120.312   3
  -3  -8   6 350.174 74.0098   7
   3  -8  -6 363.229 133.058   6
  -3   8   7 50.7151 61.4637   3
  -3  -8   7 16.6582 129.088   5
  -3   8   7 7.84913 77.6561   2
  -3   8   7 25.0824 99.3738   1
   3  -8   7 33.2781 62.1307   5
  -3   8  -7 26.9253 90.1751   3
  -3   8   7 33.5958 59.9619   4
   3  -8  -7 51.0053 65.9777   7
   3  -8   7-18.5374 81.2058   6
   3  -8  -7 44.2792 109.159   6
   3  -8   7 65.4566 131.908   8
  -3   8  -8 2922.11 376.267   3
   3  -8   8 2232.15 393.758   8
   3  -8  -8 2538.79 359.662   7
   3  -8  -8 2551.22 380.060   6
  -3   8   8 2465.68 354.407   4
   3  -8   8 2724.07 361.919   6
  -3  -8   8 1954.19 383.630   5
   3   8  -9 498.248 167.754   2
   3  -8   9 196.425 150.083   8
  -3  -8   9 245.384 141.191   5
   3  -8  -9 270.734 133.695   6
   3  -8   9 416.601 91.9165   5
  -3  -8   9 476.181 92.1383   8
  -3   8  -9 314.298 119.147   3
   3  -8  -9 414.770 92.4177   7
  -3   8   9 375.099 86.3666   4
   3  -8  10 571.024 194.820   8
   3  -8 -10 655.667 172.943   6
   3  -8  10 1049.28 145.984   5
  -3  -8  10 1046.08 136.293   8
   3  -8 -10 577.812 136.068   7
  -3   8  10 694.099 134.833   4
  -3   8 -10 659.535 156.016   3
   3   8 -10 692.407 188.186   2
  -3  -8  10 847.610 180.542   5
  -3   8 -11 4597.29 583.811   3
  -3  -8  11 4103.96 586.011   5
   3  -8  11 3346.24 564.464   5
  -3  -8  11 4447.99 566.519   8
  -3   8  11 3990.04 563.880   4
   3  -8 -11 4425.58 586.932   6
   3   8 -11 4523.56 601.191   2
   3  -8  11 3806.49 596.177   8
   3   8 -12 883.670 184.384   3
  -3  -8  12 507.094 151.342   5
   3   8 -12 909.067 205.605   2
  -3  -8  12 732.709 122.534   8
  -3   8 -12 730.159 150.018   3
   3  -8  12 524.120 122.111   5
   3  -8  12 300.623 182.600   8
   8  -3 -12 648.540 195.944   6
  -3   8  12 480.286 118.821   4
   3  -8 -12 680.620 153.804   6
  -3   8 -13 7268.02 968.091   3
  -3  -8  13 6970.36 966.500   5
   3  -8  13 7474.52 955.849   5
  -3  -8  13 6008.89 948.877   8
   3   8 -13 7111.22 974.351   3
   3  -8 -13 6855.77 952.988   7
  -3   8  13 7428.16 950.859   4
   8  -3 -13 6219.27 975.065   6
   3   8 -13 7408.07 984.710   2
   3  -8 -13 7095.95 968.254   6
   3  -8  14 372.707 114.242   5
   3   8 -14 713.752 190.762   3
   3   8 -14 308.860 186.083   2
   3  -8 -14 429.951 153.811   6
  -3  -8  14 503.061 110.884   8
  -3  -8  14 594.509 152.280   5
  -3   8 -14 648.168 156.702   3
   3  -8 -14 471.313 116.361   7
  -3   8  14 445.533 107.464   4
   8  -3 -14 608.605 191.993   6
  -8   3  14 367.815 104.090   1
  -3   8 -15 5904.96 743.365   3
  -3  -8  15 4232.94 734.581   5
   3  -8  15 6001.91 728.760   5
   3  -8 -15 5304.86 741.163   6
   3  -8  15 5491.62 763.886   8
  -3   8  15 5355.11 721.640   4
   3   8 -15 5243.40 769.504   2
   3  -8 -15 4640.22 721.495   7
  -3  -8  15 5522.89 724.128   8
  -8   3  15 5151.66 721.403   1
   3   8 -15 4461.26 759.889   3
  -8   3  16 672.242 123.613   1
  -8  -3  16 555.018 223.109   5
   3   8 -16 714.579 197.138   3
  -3  -8  16 792.365 160.256   5
   3   8 -16 468.305 208.065   2
  -3  -8  16 564.721 124.648   8
   3  -8  16 314.355 185.374   8
   8  -3 -16 587.741 181.888   7
   8  -3 -16 715.741 201.395   6
   3  -8 -16 454.007 126.798   7
  -3   8 -16 428.335 154.686   3
  -3   8  16 436.827 120.011   4
   3  -8  16 425.904 134.278   5
   3  -8 -16 583.437 159.967   6
   3  -8 -17 1767.75 263.813   6
   3   8 -17 1657.56 293.493   3
  -3  -8  17 1082.45 244.146   5
   3  -8 -17 1574.07 235.317   7
   3   8 -17 531.036 292.658   2
   3  -8  17 1654.60 299.967   8
  -3   8 -17 1780.42 267.765   3
  -8   3  17 1473.32 230.897   1
  -3   8  17 1444.78 230.651   4
   8  -3 -17 1692.43 302.061   6
   8  -3 -17 1090.31 270.363   7
  -3  -8  17 1576.10 233.492   8
   3  -8 -18 622.977 174.440   6
  -8   3  18 600.061 140.158   1
   3   8 -18 514.705 214.500   3
  -3  -8  18 623.329 156.010   5
  -3  -8  18 952.793 156.180   8
   3   8 -18 543.763 246.686   2
   8  -3 -18 637.424 193.132   7
  -3   8 -18 1038.76 183.101   3
  -3   8  18 600.058 140.388   4
   8  -3 -18 541.852 218.820   6
   8  -3 -19-65.3896 205.659   6
  -8   3  19 181.293 91.3648   1
   3   8 -19 45.9230 181.638   3
  -3  -8  19 98.0580 126.136   5
   3  -8  19-50.4633 213.973   8
  -8   3  19 142.304 81.3430   4
   8  -3 -19-80.6856 156.241   7
   8  -3 -20 100.810 163.927   7
  -8   3  20 257.760 90.2049   4
  -8   3  20 384.027 110.117   1
   3  -8 -20 70.7343 113.095   7
   8  -3 -20 434.863 210.752   6
   3  -8 -21 247.979 150.391   6
   8  -3 -21-21.6585 213.478   6
   3   8 -21 291.101 290.408   2
  -3  -8  21-132.916 125.005   8
  -8   3  21 36.1950 118.661   1
   8  -3 -21 61.0670 181.718   7
  -8   3  21 17.7344 90.3953   4
   3  -8 -21 72.7018 110.293   7
  -3   8  21-84.3139 119.010   4
   3   8 -22-47.4772 194.291   3
   3  -8 -22 108.731 139.884   6
  -3  -8  22-82.5084 127.792   5
   8  -3 -22-120.801 164.372   7
  -3  -8  22 253.829 126.875   8
   3   8 -22 27.0014 234.504   2
  -3   8  22 125.780 109.172   4
   8  -3 -22 386.539 205.608   6
   3  -8 -22 137.018 108.129   7
   3  -8 -23 129.786 153.825   6
  -3  -8  23 356.033 138.665   5
   3   8 -23 330.490 243.741   2
  -3  -8  23 209.423 141.367   8
   3   8 -23 384.166 203.345   3
  -3   8  23 434.647 132.292   4
   3  -8 -23 141.480 123.873   7
   3  -8 -24-18.9459 160.418   6
  -3   8  24 138.094 130.395   4
  -3  -8  24 67.6011 129.287   8
   3   8 -24 280.972 235.192   2
   3  -8 -24 39.6966 116.570   7
   3   8 -24 166.822 190.494   3
  -3  -8  24 165.222 117.679   5
   3  -8 -25 1142.15 234.769   6
  -3  -8  25 770.066 207.294   5
   3  -8 -25 1184.60 217.117   7
  -3  -8  25 1188.91 218.803   8
   3   8 -25 599.766 266.307   3
   3   8 -25 544.665 304.359   2
   3  -8 -26 118.508 164.083   6
  -3  -8  26 124.506 114.617   5
  -3  -8  26 58.0385 138.422   8
   3  -8 -26 14.0224 131.459   7
   3   8 -26-23.8475 177.756   3
   3   8 -26-263.566 253.263   2
  -3   8  26 15.3545 157.912   4
   3  -8 -27 523.103 239.433   6
   3   8 -27 898.037 326.172   2
  -3  -8  27 1569.22 250.560   8
   3   8 -27 814.019 267.969   3
   3  -8 -27 1406.99 249.021   7
  -3  -8  27 1230.33 239.983   5
  -3   8  28 84.7220 161.680   4
   3  -8 -28 209.559 144.208   7
  -3   8  29 1044.80 226.851   4
   3  -8 -29 912.484 207.496   7
   3  -8 -30-112.294 145.976   7
   3  -8 -31 166.379 146.852   7
  -4   8   0 10623.6 1345.97   3
   4  -8   0 10214.2 1352.78   8
   4  -8   0 9638.61 1337.10   5
   4  -8   0 10120.3 1349.36   7
  -4   8   0 9580.79 1340.64   1
   4  -8   0 9312.81 1352.13   6
  -4   8  -1 88.9704 55.5733   1
   4  -8  -1 86.2926 44.0788   5
   4  -8   1 80.4177 109.346   6
   4  -8  -1 153.064 102.162   8
   4  -8   1-28.5607 117.983   8
   4  -8   1 203.280 96.7082   7
   4  -8  -1 55.2029 84.3795   7
  -4   8   1 96.3139 72.1222   3
  -4   8  -1 63.4644 73.4456   3
  -4   8   1 85.8556 66.0236   1
   4  -8   1 84.1674 50.7435   5
   4  -8  -1 43.5273 122.959   6
   4  -8   2 7191.20 1020.43   5
   4  -8  -2 7822.16 1030.84   7
   4  -8   2 6834.56 1030.91   7
   4  -8   2 7349.58 1035.27   6
   4  -8  -2 7277.84 1039.07   6
  -4   8  -2 7637.60 1021.16   1
  -4   8  -2 7781.18 1029.97   3
  -4   8   2 7903.24 1026.85   1
   4  -8  -2 7660.40 1030.68   8
  -4   8   3-39.0505 82.1086   1
   4  -8  -3 10.3447 81.3117   7
   4  -8   3-14.4652 51.6748   5
   4  -8   3-80.5633 122.445   8
   4  -8  -3-15.5782 121.105   6
  -4   8  -3 46.1555 76.0408   3
   4  -8   3 36.9322 98.1553   6
  -4   8   4 1217.68 154.641   3
   4  -8   4 1121.07 150.808   5
   4  -8  -4 782.486 138.562   5
   4  -8  -4 968.022 163.110   7
  -4   8  -4 1036.36 169.953   3
  -4   8   4 701.880 160.746   1
   4  -8   4 1167.43 205.440   8
   4  -8   4 733.857 174.623   6
   4  -8  -4 988.276 194.927   6
   4  -8  -5 6.17747 60.0797   8
  -4  -8   5 79.3402 128.686   5
   4  -8  -5 39.4700 78.9808   7
   4  -8  -5 57.0662 38.9188   5
  -4   8   5 54.9851 88.6274   1
   4   8  -5-128.191 112.975   2
   4  -8   5-89.5272 137.135   8
  -4   8   5 8.00929 64.5673   3
   4  -8   5 22.6374 97.8898   6
   4  -8  -5 65.1477 138.714   6
  -4   8   5 6.68721 53.5512   4
  -4   8  -5-12.5740 82.8877   3
   4  -8   5-15.9216 62.8367   5
  -4  -8   6-19.5482 131.254   5
  -4   8  -6 170.313 95.0481   3
   4  -8   6 117.228 68.3571   5
   4  -8   6 204.733 153.923   8
  -4   8   6 35.3299 80.7233   1
  -4   8   6 116.619 66.7145   3
  -4   8   6 68.2631 54.5839   4
   4  -8  -6 59.1435 80.7185   7
   4  -8   6 21.6632 99.9764   6
   4  -8  -6 82.6779 137.735   6
   4  -8  -7 351.233 149.357   6
  -4   8   7 185.733 108.009   1
  -4  -8   7 230.560 143.699   5
  -4   8  -7 436.794 107.179   3
   4  -8   7 314.638 85.1675   5
  -4   8   7 287.051 82.2087   4
   4  -8   7 367.177 166.007   8
   4  -8  -7 292.835 89.6853   7
   4  -8  -8 84.1328 144.729   6
  -4  -8   8-37.6592 137.554   5
  -4   8   8 247.487 99.1544   1
  -4   8   8 79.1131 63.7410   4
   4  -8   8-60.1614 154.845   8
   4  -8   8 18.3528 66.0970   5
   4  -8  -8 58.9024 73.9581   7
  -4   8  -8-14.2077 92.8343   3
  -4  -8   8 7.49124 57.8788   8
   4   8  -8-34.8000 131.840   2
   4   8  -9 215.149 135.848   2
  -4  -8   9 92.1184 140.017   5
   4  -8  -9 356.060 96.1155   7
  -4   8   9 109.321 110.970   1
  -4   8   9 132.690 70.8134   4
   4  -8   9 192.603 84.4357   5
   4  -8   9 166.522 167.210   8
   4  -8  -9 340.076 147.776   6
  -4  -8   9 114.263 62.7410   8
  -4   8  -9 340.136 112.051   3
   4   8 -10 2128.29 315.693   2
  -4   8 -10 1861.88 293.927   3
  -4  -8  10 2181.03 313.036   5
   4  -8  10 2228.24 277.002   5
  -4   8  10 1318.29 289.518   1
  -4  -8  10 2217.85 270.146   8
   4  -8 -10 1507.11 272.387   7
  -4   8  10 1623.01 267.350   4
   4  -8 -10 1854.57 308.029   6
   4  -8  10 1599.24 325.925   8
  -4  -8  11 160.237 73.7110   8
   4   8 -11 38.2642 135.827   2
  -4  -8  11 53.0028 142.766   5
  -4   8  11 148.614 72.0475   4
  -4   8 -11 128.249 101.907   3
   8  -4 -11-78.6798 192.749   6
   4  -8  11 134.704 172.025   8
   4  -8 -11 120.175 134.434   6
  -4   8 -12 6412.75 810.463   3
  -4   8  12 6158.78 788.103   4
   4  -8  12 5999.14 829.630   8
   8  -4 -12 5931.91 827.908   6
  -8   4  12 5550.73 789.526   1
   4   8 -12 5144.45 812.313   2
   4  -8 -12 5599.14 811.603   6
  -4   8  12 4955.68 804.208   1
  -8   4  13-78.9051 84.8971   1
   4   8 -13 81.8781 167.240   2
  -4  -8  13 33.8430 134.041   5
  -4  -8  13-85.5883 76.9717   8
   4  -8 -13-52.3242 84.7320   7
   8  -4 -13-56.9869 149.374   7
  -4   8  13 8.39048 76.0873   4
  -4   8  13-16.1831 138.739   1
   8  -4 -13 145.037 186.563   6
   4  -8 -13-69.1313 153.040   6
  -4  -8  14 7970.82 1119.36   8
   4   8 -14 6839.03 1141.22   3
   8  -4 -14 7989.03 1153.80   6
  -4  -8  14 8028.18 1140.45   5
   8  -4 -14 7963.49 1143.69   7
  -4   8  14 10009.8 1152.11   1
   4  -8 -14 8663.63 1129.14   7
  -4   8  14 7993.78 1122.15   4
   4   8 -14 8609.06 1153.58   2
   4  -8 -14 11954.9 1163.48   6
  -8   4  14 7208.62 1120.15   1
   4   8 -15 98.7120 172.721   3
  -8   4  15 42.7455 88.8320   1
  -4  -8  15 256.671 87.2918   8
  -4  -8  15 50.2143 137.783   5
   4   8 -15 131.161 184.890   2
   8  -4 -15-58.8567 155.865   7
  -4   8  15 172.183 89.6612   4
  -4   8  15-17.4899 139.569   1
   8  -4 -15-21.9418 199.567   6
   4  -8 -15 17.5996 141.910   6
   4  -8 -15 54.3229 93.1618   7
   4   8 -16 2142.54 415.300   3
  -8  -4  16 2935.79 443.433   5
   4   8 -16 2279.51 430.363   2
  -4  -8  16 2534.95 395.561   5
   8  -4 -16 2189.97 409.009   7
   4  -8 -16 2670.25 379.848   7
  -4   8  16 2904.57 377.376   4
  -8   4  16 2517.96 380.658   1
   4  -8 -16 2847.10 407.335   6
   8  -4 -16 2575.60 423.722   6
   4   8 -17 64.7010 182.662   3
  -8  -4  17 138.842 190.385   5
   4   8 -17 46.2903 192.926   2
  -4  -8  17-32.1923 133.835   5
  -8   4  17-11.4839 97.7532   1
   8  -4 -17 19.7775 157.288   7
  -4   8  17 9.82641 89.7074   4
   8  -4 -17 408.084 211.394   6
  -4  -8  17 69.8017 88.5464   8
   4  -8 -17 177.620 137.238   6
  -8  -4  18 488.316 201.596   5
   4   8 -18 429.298 212.049   2
  -4  -8  18 258.290 148.425   5
  -4  -8  18 483.299 122.200   8
   8  -4 -18 314.255 181.856   7
  -8   4  18 239.004 120.758   1
  -8   4  18 685.047 112.149   4
   8  -4 -18 412.043 216.508   6
   4   8 -18 652.316 214.637   3
   4   8 -19 46.6579 188.599   3
  -4  -8  19 47.4355 143.892   5
   8  -4 -19 22.8289 205.491   6
   8  -4 -19 139.005 152.068   7
  -8   4  19 34.9929 85.2235   4
   4  -8 -19-47.8490 93.3368   7
  -8   4  19-87.1866 112.114   1
   4  -8 -20 24.5186 111.786   7
  -8   4  20-89.4727 116.532   1
  -8   4  20-116.772 90.6233   4
   4  -8 -20-36.5228 153.254   6
  -4   8  20-11.1676 103.773   4
   8  -4 -20 68.1776 218.876   6
   4  -8 -21-92.7982 135.724   6
   4  -8 -21 62.5764 109.825   7
  -8   4  21 129.326 91.0184   4
  -4  -8  21 343.227 157.475   8
   8  -4 -21-90.1692 200.267   6
  -4   8  21-69.6119 113.074   4
   4  -8 -22 169.240 154.346   6
   4   8 -22-183.463 305.367   2
  -4  -8  22-103.380 155.862   5
  -4  -8  22 23.5961 121.846   8
   4   8 -22 25.0529 253.257   3
   4  -8 -22 128.863 122.254   7
  -4   8  22 169.830 118.230   4
  -4  -8  23 12.1725 116.419   8
   4  -8 -23-152.456 158.811   6
   4   8 -23 53.4979 225.008   2
   4  -8 -23-52.8666 112.302   7
   4   8 -23 100.916 215.560   3
  -8   4  23-139.573 123.272   1
  -4   8  23 12.6798 117.648   4
   8  -4 -23 19.8677 174.397   7
  -4  -8  23-29.0400 132.221   5
   4  -8 -24 174.392 168.557   6
   4   8 -24 709.830 264.127   2
  -4  -8  24 691.277 145.185   8
   4  -8 -24 244.141 140.240   7
   4   8 -24 555.606 229.589   3
  -4  -8  24 362.523 147.845   5
  -4   8  24 358.505 143.363   4
   4  -8 -25-59.3093 167.389   6
   4  -8 -25 208.951 142.664   7
  -4  -8  25 302.003 137.147   5
   4   8 -25-25.4961 216.911   3
   4   8 -25-111.399 227.126   2
  -4  -8  25 198.505 126.326   8
  -4   8  25-69.2723 135.391   4
   4  -8 -26 786.825 268.553   6
  -4  -8  26 2138.44 263.431   8
  -4  -8  26 1656.43 266.853   5
   4   8 -26 353.703 295.153   3
   4   8 -26 426.508 308.591   2
   4  -8 -26 1317.13 258.220   7
  -4   8  26 2243.53 265.982   4
   4  -8 -27 20.5588 165.546   6
  -4   8  27 76.3851 146.536   4
   4  -8 -27 162.037 146.730   7
   4  -8 -28 314.196 200.126   6
  -4   8  28 688.079 309.658   1
  -4   8  28 529.441 194.323   4
   4  -8 -29-63.1861 146.699   7
   4  -8 -29-21.2004 188.374   6
  -4   8  29 33.1578 315.421   1
  -4   8  29-118.080 160.240   4
   4  -8 -30-150.713 179.427   6
   4  -8 -30 554.940 155.755   7
  -4   8  30 213.294 173.351   4
  -4   8  30 670.453 314.685   1
   4  -8 -31 153.319 154.719   7
  -5   8   0 70.2943 66.3353   1
   5  -8   0 202.185 129.678   8
   5  -8   0 153.728 104.479   7
   5  -8   0 163.778 124.227   6
   5  -8  -1 5858.32 785.090   8
   5  -8   1 5966.57 788.443   8
   5  -8  -1 5430.69 785.152   6
   5  -8   1 5351.17 780.259   6
  -5   8  -1 5493.56 763.510   1
   5  -8  -2 1658.34 255.494   7
   5  -8  -2 1537.24 264.421   8
   5  -8   2 1810.13 279.555   8
   5  -8   2 1331.29 261.102   6
   5  -8  -2 1722.79 276.814   6
  -5   8   2 1611.56 238.712   1
   5  -8   3 1481.21 249.477   8
   5  -8  -3 1407.90 218.116   7
   5  -8  -3 1509.77 227.580   8
   5  -8   3 1299.62 227.446   6
   5  -8  -3 1143.42 243.683   6
  -5   8   3 1132.69 201.971   1
   5  -8   4 813.889 183.399   8
  -5   8   4 405.633 123.728   1
   5  -8  -4 707.956 175.949   6
   5  -8  -4 573.408 140.906   7
  -5   8   5 31.5133 75.8018   1
   5  -8   5 257.370 160.648   8
   5  -8  -5 49.1092 95.5261   7
  -5   8   6 527.737 115.993   1
   5  -8  -6 500.388 122.343   7
   5  -8  -6 275.123 163.181   6
  -5   8   7 199.966 96.7007   1
  -5   8   7 155.059 71.1850   4
   5  -8  -7 130.656 161.854   6
   5  -8  -7 11.7979 95.6866   7
  -5  -8   8 62.7452 150.588   5
  -5   8   8 123.673 101.781   1
  -5   8   8 52.6097 67.6954   4
   5  -8  -8 128.957 99.0798   7
   5   8  -8 17.4870 110.471   2
   5  -8  -8 379.294 168.323   6
  -5  -8   9-82.6060 167.549   5
   5   8  -9-124.367 120.674   2
  -5   8   9 69.1104 71.2484   4
  -5   8   9 51.9561 98.7470   1
   5  -8  -9-151.819 102.216   7
   5  -8  -9 114.561 161.109   6
  -5  -8   9-47.9071 66.5718   8
  -5  -8  10 446.807 172.486   5
   8  -5 -10 143.501 172.436   6
  -5   8  10 117.848 75.0054   4
  -8   5  10 123.294 84.4076   1
   5   8 -10 54.3491 131.216   2
  -5  -8  10 390.139 77.4408   8
   5  -8 -10 115.614 157.679   6
  -5  -8  11 2490.19 398.382   5
  -5   8  11 2367.12 354.894   4
   8  -5 -11 2373.88 383.793   7
   5   8 -11 2670.28 393.478   2
   5  -8 -11 2488.16 401.624   6
  -8   5  11 2613.70 360.039   1
   8  -5 -11 2612.72 407.185   6
  -5   8  12 241.543 132.370   1
  -5  -8  12 253.614 82.1402   8
   5   8 -12 19.2461 156.326   2
  -8   5  12 287.658 96.9377   1
  -5  -8  12 195.208 165.840   5
   5  -8 -12 213.403 164.850   6
   8  -5 -12 211.220 163.724   7
  -5   8  12 148.212 81.6024   4
   5  -8 -12 374.843 110.150   7
   8  -5 -12 43.3487 207.754   6
   8  -5 -13 3536.09 621.846   6
  -5  -8  13 3580.79 601.476   5
  -8   5  13 3733.37 573.461   1
  -5   8  13 3745.46 572.896   4
  -5   8  13 5958.96 611.844   1
   5   8 -13 3134.68 603.717   2
   8  -5 -13 3750.76 599.475   7
   5  -8 -14 167.819 103.744   7
  -5   8  14 52.3405 82.3926   4
  -5  -8  14 206.011 164.030   5
  -8   5  14 55.8154 93.8329   1
  -5   8  14 295.566 129.420   1
  -5  -8  14 115.086 81.4504   8
   8  -5 -14 19.5412 155.387   7
   5  -8 -14 58.2542 164.474   6
   8  -5 -14-46.0154 211.012   6
   5   8 -14 162.092 161.065   2
   8  -5 -15 3194.63 468.270   6
   5  -8 -15 2714.82 435.786   6
  -5   8  15 2642.94 396.701   4
  -5  -8  15 2419.69 423.543   5
   5   8 -15 2658.14 445.404   2
   8  -5 -15 2938.77 435.546   7
  -8   5  15 2877.35 406.911   1
   5  -8 -15 3057.12 410.260   7
  -5   8  15 2837.42 430.180   1
   5   8 -16 21.6233 179.126   2
   5   8 -16-102.195 179.520   3
  -8  -5  16-131.027 230.747   5
  -5  -8  16 147.541 150.322   5
  -8   5  16-24.0069 102.524   1
   8  -5 -16 118.818 215.815   6
  -5  -8  16 131.194 80.4363   8
   8  -5 -16-77.8740 157.588   7
  -5   8  16 65.1433 85.2841   4
   5  -8 -16 232.777 166.394   6
   5   8 -17 401.799 193.365   2
   5   8 -17 127.669 190.787   3
  -5  -8  17 253.068 161.213   5
  -8   5  17 551.389 121.660   1
   8  -5 -17 503.450 238.639   6
  -5  -8  17 423.957 105.078   8
   8  -5 -17 522.311 172.107   7
  -8  -5  17 292.434 213.261   5
  -8   5  17 183.787 91.7717   4
   5   8 -18 88.7168 185.498   3
  -8  -5  18 277.600 201.305   5
  -5  -8  18 195.061 157.387   5
   5  -8 -18 63.4229 113.818   7
   8  -5 -18 262.579 225.351   6
  -8   5  18 143.092 81.3337   4
  -5   8  18-19.1485 150.879   1
  -8  -5  19 65.9477 184.292   5
   5  -8 -19-78.1329 169.398   6
   5  -8 -19-38.8442 112.627   7
  -5   8  19 20.8470 96.8941   4
  -5   8  19 140.692 175.853   1
   5   8 -20 192.636 201.333   2
   8  -5 -20 39.1770 166.945   7
   5  -8 -20-66.1143 129.591   7
  -5   8  20 98.2498 104.534   4
  -5   8  20-83.4176 192.948   1
  -5  -8  20 116.500 103.146   8
   5  -8 -20-19.6854 194.579   6
  -5   8  21 129.930 195.477   1
   5   8 -21 98.4161 202.968   2
   5   8 -21 49.9939 215.495   3
  -5  -8  21 16.8662 150.998   5
  -8   5  21-215.335 126.721   1
   5  -8 -21 40.5298 112.562   7
  -5   8  21 159.135 118.578   4
   5  -8 -21-78.5459 163.058   6
  -5  -8  21-65.8268 96.3003   8
   8  -5 -21-116.459 163.772   7
  -5   8  22 292.529 190.335   1
   5   8 -22-50.6017 204.852   2
   5   8 -22 77.2005 224.749   3
  -5  -8  22 197.500 159.353   5
  -8   5  22 158.089 95.6799   4
   5  -8 -22 27.6159 120.047   7
   8  -5 -22-19.5959 173.644   7
  -8   5  22 149.080 136.822   1
  -5  -8  22 226.365 117.125   8
  -5   8  22 225.070 105.024   4
   8  -5 -22 207.516 203.927   6
   5  -8 -22 158.382 161.883   6
   5  -8 -23 160.580 157.192   6
   8  -5 -23 39.5799 158.337   7
  -5   8  23-70.2239 183.313   1
   5   8 -23 77.4594 210.161   2
  -8   5  23 10.2127 94.1868   4
  -5  -8  23-81.7889 115.424   8
  -5  -8  23-47.3897 132.850   5
  -5   8  23 24.6118 111.684   4
  -8   5  23 45.8284 131.288   1
   5  -8 -23-127.092 126.408   7
   8  -5 -23 136.528 187.699   6
   5   8 -23 313.910 243.148   3
   5  -8 -24 183.121 176.645   6
  -5   8  24 560.810 221.866   1
   5   8 -24-79.0642 229.784   2
   5   8 -24 131.936 216.094   3
  -5  -8  24 60.3421 113.017   8
  -8   5  24 31.3040 135.866   1
  -5  -8  24 93.3440 136.253   5
   5  -8 -24 14.4497 126.321   7
  -8   5  24 95.4665 103.835   4
   8  -5 -24 119.960 174.630   7
  -5   8  24 230.577 124.042   4
   8  -5 -24 317.842 206.661   6
   5  -8 -25 508.748 205.014   6
  -5  -8  25 487.142 161.774   5
   5   8 -25 26.8862 253.966   2
   8  -5 -25 575.261 217.067   7
  -5  -8  25 1092.45 159.535   8
   5   8 -25 241.103 249.946   3
   5  -8 -25 340.366 164.426   7
  -5   8  25 330.543 247.466   1
  -5   8  25 721.061 158.648   4
   8  -5 -25 716.432 215.966   6
   5  -8 -26-82.8891 165.835   6
   5  -8 -26-182.014 136.150   7
  -5   8  26-111.626 130.817   4
  -5   8  26 159.423 247.386   1
   5  -8 -27 544.930 207.291   7
  -5   8  27 751.369 283.453   1
  -5   8  27 1477.22 218.412   4
   5  -8 -27 1138.04 248.972   6
   5  -8 -28 42.7887 183.100   6
  -5   8  28 45.8705 139.227   4
  -5   8  28 288.543 245.977   1
   5  -8 -28 79.9585 133.686   7
   5  -8 -29 65.2402 182.845   6
  -5   8  29-60.7593 277.653   1
   5  -8 -29 411.416 162.968   7
  -5   8  29 656.086 170.354   4
   5  -8 -30 132.692 178.863   6
  -5   8  30 256.751 288.515   1
   5  -8 -30 102.839 149.461   7
  -5   8  30 83.8500 148.409   4
   6  -8   0 1075.58 216.740   6
   6  -8  -1 1165.57 191.456   8
   6  -8  -1 694.923 175.941   6
  -6   8   1 700.044 129.405   1
  -6   8   2 630.292 116.147   1
   6  -8  -2 641.358 153.080   8
   6  -8  -2 650.253 161.450   7
   6  -8  -2 584.466 175.954   6
   6  -8  -3 1431.95 248.778   8
   6  -8  -3 1295.10 251.567   7
  -6   8   3 1594.82 225.178   1
   6  -8  -3 1368.40 267.848   6
   6  -8  -4 628.282 154.665   7
  -6   8   4 525.967 115.795   1
   6  -8  -4 400.265 147.567   8
   6  -8  -4 366.266 175.376   6
   6  -8  -5 745.089 214.117   6
   6  -8  -5 789.415 183.714   7
  -6   8   5 1096.26 164.720   1
   6  -8  -6 1370.30 260.714   6
  -6   8   6 1197.09 203.558   1
   6  -8  -6 1290.88 222.530   7
  -6   8   7 402.742 113.769   1
   6  -8  -7 317.779 130.668   7
   6  -8  -7 487.069 190.869   6
   6  -8  -8 1424.18 260.265   7
   6  -8  -8 1375.28 297.096   6
  -8   6   8 1595.56 236.390   1
  -6   8   8 1540.57 246.038   1
   8  -6  -8 1933.54 300.588   6
  -8   6   9 805.497 134.822   1
   8  -6  -9 938.336 217.825   6
  -6   8   9 524.462 134.949   1
   6  -8  -9 636.293 161.156   7
   6  -8  -9 552.376 206.655   6
  -8   6  10 50.9475 80.6461   1
   8  -6 -10 351.059 185.226   6
   8  -6 -10 19.1342 140.393   7
   6  -8 -10 86.0596 193.775   6
  -6   8  10 8.18963 71.7459   4
  -6  -8  11-67.6856 180.242   5
  -8   6  11 234.343 99.0195   1
   8  -6 -11-58.0125 169.254   7
   8  -6 -11 205.149 203.778   6
   6   8 -11 113.370 153.920   2
   6  -8 -11-108.048 211.855   6
  -6   8  11 208.714 78.4911   4
  -6  -8  12 311.509 184.883   5
  -6   8  12 407.870 144.900   1
  -8   6  12 622.539 115.943   1
   6  -8 -12 261.206 138.406   7
   6   8 -12 287.132 161.075   2
   8  -6 -12 291.310 173.719   7
  -6   8  12 399.464 102.196   4
   8  -6 -12 117.885 239.753   6
   6  -8 -12 21.7190 226.889   6
   6  -8 -13 933.933 231.764   6
  -6  -8  13 699.443 195.026   5
  -6   8  13 976.818 168.074   1
  -8   6  13 684.587 144.394   1
  -6  -8  13 573.266 128.986   8
   8  -6 -13 758.497 184.295   7
  -6   8  13 600.461 129.500   4
   6  -8 -13 561.748 156.096   7
   8  -6 -13 920.565 256.406   6
   6   8 -13 993.278 187.682   2
  -6   8  14 809.862 158.236   4
  -6  -8  14 1114.44 225.582   5
  -8   6  14 1088.26 176.761   1
  -6   8  14 823.156 194.924   1
   6  -8 -14 902.668 184.032   7
   8  -6 -14 965.633 226.219   7
   6  -8 -14 870.813 242.083   6
   8  -6 -14 954.264 265.684   6
  -6  -8  14 991.176 158.439   8
   6   8 -14 576.642 213.847   2
   6  -8 -15 389.031 198.388   6
  -6  -8  15 399.214 176.634   5
  -6  -8  15 224.790 97.6373   8
   8  -6 -15 268.537 165.471   7
  -8   6  15 287.379 119.278   1
  -6   8  15 491.325 101.922   4
   8  -6 -15 396.348 228.781   6
   6   8 -15 631.354 183.646   2
  -6  -8  16 102.560 176.603   5
  -6  -8  16 249.078 96.3709   8
  -8   6  16 197.543 85.1687   4
   8  -6 -16 249.949 232.984   6
   6   8 -16 310.850 171.223   2
  -8  -6  17 77.8176 203.536   5
  -6  -8  17 260.390 171.573   5
   6  -8 -17 14.0699 119.758   7
  -6   8  17 104.234 147.577   1
   6  -8 -18 141.200 134.091   7
  -8  -6  18 422.299 230.470   5
  -8   6  18 223.949 129.697   1
  -6   8  18 547.065 117.214   4
   6  -8 -18 322.369 183.242   6
   8  -6 -18 152.587 172.001   7
  -6   8  18 268.888 167.083   1
  -6   8  19 74.0407 181.096   1
  -8  -6  19-46.2159 218.349   5
  -6  -8  19 165.256 105.775   8
  -6   8  19 133.917 110.352   4
  -8   6  19 407.704 139.888   1
  -8   6  19 323.550 102.955   4
   8  -6 -19 38.5316 174.626   7
   6  -8 -19-28.7138 143.880   7
   6  -8 -19 297.530 205.514   6
   6   8 -20-23.1035 200.050   2
   6  -8 -20 660.837 210.932   6
  -8  -6  20 748.838 224.134   5
  -8   6  20 732.085 157.804   1
   6  -8 -20 73.0227 145.022   7
  -8   6  20 584.812 120.050   4
  -6   8  20 587.135 133.164   4
   8  -6 -20 477.496 186.964   7
  -6   8  20 350.976 180.749   1
   8  -6 -20 1189.11 244.498   6
  -6  -8  20 415.109 122.545   8
   6   8 -21 125.679 233.091   3
  -6  -8  21 222.975 176.112   5
  -6  -8  21 306.119 113.648   8
  -8   6  21 245.170 145.474   1
   6  -8 -21 133.791 134.500   7
  -8   6  21 259.160 111.339   4
   8  -6 -21 19.2896 172.798   7
  -6   8  21 265.899 105.344   4
   6   8 -21 94.2804 188.269   2
  -6   8  21 141.072 177.261   1
   8  -6 -21 265.493 207.658   6
   6  -8 -21 278.069 193.219   6
  -8   6  22 398.855 151.707   1
   6   8 -22 156.159 240.269   3
  -6  -8  22 504.907 174.544   5
   6  -8 -22 573.642 193.124   6
  -6  -8  22 293.122 114.649   8
  -8   6  22 524.355 112.594   4
   8  -6 -22 97.4201 168.156   7
  -6   8  22 291.891 185.035   1
   6  -8 -22 75.6945 140.667   7
  -6   8  22 207.318 119.282   4
   6   8 -22-24.0501 196.730   2
   8  -6 -22 1022.73 233.685   6
   6   8 -23 74.3545 191.098   2
  -6   8  23 64.7561 197.498   1
  -6  -8  23 403.135 174.573   5
  -6  -8  23 465.426 124.133   8
   8  -6 -23 275.665 178.714   7
  -8   6  23 233.040 112.910   4
  -8   6  23-32.7207 145.516   1
   6   8 -23 268.487 231.610   3
  -6   8  23 313.138 113.987   4
   6  -8 -23 259.138 139.858   7
   8  -6 -23-23.4251 193.391   6
   6  -8 -23 256.310 196.005   6
   6   8 -24 303.328 210.138   2
   6   8 -24 656.813 269.843   3
  -6  -8  24 34.7601 155.113   5
   6  -8 -24 257.989 214.763   6
   8  -6 -24 117.295 169.692   7
  -8   6  24-16.7823 150.707   1
  -6   8  24 213.111 133.578   4
   6  -8 -24 93.2668 140.949   7
  -6   8  24 246.111 214.210   1
  -6  -8  24 264.247 120.315   8
   8  -6 -24-233.531 212.303   6
  -8   6  24 110.355 113.254   4
   6  -8 -25-171.766 184.292   6
   8  -6 -25 345.178 201.044   6
  -6   8  25 104.080 123.895   4
  -8   6  25 274.378 112.172   4
   6  -8 -25 63.4669 149.027   7
  -6   8  25-185.733 203.422   1
   8  -6 -25-19.7819 167.252   7
  -8   6  25-17.2198 152.805   1
   6  -8 -26 43.4129 188.368   6
   8  -6 -26 713.225 216.781   6
  -8   6  26 265.238 158.903   1
  -8   6  26 369.352 130.090   4
   8  -6 -26 160.325 164.577   7
   6  -8 -26 356.707 167.971   7
  -6   8  26 419.035 147.008   4
  -6   8  26 48.2608 218.795   1
   6  -8 -27-153.169 179.199   6
   6  -8 -27 335.648 149.852   7
  -6   8  27 150.694 215.449   1
  -6   8  27 154.898 134.372   4
   6  -8 -28 109.945 204.784   6
   6  -8 -28 137.505 172.971   7
  -6   8  28 338.016 161.176   4
   6  -8 -29 44.6411 181.997   6
   6  -8 -29 17.6332 161.259   7
  -6   8  29 137.062 238.671   1
  -6   8  29 122.929 137.970   4
   6  -8 -30 18.1137 157.568   7
   7  -8  -3 1030.83 233.580   6
  -7   8   4 356.616 92.2779   1
   7  -8  -4 194.736 146.053   7
   7  -8  -4 409.475 183.378   6
   7  -8  -5 2577.23 474.957   7
   7  -8  -5 3490.12 487.773   6
  -7   8   5 3292.74 448.535   1
  -7   8   6 436.468 103.697   1
   7  -8  -6 195.310 150.906   7
   7  -8  -6 353.487 188.540   6
   7  -8  -7 4184.07 629.009   7
  -7   8   7 4602.83 612.980   1
   8  -7  -7 4329.94 647.412   6
  -8   7   7 4212.01 609.176   1
   7  -8  -7 4682.68 647.885   6
   7  -8  -8 180.040 187.716   6
  -7   8   8 401.195 109.103   1
   7  -8  -8 51.2742 139.304   7
   8  -7  -8 241.965 198.369   6
   7  -8  -9 2596.89 465.683   7
   8  -7  -9 3194.92 493.368   6
   7  -8  -9 3856.24 506.249   6
  -8   7  10 87.4487 96.5122   1
   8  -7 -10-137.449 169.444   7
   8  -7 -10-257.519 228.732   6
   7  -8 -10-446.662 268.425   6
  -8   7  11 375.772 113.274   1
   8  -7 -11 252.559 158.737   7
  -7   8  11 340.812 115.444   1
   7  -8 -11 716.864 229.468   6
   8  -7 -11 436.790 208.361   6
  -8   7  12 320.313 97.9069   1
   8  -7 -12 346.547 171.554   7
  -7   8  12 105.637 80.6921   4
  -7   8  12 263.124 114.262   1
   8  -7 -12 274.880 229.359   6
   7  -8 -12 96.4723 203.105   6
   7  -8 -12 276.312 136.493   7
  -8   7  13-223.001 111.955   1
   8  -7 -13 38.8833 151.460   7
  -7   8  13 8.96324 80.6197   4
   8  -7 -13-305.779 221.199   6
   7  -8 -13-72.4049 212.008   6
   7  -8 -13-48.3025 129.648   7
  -7  -8  14 195.277 200.328   5
  -7   8  14 227.836 96.7960   4
   8  -7 -14 384.592 217.018   6
   7  -8 -14 362.399 207.356   6
  -7  -8  15 47.8247 192.094   5
  -7  -8  16-116.941 187.829   5
  -8   7  16-83.2999 121.190   1
  -7   8  16 139.105 141.102   1
   7  -8 -16-144.233 136.121   7
   8  -7 -16 75.7105 149.904   7
  -7   8  17 178.293 146.526   1
  -8  -7  17 132.750 237.867   5
   8  -7 -17 114.641 174.964   7
  -7   8  17 300.959 100.467   4
   7  -8 -17 261.283 207.444   6
  -8   7  17 548.889 145.144   1
  -8   7  17 322.381 102.448   4
   7  -8 -17 178.319 152.833   7
   8  -7 -17-25.7084 241.174   6
  -7   8  18 66.6828 150.574   1
   8  -7 -18 75.7313 186.155   7
  -8  -7  18 102.521 231.043   5
   7  -8 -18-98.4447 152.619   7
  -8   7  18 96.9412 101.041   4
   7   8 -18 150.441 186.238   2
  -7   8  18 129.345 100.186   4
  -8   7  18 326.239 142.600   1
   8  -7 -18 50.9983 237.339   6
   7  -8 -18-189.530 223.389   6
   7   8 -19 1909.34 363.897   3
   7  -8 -19 1258.69 311.110   7
  -7  -8  19 2034.03 281.712   8
   7  -8 -19 2035.78 359.735   6
  -7   8  19 1912.29 279.818   4
   8  -7 -19 1357.29 325.344   7
  -8   7  19 1732.15 277.861   4
   7   8 -19 1228.98 317.324   2
   8  -7 -19 1851.00 367.018   6
  -7   8  19 2726.98 322.004   1
  -8   7  19 2023.54 309.069   1
   7   8 -20 74.0197 213.603   3
  -7   8  20 270.269 166.519   1
  -7  -8  20 10.8971 97.0521   8
  -7  -8  20 128.938 176.424   5
   7  -8 -20 248.504 147.862   7
  -8   7  20 161.687 102.884   4
  -7   8  20 42.2316 101.223   4
  -8   7  20 63.4033 137.065   1
   8  -7 -20 18.9564 171.913   7
   7   8 -20 44.6235 169.893   2
   8  -7 -20-199.890 205.710   6
   7  -8 -20 46.6864 184.451   6
   8   7 -21 1489.60 336.138   3
   7   8 -21 1813.83 338.912   3
  -7   8  21 1595.70 278.585   1
  -8  -7  21 2374.65 330.167   5
  -7  -8  21 2419.49 312.594   5
   7  -8 -21 1377.46 278.373   7
  -7  -8  21 1895.42 247.898   8
  -8   7  21 1512.91 239.059   4
  -7   8  21 1746.59 247.364   4
   8  -7 -21 1499.80 330.805   6
  -8   7  21 1301.01 253.389   1
   7   8 -21 68.5450 271.087   2
   7  -8 -21 1910.73 320.897   6
   8  -7 -21 593.689 277.544   7
   7   8 -22 396.457 230.839   3
  -7   8  22 57.3357 167.546   1
  -7  -8  22 363.304 174.200   5
   8  -7 -22 96.7914 168.681   7
   7  -8 -22-33.5650 140.908   7
  -8   7  22 138.693 108.161   4
  -7   8  22 22.5389 103.029   4
  -8   7  22 440.947 166.923   1
   8  -7 -22 440.380 210.669   6
  -7  -8  22 218.363 115.191   8
   7   8 -22 162.813 170.336   2
   7  -8 -22 22.9916 188.308   6
  -7  -8  23 687.063 151.298   8
   7   8 -23 492.537 274.122   3
  -7   8  23 374.290 207.815   1
  -7  -8  23 1069.09 206.419   5
   8  -7 -23 986.374 248.628   6
   7  -8 -23 477.199 189.758   7
  -8   7  23 627.732 150.017   4
  -8   7  23 487.344 195.300   1
   7   8 -23 119.325 212.500   2
   8  -7 -23 665.582 222.743   7
   7  -8 -23 919.723 268.525   6
  -7   8  23 1076.41 164.537   4
   7  -8 -24-103.889 156.738   7
  -7   8  24-101.625 189.915   1
   8  -7 -24 118.842 172.299   7
  -8   7  24 80.0688 109.607   4
  -7   8  24 60.7235 117.500   4
  -8   7  24-160.845 160.000   1
   8  -7 -24-143.674 208.292   6
   7  -8 -24-113.806 181.490   6
  -7   8  25-104.944 185.773   1
   8  -7 -25-141.613 214.789   6
   8  -7 -25 118.298 174.012   7
   7  -8 -25 105.682 153.658   7
  -8   7  25-118.142 106.644   4
  -7   8  25 214.514 125.514   4
  -8   7  25-146.913 165.762   1
   7  -8 -25-22.8202 169.337   6
  -7   8  26 347.257 197.599   1
   7  -8 -26 17.9246 158.762   7
   8  -7 -26-19.9852 177.995   7
  -8   7  26 24.5373 114.489   4
  -7   8  26 131.825 130.363   4
  -8   7  26-94.3922 161.866   1
   8  -7 -26-188.805 207.776   6
   7  -8 -26 137.437 188.420   6
   7  -8 -27-273.822 213.906   6
  -7   8  27-247.214 212.285   1
   8  -7 -27-20.2843 193.072   7
   7  -8 -27 36.5495 171.387   7
   8  -7 -27-140.035 222.646   6
  -8   7  27-38.5107 125.340   4
  -8   7  27-77.7212 165.170   1
  -7   8  27 13.6620 128.575   4
   7  -8 -28-92.0634 199.744   6
  -7   8  28-163.218 217.426   1
   7  -8 -28-18.6499 150.970   7
   8  -7 -28-123.677 174.619   7
  -7   8  28 14.1536 138.745   4
   7  -8 -29 138.885 204.057   6
   7  -8 -29-133.419 175.263   7
  -7   8  29-387.826 217.309   1
  -7   8  29-29.5276 133.071   4
   8  -8  -6 7513.96 997.395   6
  -8   8   6 6850.05 962.071   1
  -8   8   7 62.3662 81.5451   1
   8  -8  -7 59.2596 150.087   7
   8  -8  -7 405.807 211.574   6
   8  -8  -8 6203.24 775.089   6
  -8   8   8 4939.07 723.668   1
   8  -8  -9 24.2178 219.218   6
   8  -8 -10 2385.79 424.375   6
   8  -8 -11 51.6639 230.691   6
   8  -8 -12 287.472 233.202   6
   8  -8 -14 192.148 171.881   7
  -8   8  14 301.618 121.770   1
   8  -8 -15 133.056 159.905   7
  -8   8  15 14.0713 101.036   1
  -8   8  15-85.6843 92.6103   4
   8  -8 -15-159.535 225.059   6
  -8   8  16-102.426 124.448   1
  -8   8  16-29.0023 87.1038   4
   8  -8 -16 53.0522 252.353   6
   8  -8 -16-112.866 169.957   7
  -8   8  17-152.393 128.115   1
   8  -8 -17 208.730 174.175   7
  -8   8  17-118.483 96.0696   4
   8  -8 -17-394.806 252.525   6
  -8  -8  18 2848.93 389.051   5
   8  -8 -18 1297.00 333.898   7
   8  -8 -18 2015.62 388.172   6
  -8   8  18 1992.89 304.148   4
  -8   8  18 2360.87 333.824   1
  -8  -8  19 25.2565 219.045   5
   8  -8 -19 18.9761 158.093   7
  -8   8  19 92.3117 97.8189   4
  -8   8  19-224.587 145.223   1
   8  -8 -19-154.732 218.951   6
  -8  -8  20 3629.06 460.875   5
  -8   8  20 2832.98 390.547   4
  -8   8  20 3111.72 415.870   1
   8  -8 -20 2357.98 468.769   6
   8   8 -21-26.9513 235.819   3
  -8  -8  21-192.689 197.391   5
   8  -8 -21 38.0605 162.584   7
  -8   8  21 10.7703 97.5258   4
  -8   8  21 206.067 148.059   1
   8  -8 -21-25.2175 223.216   6
  -8  -8  22 2039.17 339.835   5
  -8   8  22 2308.95 309.799   1
  -8   8  22 1442.88 267.285   4
   8   8 -22 2212.46 386.350   3
   8  -8 -22 1077.28 305.959   7
   8  -8 -22 1955.32 358.140   6
   8  -8 -23 136.217 166.266   7
  -8   8  23-183.356 104.353   4
  -8   8  23 128.967 160.764   1
   8  -8 -23 73.8748 203.160   6
   8  -8 -24 413.746 181.735   7
  -8   8  24 132.524 173.210   1
  -8   8  24 366.174 124.406   4
   8  -8 -24 368.043 210.319   6
   8  -8 -25-99.7858 177.506   7
  -8   8  25-110.252 114.915   4
  -8   8  25-214.073 173.138   1
   8  -8 -25-97.8620 210.357   6
   8  -8 -26 20.2432 172.921   7
  -8   8  26 200.308 175.255   1
  -8   8  26-114.273 121.041   4
   8  -8 -26 169.076 210.087   6
   8  -8 -27 61.6648 192.884   7
  -8   8  27-158.977 133.407   4
  -8   8  27-309.588 221.240   1
   8  -8 -27-314.048 231.396   6
   8  -8 -28 62.6896 184.024   7
  -8   8  28-191.700 193.960   1
  -8   8  28-55.0132 117.326   4
   8  -8 -28-23.8942 202.337   6
   8  -8 -29 96.1864 203.556   6
   8  -8 -29-21.2738 189.950   7
   0  -9   0-18.2649 47.6786   8
   0  -9   0 45.1369 82.0125   5
   0   9   0 118.947 122.646   2
   0  -9   0 6.17729 54.5180   7
   0  -9   0-19.0768 66.0138   6
   0   9   0-11.0604 47.9583   4
   0  -9   1 581.394 125.263   6
   0  -9  -1 829.688 133.034   6
   0   9   1 582.724 152.849   2
   0  -9  -1 599.412 139.860   5
   0  -9   1 500.457 131.266   5
   0   9  -1 575.154 160.013   2
   0  -9   1 747.492 114.535   8
   0   9  -1 692.294 109.371   4
   0  -9  -1 619.341 110.206   8
   0  -9   1 653.288 111.315   7
   0  -9  -1 712.746 112.463   7
   0   9   1 724.187 112.992   4
   0  -9  -2-31.2616 81.6378   6
   0   9   2 241.237 107.999   2
   0   9  -2-13.5103 112.198   3
   0   9  -2 16.3004 128.600   2
   0  -9  -2-82.3923 86.6568   5
   0  -9   2-55.8615 80.1934   5
   0  -9  -2 50.4219 48.0582   8
   0  -9   2 34.2560 56.9314   8
   0  -9   2-5.53842 51.9291   7
   0  -9  -2 25.7821 52.6910   7
   0   9   2 18.6740 56.5398   4
   0  -9  -3-43.4974 79.7027   6
   0   9  -3-14.0466 109.601   3
   0  -9  -3-46.8377 92.6990   5
   0  -9   3-101.704 86.5379   5
   0   9   3 19.8089 58.1102   4
   0  -9  -3 32.7906 47.9582   8
   0  -9  -3 33.2084 53.1423   7
   0  -9   3 65.7399 58.4445   8
   0   9  -3-68.3972 138.710   2
   0   9   3-113.296 105.198   2
   0  -9   4-62.6404 61.3099   6
   0  -9  -4 11.2826 80.7626   6
   0  -9   4-70.6404 66.2090   8
   0   9  -4-102.402 119.183   3
   0   9  -4-17.0484 41.3480   4
   0  -9  -4-11.9674 97.5439   5
   0  -9   4-33.4774 91.8895   5
   0   9  -4-125.281 136.626   2
   0   9   4-76.4739 63.6448   4
   0  -9  -4-6.85748 50.3130   7
   0   9   4-23.8878 95.0295   2
   0  -9   5 1010.52 139.421   6
   0  -9  -5 703.884 151.753   6
   0   9  -5 611.894 175.046   3
   0  -9  -5 940.789 163.125   5
   0  -9   5 913.260 154.286   5
   0   9  -5 744.869 123.648   4
   0   9  -5 616.037 201.358   2
   0  -9   5 801.869 127.336   7
   0  -9  -5 1097.52 138.076   7
   0  -9   5 887.624 139.375   8
   0   9   5 863.663 136.178   4
   0   9  -5 612.823 134.496   1
   0  -9  -6 12.1423 89.3789   6
   0   9  -6-3.68708 35.3594   4
   0  -9  -6 86.9771 102.169   5
   0   9  -6 15.9311 124.314   3
   0  -9   6-66.5601 82.9987   5
   0   9  -6-41.2395 59.0171   1
   0   9  -6-19.4270 129.989   2
   0  -9   6-114.100 79.0212   8
   0  -9  -6-7.35789 55.9379   7
   0   9   6 76.7902 71.5798   4
   0   9  -7 989.276 213.164   2
   0  -9  -7 1182.90 170.839   6
   0   9  -7 828.890 189.905   3
   0  -9   7 1004.23 161.205   8
   0  -9   7 729.851 167.049   5
   0  -9  -7 671.028 148.309   7
   0   9   7 1139.01 153.407   4
   0  -9  -8 25.9835 88.2190   6
   0   9  -8-189.083 128.584   3
   0   9   8-8.45389 76.5176   4
   0  -9   8-68.1906 87.6951   5
   0  -9   8 9.84883 80.4370   8
   0   9  -8 41.8872 146.967   2
   0  -9  -8 63.3588 67.6540   7
   0   9  -9 443.947 163.997   3
   0  -9   9 472.506 112.041   5
   0   9   9 568.092 109.052   4
   0  -9  -9 542.639 100.041   7
   0   9  -9 303.417 186.724   2
   0  -9   9 543.155 116.803   8
   0  -9  -9 214.888 121.764   6
   0  -9 -10 96.7095 106.602   6
   0   9 -10-18.1339 138.866   3
   0  -9  10-67.7558 91.2933   5
   0  -9 -10 76.8521 62.3238   7
   0  -9  10-44.2215 91.4927   8
   0   9  10-65.2425 80.8266   4
   0  -9 -11 213.110 115.088   6
   0  -9  11 452.716 110.292   5
   0  -9 -11 159.623 80.6082   7
   0   9  11 369.595 97.0447   4
   0   9 -11 390.512 154.239   3
   0  -9 -12 278.193 109.983   6
   0  -9 -12-46.0371 76.2283   7
   0   9 -12 19.0060 138.734   3
   0   9  12-51.0409 89.3376   4
   0  -9 -13 2146.55 313.250   6
   0   9 -13 1280.43 335.617   3
   0  -9  13 1885.01 296.266   5
   0  -9  13 2482.02 315.065   8
   0  -9 -13 1901.75 294.546   7
   0   9  13 2144.02 301.544   4
   0  -9 -14 15.3644 125.908   6
   0   9  14-78.2122 108.081   4
   0  -9  14 116.439 132.136   8
   0   9 -14 155.970 187.224   3
   0  -9  14-22.8657 107.643   5
   0  -9 -15 895.577 166.974   6
   0  -9  15 414.290 144.157   5
   0  -9  15 669.628 165.709   8
   0   9 -15 1008.52 215.104   3
   0   9  15 845.486 156.847   4
   0  -9  16 35.0803 98.9931   5
   0  -9  16-55.7990 123.492   8
   0  -9 -16 74.4987 88.6855   7
   0   9 -16 80.0664 137.253   3
   0   9  16-48.9898 110.575   4
   0   9 -17 101.050 170.504   3
   0  -9  17 71.3148 103.381   5
   0   9  17-76.4866 115.064   4
   9   0 -17-85.3777 161.165   6
   0  -9  19 476.264 153.069   8
   0  -9  20-137.404 116.951   5
   0   9 -20-20.4323 161.783   3
   0  -9  20-106.732 144.593   8
   0  -9  21 690.967 149.635   5
   0  -9  21 485.084 171.345   8
   0   9 -21 680.056 200.194   3
   0  -9  22-131.390 116.849   5
   0   9 -22-62.5337 153.833   3
   0  -9  22-16.0921 151.929   8
   0   9 -23-21.1174 144.264   3
   0  -9  23 132.756 154.410   8
   0  -9  23 53.8881 112.807   5
   0  -9  24-221.535 118.189   5
   0  -9  24-17.1585 149.155   8
   0   9 -24 42.6774 159.727   3
   0  -9  25 342.346 133.901   5
   0  -9  25 213.577 160.097   8
   0   9 -26-112.337 162.756   3
   0  -9  26-58.3088 117.663   5
   0  -9  27 897.701 210.673   8
   0  -9  27 607.421 155.691   5
   0   9 -28 120.103 178.428   3
   0  -9  28-333.398 185.282   8
   0  -9  28 15.3050 131.791   5
   0  -9  29 479.998 209.794   8
   0   9 -29 49.9686 189.388   3
   0  -9  30-275.070 187.178   8
   0  -9  31 22.5074 188.711   8
   1   9   0 1993.22 287.009   2
  -1   9   0 1872.68 284.484   3
  -1  -9   0 1334.91 279.434   5
   1  -9   0 1303.17 261.015   5
  -1  -9   0 1903.79 256.937   8
  -1   9   0 1846.66 254.293   4
  -1   9   0 1693.18 290.941   2
   1  -9   0 1917.61 259.379   7
   1  -9   0 1723.12 267.822   6
  -1  -9   0 2013.94 273.790   6
   1  -9   0 1920.51 259.058   8
   1   9  -1-122.736 122.800   2
  -1  -9   1-50.7602 77.5254   6
  -1   9   1 254.515 116.720   3
  -1  -9  -1 105.853 118.042   5
  -1  -9   1-42.7082 100.413   5
   1  -9   1 6.98099 59.9187   8
   1  -9   1 9.81362 79.1431   6
   1  -9  -1 62.2234 75.0763   5
   1  -9   1-73.6819 70.3490   5
   1  -9   1-25.3708 51.5728   7
   1   9   1-110.976 109.874   2
  -1   9   1 243.250 125.605   2
   1  -9  -1 279.527 65.2736   8
  -1   9  -1-95.0034 121.304   2
  -1   9  -1-79.9895 107.094   3
  -1  -9  -1-21.6297 82.2592   6
  -1  -9  -1-12.0966 49.3566   8
   1  -9  -1 127.122 64.1906   7
  -1   9  -1-25.0188 43.9208   4
  -1  -9   1-16.1098 46.5638   7
  -1  -9  -1 35.5389 49.6233   7
  -1   9   1 50.8413 51.9430   4
  -1  -9   1-6.31163 54.3588   8
   1   9   1 54.3940 60.4543   4
   1  -9  -1 138.917 89.0816   6
   1   9  -1 98.8011 57.6536   4
  -1  -9  -2 535.813 119.036   6
  -1   9   2 370.174 131.120   3
  -1  -9  -2 622.250 149.579   5
   1   9  -2 464.724 153.701   2
  -1  -9   2 284.317 141.367   5
  -1   9  -2 501.420 146.023   3
   1  -9  -2 366.112 109.259   5
  -1   9   2 648.486 140.515   2
   1  -9   2 356.497 104.356   5
   1  -9  -2 818.566 99.5617   8
   1  -9   2 559.869 107.751   8
  -1  -9  -2 471.469 95.3731   8
  -1   9  -2 452.491 117.123   1
  -1   9  -2 645.730 169.232   2
  -1   9  -2 443.270 92.4556   4
   1  -9   2 670.741 103.632   7
   1  -9  -2 544.906 104.242   7
   1  -9  -2 507.760 123.213   6
  -1  -9   2 700.927 96.7405   7
  -1  -9  -2 736.551 102.769   7
  -1   9   2 640.087 100.162   4
   1   9   2 678.911 138.480   2
  -1  -9   2 646.156 101.236   8
   1  -9   2 499.531 114.401   6
   1   9   2 485.416 104.583   4
  -1  -9   3 34.0391 52.5552   8
  -1  -9  -3 11.5308 81.2034   6
  -1   9   3-44.2426 101.991   3
  -1  -9  -3 79.7584 112.411   5
  -1   9   3 25.4725 98.8132   2
  -1  -9   3 166.111 102.398   5
   1  -9  -3-8.74948 70.2735   5
   1   9  -3 183.730 134.498   2
  -1   9  -3 158.162 75.9040   1
   1  -9   3 75.6368 56.2617   7
   1  -9   3 74.5189 74.4591   5
  -1   9  -3 145.251 118.677   3
   1  -9  -3 110.219 51.3261   8
   1   9   3 142.350 67.2966   4
  -1   9  -3 173.372 134.171   2
   1  -9  -3 50.0196 59.4559   7
  -1  -9  -3 32.3493 52.9598   7
  -1   9   3 88.0020 56.1132   4
   1  -9  -3 159.328 88.4165   6
   1  -9   3 82.5420 72.7411   8
  -1   9   4 166.546 98.2207   2
  -1   9   4 116.222 97.0202   3
  -1  -9  -4-11.8451 87.9970   6
  -1  -9  -4 114.079 128.624   5
  -1  -9   4-80.8771 102.123   5
   1  -9  -4-34.3229 69.2624   5
  -1  -9   4 42.2527 43.8445   7
  -1   9  -4 165.598 117.970   3
   1   9  -4 17.4248 128.312   2
   1  -9   4-37.9564 74.9723   5
   1  -9   4 123.480 78.6246   8
  -1  -9  -4 33.7718 52.6795   7
  -1   9  -4-36.2828 141.613   2
   1  -9  -4 80.1629 46.5225   8
   1  -9  -4 7.42566 63.3785   7
  -1   9   4 13.2505 56.5798   4
   1   9   4-31.4365 67.0618   4
   1  -9  -4 11.7179 93.1920   6
  -1  -9   4 28.7842 56.5142   8
   1   9  -5-45.1779 122.163   3
  -1  -9  -5 24.4689 92.2511   6
  -1  -9   5 13.5282 94.9339   5
  -1  -9   5 45.2333 63.4077   8
   1   9  -5-18.2360 122.013   2
  -1   9  -5-15.5544 124.016   3
   1  -9  -5-4.84575 42.6519   8
   1  -9   5 87.3913 86.4371   8
  -1  -9  -5-99.3154 127.242   5
  -1   9  -5 69.1949 36.8352   4
  -1  -9   5-39.3479 42.7996   7
   1  -9  -5 38.6247 60.5015   7
  -1  -9  -5 7.03921 54.5251   7
  -1   9   5-48.8176 61.3777   4
   1  -9   5 38.6211 75.3406   5
  -1   9   5-66.0024 85.5193   2
   1  -9   5-16.1433 71.4461   6
   1   9   5-65.8979 71.6511   4
   1  -9  -5 48.1114 91.7583   6
  -1  -9  -6 745.145 134.944   6
   1   9  -6 514.684 154.096   3
  -1  -9  -6 749.315 163.002   5
  -1  -9   6 608.742 147.698   5
  -1   9  -6 571.709 101.376   1
  -1  -9   6 537.098 109.133   8
  -1   9  -6 625.060 158.704   3
   1  -9  -6 648.965 133.111   6
   1  -9   6 804.628 120.656   5
   1   9  -6 531.286 180.234   2
   1  -9   6 617.741 114.402   6
   1  -9   6 613.160 127.177   8
  -1   9  -6 524.577 90.7372   4
   1  -9  -6 530.613 109.152   7
  -1  -9  -6 706.724 108.377   7
   1  -9   6 487.392 111.450   7
  -1   9   6 620.741 111.558   4
   1   9   6 483.593 113.096   4
   1  -9  -7 243.888 105.478   6
  -1   9  -7 98.8592 126.333   3
   1   9  -7 129.272 141.553   3
  -1  -9   7 129.954 101.676   5
  -1  -9   7 33.6351 71.1528   8
   1   9  -7 198.522 159.724   2
   1  -9   7 55.5875 92.0428   8
  -1   9   7 289.752 73.5565   4
   1  -9  -7 147.211 70.5977   7
   1  -9   7 124.062 78.7063   5
  -1  -9  -7 7.67944 63.9124   7
   1   9   7 171.694 81.5088   4
   1  -9  -8 500.974 130.144   6
  -1   9  -8 422.055 151.168   3
   1   9  -8 353.782 155.079   3
  -1  -9   8 563.989 131.171   5
   1  -9   8 602.470 113.381   5
   1  -9   8 546.639 135.399   8
  -1  -9   8 618.969 115.653   8
   1   9  -8 701.009 200.809   2
   1  -9  -8 474.418 107.170   7
  -1  -9  -8 633.162 110.064   7
  -1   9   8 614.102 111.825   4
   1   9   8 491.329 115.816   4
  -1  -9   9 46.5634 77.5601   8
   1   9  -9 122.671 144.341   3
  -1  -9   9 115.663 103.548   5
  -1   9  -9 204.780 139.641   3
   1  -9   9 88.9971 79.0420   5
   1  -9   9 48.9069 95.7957   8
   1   9  -9-42.7551 167.637   2
   1  -9  -9 26.9601 102.409   6
   1  -9  -9 43.0569 66.2658   7
  -1  -9  -9 25.1054 67.7497   7
  -1   9   9 108.107 73.9070   4
   1   9   9 59.1535 83.1075   4
   1   9  10-72.0625 87.4779   4
   1  -9 -10-41.3194 103.508   6
   1  -9  10 91.0112 109.754   8
   1   9 -10 127.658 150.480   3
  -1  -9  10 181.131 99.9008   5
   1  -9  10 40.2770 79.5179   5
   1  -9 -10-44.5429 72.8545   7
  -1  -9 -10 43.7010 68.3009   7
  -1   9 -10 87.0379 145.517   3
  -1   9  10 43.4608 76.1431   4
   1  -9 -11 155.786 103.350   6
   1   9 -11 245.862 152.256   3
  -1  -9  11 89.1977 106.529   5
   1  -9  11 164.392 85.1497   5
   1  -9 -11 154.539 80.6993   7
  -1  -9 -11 173.435 77.7208   7
  -1   9 -11 141.610 136.160   3
   1  -9  11 55.1450 118.209   8
  -1   9  11 209.152 90.4554   4
   1  -9 -12 1152.92 225.994   6
   1  -9  12 1425.77 212.167   5
   1   9 -12 1111.28 258.648   3
  -1  -9  12 1272.55 218.284   8
   1  -9 -12 1334.74 208.802   7
   1   9 -12 2109.82 294.011   2
  -1  -9  12 1259.64 221.889   5
  -1   9 -12 969.904 243.626   3
  -1   9  12 1399.28 209.647   4
   1  -9 -13 119.777 127.915   6
  -1  -9  13 290.062 112.538   8
   1   9 -13 400.812 178.416   3
  -1  -9  13 239.065 118.406   5
   1  -9  13 95.6509 87.6607   5
  -1   9 -13 109.071 137.681   3
   1   9 -13-96.0979 212.952   2
  -1   9  13 436.654 102.351   4
   1  -9 -13 242.932 93.8798   7
   1  -9  14 2124.64 287.085   5
   1   9 -14 986.006 335.096   3
  -1  -9  14 1495.73 296.054   5
  -1   9 -14 2059.23 319.657   3
   1  -9 -14 2626.96 305.664   6
   1  -9  14 1613.63 310.183   8
  -1   9  14 1762.72 288.340   4
   1   9 -14 1918.41 380.762   2
  -1  -9  14 2027.72 305.591   8
   1  -9 -15-126.082 118.399   6
   1  -9  15-99.4837 97.3183   5
   1   9 -15-41.5860 134.192   3
  -1   9 -15-18.5879 135.126   3
   1  -9  15-93.2669 126.985   8
  -1  -9  15 75.2465 111.985   5
   1  -9 -15 72.6129 83.6240   7
  -1  -9  15 59.9575 108.276   8
  -1   9  15 162.555 104.359   4
   1  -9 -16 613.300 149.424   6
   1  -9  16 362.397 115.884   5
   9  -1 -16 399.207 185.762   6
  -1  -9  16 416.151 133.919   8
   1   9 -16 423.890 187.951   3
  -1  -9  16 721.719 138.632   5
   1  -9  16 508.089 166.786   8
  -1   9 -16 282.545 157.598   3
   1   9 -16 588.025 242.601   2
   1  -9 -16 374.865 114.703   7
  -1   9  16 372.161 123.392   4
   1  -9 -17 66.1348 125.744   6
   1  -9  17 23.2233 95.2848   5
  -1  -9  17-12.5582 104.054   5
  -1   9 -17 18.9765 140.902   3
   1   9 -17-129.123 163.615   3
   9  -1 -17 37.4297 186.214   6
  -1   9  17 188.819 115.346   4
   1  -9 -18 148.151 99.1615   7
   9  -1 -18 315.190 189.350   6
   1   9 -19 80.4759 232.045   2
  -1  -9  19 323.003 130.681   8
   1  -9 -19-103.573 123.518   6
   1  -9 -19 35.2304 94.2239   7
   1  -9  19 51.1332 152.310   8
  -1   9  19-38.9098 124.145   4
   1  -9 -20 141.732 159.575   6
  -1  -9  20 425.685 141.452   5
   1  -9  20 612.962 173.644   8
  -1  -9  20 275.415 157.135   8
   1   9 -20 350.999 196.694   3
   1  -9  20 683.137 139.808   5
  -1   9 -20 116.980 151.229   3
   1   9 -20 435.795 275.088   2
   1  -9 -20 326.562 120.253   7
  -1   9  20 163.552 144.018   4
   1  -9  21-216.378 149.383   8
   1  -9  21-39.1098 104.528   5
   1   9 -21-152.318 158.963   3
  -1  -9  21 13.0407 103.094   5
  -1   9 -21-39.8110 142.984   3
  -1  -9  21 42.3228 126.116   8
   1  -9 -21-50.4691 110.279   7
   1   9 -21-110.640 227.512   2
  -1   9  21-56.8903 132.374   4
   1  -9  22 161.560 115.017   5
   1  -9  22 18.6110 164.283   8
  -1  -9  22 14.4761 130.936   8
   1   9 -22 65.9419 166.880   3
  -1   9 -22-101.962 148.139   3
   1   9 -22 56.2089 238.196   2
  -1  -9  22 171.508 118.465   5
   1  -9 -22-12.9768 109.889   7
  -1   9  22 429.554 140.741   4
  -1   9 -23 41.9174 145.195   3
  -1  -9  23 223.394 144.540   8
   1  -9  23 27.5576 123.164   5
   1  -9  23-353.501 180.076   8
  -1  -9  23 40.2122 115.726   5
   1   9 -23 331.200 166.607   3
   1   9 -23 28.5697 241.116   2
   1  -9 -23 53.3769 119.624   7
   1  -9  24 57.9250 174.236   8
  -1  -9  24 150.528 119.309   5
  -1  -9  24 199.618 139.523   8
   1  -9  24 42.3518 107.569   5
   1  -9 -24 237.098 127.857   7
  -1   9 -24-129.755 152.938   3
   1   9 -24 44.4986 167.550   3
   1   9 -24-116.300 244.831   2
  -1  -9  25 333.373 157.290   8
   1  -9  25 20.1008 192.468   8
  -1  -9  25 14.0127 121.038   5
   1  -9  25 58.0998 129.494   5
   1   9 -25 296.299 267.719   2
   1   9 -25-66.6006 168.483   3
  -1   9 -25 111.819 166.388   3
  -1   9 -26 324.987 185.963   3
   1   9 -26 157.856 175.643   3
  -1  -9  26 301.029 150.360   5
   1   9 -26 545.031 284.623   2
   1  -9  26 692.768 213.788   8
   1   9 -27-23.0126 168.671   3
  -1  -9  27 85.7139 172.433   8
  -1  -9  27-162.226 128.662   5
   1   9 -27 340.576 252.866   2
  -1   9 -27 24.0864 175.064   3
   1  -9  27 21.2522 206.060   8
   1  -9  28 1140.68 243.013   8
  -1  -9  28 452.686 189.682   8
  -1  -9  28 390.325 153.202   5
   1   9 -28 518.796 208.321   3
   1   9 -28 538.955 307.971   2
  -1  -9  29 336.984 162.518   5
   1   9 -29 390.340 300.241   2
   1  -9  29 472.559 255.486   8
  -1  -9  29 530.036 208.488   8
   1   9 -29 48.5480 182.848   3
   1  -9  30 24.1980 220.900   8
  -1  -9  30 78.5001 135.090   5
  -1  -9  30 19.2704 165.746   8
   2  -9   0 142.739 106.930   6
  -2  -9   0 147.115 134.157   5
  -2   9   0 157.347 108.062   3
  -2   9   0 211.864 86.6623   1
   2  -9   0 7.58493 65.6074   7
   2  -9   0 97.8450 72.3305   8
  -2   9   0 197.066 127.401   2
  -2   9   0 130.895 51.9315   4
   2  -9   0 162.515 64.2019   5
  -2  -9   0 141.789 51.8792   7
   2   9   0 58.5953 106.007   2
  -2   9  -1 4664.48 717.438   3
  -2   9   1 4373.51 708.677   1
  -2  -9  -1 5036.85 731.517   5
  -2  -9  -1 5120.12 699.806   7
   2  -9  -1 4427.83 701.097   5
   2  -9   1 4745.83 702.036   5
  -2  -9   1 5337.46 701.554   8
   2  -9   1 4647.30 703.326   7
  -2   9  -1 5613.00 699.346   4
  -2   9   1 5565.96 700.570   4
  -2  -9   1 5210.03 698.953   7
   2   9  -1 6034.61 724.920   2
   2  -9  -1 5393.71 716.934   6
  -2   9   1 5285.84 723.492   2
   2  -9  -1 5516.36 703.336   8
   2  -9   1 5260.87 706.596   8
  -2   9  -1 4845.11 706.346   1
   2  -9   2 23.6087 63.4365   7
  -2  -9  -2-116.535 136.926   5
  -2  -9   2 17.2407 124.255   5
  -2  -9   2-47.2201 52.4821   8
  -2   9   2 144.987 103.228   3
   2  -9   2-44.9942 76.1866   8
  -2   9  -2 45.1240 47.2491   4
   2  -9  -2-24.5658 55.3209   8
  -2   9   2-41.0551 121.833   2
   2  -9   2 44.7395 100.143   6
   2  -9   2 38.6534 61.2357   5
   2  -9  -2-60.7418 65.4850   7
   2  -9  -2-7.09453 55.3952   5
  -2   9   2 95.2873 51.9949   4
  -2   9  -2 167.676 113.752   3
  -2  -9   2 46.4415 45.4587   7
  -2  -9  -2 24.7081 50.1518   7
  -2   9   2-21.4986 85.7279   1
  -2   9  -2 16.3723 70.1721   1
   2  -9  -2 12.5532 93.5498   6
   2   9  -2 63.1904 119.132   2
  -2   9  -3 805.087 185.734   3
   2   9  -3 1037.98 196.262   2
  -2  -9   3 566.568 200.326   5
  -2   9   3 869.290 179.178   3
   2  -9  -3 908.407 152.666   5
  -2   9   3 1100.93 187.973   2
   2  -9   3 658.919 154.578   5
   2  -9   3 1279.72 173.626   8
   2  -9   3 1199.93 160.002   7
  -2   9  -3 1016.10 144.915   4
  -2   9   3 1115.09 151.956   4
   2  -9  -3 948.348 155.890   7
  -2  -9  -3 845.360 148.659   7
  -2  -9   3 1221.39 155.894   8
   2  -9   3 935.846 173.351   6
   2  -9  -3 809.610 182.007   6
   2  -9  -3 860.464 146.712   8
  -2   9  -3 1105.70 157.872   1
   2   9  -4 137.370 117.815   2
   2  -9   4 76.1906 89.4547   8
   2  -9   4 130.460 65.7257   5
  -2  -9   4 82.7438 128.289   5
  -2   9   4 132.570 108.589   2
   2  -9  -4 76.5492 49.3797   8
   2  -9   4 129.664 74.4224   7
   2  -9  -4 131.380 107.292   6
  -2   9  -4 47.1850 60.2615   1
  -2   9   4 110.846 56.2170   4
  -2  -9   4 70.0395 58.7133   8
   2  -9  -4 62.8064 67.3814   7
  -2   9  -4 147.350 116.890   3
   2  -9   5-8.39146 65.0086   5
   2   9  -5 106.455 132.197   2
  -2  -9   5-80.3007 125.779   5
  -2   9  -5 60.3404 104.899   3
   2  -9   5-58.5622 94.3740   8
  -2   9   5 47.6083 60.0426   4
   2  -9  -5-56.3776 64.2297   7
  -2  -9   5 14.4611 58.4730   8
  -2  -9   5 25.0255 39.3944   7
   2  -9  -5 80.4215 99.4692   6
  -2  -9   6 298.897 71.9459   8
  -2   9   6 268.835 106.395   3
  -2  -9   6 280.935 128.893   5
   2   9  -6 203.156 138.843   2
   2  -9  -6 111.811 62.2621   5
  -2   9  -6 431.115 126.821   3
   2  -9   6 213.551 110.019   8
  -2   9  -6 104.183 48.2263   4
   2  -9  -6 206.460 79.7401   7
  -2   9   6 361.205 75.4793   4
   2  -9   6 235.086 74.7463   5
   2  -9  -6 328.225 119.856   6
   2  -9   7-40.2255 104.438   8
  -2  -9   7 91.0421 118.626   5
   2   9  -7 133.910 154.242   2
  -2   9  -7 94.0581 115.522   3
   2  -9   7 125.201 75.9624   5
  -2   9  -7 182.758 49.1269   4
   2  -9  -7 313.270 76.2865   7
  -2   9   7 88.7832 68.7459   4
  -2  -9   7 109.937 65.6630   8
   2  -9  -7 151.544 101.513   6
  -2  -9   8 172.356 71.9049   8
   2  -9   8 64.2866 71.7015   5
  -2  -9   8-60.8195 102.957   5
  -2   9  -8 47.7640 114.922   3
   2  -9   8 271.210 133.870   8
   2   9  -8-159.624 155.253   2
  -2   9   8 7.72869 68.9217   4
   2  -9  -8 8.71302 65.7729   7
   2  -9  -8 28.0663 106.432   6
   2   9  -9-34.3484 142.375   3
  -2  -9   9 89.1213 113.616   5
  -2   9  -9 242.326 116.210   3
   2  -9   9-75.4482 73.5163   5
   2  -9   9 117.288 127.413   8
   2  -9  -9 89.7127 73.4952   7
  -2   9   9 88.7817 71.7169   4
   2  -9  -9 100.023 106.355   6
   2   9 -10 142.423 133.234   3
   2  -9 -10 18.4840 80.9253   7
  -2  -9  10 203.908 120.596   5
   2  -9  10 186.544 120.128   8
  -2   9 -10 229.329 128.216   3
  -2   9  10 218.906 78.1382   4
   2  -9  10 164.384 83.5947   5
   2  -9 -10 465.583 120.080   6
  -2   9  11 1308.65 246.442   4
   2  -9  11 1972.19 252.345   5
   2   9 -11 1613.97 289.004   3
   2  -9 -11 1776.02 254.442   7
   2   9 -11 2274.28 320.415   2
  -2  -9  11 1746.65 268.409   5
  -2  -9  11 1546.06 249.494   8
   2  -9  11 1671.08 283.802   8
  -2   9 -11 1547.99 274.134   3
   2  -9 -11 1597.33 269.963   6
   2   9 -12-57.8653 139.509   3
   2  -9 -12 151.049 123.376   6
  -2  -9  12 57.4213 123.135   5
  -2   9  12 200.816 86.8678   4
  -2  -9  12 88.8354 86.6396   8
   2  -9  12 130.245 130.991   8
   2   9 -12 91.8926 188.445   2
  -2   9 -12 151.271 128.442   3
   2  -9 -12 226.247 92.1784   7
   2  -9  12 112.229 81.5317   5
  -2   9 -13 2517.43 445.868   3
  -2  -9  13 3620.41 448.306   5
   2  -9  13 3015.63 427.372   5
   2   9 -13 1986.18 468.072   3
  -2  -9  13 3466.21 431.198   8
   2  -9 -13 3083.06 444.137   6
  -2   9  13 2888.07 427.049   4
   2   9 -13 2159.16 494.204   2
   2  -9 -14-109.733 131.012   6
  -2  -9  14-56.6854 122.624   5
  -2   9 -14-34.5019 114.754   3
  -2  -9  14-148.783 133.068   8
   2  -9  14 10.8467 89.5159   5
  -2   9  14-39.4103 90.2902   4
   2   9 -15 3362.49 511.711   3
  -2  -9  15 3663.60 483.974   5
   2  -9  15 3488.54 469.354   5
  -2  -9  15 4008.79 475.605   8
   2  -9 -15 3345.56 468.247   7
  -2   9 -15 2429.79 485.457   3
   2  -9 -15 3346.88 487.134   6
   2   9 -15 4174.62 535.076   2
   9  -2 -15 2514.14 499.031   6
   2  -9  15 2145.85 489.993   8
   2  -9 -16 130.556 139.680   6
   2   9 -16 230.275 220.612   2
  -2   9  16 74.9539 101.610   4
   2   9 -16-43.9845 169.986   3
  -2  -9  16-13.9134 122.316   5
  -2  -9  16 171.188 107.015   8
  -2   9 -16 36.0137 141.620   3
   9  -2 -16 79.5965 177.520   6
   2  -9  16 335.711 93.9926   5
   2   9 -17 223.237 191.661   3
  -2  -9  17 526.335 141.910   5
   9  -2 -17 349.683 199.955   6
   2  -9  18 58.4706 172.626   8
   2  -9 -18 23.5263 98.5117   7
   9  -2 -18 127.202 184.509   6
   2  -9 -19-209.787 146.164   6
   2  -9  19-25.3747 102.671   5
   2  -9  19-120.409 180.199   8
   2   9 -19-27.0586 220.292   2
  -2   9 -19-19.2265 139.811   3
   2  -9 -19-36.2894 101.512   7
  -2  -9  19-50.0720 115.840   8
   9  -2 -19 21.9006 191.666   6
  -2   9  19 97.2635 115.129   4
  -2  -9  20 287.196 136.230   5
   2  -9  20 310.592 217.213   8
   2  -9  20 260.217 129.499   5
   2   9 -20 1136.53 258.953   3
  -2  -9  20 179.411 142.143   8
   2   9 -20 962.854 309.566   2
   9  -2 -20 555.574 257.931   6
  -2   9 -20-79.1010 137.811   3
   2  -9 -20 643.274 171.247   6
   2  -9 -20 198.967 126.439   7
  -2   9  20 25.4067 137.088   4
   2  -9 -21-91.3194 137.711   6
   2  -9  21-20.7088 179.054   8
  -2   9  21 13.2932 121.626   4
   2   9 -21 46.8926 178.861   3
  -2  -9  21 13.1295 115.544   8
   2  -9  21-80.3094 112.213   5
   2   9 -21 251.618 251.656   2
  -2   9 -21-163.289 130.989   3
  -2  -9  21 204.768 120.135   5
   2  -9 -21-50.9106 107.042   7
  -2   9 -22 63.2861 141.845   3
   2  -9 -22-205.055 150.186   6
  -2  -9  22-107.724 132.102   8
   2  -9  22-21.4682 203.639   8
  -2  -9  22-82.5496 112.740   5
   2  -9  22 55.4290 107.724   5
  -2   9  22 69.6461 124.687   4
   2  -9 -22 169.992 119.318   7
   2   9 -22 56.8231 233.588   2
   2   9 -22-69.8155 183.571   3
   2  -9 -23 38.0133 150.128   6
  -2  -9  23 13.7768 123.911   5
   2   9 -23-210.735 190.101   3
   2  -9 -23 255.295 124.161   7
   2  -9  23 111.572 194.814   8
   2   9 -23 231.019 256.437   2
  -2   9 -23-87.5169 166.444   3
  -2  -9  23 14.1510 122.599   8
  -2   9  23 131.601 144.326   4
   2  -9 -24-38.7171 153.259   6
   2   9 -24 323.008 250.835   2
  -2  -9  24 13.8835 116.770   5
   2  -9  24-255.745 206.957   8
  -2  -9  24 28.4815 122.398   8
   2   9 -24-23.5591 181.788   3
   2  -9 -24-96.6168 124.933   7
  -2   9 -24 158.676 159.073   3
  -2   9  24 138.361 150.827   4
  -2  -9  25 807.774 171.355   8
   2  -9  25 563.875 242.501   8
   2   9 -25 769.782 223.735   3
  -2  -9  25 632.836 163.902   5
   2  -9 -25 848.660 184.790   7
   2   9 -25 508.224 284.441   2
  -2   9  25 578.109 201.588   4
  -2   9  26 16.7373 166.618   4
   2  -9  26 295.569 221.204   8
  -2  -9  26-75.9918 141.437   8
  -2  -9  26-14.2711 122.100   5
   2   9 -26 70.4105 180.546   3
   2  -9 -26 203.544 140.461   7
   2   9 -26-30.4679 244.717   2
  -2  -9  27 1473.18 218.186   5
   2   9 -27 497.297 251.291   3
   2   9 -27 528.400 310.874   2
   2  -9 -27 1301.01 229.819   7
  -2  -9  27 1214.78 230.603   8
   2   9 -28-317.833 281.341   2
  -2  -9  28 65.7369 165.716   8
  -2  -9  28 59.4594 130.120   5
   2  -9 -28 46.1943 146.843   7
   2   9 -28 71.8659 176.352   3
  -2  -9  29 876.791 204.713   8
  -2  -9  29 501.640 163.015   5
   2   9 -29 483.549 225.689   3
  -3   9   0 11395.0 1603.71   3
   3  -9   0 11056.7 1591.76   5
   3  -9   0 12103.9 1598.63   8
  -3   9   0 11678.9 1590.86   4
   3  -9   0 12325.5 1599.30   7
  -3   9   0 12391.6 1598.18   1
   3  -9   1-9.75856 77.5466   7
   3  -9  -1 24.7914 73.9918   8
  -3   9   1-11.8751 90.9524   3
  -3  -9   1 104.551 149.385   5
   3  -9   1-27.9659 51.6941   5
  -3   9  -1-37.9910 96.2468   3
   3  -9  -1-25.5507 51.1339   5
  -3   9   1 29.7155 81.4533   1
   3  -9   1-73.9848 92.7569   8
  -3   9  -1-11.5531 49.3715   4
  -3   9   1 6.09211 52.5421   4
   3  -9  -1 46.1676 75.9325   7
   3  -9  -1-127.260 122.269   6
  -3   9  -1-25.3515 72.6449   1
   3  -9   1-27.0487 115.537   6
  -3   9   2 6775.64 887.109   3
  -3   9  -2 6258.72 888.406   3
   3  -9  -2 6384.53 873.037   5
   3  -9   2 6013.48 874.262   5
   3  -9  -2 6331.59 876.045   8
   3  -9   2 6073.04 885.413   8
  -3   9  -2 6353.00 871.806   4
   3  -9   2 6913.76 883.487   7
  -3   9   2 6102.71 873.298   4
   3  -9  -2 6661.94 880.357   7
   3   9  -2 7819.20 899.177   2
   3  -9   2 6711.19 890.098   6
   3  -9  -2 5790.85 892.068   6
  -3   9  -2 6596.29 877.622   1
   3  -9   3 386.022 100.143   7
  -3  -9   3 381.399 151.747   5
  -3   9   3 192.563 101.976   1
  -3  -9   3 158.410 71.0540   8
  -3   9   3 381.729 77.8866   4
   3  -9   3 244.183 120.285   8
   3  -9  -3 427.504 79.8591   8
   3  -9   3 273.001 76.7245   5
   3  -9  -3 259.329 90.2616   7
  -3   9  -3 171.221 73.4274   1
   3  -9  -3 242.821 63.9522   5
  -3   9  -3 348.970 107.437   3
  -3   9   3 478.752 126.180   2
   3  -9   3 532.635 122.133   6
   3  -9  -3 264.893 121.890   6
   3   9  -3 113.654 109.555   2
  -3   9   3 165.784 95.3502   3
  -3  -9   4 623.888 214.505   5
   3  -9  -4 1188.10 160.539   8
   3  -9   4 720.461 194.565   8
   3  -9   4 879.615 163.927   5
  -3   9   4 972.512 186.074   1
   3  -9  -4 1146.03 171.948   7
  -3   9  -4 905.680 185.898   3
  -3   9   4 975.849 189.271   2
  -3   9   4 831.934 157.585   4
  -3   9  -4 1397.32 164.432   1
  -3  -9   4 1132.86 162.718   8
   3  -9   4 1374.53 202.563   6
   3  -9  -4 898.397 195.461   6
   3   9  -4 1237.08 210.138   2
   3  -9   4 1027.41 181.532   7
  -3  -9   5 302.440 152.651   5
  -3   9   5-12.5137 108.885   1
  -3   9  -5-56.7845 94.8707   3
  -3  -9   5 192.434 63.7128   8
   3  -9   5 281.476 127.851   8
   3  -9   5 106.108 62.8423   5
   3  -9   5 70.2577 106.850   6
   3  -9  -5 295.230 85.2840   7
  -3   9   5 185.243 65.3075   4
   3  -9  -5 482.183 135.721   6
  -3   9  -5 145.683 56.6736   1
   3   9  -5-34.6699 120.642   2
   3   9  -6 144.400 136.702   2
  -3   9   6 182.013 114.471   1
  -3  -9   6 36.6295 126.220   5
  -3   9   6 86.7221 85.2799   3
  -3   9   6 148.819 63.3212   4
   3  -9   6 50.9183 67.9288   5
  -3  -9   6 60.3940 61.1311   8
   3  -9  -6 214.125 120.897   6
   3  -9   6 30.6538 125.414   8
  -3   9  -6 100.795 95.7517   3
   3  -9  -6 90.3632 78.2522   7
   3  -9   6 55.5105 105.309   6
   3   9  -7-111.741 142.073   2
  -3  -9   7-124.328 132.331   5
   3  -9   7 113.949 133.839   8
  -3   9  -7-43.9026 109.911   3
   3  -9  -7 45.7780 75.5299   7
  -3   9   7 73.3800 66.9664   4
   3  -9   7-26.4222 68.2213   5
  -3  -9   7 23.1057 61.8459   8
   3  -9  -7-62.0687 118.832   6
  -3   9   7 13.4908 100.922   1
  -3  -9   8 224.589 138.171   5
   3  -9   8 117.274 147.971   8
  -3   9  -8 347.332 117.704   3
   3  -9  -8 297.042 87.7016   7
  -3   9   8 182.618 76.0879   4
   3  -9   8 128.166 80.0916   5
  -3  -9   8 205.909 75.3158   8
   3  -9  -8 220.100 131.426   6
   3  -9   9-19.0535 75.1692   5
   3  -9  -9 109.998 123.967   6
  -3  -9   9 34.5270 132.212   5
  -3   9   9-86.9399 70.7713   4
   3  -9   9 106.221 135.062   8
  -3   9  -9 30.7296 109.775   3
   3  -9  -9-28.3995 79.8845   7
   3  -9  10 1925.18 257.588   5
  -3  -9  10 2000.32 290.222   5
   3   9 -10 1656.64 304.827   2
  -3  -9  10 1793.06 252.870   8
   3  -9 -10 1594.54 257.364   7
  -3   9  10 1539.79 252.187   4
  -3   9 -10 1470.02 275.150   3
   3  -9  10 1653.75 297.544   8
   3  -9 -10 1782.57 281.322   6
   3   9 -11 91.0316 158.883   3
  -3  -9  11-81.9990 126.140   5
   3   9 -11-192.785 173.226   2
   3  -9  11 92.1568 86.7690   5
   3  -9 -11 69.3647 81.5869   7
  -3   9 -11-127.697 119.958   3
  -3  -9  11 52.7085 74.2421   8
  -3   9  11 25.4470 73.2506   4
   3  -9  11 372.956 164.162   8
   3  -9 -11-32.2217 126.243   6
   3   9 -12 5226.79 708.559   3
  -3   9 -12 4689.07 693.052   3
  -3  -9  12 4827.73 678.156   8
  -3  -9  12 4367.49 696.061   5
   3  -9  12 5505.28 682.858   5
  -3   9  12 4985.35 676.543   4
   3  -9 -12 4706.32 680.013   7
   3  -9 -12 4767.65 697.070   6
   3   9 -12 5094.51 712.768   2
   3  -9  12 4568.72 706.453   8
   3   9 -13 117.675 188.652   3
  -3  -9  13 373.487 112.431   8
  -3  -9  13-145.436 162.903   5
   3   9 -13-68.3129 213.572   2
  -3   9  13-9.23057 94.0928   4
   3  -9  13 22.0790 99.1463   5
   3  -9  13-80.5220 191.262   8
  -3   9 -13-16.8418 128.941   3
   3  -9 -13 429.874 168.845   6
   3   9 -14 5487.51 858.085   3
  -3   9 -14 5357.54 848.166   3
  -3  -9  14 6017.62 847.711   5
   3  -9  14 6096.39 836.059   5
  -3   9  14 6086.73 831.868   4
   9  -3 -14 6120.67 863.292   6
   3  -9 -14 6531.85 849.734   6
   3   9 -14 5905.15 872.753   2
  -3  -9  14 6301.39 833.273   8
   3   9 -15 212.607 177.797   3
  -3  -9  15 15.8961 134.280   5
   3   9 -15-72.8769 195.831   2
  -3  -9  15 61.9122 89.2088   8
   3  -9  15 141.148 99.1536   5
  -3   9 -15-53.3287 127.168   3
  -3   9  15-19.9832 86.6557   4
   9  -3 -15-104.186 175.925   6
   3  -9 -15 120.157 101.232   7
   3  -9 -15 117.384 133.869   6
   3   9 -16 3220.86 495.288   3
  -3   9 -16 2933.48 474.485   3
  -3  -9  16 3734.04 476.443   5
   3  -9  16 3471.17 459.308   5
  -3   9  16 3047.48 456.560   4
   3   9 -16 3508.91 517.529   2
  -3  -9  16 3109.44 456.163   8
   3  -9 -16 2662.18 469.070   6
   9  -3 -16 3186.04 496.945   6
   3   9 -17 114.121 195.410   3
  -3  -9  17 31.2408 132.026   5
   9  -3 -17 269.268 215.358   6
   3  -9  18 205.326 203.706   8
   9  -3 -18 366.741 220.080   6
   3  -9 -18 271.452 125.329   7
  -9   3  18 784.343 129.066   1
  -9   3  19-76.4358 98.1725   1
   3  -9 -19-71.4227 144.147   6
  -3  -9  19 23.6521 110.869   8
   3   9 -19 53.2848 235.986   2
  -3   9 -19-121.621 148.227   3
   3  -9 -19-60.5415 103.200   7
   3  -9  19-259.853 218.053   8
   9  -3 -19-208.939 230.568   6
  -3   9  19-58.1004 103.255   4
  -3   9  20-206.101 121.307   4
   3  -9 -20-18.2384 143.728   6
  -9   3  20 33.6801 94.3956   1
  -3  -9  20-73.4097 138.965   5
   3   9 -20-73.2584 223.067   3
  -9   3  20-26.1220 84.8659   4
   3   9 -20-409.256 274.017   2
   3  -9 -20-136.651 118.591   7
  -3   9 -20-83.8641 157.180   3
   9  -3 -20-117.333 203.771   6
   3  -9  20-24.5084 222.673   8
  -3  -9  20-84.9095 121.099   8
   3  -9 -21 37.2274 146.882   6
   3   9 -21-147.556 200.888   3
  -3  -9  21-24.8804 105.359   8
   3  -9  21 25.4818 222.980   8
  -3  -9  21-73.4903 124.843   5
  -9   3  21 62.4707 84.1152   4
   3  -9 -21 12.7431 107.583   7
   3   9 -21 27.7753 239.465   2
   9  -3 -21 281.089 217.762   6
  -3   9  21 126.867 114.583   4
   3   9 -22 149.460 204.860   3
   3  -9 -22 57.0263 148.944   6
   3   9 -22 84.7540 243.585   2
  -3  -9  22-29.0065 133.141   5
  -3   9  22 185.399 125.401   4
  -3  -9  22-168.853 117.985   8
   3  -9 -22 130.727 119.389   7
  -3  -9  23 146.750 126.023   8
   3   9 -23 74.5823 193.950   3
   3  -9 -23 13.4102 125.389   7
   3   9 -23 86.2109 259.185   2
  -3   9  23 262.857 133.850   4
   3  -9 -23 194.141 155.642   6
  -3  -9  23 58.2332 125.801   5
   3  -9 -24 613.911 197.330   6
   3   9 -24 292.303 253.665   2
  -3   9  24 839.822 176.725   4
  -3  -9  24 1001.99 175.671   8
  -3  -9  24 985.812 174.466   5
   3   9 -24 250.463 222.952   3
   3  -9 -24 495.501 166.095   7
   3  -9 -25 20.2006 157.080   6
  -3  -9  25-28.2928 132.559   8
  -3  -9  25 14.5668 123.720   5
   3   9 -25 24.7645 190.399   3
   3  -9 -25 98.8914 149.197   7
   3   9 -25-178.399 254.009   2
  -3   9  25 121.372 148.884   4
   3  -9 -26 637.735 253.861   6
  -3  -9  26 1249.38 229.223   5
   3  -9 -26 1179.26 241.726   7
   3   9 -26 1044.99 279.901   3
   3   9 -26 878.016 318.179   2
  -3   9  26 1114.89 254.088   4
   3  -9 -27 83.2393 169.033   6
  -3  -9  27-121.058 136.488   8
   3   9 -27-400.983 206.909   3
   3   9 -27 30.8552 261.274   2
   3  -9 -27 14.9648 130.067   7
  -3  -9  27-117.294 131.532   5
  -3   9  27 33.4988 149.346   4
  -3  -9  28 1437.29 247.567   8
   3  -9 -28 1539.40 248.126   7
   3   9 -28 1235.69 284.513   3
   3   9 -28 472.310 329.981   2
  -3  -9  28 1185.80 232.549   5
  -3   9  28 1224.27 249.820   4
  -3   9  29-565.230 195.664   4
   3  -9 -29-238.287 164.221   7
   3  -9 -30 540.656 182.408   7
   3  -9 -31-16.9276 149.841   7
   4  -9   0 1085.98 178.625   7
  -4   9   0 1178.10 166.261   1
   4  -9   0 1107.06 184.279   8
   4  -9   0 1187.72 207.650   6
  -4   9   0 1060.97 173.970   3
   4  -9   0 775.937 152.664   5
  -4   9   1 11662.6 1488.28   3
  -4   9  -1 11059.8 1489.31   3
   4  -9  -1 10434.1 1477.56   5
   4  -9   1 10940.0 1479.28   5
   4  -9   1 10667.2 1494.18   8
   4  -9   1 10769.9 1490.43   7
   4  -9  -1 10821.3 1488.86   7
   4  -9   1 10139.7 1495.83   6
   4  -9  -1 11205.4 1501.18   6
  -4   9  -1 11275.5 1482.58   1
  -4   9   1 10977.8 1484.11   1
   4  -9  -1 11120.3 1488.88   8
  -4   9  -2 370.213 86.7070   1
  -4   9   2 370.446 83.9336   4
   4  -9   2 375.050 114.659   7
  -4   9  -2 453.001 110.458   3
   4  -9  -2 214.908 110.169   8
   4  -9  -2 426.396 110.237   7
   4  -9   2 280.677 135.895   8
   4  -9   2 447.310 85.2513   5
  -4   9   2 294.593 100.366   3
   4  -9  -2 521.201 159.813   6
   4  -9   2 373.341 146.548   6
  -4   9   2 410.178 105.016   1
   4  -9  -2 442.478 78.2790   5
  -4   9   3 4602.77 530.608   3
  -4   9  -3 3800.37 532.068   3
   4  -9  -3 3848.29 515.643   5
   4  -9   3 3501.98 520.412   5
   4  -9  -3 3581.20 524.073   8
   4  -9   3 3591.69 544.244   8
   4  -9   3 3694.44 540.960   6
   4  -9   3 3386.33 531.746   7
  -4   9   3 3351.55 517.614   4
   4  -9  -3 3588.05 529.190   7
   4  -9  -3 4327.05 550.838   6
  -4   9  -3 4123.06 520.345   1
  -4   9   3 3792.45 528.384   1
  -4   9  -4 2544.62 299.389   3
   4  -9  -4 1949.79 279.165   8
  -4  -9   4 2169.32 334.222   5
   4  -9   4 1452.78 276.884   5
   4  -9  -4 1484.21 286.405   7
  -4   9   4 2298.45 279.285   4
  -4   9   4 2040.10 290.680   1
   4  -9   4 2379.80 325.157   8
   4  -9   4 1349.62 300.314   6
   4  -9  -4 2399.28 324.697   6
  -4  -9   5 381.095 176.332   5
  -4   9  -5 369.005 113.581   3
   4  -9   5 266.110 79.8360   5
   4  -9   5 71.6932 157.413   8
  -4   9   5 179.631 106.480   1
   4  -9  -5 252.388 96.2510   7
   4  -9   5 355.319 131.142   6
   4   9  -5 364.828 131.938   2
   4  -9  -5 136.670 139.590   6
  -4   9   5 236.528 77.3196   4
   4  -9   6 206.254 91.1940   5
  -4  -9   6 391.845 157.323   5
   4   9  -6 622.104 146.540   2
   4  -9   6 853.212 175.634   8
  -4   9  -6 309.937 118.101   3
  -4  -9   6 292.268 88.3402   8
   4  -9  -6 383.591 108.213   7
  -4   9   6 558.323 93.8136   4
   4  -9   6 579.768 133.875   6
   4  -9  -6 276.807 151.756   6
  -4   9   6 263.862 114.868   1
  -4   9   7 52.7708 108.196   1
  -4  -9   7-40.0915 151.467   5
   4  -9  -7 20.7583 85.9030   7
  -4   9  -7 87.5221 100.966   3
   4  -9   7 83.6020 70.4592   5
  -4  -9   7 39.9878 66.9198   8
  -4   9   7 67.7738 69.6029   4
   4  -9   7 71.2288 107.020   6
   4  -9  -7 69.9609 140.772   6
  -4   9  -8 391.368 125.596   3
   4  -9  -8 437.847 110.900   7
  -4  -9   8 19.9674 168.181   5
   4  -9   8 358.562 99.0693   5
  -4   9   8 477.936 94.6811   4
   4  -9   8 424.357 173.692   8
  -4   9   8 498.921 139.816   1
   4   9  -9 1258.82 223.046   2
  -4  -9   9 778.744 146.811   8
  -4  -9   9 737.715 201.171   5
   4  -9  -9 912.488 166.346   7
  -4   9   9 902.950 153.034   4
   4  -9   9 1061.85 160.372   5
   4  -9   9 1187.86 230.375   8
  -4   9  -9 996.804 184.842   3
  -4   9   9 813.128 177.987   1
   4  -9  -9 988.958 203.836   6
   4   9 -10 279.601 168.732   2
  -4  -9  10 18.9126 158.164   5
  -4   9  10 669.019 150.432   1
  -4  -9  10 456.863 98.3899   8
   4  -9 -10 549.607 116.022   7
   4  -9  10 292.383 107.677   5
   4  -9  10 322.375 187.674   8
  -4   9  10 399.883 95.4448   4
  -4   9 -10 273.751 125.077   3
   4  -9 -10 391.986 165.363   6
  -4   9 -11 3181.49 512.830   3
  -4  -9  11 3392.78 524.510   5
   4  -9  11 3934.74 503.301   5
  -4  -9  11 3831.18 499.468   8
   4  -9 -11 4477.04 531.579   6
  -4   9  11 2459.44 514.784   1
   4  -9 -11 3825.88 505.261   7
  -4   9  11 3756.23 497.412   4
   4  -9  11 2810.85 545.132   8
   4   9 -11 2639.50 530.417   2
   4   9 -12 830.575 246.874   2
  -4  -9  12 808.695 211.885   5
  -4  -9  12 541.961 151.848   8
   4  -9  12 1053.03 265.695   8
   4  -9  12 483.528 154.335   5
  -4   9 -12 551.229 182.461   3
  -4   9 -13 5390.66 839.198   3
  -4  -9  13 5827.39 847.435   5
  -4  -9  13 6620.50 826.354   8
   4  -9  13 5731.17 866.482   8
   4  -9  13 7091.82 834.349   5
  -4   9  13 5754.75 823.774   4
   9  -4 -13 5818.00 863.364   6
   4   9 -13 4883.22 850.591   2
   4  -9 -13 5716.56 846.882   6
   4   9 -14 600.558 192.709   3
  -4   9  14 301.866 163.877   1
   4   9 -14 453.858 198.165   2
  -4  -9  14 458.705 158.133   5
   4  -9 -14 315.692 110.834   7
  -4  -9  14 321.661 101.037   8
  -4   9  14 420.012 105.843   4
  -4   9 -14 240.158 122.426   3
   9  -4 -14 110.164 205.808   6
   4  -9  14 225.177 211.538   8
   4  -9 -14 327.429 161.255   6
   4   9 -15 4593.46 656.126   3
  -4   9 -15 4604.31 651.913   3
  -4  -9  15 4498.21 642.015   5
  -4   9  15 4464.59 624.892   4
  -4  -9  15 4331.63 623.387   8
   9  -4 -15 4345.46 672.726   6
   4   9 -15 4255.40 667.279   2
   4  -9 -15 4807.35 649.019   6
  -9   4  16 21.5176 91.3107   1
   4   9 -16 303.522 185.460   3
  -4  -9  16 52.2585 149.130   5
   9  -4 -16 93.6321 217.239   6
  -9   4  17 1944.83 233.265   1
   9  -4 -17 1959.96 324.953   6
  -9   4  18-80.1466 96.9849   1
   4   9 -18 151.411 209.704   2
  -4  -9  18 21.5198 96.9758   8
   4  -9 -18 61.0949 101.495   7
  -4   9  18 229.575 106.350   4
   9  -4 -18 391.246 225.682   6
   4  -9 -18-18.6954 155.468   6
  -4  -9  19 414.485 137.036   8
   4   9 -19 412.569 265.252   3
   4  -9 -19 325.029 134.391   7
  -4  -9  19 550.052 195.689   5
  -9   4  19 293.010 110.452   4
  -4   9  19 305.996 127.836   4
   9  -4 -19 49.0459 274.872   6
   4  -9 -19 453.169 185.797   6
   4  -9 -20 190.253 167.724   6
   4  -9 -20 179.112 118.559   7
  -4  -9  20 287.800 116.760   8
   4   9 -20 24.9892 218.260   3
   4   9 -20 396.559 226.481   2
  -4  -9  20 407.994 164.999   5
  -4   9  20 293.407 107.382   4
   4  -9 -21 57.7474 145.826   6
  -9   4  21 74.9764 105.588   1
   4   9 -21 50.8122 212.390   3
   4   9 -21-242.519 225.978   2
  -4  -9  21 32.3690 137.949   5
   9  -4 -21 23.0207 186.200   7
  -4  -9  21 94.6073 111.210   8
   4  -9 -21 26.1836 114.693   7
  -4   9  21 48.7874 113.227   4
   4  -9 -22 272.805 167.846   6
  -9   4  22 89.4575 114.087   1
   4   9 -22-27.4468 245.957   2
   4   9 -22 440.773 218.522   3
   9  -4 -22-92.7893 177.876   7
  -4  -9  22 234.519 111.051   8
  -9   4  22 171.596 102.614   4
  -4  -9  22 342.265 152.072   5
  -4   9  22 266.578 127.449   4
   9  -4 -22 315.278 225.459   6
   4  -9 -22 294.812 123.596   7
   4  -9 -23 357.504 167.437   6
  -9   4  23 265.097 106.266   4
  -4  -9  23 317.269 132.787   8
   4   9 -23 167.630 246.867   2
  -4  -9  23 310.572 137.860   5
   9  -4 -23 23.1107 178.989   7
   4  -9 -23 164.660 131.822   7
   4   9 -23 286.858 224.748   3
  -4   9  23 304.527 132.649   4
   9  -4 -23 215.736 217.338   6
  -4  -9  24 326.452 137.569   8
   4  -9 -24 303.440 195.813   6
  -4  -9  24 213.776 147.902   5
   4   9 -24 341.203 261.677   2
   4   9 -24 316.542 230.036   3
   4  -9 -24 182.667 135.658   7
  -4   9  24 401.668 139.536   4
   4  -9 -25 556.677 215.559   6
  -4  -9  25 1386.12 207.216   8
   4   9 -25 173.645 262.834   2
   4   9 -25 683.424 263.589   3
   4  -9 -25 748.864 198.099   7
  -4   9  25 997.732 204.830   4
  -4  -9  25 1496.62 210.869   5
   4  -9 -26 42.0263 161.386   6
   4   9 -26 117.816 233.498   2
  -4  -9  26 90.9015 132.738   5
  -4  -9  26 138.868 130.989   8
   4   9 -26 185.066 203.601   3
   4  -9 -26 29.5414 138.904   7
  -4   9  26 90.6343 141.670   4
   4  -9 -27 1449.85 291.741   6
   4   9 -27 690.081 331.737   2
  -4  -9  27 1774.40 269.214   5
   4   9 -27 835.455 292.580   3
   4  -9 -27 1333.89 263.550   7
  -4   9  27 1169.64 262.354   4
   4  -9 -28 130.003 184.773   6
  -4   9  28-161.858 310.599   1
   4  -9 -28 298.574 146.356   7
  -4   9  28 16.5604 158.833   4
   4  -9 -29 528.021 197.337   6
  -4   9  29 719.017 330.410   1
   4  -9 -29 662.669 178.515   7
  -4   9  29 451.880 183.794   4
   4  -9 -30-267.741 178.524   6
  -4   9  30 18.2716 171.160   4
  -4   9  30 254.326 330.639   1
   4  -9 -30 49.9529 133.237   7
  -4   9  31 77.5076 309.082   1
   4  -9 -31 259.883 163.314   7
  -4   9  31 171.658 180.257   4
   4  -9 -32 89.5556 147.262   7
   5  -9   0 5506.99 819.322   7
   5  -9   0 6163.49 829.663   6
  -5   9   0 5803.94 805.795   1
   5  -9   0 6229.95 828.188   8
   5  -9   1 1597.38 253.945   7
  -5   9   1 1496.60 230.808   1
   5  -9  -1 1285.77 249.700   7
   5  -9  -1 1633.17 264.463   8
  -5   9  -1 1639.23 229.006   1
   5  -9   1 1447.94 273.515   8
   5  -9   1 1382.72 268.295   6
   5  -9  -1 1695.45 274.427   6
   5  -9  -2 3427.09 479.231   8
   5  -9  -2 2802.02 478.192   7
   5  -9   2 3503.63 494.133   8
   5  -9   2 3208.85 484.389   6
   5  -9  -2 3383.86 496.633   6
  -5   9   2 3389.88 463.503   1
   5  -9  -3 3182.77 409.494   8
   5  -9   3 2580.51 430.924   8
   5  -9   3 2390.33 416.732   6
   5  -9  -3 2842.72 440.624   6
  -5   9   3 2792.11 399.620   1
   5  -9   4 482.218 181.772   8
   5  -9  -4 271.407 114.395   7
  -5   9   4 374.230 103.004   1
   5  -9   4 329.329 140.885   6
   5  -9  -4 448.949 165.474   6
   5  -9   5 2360.99 350.057   8
   5  -9  -5 2223.70 308.910   7
   5  -9   5 2071.01 312.555   6
   5  -9  -5 2456.06 345.321   6
  -5   9   5 1579.48 296.752   1
  -5   9   6 724.529 149.605   1
   5  -9   6 520.833 205.116   8
  -5   9   6 777.401 137.861   4
   5  -9   6 420.784 154.983   6
  -5   9   7 1368.08 232.744   1
   5  -9   7 2095.66 298.051   8
  -5   9   7 1485.37 219.411   4
   5  -9  -7 1183.98 230.571   7
   5  -9  -7 1660.52 275.295   6
  -5  -9   8-21.7280 157.357   5
  -5   9   8 23.9289 70.2395   4
   5  -9   8-163.764 178.566   8
   5  -9  -8 266.619 108.342   7
   5  -9  -8-118.297 157.305   6
   5   9  -8 18.7490 132.888   2
  -5   9   8 52.2337 114.069   1
  -5  -9   9 1215.89 254.701   5
   5  -9  -9 1180.90 208.709   7
  -5   9   9 1044.71 187.304   4
   5   9  -9 1371.16 242.094   2
  -5  -9   9 1315.35 191.627   8
   5  -9  -9 1484.71 256.779   6
  -5   9   9 1205.31 215.526   1
  -5  -9  10 636.820 194.084   5
  -5  -9  10 524.421 120.804   8
  -5   9  10 525.388 125.646   4
   5  -9 -10 782.605 157.902   7
  -5   9  10 574.761 171.492   1
   5   9 -10 912.486 184.585   2
  -5  -9  11 1387.52 280.937   5
  -5  -9  11 1744.91 224.690   8
   5  -9 -11 1374.50 244.341   7
  -5   9  11 1167.03 224.374   4
  -5   9  11 1811.40 274.898   1
   5  -9 -11 1964.34 311.847   6
   5   9 -11 913.824 272.162   2
  -5  -9  12 2982.24 397.451   8
  -5  -9  12 2912.71 436.962   5
   5  -9 -12 2431.56 433.235   6
   5   9 -12 2100.94 436.871   2
   9  -5 -12 3250.22 460.715   6
   5   9 -13 377.989 197.929   2
  -5  -9  13 731.137 197.081   5
  -5   9  13 781.579 135.463   4
  -5  -9  13 638.342 133.197   8
   9  -5 -13 750.360 244.390   6
   5  -9 -13 881.168 207.959   6
   5   9 -14 2512.40 408.636   2
   5  -9 -14 3242.76 403.168   6
  -5  -9  14 2002.78 393.443   5
  -5  -9  14 2772.22 355.598   8
  -5   9  14 2521.26 355.499   4
  -9   5  14 1946.37 356.043   1
   9  -5 -14 2231.32 422.235   6
  -9   5  15 581.554 136.786   1
  -5  -9  15 678.108 196.181   5
   9  -5 -15 590.558 206.250   7
   9  -5 -15 590.818 234.776   6
  -5   9  16 821.679 205.089   1
   5  -9 -16 564.016 163.572   7
  -5   9  17 270.594 160.976   1
   5  -9 -17 219.656 124.462   7
  -5   9  17 357.726 115.970   4
   5  -9 -17 383.208 172.358   6
   5   9 -18-218.530 218.920   2
   5  -9 -18-171.232 126.799   7
  -5  -9  18-52.6371 110.060   8
  -5   9  18-95.3655 106.607   4
  -5   9  18-20.2608 194.493   1
   5  -9 -18 20.0596 175.438   6
   5   9 -19 446.131 221.850   2
   5   9 -19-24.1156 229.595   3
  -9   5  19 418.365 120.352   1
  -5  -9  19 345.834 171.643   5
  -5  -9  19 358.150 113.620   8
   9  -5 -19 90.7431 188.796   7
   5  -9 -19 322.357 126.317   7
  -5   9  19 418.103 119.058   4
  -5   9  19 902.820 208.602   1
   5  -9 -19 302.838 175.359   6
  -5   9  20 108.851 197.601   1
   5   9 -20 25.4956 222.432   2
   5   9 -20 175.404 219.895   3
  -9   5  20 275.611 118.827   1
  -5  -9  20 213.094 164.658   5
   9  -5 -20-68.6914 173.349   7
   5  -9 -20-150.721 120.269   7
  -5   9  20-149.390 110.394   4
   9  -5 -20-51.0733 223.444   6
  -9   5  20 65.9610 92.7088   4
   5  -9 -20 142.390 167.820   6
  -5  -9  20-33.4868 101.075   8
  -5   9  21 361.443 213.176   1
   5   9 -21 233.965 239.791   2
   5   9 -21 414.378 231.316   3
  -9   5  21 362.907 136.856   1
  -5  -9  21 568.099 188.462   5
  -5   9  21 609.026 148.754   4
   5  -9 -21 237.666 145.053   7
   9  -5 -21 273.844 202.239   7
  -5  -9  21 976.147 148.115   8
  -9   5  21 751.996 127.775   4
   9  -5 -21 429.705 253.740   6
   5  -9 -21 656.526 206.365   6
   5   9 -22 105.969 209.106   2
  -5   9  22 46.9129 206.553   1
   5   9 -22-133.135 230.341   3
  -9   5  22-97.3495 120.472   1
  -5  -9  22-121.267 154.818   5
  -9   5  22-29.6336 88.2379   4
  -5  -9  22-118.657 108.816   8
   9  -5 -22-22.9895 178.870   7
   5  -9 -22 70.6035 127.671   7
  -5   9  22-123.745 114.063   4
   9  -5 -22 50.2030 225.444   6
   5  -9 -22-82.0788 166.053   6
   5  -9 -23 166.249 181.341   6
   5   9 -23 107.945 222.734   2
  -5   9  23 24.3811 213.186   1
  -5  -9  23 376.554 172.098   5
  -5  -9  23 561.525 128.120   8
   5   9 -23 162.163 232.390   3
  -9   5  23 227.402 135.778   1
   9  -5 -23 138.915 209.981   7
  -5   9  23 627.704 136.290   4
  -9   5  23 496.171 115.766   4
   5  -9 -23 201.907 142.512   7
   9  -5 -23 272.033 238.945   6
   5  -9 -24 41.9577 185.552   6
   9  -5 -24 434.340 214.762   7
  -5  -9  24 188.546 121.425   8
   5   9 -24 304.227 249.747   2
  -5   9  24 228.326 219.724   1
   5   9 -24 137.600 243.007   3
  -9   5  24 302.540 106.130   4
  -9   5  24 14.5200 129.554   1
   9  -5 -24 292.246 216.651   6
   5  -9 -24 148.930 136.789   7
  -5  -9  24 81.9264 155.871   5
  -5   9  24 333.750 135.247   4
   5  -9 -25 190.619 190.039   6
  -5   9  25 26.4371 242.675   1
   5   9 -25 281.486 241.329   2
  -5  -9  25 732.783 180.153   5
  -5  -9  25 738.268 153.506   8
  -5   9  25 890.530 170.700   4
   5  -9 -25 426.502 164.300   7
   5   9 -25 331.391 245.673   3
  -5   9  26 1269.54 282.785   1
   5  -9 -26 624.839 221.540   6
   5   9 -26 83.6193 253.647   3
  -5  -9  26 1095.80 176.894   8
   5   9 -26-143.302 272.894   2
  -5   9  26 784.157 185.733   4
   5  -9 -26 576.686 183.702   7
  -5  -9  26 797.097 189.460   5
   5  -9 -27 65.4799 178.539   6
   5  -9 -27 15.9618 142.434   7
  -5   9  27 151.082 153.629   4
  -5   9  27 57.7295 252.002   1
   5  -9 -28 799.414 242.521   6
   5  -9 -28 802.189 216.352   7
  -5   9  28 807.268 320.391   1
  -5   9  28 1276.88 227.866   4
   5  -9 -29 453.792 157.630   7
   5  -9 -29-157.801 185.032   6
  -5   9  29-31.4280 272.777   1
  -5   9  29 214.068 156.851   4
   5  -9 -30 91.6072 196.496   6
   5  -9 -30 244.525 156.875   7
  -5   9  30 198.933 282.492   1
  -5   9  30 156.005 159.133   4
   5  -9 -31 348.361 203.863   6
  -5   9  31 236.284 171.869   4
  -5   9  31-280.989 322.049   1
   5  -9 -31 323.954 168.529   7
   6  -9   0 1845.19 274.348   8
   6  -9   0 1076.48 261.471   6
  -6   9   1 712.104 136.740   1
   6  -9  -1 682.928 189.212   8
   6  -9  -1 733.775 168.035   7
   6  -9   1 833.066 208.838   8
   6  -9   1 927.259 192.075   6
   6  -9  -1 915.459 199.904   6
   6  -9  -2 2444.54 364.370   8
   6  -9   2 2662.40 379.054   8
   6  -9  -2 1843.55 352.171   7
  -6   9   2 2441.44 329.013   1
   6  -9   2 2246.01 359.068   6
   6  -9  -2 1795.93 366.965   6
   6  -9  -3-19.3388 152.007   6
  -6   9   3 19.5289 79.4953   1
   6  -9  -3-82.3882 136.377   7
   6  -9  -4 2668.95 417.017   7
  -6   9   4 2917.03 397.662   1
   6  -9  -4 2455.66 429.878   6
  -6   9   5 862.077 157.168   1
   6  -9  -5 685.993 184.768   7
   6  -9  -5 1091.77 226.056   6
   6  -9  -6 1982.22 325.431   7
   6  -9  -6 2541.21 365.848   6
  -6   9   6 1960.16 309.928   1
   6  -9  -7 1815.01 306.519   7
   6  -9  -7 2063.18 350.622   6
  -6   9   7 1931.84 292.329   1
   6  -9  -8 1235.48 226.777   7
  -6   9   8 1181.26 196.180   4
   6  -9  -8 985.824 268.789   6
  -6   9   8 1535.16 219.297   1
   6  -9  -9 1147.63 195.673   7
  -6   9   9 573.920 141.152   4
   6  -9  -9 1301.96 275.310   6
  -6   9   9 782.477 177.821   1
  -6   9  10 1773.87 251.921   1
  -6   9  10 1323.50 221.746   4
   6  -9 -10 1277.38 248.292   7
   6  -9 -10 1903.24 310.471   6
  -6  -9  11 22.7900 164.428   5
   9  -6 -11-23.5531 213.333   6
  -6   9  11 131.387 82.0332   4
   6  -9 -11-44.4858 195.345   6
   6   9 -11 20.0601 152.066   2
   6  -9 -11 14.0756 124.136   7
  -9   6  12 808.281 152.211   1
  -6  -9  12 572.389 220.851   5
   6   9 -12 914.812 210.765   2
  -6   9  12 1082.37 156.007   4
   9  -6 -12 389.663 233.442   6
   6  -9 -12 848.450 235.625   6
  -9   6  13 725.329 134.542   1
  -6  -9  13 224.106 204.594   5
  -6   9  13 648.792 130.061   4
  -6  -9  13 667.454 126.428   8
   9  -6 -13 628.047 198.843   7
   9  -6 -13 404.016 229.028   6
   6   9 -13 434.401 194.465   2
   6  -9 -13 599.444 217.682   6
  -6  -9  14 1601.62 303.852   5
   9  -6 -14 1561.41 336.989   6
   6  -9 -15 70.4011 124.164   7
  -6   9  15 233.787 153.860   1
  -6  -9  16 345.453 112.137   8
  -9   6  16 543.994 131.059   1
   9  -6 -16 292.157 202.591   7
   6  -9 -16 171.345 136.786   7
  -6   9  16 613.823 176.347   1
  -6   9  16 539.859 118.246   4
   6  -9 -16 485.131 198.545   6
  -9   6  17-89.8631 114.963   1
  -6  -9  17-62.5942 101.574   8
  -6   9  17-131.652 103.217   4
   9  -6 -17-89.9971 189.234   7
   6  -9 -17-171.753 138.286   7
   6  -9 -17-176.577 211.474   6
   6   9 -17-316.358 196.554   2
  -6   9  17 54.2483 166.585   1
   6   9 -18-69.7320 208.165   3
   6  -9 -18 261.596 153.166   7
  -6  -9  18 390.296 185.201   5
  -9   6  18 303.251 136.325   1
   9  -6 -18 224.693 190.172   7
  -9   6  18 424.969 108.471   4
  -6   9  18 708.738 176.872   1
   6  -9 -18 654.343 208.851   6
  -6   9  18 408.148 119.655   4
   6   9 -18 46.0243 199.215   2
   9  -6 -18 376.867 263.517   6
  -6  -9  18 639.219 124.877   8
   6   9 -19 385.334 223.167   3
  -6   9  19 453.431 129.560   4
  -6  -9  19 723.325 190.933   5
  -6  -9  19 448.992 123.803   8
   9  -6 -19 521.644 222.417   7
   6  -9 -19 354.377 151.472   7
  -6   9  19 628.014 200.784   1
   9  -6 -19 695.512 270.737   6
  -9   6  19 642.934 148.437   1
  -9   6  19 469.964 117.582   4
   6  -9 -19 524.651 187.419   6
   6   9 -19-23.6898 193.050   2
   6   9 -20 337.834 202.755   2
  -6  -9  20 694.825 140.590   8
   6   9 -20 351.124 238.419   3
  -6  -9  20 1117.50 209.232   5
   6  -9 -20 330.283 167.729   7
  -9   6  20 462.709 149.862   1
   9  -6 -20 291.611 200.007   7
  -9   6  20 773.377 133.774   4
  -6   9  20 638.324 141.119   4
  -6   9  20 486.405 202.051   1
   9  -6 -20 476.809 258.360   6
   6  -9 -20 788.927 215.471   6
  -9   6  21 488.083 160.760   1
   6   9 -21 260.790 251.030   3
  -6  -9  21 645.466 200.458   5
  -6  -9  21 576.486 144.463   8
  -6   9  21 879.653 226.899   1
   9  -6 -21 429.638 228.897   7
  -9   6  21 960.644 138.816   4
   6   9 -21 422.644 229.517   2
  -6   9  21 638.691 151.248   4
   9  -6 -21 600.727 263.235   6
   6  -9 -21 748.375 226.557   6
   6  -9 -21 452.655 162.041   7
   6   9 -22 177.237 219.308   2
   6   9 -22 242.758 244.975   3
  -9   6  22 387.466 156.564   1
  -6  -9  22 778.885 203.289   5
   9  -6 -22 478.481 228.768   7
  -6  -9  22 1004.29 147.888   8
   6  -9 -22 383.785 161.848   7
  -9   6  22 612.688 129.535   4
  -6   9  22 373.489 138.578   4
   9  -6 -22 466.232 246.136   6
  -6   9  22 584.865 214.855   1
   6  -9 -22 808.364 214.492   6
   6   9 -23-51.5503 221.411   2
   6  -9 -23 140.686 147.272   7
   6   9 -23 83.3893 237.235   3
  -6  -9  23-170.068 178.154   5
  -9   6  23-60.9593 131.530   1
  -6  -9  23 352.653 126.508   8
  -9   6  23 94.1875 106.441   4
  -6   9  23 250.077 119.654   4
   9  -6 -23 483.720 235.323   6
  -6   9  23 112.098 210.595   1
   9  -6 -23 45.0843 183.542   7
   6  -9 -23-21.9676 202.677   6
  -6  -9  24 438.437 132.259   8
   6   9 -24 79.5336 203.561   2
   6   9 -24 509.507 261.653   3
   9  -6 -24 318.012 202.269   7
  -6  -9  24 605.183 182.408   5
  -9   6  24 420.703 117.598   4
   6  -9 -24 191.119 152.037   7
  -9   6  24 498.760 150.900   1
   9  -6 -24 50.0466 229.266   6
  -6   9  24 169.112 127.275   4
  -6   9  24 348.386 207.750   1
   6  -9 -24 286.958 185.445   6
   6  -9 -25 401.447 194.364   6
   6   9 -25 26.9824 207.520   2
   9  -6 -25 183.225 197.774   7
   6   9 -25 115.266 239.257   3
  -6  -9  25 52.5070 149.368   5
   9  -6 -25 174.102 217.820   6
  -6  -9  25 90.3541 114.234   8
  -9   6  25 291.362 154.364   1
  -6   9  25 24.0928 205.438   1
   6  -9 -25 97.4667 137.965   7
  -6   9  25 121.061 136.658   4
  -9   6  25 178.576 113.898   4
   6  -9 -26 178.331 208.745   6
   6  -9 -26 298.328 163.472   7
  -6   9  26 446.793 141.015   4
   9  -6 -26 300.282 208.497   7
   9  -6 -26 831.107 236.847   6
  -6   9  26 450.573 241.091   1
   6  -9 -27 112.261 207.943   6
   6  -9 -27 355.601 176.136   7
  -6   9  27 711.019 165.329   4
  -6   9  27 260.491 251.876   1
   6  -9 -28 432.885 203.943   6
   6  -9 -28 17.3203 157.812   7
  -6   9  28-27.1622 227.278   1
  -6   9  28 228.029 151.369   4
   6  -9 -29-138.632 190.591   6
   6  -9 -29-53.8764 158.040   7
  -6   9  29 340.772 272.699   1
  -6   9  29 31.5975 144.934   4
   6  -9 -30 163.654 196.084   6
   6  -9 -30 202.678 165.801   7
  -6   9  30 178.692 275.228   1
  -6   9  30 477.730 165.829   4
   6  -9 -31 189.582 193.641   6
   6  -9 -31-227.247 170.577   7
  -6   9  31-17.1981 156.210   4
   7  -9  -1 1049.84 227.663   6
   7  -9  -2 117.054 154.139   6
  -7   9   3 1012.97 169.884   1
   7  -9  -3 1050.86 229.437   6
   7  -9  -4 1750.01 340.542   7
  -7   9   4 2119.31 306.281   1
   7  -9  -4 2378.90 360.559   6
  -7   9   5 1303.11 193.082   1
   7  -9  -5 792.204 226.133   7
   7  -9  -5 1199.55 267.421   6
   7  -9  -6 4073.33 638.930   7
   7  -9  -6 4950.30 666.512   6
  -7   9   6 4413.79 617.273   1
  -7   9   7 958.338 164.432   1
   7  -9  -7 771.734 207.954   7
   7  -9  -7 557.010 236.605   6
   7  -9  -8 3882.76 624.840   7
   7  -9  -8 4468.27 653.235   6
  -7   9   8 4527.90 608.815   1
  -7   9   9 568.990 136.645   1
   7  -9  -9 358.058 165.567   7
   7  -9  -9 651.706 230.819   6
   7  -9 -10 906.761 237.634   7
  -7   9  10 1348.54 230.576   1
   9  -7 -10 1558.15 306.526   6
   7  -9 -10 1392.04 296.094   6
  -9   7  10 1464.90 214.205   1
   7  -9 -11 912.176 254.492   6
  -7   9  11 912.884 156.812   4
   9  -7 -11 1042.29 271.420   6
   9  -7 -12 78.0912 227.319   6
  -7   9  13 624.861 161.393   1
  -9   7  14-73.6969 97.9361   1
   9  -7 -14-155.998 178.929   7
   7  -9 -14 48.9744 129.701   7
  -7   9  14 134.220 132.378   1
  -9   7  15 594.154 137.796   1
   9  -7 -15 245.345 201.644   7
   7  -9 -15 194.382 153.926   7
  -7   9  15 611.907 123.364   4
   9  -7 -15 887.586 269.090   6
   7  -9 -15 1208.59 248.245   6
  -7   9  15 483.797 164.493   1
  -7   9  16 261.622 161.509   1
   7  -9 -16 490.885 166.366   7
  -7  -9  16-142.327 223.706   5
  -9   7  16 275.521 138.114   1
  -7   9  16 237.521 107.099   4
   9  -7 -16 556.857 214.124   7
   7   9 -16 131.648 190.635   2
   9  -7 -16 279.866 275.246   6
   7  -9 -16 487.915 219.209   6
  -7   9  17 369.653 156.954   1
   9  -7 -17 89.9176 177.593   7
   7  -9 -17-81.3777 136.638   7
  -7  -9  17 285.586 207.580   5
  -9   7  17 231.614 129.894   1
  -9   7  17 404.741 103.983   4
  -7   9  17 212.594 104.016   4
   7   9 -17 156.074 179.322   2
   9  -7 -17 280.037 235.401   6
   7  -9 -17 292.006 197.246   6
  -9   7  18 684.958 167.356   1
  -7   9  18 725.517 189.714   1
  -7  -9  18 881.446 230.873   5
   7  -9 -18 696.801 231.948   6
   9  -7 -18 378.177 200.812   7
  -9   7  18 586.400 137.214   4
   7  -9 -18 724.623 185.721   7
  -7   9  18 446.673 136.739   4
   9  -7 -18 751.549 261.882   6
   7   9 -18 67.8458 193.139   2
  -7  -9  18 1052.44 143.556   8
   7   9 -19-99.1573 218.890   3
  -7   9  19 344.698 162.305   1
  -7  -9  19 383.907 191.734   5
  -7   9  19 394.113 105.854   4
  -7  -9  19 389.745 107.372   8
   9  -7 -19 67.2901 194.573   7
  -9   7  19 139.375 104.235   4
   7  -9 -19 133.368 155.049   7
   9  -7 -19 937.022 273.108   6
   7   9 -19-115.422 173.242   2
  -9   7  19 145.380 133.063   1
   7  -9 -19 407.407 220.123   6
  -7  -9  20 2423.97 297.141   8
   7   9 -20 2127.77 380.116   3
  -7  -9  20 3036.10 373.249   5
  -9  -7  20 3137.86 414.979   5
  -7   9  20 2146.71 329.929   1
   9  -7 -20 1530.99 376.736   6
   9  -7 -20 1021.45 345.371   7
  -9   7  20 1777.66 289.798   4
  -7   9  20 2295.82 295.920   4
   7  -9 -20 1630.15 318.498   7
  -9   7  20 1951.60 308.307   1
   7   9 -20 351.759 322.565   2
   7  -9 -20 1267.16 341.792   6
  -7  -9  21 904.637 146.166   8
   7   9 -21 238.976 251.179   3
  -7  -9  21 813.074 222.672   5
  -7   9  21 211.407 183.977   1
  -9   7  21 108.468 142.505   1
  -9   7  21 456.295 118.767   4
  -7   9  21 682.139 131.728   4
   9  -7 -21 752.949 254.188   6
   7   9 -21-119.954 193.666   2
   9  -7 -21 179.033 208.415   7
   7  -9 -21 754.285 231.297   6
   7  -9 -21 303.512 166.382   7
  -9   7  22 1193.93 200.050   4
   7   9 -22 661.371 300.461   3
   9  -7 -22 473.806 267.392   7
  -7  -9  22 1086.69 271.131   5
  -7   9  22 1356.18 269.720   1
  -9   7  22 1300.61 232.507   1
   7  -9 -22 1094.71 245.387   7
  -7   9  22 890.051 208.381   4
   9  -7 -22 1661.98 324.061   6
   7   9 -22 292.652 252.979   2
  -7  -9  22 1789.91 215.905   8
   7  -9 -22 1860.86 304.762   6
   7   9 -23 113.769 229.285   3
   7  -9 -23 260.359 159.718   7
  -7  -9  23 41.1333 165.837   5
  -7  -9  23 160.684 114.952   8
  -7   9  23 41.7426 180.013   1
   9  -7 -23-44.6628 180.475   7
  -9   7  23 303.971 114.858   4
  -7   9  23 12.1909 116.037   4
   9  -7 -23 183.053 234.990   6
   7   9 -23 49.9780 209.171   2
  -9   7  23 243.520 144.347   1
   7  -9 -23 377.235 205.499   6
   7   9 -24-146.475 258.026   3
  -7  -9  24 162.883 172.685   5
  -7   9  24 172.255 194.569   1
  -9   7  24 232.607 148.331   1
   7  -9 -24 17.6280 152.231   7
  -9   7  24 89.1370 111.823   4
  -7   9  24 189.498 120.726   4
   9  -7 -24 589.947 235.117   6
   9  -7 -24 112.580 189.483   7
   7   9 -24 76.2175 193.608   2
   7  -9 -24 259.610 213.614   6
  -7  -9  24 279.913 125.662   8
  -7  -9  25 445.550 128.695   8
  -7   9  25 266.864 191.112   1
  -9   7  25 103.617 160.350   1
   9  -7 -25 386.308 199.285   7
  -9   7  25 231.146 113.836   4
  -7   9  25 144.025 122.791   4
   7  -9 -25 125.440 166.187   7
   9  -7 -25-76.3975 229.247   6
   7  -9 -25 163.723 209.714   6
  -7   9  26-276.005 198.361   1
   7  -9 -26-72.9468 176.075   7
  -9   7  26-159.165 161.050   1
   9  -7 -26-91.7705 217.708   7
  -9   7  26 95.4444 110.481   4
  -7   9  26 81.5850 125.546   4
   9  -7 -26-74.9990 214.938   6
   7  -9 -26-257.812 212.216   6
   7  -9 -27-47.2250 203.073   6
  -7   9  27-47.6296 206.662   1
  -9   7  27-181.203 170.331   1
   7  -9 -27 204.296 157.850   7
   9  -7 -27 74.7019 216.072   6
  -9   7  27 61.9374 127.007   4
  -7   9  27 238.794 130.105   4
   9  -7 -27-92.7582 198.836   7
   7  -9 -28 47.0886 202.102   6
  -7   9  28 74.1585 207.592   1
   7  -9 -28-94.7285 159.298   7
  -7   9  28 262.094 141.034   4
   7  -9 -29-47.3366 198.595   6
  -7   9  29 205.511 219.491   1
   7  -9 -29 58.0447 173.635   7
  -7   9  29 241.965 149.779   4
   7  -9 -30 287.553 219.579   6
  -7   9  30 340.547 241.894   1
   7  -9 -30-79.1778 172.597   7
  -7   9  30 47.4834 137.796   4
   7  -9 -31 40.5635 182.139   7
   8  -9  -4 259.572 191.894   6
   8  -9  -5 4959.78 749.457   6
  -8   9   5 5181.09 711.541   1
  -8   9   6 127.742 87.5791   1
   8  -9  -6 203.549 156.611   7
   8  -9  -6 208.824 209.849   6
   8  -9  -7 5881.24 882.384   7
   8  -9  -7 5896.90 897.001   6
  -8   9   7 6483.80 859.622   1
  -8   9   8 182.649 96.3811   1
   8  -9  -8 20.2839 165.469   7
   8  -9  -8 24.9292 221.337   6
   8  -9  -9 4027.91 656.724   6
   9  -8  -9 4576.80 659.160   6
  -9   8  12 193.341 102.462   1
  -8   9  12 199.912 111.465   1
   9  -8 -12-22.2041 182.102   7
  -9   8  13 125.045 108.662   1
  -8   9  13 55.4970 114.891   1
   9  -8 -13 110.965 179.326   7
   8  -9 -13-174.599 167.794   7
  -8   9  13 143.343 88.7332   4
   9  -8 -13 254.449 256.256   6
   8  -9 -13 354.050 230.896   6
  -9   8  14-51.9078 114.228   1
   9  -8 -14-179.113 199.871   7
  -8   9  14 85.3321 135.264   1
  -8   9  14-9.68672 93.9537   4
   8  -9 -14-81.7013 236.186   6
   9  -8 -14 143.535 250.439   6
   8  -9 -14-38.3090 158.022   7
  -8   9  15 39.4336 101.114   4
  -8   9  15 73.8722 134.087   1
  -9   8  15 26.9605 116.902   1
   8  -9 -15-162.685 249.400   6
   9  -8 -15-267.820 205.829   7
   9  -8 -15 86.5893 255.464   6
   8  -9 -15 18.9285 168.012   7
  -8   9  16-122.982 145.431   1
  -9   8  16 193.673 119.176   1
   9  -8 -16 353.094 190.148   7
   8  -9 -16 76.2657 160.933   7
   9  -8 -16 694.391 263.466   6
  -8   9  16 291.341 102.284   4
   8  -9 -16 567.609 241.654   6
  -9   8  16 235.738 95.1031   4
   9  -8 -17 578.299 220.034   7
  -9   8  17 487.865 136.642   4
   8  -9 -17 528.265 200.186   7
  -8   9  17 778.160 142.233   4
  -9   8  17 921.081 172.539   1
  -8   9  17 693.715 165.074   1
   9  -8 -17 777.362 289.112   6
   8  -9 -17 484.369 248.387   6
  -8  -9  18 26.3333 215.797   5
  -9   8  18 206.558 128.352   1
   8  -9 -18 95.1450 167.476   7
  -9   8  18-70.9047 89.6860   4
  -8   9  18-10.4195 96.6283   4
  -8   9  18-49.2954 149.149   1
   9  -8 -18 28.5358 241.513   6
   8  -9 -18 106.092 212.220   6
   9  -8 -18 66.0271 185.697   7
  -8  -9  19 2841.61 367.334   5
  -9   8  19 2119.17 296.386   1
  -9   8  19 1806.67 266.259   4
   9  -8 -19 820.563 301.065   7
   8  -9 -19 1132.31 300.167   7
  -8   9  19 1607.27 268.601   4
  -8   9  19 2106.50 300.286   1
   9  -8 -19 1982.53 387.789   6
   8  -9 -19 1660.49 346.831   6
  -8  -9  20-51.0397 212.645   5
  -9   8  20 94.3782 137.434   1
   9  -8 -20 263.347 178.532   7
   9  -8 -20-83.5544 243.509   6
  -9   8  20 210.427 100.141   4
  -8   9  20 239.865 104.832   4
  -8   9  20 363.149 151.553   1
   8  -9 -20 95.2745 166.114   7
   8  -9 -20 103.754 222.271   6
   8   9 -21 2046.03 435.835   3
  -9  -8  21 3269.56 439.177   5
  -8  -9  21 2790.69 407.122   5
  -9   8  21 2171.92 334.182   4
  -8   9  21 2199.83 331.939   4
   9  -8 -21 1703.44 390.592   7
   8  -9 -21 1597.96 368.311   7
  -8   9  21 2655.14 369.250   1
   9  -8 -21 2921.88 420.859   6
   8  -9 -21 1958.73 412.916   6
  -9   8  21 2046.00 352.135   1
   8  -9 -22 97.3309 170.385   7
   8   9 -22 115.332 244.828   3
  -8  -9  22 119.483 209.133   5
  -9   8  22 54.7004 97.7827   4
  -9   8  22-301.564 152.543   1
   9  -8 -22 44.5986 188.195   7
  -8   9  22-11.5545 105.550   4
  -8   9  22-185.437 161.366   1
   9  -8 -22-108.134 250.019   6
   8  -9 -22-128.154 240.744   6
   8   9 -23 267.828 275.563   3
  -8  -9  23 970.647 239.199   5
   8  -9 -23 1025.75 211.171   7
  -9   8  23 703.302 189.927   1
   9  -8 -23 944.510 239.671   7
  -9   8  23 516.367 147.644   4
  -8   9  23 902.824 161.959   4
   8   9 -23-49.4803 211.447   2
  -8   9  23 647.792 203.390   1
   9  -8 -23 1098.49 293.780   6
   8  -9 -23 704.974 245.334   6
  -9   8  24-52.7069 146.846   1
  -9   8  24 69.2308 107.289   4
  -8   9  24-19.5873 168.873   1
  -8   9  24 36.6543 105.681   4
   8  -9 -24 39.1825 171.432   7
   9  -8 -24 200.475 205.450   7
   9  -8 -24-131.221 224.198   6
   8  -9 -24-75.2398 216.216   6
  -9   8  25 125.988 158.058   1
   8  -9 -25 436.715 184.981   7
   9  -8 -25 382.336 201.131   7
  -8   9  25 114.284 123.301   4
  -9   8  25 321.302 128.296   4
  -8   9  25 141.047 178.244   1
   9  -8 -25 312.150 235.749   6
   8  -9 -25 325.337 225.121   6
  -9   8  26 18.4526 163.789   1
  -8   9  26 41.4945 189.316   1
   9  -8 -26-22.7245 198.821   7
  -9   8  26 73.6906 120.210   4
  -8   9  26 39.4104 123.053   4
   8  -9 -26-100.656 171.962   7
   9  -8 -26 51.7113 230.150   6
   8  -9 -26-246.923 243.926   6
   8  -9 -27-197.495 219.755   6
  -9   8  27 364.474 186.885   1
   9  -8 -27 68.9643 192.113   7
   8  -9 -27-204.397 188.017   7
  -9   8  27-63.4883 117.735   4
  -8   9  27 13.5979 122.078   4
  -8   9  27 106.984 181.093   1
   9  -8 -27 178.053 235.208   6
   8  -9 -28 124.667 169.942   7
  -9   8  28 137.886 178.036   1
   9  -8 -28 69.8421 198.468   7
  -9   8  28 158.775 121.084   4
  -8   9  28 84.6542 136.129   4
  -8   9  28-110.454 194.060   1
   9  -8 -28-76.0638 225.240   6
   8  -9 -28-49.3395 207.678   6
   8  -9 -29-98.4637 210.982   6
  -8   9  29-116.463 145.876   4
   8  -9 -29 126.903 201.693   7
  -8   9  29 22.8465 211.321   1
   8  -9 -30-197.385 198.842   6
   8  -9 -30 107.812 169.547   7
  -8   9  30-60.3032 132.761   4
  -8   9  30 402.705 215.628   1
  -9   9   9-46.1718 97.5803   1
   9  -9 -10 807.454 228.467   7
   9  -9 -10 720.594 264.391   6
   9  -9 -11-198.187 244.777   6
  -9   9  12-50.7327 113.724   1
   9  -9 -12-268.729 208.408   7
   9  -9 -12-290.090 258.859   6
  -9   9  13 13.1468 110.595   1
   9  -9 -13-67.6272 201.240   7
   9  -9 -13-117.191 264.459   6
  -9   9  14 13.6372 122.414   1
   9  -9 -14 134.534 178.138   7
  -9   9  14-29.4832 86.4868   4
   9  -9 -14-118.680 250.314   6
  -9   9  15 69.9056 122.238   1
  -9   9  15-139.510 90.3158   4
   9  -9 -15-66.4034 183.363   7
   9  -9 -15 177.963 270.769   6
   9  -9 -16 200.501 201.327   7
  -9   9  16 283.719 104.983   4
   9  -9 -16 383.391 252.548   6
  -9   9  16 421.612 131.879   1
  -9   9  17 30.2579 134.131   1
  -9   9  17-92.7247 94.0807   4
   9  -9 -17 22.0200 189.979   7
   9  -9 -17-293.588 271.582   6
  -9   9  18 681.839 147.776   4
  -9   9  18 1022.95 185.135   1
   9  -9 -18 1312.84 302.064   6
  -9   9  19 10.6793 94.1017   4
   9  -9 -19 65.7714 198.488   7
  -9   9  19-174.607 145.697   1
   9  -9 -19-57.4242 253.445   6
  -9   9  20 1746.53 232.512   4
   9  -9 -20 751.048 282.102   7
  -9   9  20 1138.84 252.919   1
   9  -9 -20 1763.22 359.788   6
  -9   9  21-67.6202 142.205   1
  -9   9  21 66.4371 107.403   4
   9  -9 -21-278.813 238.182   6
   9  -9 -21 240.355 197.791   7
   9   9 -22 349.118 314.244   3
  -9  -9  22 1546.94 302.916   5
  -9   9  22 1713.77 231.506   1
   9  -9 -22 484.617 240.940   7
  -9   9  22 974.177 188.033   4
   9  -9 -22 856.160 292.624   6
  -9   9  23 251.550 158.581   1
   9  -9 -23-200.026 202.258   7
  -9   9  23-11.6340 113.075   4
   9  -9 -23-109.426 229.342   6
   9  -9 -24 246.723 209.753   7
  -9   9  24 313.029 169.105   1
  -9   9  24 323.107 123.101   4
   9  -9 -24 455.044 243.506   6
  -9   9  25-207.642 179.873   1
   9  -9 -25-226.501 202.168   7
  -9   9  25-159.747 125.954   4
   9  -9 -25 79.7022 230.691   6
   9  -9 -26 22.4798 204.720   7
  -9   9  26-203.010 122.762   4
  -9   9  26-329.251 182.364   1
   9  -9 -26 79.1483 236.591   6
   9  -9 -27 159.256 199.785   7
  -9   9  27 39.7771 184.549   1
  -9   9  27 130.945 121.963   4
   9  -9 -27-285.258 219.608   6
   9  -9 -28-184.348 180.391   7
  -9   9  28 327.209 190.156   1
  -9   9  28 203.067 127.325   4
   9  -9 -28-51.6811 205.087   6
   9  -9 -29-51.5663 212.936   6
  -9   9  29 63.1498 185.270   1
  -9   9  29-295.511 129.637   4
   9  -9 -29-70.1483 204.975   7
   0 -10   0 160.977 86.4785   6
   0  10   0 213.280 140.150   2
   0 -10   0 98.4810 95.1145   5
   0 -10   0 154.841 64.3228   8
   0 -10   0 118.080 64.8692   7
   0  10   0 146.447 58.4185   4
   0 -10   1-10.2961 77.0470   6
   0 -10  -1 22.2582 80.2237   6
   0  10  -1-58.3193 121.464   3
   0  10   1-77.8775 117.457   2
   0 -10  -1-24.5286 86.8648   5
   0 -10   1 61.8034 91.3698   5
   0  10  -1-102.654 132.030   2
   0 -10   1-92.3348 63.6136   8
   0 -10   1 13.2220 59.5445   7
   0 -10  -1-14.5332 61.3407   7
   0 -10  -1-6.51145 53.9282   8
   0  10  -1 24.1395 53.1489   4
   0  10   1-26.8326 59.4096   4
   0 -10  -2 300.808 92.8569   6
   0  10  -2 240.851 127.317   3
   0 -10  -2 37.7368 102.940   5
   0 -10   2 254.256 102.340   5
   0 -10  -2 178.301 64.9203   8
   0  10  -2 178.557 147.411   2
   0  10   2 237.414 116.227   2
   0 -10   2 207.031 73.2896   8
   0 -10   2 278.628 68.2820   7
   0  10  -2 199.802 66.0664   4
   0  10   2 225.707 73.5777   4
   0 -10  -2 289.144 77.0517   7
   0 -10   3-18.9200 76.2220   6
   0 -10  -3 60.0557 86.9307   6
   0  10  -3-15.5895 129.442   3
   0 -10  -3-6.21724 51.9648   8
   0 -10  -3-50.2101 97.5861   5
   0 -10   3-36.5700 92.2788   5
   0 -10   3-70.5479 64.0259   8
   0 -10  -3-7.45037 60.8553   7
   0  10  -3 56.0253 148.896   2
   0 -10   3 54.9338 56.0033   7
   0  10  -3 10.7820 52.2788   4
   0  10   3-66.7492 62.3816   4
   0  10   3 56.0234 103.932   2
   0  10  -4 3181.71 464.238   3
   0 -10  -4 2977.73 452.763   5
   0 -10   4 3244.05 451.503   5
   0 -10   4 2633.02 437.267   8
   0 -10   4 3334.25 434.382   7
   0 -10  -4 3182.35 437.973   7
   0  10   4 3064.74 452.924   2
   0 -10  -4 3563.32 453.577   6
   0  10  -4 3170.66 479.162   2
   0  10   4 3131.92 438.639   4
   0 -10  -5 12.8541 92.6463   6
   0  10  -5-184.119 145.166   3
   0 -10  -5 115.097 110.919   5
   0 -10   5-12.0250 94.5318   5
   0  10  -5-40.5968 151.851   2
   0 -10  -5 7.86631 66.8078   7
   0  10   5-40.8302 72.7133   4
   0 -10   5-17.4768 72.1060   8
   0  10  -6 3557.55 567.325   3
   0 -10  -6 3423.38 555.855   5
   0 -10   6 4050.87 552.445   5
   0 -10   6 4133.49 546.490   8
   0  10   6 3413.54 542.303   4
   0 -10  -6 4293.33 543.924   7
   0 -10  -6 3987.00 555.691   6
   0  10  -6 4724.25 593.470   2
   0 -10  -7-54.7486 101.639   6
   0 -10  -7 12.9783 107.128   5
   0  10  -7-53.8093 143.561   3
   0 -10   7 12.1815 91.2078   5
   0  10  -7-21.8644 169.385   2
   0 -10  -7-33.2708 71.3771   7
   0  10   7-8.94562 77.9077   4
   0 -10   7-79.1317 88.3837   8
   0  10  -8 3274.65 522.266   3
   0 -10   8 3216.69 500.027   5
   0 -10   8 3440.36 497.375   8
   0  10   8 3459.47 493.989   4
   0 -10  -8 3980.26 507.729   6
   0  10  -8 4162.69 547.325   2
   0 -10  -9 202.831 123.015   6
   0  10   9-48.8241 82.9287   4
   0  10  -9-19.0211 153.262   3
   0 -10   9-48.3917 81.7792   5
   0 -10   9 21.4128 88.3433   8
   0  10  -9-163.363 193.781   2
   0 -10  -9-35.2479 70.0446   7
   0 -10 -10 1174.27 225.047   6
   0  10 -10 1431.08 254.135   3
   0 -10  10 1536.40 218.633   5
   0 -10 -10 1257.27 204.456   7
   0  10 -10 1176.74 262.140   2
   0 -10  10 1283.73 215.089   8
   0  10  10 1280.14 208.503   4
   0 -10  11-165.996 118.329   8
   0 -10 -11 61.1341 119.383   6
   0 -10  11-120.830 122.146   5
   0  10 -11-394.685 256.889   2
   0 -10 -11-94.0034 86.6326   7
   0  10 -11-395.019 185.466   3
   0  10  11-148.812 95.1034   4
   0 -10 -12-156.303 126.432   6
   0 -10  12-313.603 125.964   5
   0  10 -12-140.798 197.925   3
   0 -10  12-60.5508 119.798   8
   0 -10 -12-77.8088 83.2316   7
   0  10  12 44.1811 100.334   4
   0 -10 -13-111.732 118.528   6
   0 -10 -13-30.1995 89.4670   7
   0  10 -13-40.9261 135.611   3
   0 -10  13 119.797 105.521   5
   0  10  13-115.578 107.246   4
   0 -10 -14-49.1270 109.022   6
   0 -10  14 116.473 119.358   8
   0 -10  14-121.059 101.818   5
   0 -10 -14 10.4180 87.6244   7
   0  10 -14 207.512 158.305   3
   0  10  14-72.6260 110.753   4
   0 -10  15 49.0482 106.804   5
   0 -10 -15-133.552 131.807   6
   0  10 -15 41.4918 155.909   3
   0  10  15-113.112 113.582   4
   0 -10  17 84.2927 125.791   8
   0 -10 -17-11.5545 97.2171   7
   0  10  17 13.5405 115.699   4
   0 -10  18 861.894 197.124   5
   0 -10  18 1329.68 214.441   8
   0  10 -18 1041.37 248.472   3
   0 -10  19 87.3902 144.943   8
   0 -10  19-102.752 114.423   5
   0  10 -19-42.7846 168.809   3
   0 -10  20 2184.11 313.698   5
   0 -10  20 2659.05 329.447   8
   0 -10  21-288.371 146.548   8
   0  10 -21-86.6954 152.155   3
   0 -10  21-106.670 110.900   5
   0 -10  22 1403.97 230.276   5
   0 -10  22 1585.05 245.268   8
   0  10 -22 774.693 247.821   3
   0 -10  23 13.9740 115.382   5
   0 -10  23 271.148 158.726   8
   0  10 -23-173.927 158.094   3
   0 -10  24 262.614 168.292   8
   0 -10  24 314.657 136.138   5
   0  10 -24-154.397 168.704   3
   0 -10  25 16.9376 145.360   8
   0 -10  25-205.485 133.825   5
   0  10 -25 179.723 168.252   3
   0 -10  26-87.7104 152.860   8
   0  10 -26 298.523 193.344   3
   0 -10  26 89.8860 133.297   5
   0  10 -27 117.812 172.018   3
   0 -10  27-30.5316 140.842   5
   0 -10  27-127.610 160.011   8
   0 -10  28 140.620 145.148   5
   0  10 -28 267.095 194.541   3
   0 -10  28 202.837 200.138   8
   0 -10  29-48.3291 146.751   5
   0  10 -29-25.0813 174.851   3
   0 -10  29-212.501 174.827   8
   0 -10  30 101.640 180.712   8
   0  10 -30 156.151 187.491   3
   0  10 -31-246.019 291.928   2
   0 -10  31 20.8848 198.772   8
   0 -10  32 666.099 245.132   8
   1  10   0 256.524 128.086   2
  -1  10   0 257.272 120.956   3
  -1 -10   0 170.650 121.794   5
   1 -10   0 59.1972 82.7554   5
   1 -10   0 106.246 62.7060   8
  -1 -10   0 62.1534 55.9258   8
   1 -10   0 87.2975 63.2116   7
  -1 -10   0 76.6730 58.6043   7
  -1  10   0 139.483 56.3728   4
   1 -10   0 88.7453 84.3944   6
  -1  10   0-16.6695 134.973   2
   1  10   0 88.3191 66.7025   4
   1  10  -1 251.282 139.214   2
  -1 -10  -1 107.979 90.5439   6
  -1  10  -1 169.573 88.7129   1
  -1  10   1-96.1781 117.842   3
  -1 -10  -1 336.694 136.048   5
  -1  10  -1 178.216 128.785   3
  -1 -10   1 138.883 115.152   5
   1 -10  -1 110.197 81.4150   5
   1 -10   1 79.8386 82.7742   5
   1 -10   1 188.275 71.0875   8
  -1  10   1 47.4287 125.622   2
  -1 -10  -1 306.731 70.4879   8
  -1 -10   1 232.443 65.8913   8
   1 -10   1 313.243 76.0226   7
  -1  10  -1 87.3602 138.695   2
   1 -10  -1 217.223 71.9960   7
   1 -10  -1 327.070 68.0986   8
  -1 -10   1 258.810 64.8439   7
  -1 -10  -1 205.300 67.3650   7
  -1  10  -1 143.788 61.3561   4
  -1  10   1 179.462 63.1495   4
   1  10   1 277.044 123.330   2
   1 -10   1 332.416 101.033   6
   1  10   1 207.173 78.0102   4
   1 -10  -1 208.466 102.835   6
   1  10  -1 268.674 72.8592   4
   1 -10  -2-12.4989 52.5309   8
  -1 -10  -2 49.2367 91.4174   6
  -1  10   2-26.3979 114.526   3
   1  10  -2-17.4827 139.439   2
  -1 -10  -2-32.3259 128.011   5
  -1 -10   2 29.9093 110.582   5
  -1  10   2 45.2718 120.375   2
  -1  10  -2-30.8176 127.578   3
   1 -10  -2 19.7437 82.0538   5
  -1 -10   2 79.3264 63.7602   8
   1 -10   2 70.7639 79.8338   5
   1 -10   2 49.8241 69.1169   7
  -1  10  -2-36.4348 145.294   2
   1 -10  -2 53.7251 64.8636   7
  -1  10  -2-9.52346 88.6024   1
  -1 -10   2 35.9092 54.7446   7
  -1 -10  -2 20.5691 58.3324   7
  -1 -10  -2 66.4135 55.9846   8
  -1  10  -2 5.41019 51.3339   4
  -1  10   2 33.8029 60.8063   4
   1  10   2-59.2488 107.721   2
   1 -10   2 40.3526 69.4656   8
   1 -10   2 61.3146 85.2087   6
   1  10   2 7.99912 70.0899   4
   1 -10  -2 59.6602 94.5369   6
   1  10  -2 34.0577 61.2628   4
   1  10  -3 388.436 100.397   4
   1 -10  -3 467.050 106.630   7
  -1 -10  -3 619.644 128.379   6
  -1  10   3 532.708 143.462   3
  -1  10   3 755.557 153.451   2
  -1 -10  -3 533.161 152.280   5
   1  10  -3 764.527 175.588   2
  -1 -10   3 595.994 144.473   5
  -1  10  -3 653.899 154.416   3
   1 -10  -3 457.304 114.250   5
   1 -10   3 419.871 112.614   5
  -1  10  -3 371.162 114.635   1
   1 -10  -3 568.058 98.2452   8
  -1 -10   3 552.165 104.536   8
   1 -10   3 490.217 101.709   7
  -1 -10  -3 566.912 100.579   7
  -1  10  -3 592.003 94.9635   4
   1 -10   3 504.925 109.342   8
  -1  10   3 389.489 100.210   4
  -1  10  -3 627.165 173.873   2
   1 -10   3 589.984 120.137   6
  -1 -10   3 623.862 97.0373   7
   1  10   3 643.470 111.879   4
   1 -10  -3 710.754 137.907   6
  -1  10   4 53.3911 102.755   2
  -1 -10  -4 234.011 101.963   6
  -1  10   4 97.6244 112.383   3
  -1 -10  -4 188.346 138.535   5
  -1 -10   4 14.4650 110.062   5
   1 -10  -4 38.3523 77.7132   5
   1  10  -4 18.9509 139.584   2
  -1  10  -4 131.522 127.451   3
   1 -10  -4 34.5611 48.6101   8
  -1 -10   4 7.71351 62.6070   8
   1 -10   4 51.8606 82.8825   5
  -1  10  -4 40.1606 73.5032   1
   1 -10   4 64.9458 69.5199   7
  -1  10  -4-59.4274 156.917   2
   1 -10  -4 122.453 69.5275   7
  -1 -10  -4 73.2324 62.0338   7
  -1  10  -4-28.6187 48.6134   4
   1 -10   4-92.0925 76.4179   8
  -1  10   4 14.8296 66.4218   4
   1 -10   4 9.31590 76.5406   6
   1  10   4 252.947 79.9974   4
   1 -10  -4-38.1548 93.7684   6
  -1  10   5 2807.93 398.158   3
   1  10  -5 2630.43 414.913   3
  -1  10  -5 2297.17 406.685   3
  -1 -10  -5 2456.64 413.369   5
   1 -10  -5 2277.84 385.670   5
  -1 -10   5 2602.37 402.515   5
   1 -10   5 2393.74 389.833   5
  -1  10  -5 2636.42 429.954   2
   1 -10  -5 2621.11 376.926   8
   1  10   5 2648.31 387.095   4
   1 -10   5 2759.35 390.332   8
   1 -10  -5 2877.73 398.485   6
  -1  10   5 3473.46 386.707   4
  -1  10   5 3119.54 400.459   2
   1  10  -5 3063.35 428.052   2
  -1  10  -5 2708.96 382.929   1
  -1 -10   5 2725.51 384.047   8
   1 -10  -6 161.182 105.574   6
   1  10  -6 221.467 140.691   3
  -1 -10  -6 157.348 132.411   5
   1 -10  -6 229.987 88.5556   5
  -1 -10   6 282.124 128.146   5
  -1  10  -6 103.870 133.688   3
   1 -10   6 84.3413 78.9820   5
   1  10  -6 123.124 154.727   2
  -1 -10   6 204.129 78.5394   8
   1 -10  -6 166.006 80.0599   7
  -1  10  -6 85.6670 172.996   2
  -1 -10  -6 188.320 69.7547   7
  -1  10   6 289.465 104.186   2
  -1  10   6 225.862 77.7310   4
   1 -10   6 258.707 95.3880   8
   1  10   6 56.9354 75.1331   4
   1  10  -7 2729.03 474.425   3
  -1  10  -7 2674.18 474.923   3
  -1 -10  -7 3226.06 480.214   5
  -1 -10   7 2873.20 468.169   5
   1 -10   7 2780.69 453.711   5
   1 -10   7 3092.02 457.518   8
   1 -10  -7 3509.95 452.347   7
  -1 -10  -7 3372.03 449.123   7
  -1  10   7 3333.99 450.328   4
   1  10   7 3540.74 456.982   4
   1 -10  -7 3135.52 464.603   6
   1  10  -7 3856.76 500.281   2
   1 -10  -8-14.1637 103.846   6
   1  10  -8 91.0700 134.078   3
  -1 -10   8-13.8389 105.200   5
  -1  10  -8-54.2010 137.321   3
   1 -10   8 20.8543 85.2035   5
   1  10  -8 309.911 178.980   2
  -1 -10   8-18.8602 81.0929   8
   1 -10   8 46.4750 101.395   8
   1 -10  -8-46.5942 76.6664   7
  -1 -10  -8-33.7047 66.2859   7
  -1  10   8-79.0803 83.3938   4
   1  10   8-102.853 92.1108   4
   1  10   9 1606.09 274.350   4
   1 -10  -9 1877.79 288.126   6
   1 -10   9 1733.75 274.637   5
   1  10  -9 1586.74 309.976   3
  -1 -10   9 1831.21 288.420   5
  -1 -10   9 1896.63 275.687   8
   1  10  -9 1790.61 332.246   2
   1 -10   9 1587.15 282.115   8
   1 -10  -9 1858.76 272.931   7
  -1 -10  -9 1898.24 267.558   7
  -1  10   9 2009.18 272.173   4
  -1  10  -9 2025.43 308.514   3
   1 -10 -10-29.6505 114.826   6
   1  10 -10-117.108 150.604   3
  -1 -10  10-55.6334 112.829   5
  -1 -10  10-41.4361 90.9036   8
  -1 -10 -10-27.2756 76.9525   7
   1  10 -10 94.8810 183.716   2
   1 -10 -10 77.7677 81.7603   7
   1 -10  10 32.1848 78.9641   5
  -1  10  10 38.1138 84.3420   4
   1 -10  10-130.235 119.479   8
  -1  10 -10 18.7043 143.237   3
   1 -10 -11 228.705 131.433   6
   1  10 -11-362.629 223.930   3
   1 -10  11 132.994 127.713   8
  -1 -10  11-150.089 149.169   5
  -1 -10  11-339.964 145.672   8
  -1 -10 -11 56.7461 75.4046   7
   1 -10  11 130.961 97.4182   5
   1 -10 -11 177.318 94.3684   7
  -1  10 -11-94.9569 160.222   3
  -1  10  11 29.8360 88.5268   4
   1 -10 -12-187.316 137.958   6
   1  10 -12-372.209 251.322   3
  -1  10 -12-211.531 158.259   3
  -1 -10  12-425.204 174.007   5
   1 -10  12-111.039 103.982   5
   1 -10 -12 71.0698 95.6452   7
   1 -10  12-126.461 136.660   8
  -1  10  12-124.025 90.6802   4
   1 -10 -13 223.753 122.188   6
  -1  10 -13 38.8692 152.785   3
   1  10 -13 42.3517 169.953   3
  -1 -10  13 55.1026 113.675   5
   1 -10  13 300.465 136.714   8
   1  10 -13 128.481 220.578   2
   1 -10 -13 83.7221 93.0656   7
   1 -10  13 101.684 89.4874   5
  -1  10  13 43.0585 100.950   4
  -1 -10  13 58.1937 100.920   8
   1  10 -14-26.2269 182.379   2
  -1  10 -14-58.8083 140.674   3
   1 -10 -14 16.3590 132.732   6
   1  10 -14-64.8828 175.463   3
  -1 -10  14 120.021 113.246   5
   1 -10 -14-10.7865 91.6123   7
  -1 -10  14 11.8840 109.920   8
  -1  10  14-44.6536 106.714   4
   1 -10  14-115.033 96.4749   5
   1 -10 -15 16.7174 120.112   6
   1  10 -15 218.258 170.415   3
  -1  10 -15 19.4551 150.249   3
  -1 -10  15-13.2737 107.127   5
   1 -10  15-35.0891 100.111   5
  -1  10  15 186.030 112.907   4
   1 -10 -17 175.073 136.821   6
  -1 -10  17 193.247 123.008   8
   1 -10  17 111.304 137.785   8
   1  10 -17-55.1039 240.760   2
   1 -10 -17 200.625 105.983   7
  -1  10  17-75.9196 118.144   4
   1 -10 -18 71.4142 141.953   6
   1  10 -18-113.785 175.022   3
  -1 -10  18-13.3693 115.037   5
  -1 -10  18 26.2351 116.899   8
   1 -10  18-64.8291 142.325   8
  -1  10 -18 119.441 154.854   3
   1  10 -18 223.446 230.463   2
   1 -10  18-111.862 91.6475   5
   1 -10 -18-60.7589 107.394   7
  -1  10  18-145.455 120.140   4
   1 -10 -19 1418.45 250.995   6
  -1 -10  19 1164.57 216.343   8
   1 -10  19 867.004 208.962   5
  -1 -10  19 1579.55 218.115   5
   1  10 -19 928.308 264.698   3
   1  10 -19 876.997 326.364   2
   1 -10  19 1207.87 240.623   8
  -1  10 -19 924.952 258.828   3
   1 -10 -19 1100.49 214.446   7
  -1  10  19 1536.96 225.840   4
   1  10 -20-45.5639 178.496   3
   1 -10 -20-18.5106 132.928   6
   1 -10  20 91.7493 111.410   5
   1 -10  20-16.9193 148.996   8
  -1  10 -20-121.998 159.328   3
  -1 -10  20-54.5202 115.486   5
  -1 -10  20-69.8287 126.179   8
   1  10 -20-28.6425 246.969   2
   1 -10 -20-90.0424 115.599   7
  -1  10  20-71.8545 131.952   4
  -1 -10  21 1738.45 252.986   8
  -1 -10  21 1176.21 242.149   5
   1 -10  21 1907.09 275.874   8
   1 -10  21 1587.50 238.959   5
  -1  10 -21 722.328 263.904   3
   1  10 -21 1008.18 282.830   3
   1  10 -21 724.988 324.300   2
   1 -10 -21 1229.67 241.716   7
  -1  10  21 2166.96 262.053   4
  -1  10  22 15.5108 142.018   4
  -1  10 -22 84.1060 153.562   3
   1 -10  22-179.847 115.367   5
  -1 -10  22 13.8087 119.519   5
  -1 -10  22 14.5625 144.619   8
   1 -10  22-267.118 165.185   8
   1  10 -22 29.3664 244.677   2
   1  10 -22 46.0669 183.076   3
   1 -10 -22 27.6176 125.443   7
   1 -10  23 413.524 131.960   5
  -1 -10  23 364.534 133.691   5
  -1 -10  23 253.523 144.356   8
   1 -10  23 458.495 182.039   8
   1  10 -23-69.6647 178.361   3
  -1  10 -23 580.411 178.633   3
   1  10 -23-29.7673 247.434   2
   1 -10 -23 467.881 144.980   7
  -1  10 -24 176.419 163.388   3
   1 -10  24-18.2743 166.713   8
   1 -10  24 131.092 130.182   5
   1  10 -24-137.458 183.029   3
  -1 -10  24 199.416 128.041   5
   1  10 -24-30.1934 258.967   2
  -1 -10  24 91.8412 151.317   8
   1  10 -25-30.6657 245.399   2
   1 -10  25-321.813 181.406   8
  -1 -10  25 157.553 146.903   8
   1 -10  25 59.5675 122.530   5
  -1 -10  25 14.5240 126.045   5
  -1  10 -25 227.038 173.928   3
   1  10 -25 161.699 174.240   3
  -1 -10  26 89.2125 129.003   5
   1 -10  26-19.6740 162.867   8
  -1 -10  26 97.5856 159.978   8
   1 -10  26 30.5767 136.910   5
   1  10 -26 93.5558 257.270   2
  -1  10 -26-140.543 165.162   3
   1  10 -26 23.3192 158.392   3
   1 -10  27 20.5065 193.561   8
  -1 -10  27 15.2014 131.455   5
   1  10 -27-63.5410 264.651   2
  -1 -10  27 65.6853 150.262   8
   1  10 -27 118.281 178.381   3
  -1  10 -27-121.309 177.094   3
   1  10 -28-24.0952 185.094   3
   1  10 -28 389.119 306.400   2
  -1 -10  28 15.5852 147.085   5
  -1  10 -28 150.671 189.161   3
  -1 -10  28 136.594 182.651   8
   1 -10  28 227.887 202.821   8
   1  10 -29 98.2888 175.660   3
  -1 -10  29-158.446 125.161   5
   1 -10  29 108.838 200.331   8
   1  10 -29 166.039 270.376   2
  -1 -10  29-142.639 161.953   8
   1 -10  30-160.825 198.442   8
  -1 -10  30-56.0895 153.711   8
  -1 -10  30-16.1407 131.967   5
   1  10 -30-170.040 285.373   2
   1  10 -30-202.463 188.204   3
  -1 -10  31 76.9136 178.727   8
  -1 -10  31-49.4645 139.977   5
  -2  10   0 2516.53 406.878   3
  -2 -10   0 2744.00 419.580   5
   2 -10   0 2446.09 386.523   8
   2 -10   0 2415.34 388.592   7
  -2  10   0 3023.84 382.721   4
  -2 -10   0 3005.68 383.750   7
   2  10   0 2579.61 415.144   2
   2 -10   0 2901.79 404.872   6
  -2  10   0 3402.73 424.876   2
  -2  10   0 2414.39 394.224   1
  -2 -10  -1 179.268 150.900   5
  -2 -10   1-18.8786 149.042   5
  -2  10  -1 164.384 120.966   3
  -2  10   1 155.495 113.264   3
  -2  10   1 112.019 96.1742   1
   2 -10  -1 97.0184 65.6456   5
   2 -10   1 93.6583 66.2261   5
  -2  10  -1-35.2454 140.635   2
   2 -10  -1 43.5421 57.9775   8
   2 -10   1 127.960 78.4960   8
  -2 -10   1 88.1889 59.9277   8
  -2  10   1 48.2414 145.273   2
   2 -10   1 59.0103 68.8878   7
   2 -10  -1 8.32348 72.6535   7
  -2  10  -1 17.3978 51.6910   4
  -2  10   1-31.7352 57.6142   4
  -2 -10   1-12.1095 50.1531   7
  -2 -10  -1 32.4884 52.3447   7
  -2  10  -1 39.3479 83.4747   1
   2  10  -1 66.2234 121.495   2
   2 -10   1-85.5881 97.3306   6
   2 -10  -1 128.804 105.723   6
  -2 -10  -2 989.029 192.206   5
  -2 -10   2 762.695 180.975   5
   2 -10   2 730.923 129.711   5
  -2  10   2 575.293 149.082   1
  -2  10   2 421.940 149.767   3
   2 -10  -2 693.593 125.951   5
   2 -10   2 608.479 133.909   8
  -2  10  -2 520.284 167.719   3
   2 -10  -2 763.811 124.528   8
  -2 -10   2 655.611 122.037   8
  -2  10  -2 706.091 139.151   1
  -2  10  -2 909.757 120.103   4
  -2  10   2 964.423 184.441   2
   2 -10   2 486.719 132.245   7
   2 -10  -2 633.879 130.455   7
  -2 -10   2 844.411 118.166   7
  -2  10  -2 664.498 195.183   2
  -2 -10  -2 752.646 120.031   7
  -2  10   2 790.998 123.099   4
   2 -10   2 794.728 152.250   6
   2 -10  -2 724.530 158.469   6
   2  10  -2 942.041 178.976   2
   2  10  -3 605.853 165.275   2
  -2  10  -3 408.503 99.8508   1
  -2 -10  -3 509.154 172.711   5
  -2 -10   3 484.246 148.848   5
  -2  10   3 395.282 130.822   3
  -2  10   3 395.219 90.7510   4
   2 -10  -3 382.085 89.6465   5
  -2  10   3 317.442 142.499   2
  -2 -10   3 491.067 96.6365   8
   2 -10   3 473.804 96.0534   5
  -2  10  -3 407.014 143.734   3
   2 -10   3 400.273 104.619   7
  -2  10  -3 353.938 83.7219   4
   2 -10  -3 380.583 86.4824   8
   2 -10  -3 532.534 100.606   7
   2 -10   3 490.389 112.971   8
  -2 -10   3 588.617 83.8182   7
  -2 -10  -3 437.295 90.2128   7
   2 -10   3 241.138 118.827   6
   2 -10  -3 449.837 127.461   6
  -2  10  -4 143.646 130.052   3
   2  10  -4 464.049 155.428   2
  -2 -10   4 155.724 144.490   5
  -2  10   4 379.876 130.055   2
  -2  10   4 279.408 120.260   3
  -2 -10   4 254.401 74.9645   8
   2 -10  -4 243.563 75.5987   5
   2 -10  -4 252.730 66.0824   8
   2 -10   4 331.982 104.306   8
   2 -10   4 148.579 90.5669   7
  -2  10  -4 286.599 63.6504   4
   2 -10  -4 258.664 89.0639   7
  -2  10   4 194.908 73.7954   4
  -2  10  -4 288.454 81.6761   1
   2 -10   4 259.525 87.1442   5
   2 -10   4 133.024 104.730   6
   2 -10  -4 417.592 128.227   6
  -2  10   5 304.106 114.156   2
   2  10  -5 344.797 157.136   2
  -2 -10   5 257.801 143.432   5
  -2  10   5 36.5658 112.122   3
   2 -10  -5 237.633 78.5675   5
   2 -10   5 274.004 86.8568   5
   2 -10  -5 226.032 67.8576   8
  -2  10  -5 341.480 139.302   3
  -2 -10   5 346.891 83.5784   8
  -2  10  -5 296.575 66.4090   4
   2 -10   5 240.676 102.606   8
  -2  10  -5 265.150 73.0693   1
  -2  10   5 316.483 83.7982   4
   2 -10  -5 439.271 94.2935   7
   2 -10   5 480.129 119.465   6
   2 -10   5 304.467 95.5601   7
   2 -10  -5 425.671 130.511   6
   2  10  -6 1076.17 224.181   2
  -2 -10   6 880.106 203.923   5
   2 -10   6 897.101 166.946   5
   2 -10   6 1139.82 188.688   8
  -2 -10   6 964.703 161.858   8
   2 -10  -6 1024.06 166.598   7
  -2  10   6 1100.71 163.045   4
  -2  10  -6 871.002 204.305   3
   2 -10  -6 1070.21 192.060   6
   2 -10   7 313.739 126.360   8
  -2 -10   7 209.142 139.524   5
   2  10  -7 329.666 165.964   2
  -2  10  -7 238.018 128.018   3
   2 -10   7 172.097 84.5921   5
  -2 -10   7 303.960 86.4669   8
   2 -10  -7 405.626 94.6858   7
  -2  10   7 303.353 88.1342   4
   2 -10  -7 338.510 125.936   6
   2  10  -8 792.013 227.164   3
  -2 -10   8 834.783 215.246   5
   2 -10   8 1430.98 210.910   8
   2 -10   8 1056.27 183.374   5
   2  10  -8 1514.09 252.538   2
  -2 -10   8 1360.31 182.324   8
   2 -10  -8 989.559 180.744   7
  -2  10  -8 981.907 206.820   3
  -2  10   8 1007.33 178.361   4
   2 -10  -8 1347.19 212.882   6
   2  10  -9-148.217 152.338   3
  -2 -10   9 78.2143 116.094   5
   2 -10   9 10.0093 83.9388   5
   2  10  -9 132.461 185.090   2
  -2  10  -9 156.728 137.876   3
  -2 -10   9 9.15292 78.2143   8
   2 -10   9-117.811 130.731   8
   2 -10  -9-19.3400 77.9371   7
  -2  10   9 132.610 84.0950   4
   2 -10  -9-76.1049 118.345   6
   2  10 -10-95.7156 160.003   3
  -2 -10  10-9.57319 72.2513   8
  -2 -10  10 31.3569 116.853   5
   2  10 -10 274.395 182.976   2
   2 -10  10-45.1560 124.609   8
   2 -10  10-10.2280 86.8879   5
  -2  10 -10 105.575 141.798   3
   2 -10 -10 59.5866 82.7847   7
  -2  10  10 55.1949 78.1603   4
   2 -10 -10 30.9003 117.904   6
   2 -10 -11 220.548 154.143   6
   2 -10  11 241.901 117.122   5
   2  10 -11 1029.65 246.398   3
  -2 -10  11 1270.96 203.522   5
  -2  10 -11 231.024 168.770   3
   2 -10  11 783.413 181.077   8
   2 -10 -11 489.374 122.657   7
  -2  10  11 247.919 112.426   4
   2 -10 -12 1075.29 183.613   6
   2  10 -12 616.094 207.845   3
  -2 -10  12 735.912 168.911   5
   2  10 -12 905.262 249.511   2
   2 -10  12 615.013 183.406   8
   2 -10 -12 806.434 148.418   7
  -2  10  12 779.262 149.763   4
  -2  10 -12 395.837 179.655   3
   2 -10  12 837.627 145.508   5
   2 -10 -13 114.037 127.383   6
   2  10 -13 318.319 176.597   3
  -2 -10  13 107.461 130.392   5
  -2 -10  13 117.401 99.8888   8
   2  10 -13 429.132 231.517   2
   2 -10  13 176.262 100.798   5
   2 -10  13 82.4529 144.477   8
  -2  10 -13 253.488 129.747   3
   2 -10 -13 225.956 101.683   7
  -2  10  13 153.487 98.4078   4
   2 -10 -14 1488.00 237.855   6
   2  10 -14 985.659 248.686   3
  -2 -10  14 1488.62 232.187   5
  -2 -10  14 1178.53 209.019   8
   2  10 -14 1344.36 306.300   2
  -2  10 -14 785.395 231.694   3
  -2  10  14 1253.49 207.858   4
   2 -10  14 1311.73 202.851   5
   2  10 -15-22.4799 194.806   3
  -2 -10  15 150.871 131.490   5
   2 -10  16 180.593 164.802   8
   2 -10 -17 53.0051 134.354   6
  -2 -10  17-60.4356 115.044   8
   2 -10  17 36.8928 157.646   8
  -2  10 -17 191.696 134.607   3
   2 -10  17 86.4380 98.5733   5
   2 -10 -17-36.0511 97.2739   7
  -2  10  17 71.5929 110.442   4
   2  10 -17 55.2067 229.239   2
   2 -10 -18-18.0381 146.209   6
   2 -10  18 76.3410 111.821   5
   2  10 -18-142.118 205.681   3
  -2 -10  18-159.398 123.473   5
  -2 -10  18-100.739 115.081   8
   2 -10  18 18.8662 176.131   8
   2  10 -18-308.647 269.652   2
   2 -10 -18 12.3418 104.332   7
  10  -2 -18-304.183 219.758   6
  -2  10  18-148.977 124.211   4
  -2  10 -18-97.3761 144.898   3
   2 -10 -19-36.8408 145.287   6
   2  10 -19-48.1071 193.502   3
   2 -10  19-341.478 114.879   5
   2 -10  19-116.012 171.076   8
   2  10 -19 28.4769 247.984   2
  -2  10 -19-59.5819 159.365   3
  -2 -10  19 14.3080 122.073   5
   2 -10 -19-38.0122 107.585   7
  10  -2 -19-179.495 209.441   6
  -2  10  19-129.257 128.555   4
  -2 -10  19 64.2208 115.294   8
   2 -10 -20 582.266 167.914   6
  -2 -10  20 373.474 147.394   5
   2 -10  20 422.453 180.423   8
   2 -10  20 550.480 139.095   5
   2  10 -20 231.248 260.832   2
  -2 -10  20 746.779 145.562   8
  -2  10 -20 243.752 170.346   3
  -2  10  20 673.841 150.964   4
   2 -10 -20 533.171 143.679   7
  10  -2 -20 483.753 233.385   6
   2  10 -20 340.730 220.392   3
   2 -10 -21-134.126 162.666   6
   2 -10  21 19.7590 176.377   8
   2  10 -21-24.2742 180.121   3
  -2 -10  21-101.165 118.030   5
   2 -10  21 27.4636 107.536   5
   2  10 -21 87.8677 226.844   2
  -2  10 -21 166.704 158.963   3
   2 -10 -21 53.3768 106.765   7
  -2  10  21-14.0712 123.829   4
  -2 -10  21-13.3673 120.986   8
   2 -10 -22-19.5165 153.733   6
   2 -10  22 239.505 124.940   5
   2 -10  22 366.780 199.933   8
  -2 -10  22 418.320 139.558   5
   2  10 -22-24.4428 195.025   3
   2  10 -22 148.390 267.037   2
  -2  10 -22 214.491 170.087   3
   2 -10 -22 383.188 135.947   7
  -2 -10  22 259.513 132.270   8
  -2  10  22 262.912 144.884   4
   2 -10 -23 99.2685 158.846   6
   2 -10  23 168.595 196.392   8
   2 -10  23-174.645 126.961   5
   2  10 -23-30.0797 248.121   2
  -2  10 -23 110.603 150.932   3
  -2 -10  23 72.6579 125.267   5
   2 -10 -23 41.9903 120.293   7
   2  10 -23-73.6658 195.084   3
  -2 -10  23 125.746 130.203   8
  -2  10  23-183.445 139.117   4
   2 -10 -24-40.3637 159.842   6
   2 -10  24 21.8488 199.960   8
   2  10 -24 48.5545 198.330   3
  -2 -10  24 14.6200 128.003   5
   2  10 -24-30.4924 257.297   2
  -2 -10  24 14.3267 126.170   8
   2 -10 -24 143.483 129.955   7
  -2  10 -24 68.6570 160.666   3
  -2  10  24 16.0251 151.327   4
   2 -10  25-219.856 209.066   8
  -2 -10  25 102.849 133.347   5
   2  10 -25 30.9391 251.830   2
   2  10 -25-73.3339 181.387   3
   2 -10 -25 132.400 140.927   7
  -2  10 -25-23.6579 161.423   3
  -2 -10  25-14.7120 126.057   8
  -2  10  25-33.3721 173.314   4
  -2 -10  26 312.449 129.626   5
   2 -10  26 321.090 196.021   8
   2  10 -26 73.4120 186.528   3
   2  10 -26 31.4234 268.991   2
  -2 -10  26 257.674 151.877   8
   2 -10 -26 75.3941 143.870   7
  -2 -10  27-181.416 128.835   5
  -2 -10  27 15.6583 137.883   8
   2  10 -27 63.9391 268.056   2
   2 -10 -27-15.4763 136.282   7
   2  10 -27 122.889 186.108   3
   2  10 -28 260.223 302.351   2
   2  10 -28 342.216 211.266   3
  -2 -10  28 308.459 176.524   8
  -2 -10  28 446.655 164.344   5
  -2 -10  29-253.517 154.559   8
   2  10 -29 165.974 265.783   2
  -2 -10  29 31.4351 127.478   5
   2  10 -29-148.555 186.229   3
  -2 -10  30-96.3923 120.181   5
   2  10 -30-100.733 177.521   3
  -2 -10  30 207.630 160.413   8
   3 -10   0 125.508 66.5289   5
  -3  10   0 149.796 89.5407   1
   3 -10   0 80.9121 86.5204   7
   3 -10   0 46.7770 77.7351   8
  -3  10   0 128.877 66.2361   4
   3 -10   0-14.6535 128.629   6
  -3  10   0 194.381 123.020   3
  -3  10   1 5285.19 749.705   1
  -3  10   1 4883.79 754.364   3
  -3  10  -1 5280.44 757.121   3
   3 -10   1 4669.94 758.940   6
   3 -10   1 5230.30 743.240   5
   3 -10  -1 5365.78 746.359   8
   3 -10   1 5652.27 752.203   8
   3 -10   1 5327.39 751.719   7
  -3  10  -1 5139.62 740.154   4
   3 -10  -1 5901.00 750.565   7
  -3  10   1 6274.16 742.935   4
   3 -10  -1 5665.87 763.086   6
  -3  10  -1 5367.15 747.494   1
   3 -10   2 520.330 138.440   8
  -3 -10   2 434.324 189.327   5
   3 -10   2 548.412 116.224   5
  -3  10   2 508.115 166.492   2
  -3  10   2 735.990 151.402   3
   3 -10  -2 581.043 130.074   7
  -3  10   2 532.425 112.557   4
  -3  10  -2 612.289 156.865   3
   3 -10   2 779.351 139.348   7
  -3  10  -2 738.906 113.682   4
  -3  10   2 811.628 144.062   1
  -3  10  -2 937.189 131.019   1
   3 -10  -2 633.991 111.479   5
   3  10  -2 727.260 173.343   2
   3 -10   2 558.683 165.049   6
   3 -10  -2 709.313 170.817   6
   3 -10  -2 710.744 120.035   8
  -3 -10   3 511.788 214.563   5
  -3  10   3 964.642 174.118   1
   3 -10   3 876.960 150.455   5
   3 -10   3 816.776 176.068   8
  -3  10   3 970.375 149.682   4
  -3  10   3 949.881 177.964   3
   3 -10  -3 754.458 141.629   5
  -3  10  -3 873.025 183.380   3
   3 -10   3 1409.55 181.953   7
  -3  10   3 878.145 191.277   2
  -3 -10   3 1204.85 143.849   7
   3 -10  -3 882.260 147.475   8
  -3  10  -3 817.430 143.508   4
   3 -10  -3 1102.90 163.774   7
  -3  10  -3 894.568 149.452   1
   3 -10   3 1047.70 191.525   6
  -3 -10   3 710.622 148.222   8
   3  10  -3 794.598 187.402   2
   3 -10  -3 1242.55 192.627   6
  -3  10   4 816.255 149.377   3
  -3 -10   4 533.655 181.963   5
  -3 -10   4 826.654 125.294   8
  -3  10  -4 885.523 120.822   1
   3 -10  -4 748.818 132.511   7
   3 -10   4 586.500 118.918   5
   3 -10  -4 738.224 115.728   8
  -3  10  -4 630.382 162.426   3
   3 -10   4 707.402 153.699   8
  -3  10  -4 567.321 112.514   4
  -3  10   4 536.276 148.708   1
  -3  10   4 514.985 119.357   4
   3 -10   4 992.557 173.377   6
  -3  10   4 706.622 163.066   2
   3 -10  -4 599.175 112.859   5
   3 -10  -4 607.482 173.113   6
   3 -10   4 516.491 138.803   7
   3  10  -4 617.114 174.060   2
  -3  10  -5 6.58170 60.0796   1
  -3 -10   5-39.4813 148.853   5
   3 -10   5 11.8177 96.2049   7
  -3  10   5-53.4099 108.327   1
   3 -10   5-26.2417 64.6637   5
  -3 -10   5 40.5522 62.3666   8
   3 -10   5 112.109 123.690   8
  -3  10  -5 46.3500 100.767   3
  -3  10  -5 33.3756 52.7907   4
   3 -10  -5-67.5812 82.7378   7
   3 -10   5 12.8464 118.486   6
  -3  10   5 75.0069 68.8293   4
   3 -10  -5-110.637 129.524   6
   3  10  -5 56.3838 136.607   2
   3 -10   6 1374.93 252.928   8
   3  10  -6 1276.29 269.475   2
  -3  10   6 1653.76 225.355   4
   3 -10   6 1294.30 227.936   5
  -3 -10   6 1710.66 278.118   5
   3 -10  -6 1450.57 229.832   7
  -3  10  -6 1365.22 247.164   3
  -3 -10   6 1683.66 225.195   8
  -3  10   6 1577.29 249.387   1
   3 -10  -6 1344.86 257.254   6
   3  10  -7 19.9333 155.098   2
  -3  10   7-72.3121 121.423   1
  -3 -10   7 56.5246 143.884   5
   3 -10   7 121.473 82.0184   5
   3 -10   7 15.9032 130.048   8
  -3  10  -7 205.885 113.328   3
   3 -10  -7 49.2271 84.3582   7
  -3  10   7 56.3445 68.8621   4
  -3 -10   7 50.2863 71.6755   8
   3 -10  -7-145.877 134.739   6
   3  10  -8 207.641 177.617   2
  -3 -10   8 72.8886 136.957   5
   3 -10   8-28.9390 79.6732   5
   3 -10   8 179.509 149.698   8
  -3  10  -8 179.027 122.231   3
  -3 -10   8 290.979 75.8501   8
   3 -10  -8 189.277 88.8452   7
  -3  10   8 166.434 80.7436   4
   3 -10  -8 311.337 137.348   6
   3 -10  -9-20.2753 85.3286   7
   3  10  -9-64.3136 168.668   2
  -3 -10   9-54.3955 137.462   5
  -3 -10   9 184.611 83.5289   8
   3 -10   9-17.2837 146.927   8
  -3  10  -9 164.544 124.300   3
  -3  10   9 42.9784 78.8035   4
   3 -10  -9-16.5830 133.820   6
   3 -10   9 89.8043 74.1327   5
  -3 -10  10 474.936 165.490   5
   3 -10  10 459.620 177.626   8
  -3  10 -10 466.694 139.221   3
   3 -10 -10 186.593 109.646   7
  -3  10  10 579.251 115.916   4
   3 -10  10 360.427 109.296   5
   3 -10 -10 167.681 166.255   6
   3  10 -11 1167.15 253.496   3
   3  10 -11 1120.06 257.498   2
  -3 -10  11 1710.74 237.516   5
  -3  10 -11 1250.27 220.964   3
   3 -10  11 1116.21 232.591   8
   3 -10  11 1098.44 189.861   5
  -3  10  11 1035.52 186.511   4
   3 -10 -11 971.986 190.944   7
   3 -10 -11 1221.90 223.508   6
   3 -10  12 132.174 97.1200   5
  -3 -10  12 465.519 111.209   8
   3  10 -12 622.071 187.218   3
  -3 -10  12 428.491 154.842   5
   3  10 -12 118.007 208.027   2
   3 -10  12 380.145 171.867   8
  -3  10 -12 451.100 139.288   3
   3 -10 -12 215.812 108.567   7
  -3  10  12 412.582 106.786   4
   3 -10 -12 188.792 144.925   6
  -3  10 -13 3299.15 475.154   3
  -3 -10  13 3387.29 478.059   5
   3  10 -13 3071.51 494.090   3
   3 -10  13 3472.91 455.865   5
   3  10 -13 2372.80 491.753   2
   3 -10  13 3127.23 487.548   8
   3 -10 -13 2728.90 451.999   7
   3 -10 -13 3784.59 480.460   6
  -3  10  13 3224.15 450.120   4
   3 -10  14 375.936 117.859   5
   3  10 -14 301.820 180.275   3
  -3 -10  14 520.489 166.401   5
  -3  10 -14 413.889 147.649   3
  -3  10  14 299.444 110.087   4
   3 -10 -14 728.887 169.826   6
  -3 -10  16 56.2076 105.065   8
   3 -10 -16 59.1506 98.5498   7
   3  10 -16 78.7965 225.875   2
   3  10 -17 666.165 210.272   3
  -3 -10  17 530.627 160.110   5
  -3 -10  17 943.693 142.197   8
   3 -10 -17 435.127 171.484   6
   3 -10  17 510.786 128.497   5
  -3  10 -17 349.296 146.201   3
   3 -10 -17 157.535 126.463   7
   3  10 -17 377.678 252.294   2
  10  -3 -17 998.361 245.884   6
  -3  10  17 594.242 137.448   4
   3 -10  17 235.129 198.122   8
   3  10 -18 904.078 242.986   3
   3  10 -18 687.145 318.123   2
  -3 -10  18 322.097 161.344   5
  -3 -10  18 298.621 138.217   8
   3 -10  18 461.532 218.983   8
   3 -10  18 354.255 124.592   5
   3 -10 -18 110.127 166.588   6
  -3  10 -18 259.618 182.151   3
   3 -10 -18 86.8790 126.117   7
  -3  10  18 355.777 134.089   4
   3 -10 -19-149.761 143.902   6
  -3 -10  19-175.811 132.704   5
  -3 -10  19 24.4210 113.790   8
   3  10 -19 124.018 203.925   3
   3 -10  19-226.351 201.483   8
   3 -10  19 40.7701 107.970   5
   3 -10 -19 38.1336 99.1808   7
  -3  10 -19 41.1448 136.260   3
   3  10 -19-27.9653 240.342   2
  -3  10  19 123.288 122.904   4
   3 -10 -20-114.455 153.605   6
   3  10 -20 101.096 206.448   3
   3  10 -20 28.5541 246.755   2
   3 -10  20 163.525 209.248   8
  -3 -10  20 162.234 109.605   8
  -3 -10  20 92.3855 135.044   5
   3 -10 -20 208.314 117.829   7
  -3  10 -20 148.766 157.369   3
  -3  10  20 179.727 116.851   4
   3 -10 -21 58.3489 164.708   6
   3 -10  21-258.109 219.868   8
  -3 -10  21 15.4091 132.560   5
  -3 -10  21 25.5138 121.749   8
   3  10 -21 76.2186 192.404   3
   3  10 -21-115.952 233.619   2
   3 -10 -21 173.319 122.122   7
  -3  10 -21 65.7436 158.705   3
  -3  10  21 79.9445 121.394   4
   3 -10 -22 138.860 164.833   6
  -3 -10  22 273.583 134.725   5
   3  10 -22-147.052 241.380   2
  -3 -10  22 305.158 125.929   8
   3 -10  22-145.975 210.452   8
   3  10 -22 154.187 208.411   3
  -3  10  22 152.579 131.451   4
   3 -10 -22 218.385 134.476   7
   3 -10 -23 20.1971 161.075   6
   3  10 -23 178.919 263.960   2
  -3 -10  23-135.799 134.514   8
  -3 -10  23 45.7432 133.850   5
   3  10 -23-155.794 216.322   3
   3 -10 -23-55.9113 133.630   7
  -3  10  23 14.4558 138.533   4
   3 -10 -24 82.3292 165.374   6
   3  10 -24-120.982 245.433   2
  -3 -10  24-13.9154 128.492   8
  -3 -10  24 61.1841 139.344   5
   3  10 -24-25.7730 181.787   3
   3 -10 -24 100.192 136.592   7
  -3  10  24 120.691 140.372   4
   3 -10 -25 502.400 199.232   6
   3  10 -25 77.5928 213.871   3
  -3 -10  25 441.956 150.959   5
   3  10 -25 122.767 254.175   2
   3 -10 -25 279.454 148.279   7
  -3  10  25 488.774 157.367   4
  -3 -10  25 457.251 143.295   8
  -3 -10  26 220.425 147.206   8
   3 -10 -26 340.294 182.870   6
  -3 -10  26 290.412 142.336   5
   3  10 -26 155.805 266.393   2
   3  10 -26 181.590 197.246   3
   3 -10 -26 437.077 154.985   7
  -3  10  26 478.807 170.127   4
   3 -10 -27 431.777 211.002   6
  -3 -10  27 1667.33 212.209   8
   3  10 -27 474.962 298.595   2
  -3 -10  27 934.990 201.122   5
   3 -10 -27 587.127 195.687   7
   3  10 -27 616.081 248.416   3
  -3  10  27 1316.42 226.050   4
   3  10 -28-128.838 280.983   2
  -3 -10  28 30.8322 146.236   8
   3  10 -28-231.008 213.118   3
  -3 -10  28-61.7771 145.407   5
   3 -10 -28 31.6874 145.351   7
  -3  10  28 144.341 172.000   4
  -3 -10  29 336.029 169.023   8
  -3 -10  29 891.253 167.638   5
   3  10 -29 25.7426 202.668   3
   3  10 -29-98.4217 271.217   2
   3 -10 -29 521.640 166.152   7
   3 -10 -30 167.480 143.951   7
   3 -10 -31 69.2280 150.820   7
  -4  10   0 8525.11 1072.87   3
   4 -10   0 7909.45 1058.36   5
  -4  10   0 7176.74 1057.29   4
   4 -10   0 7099.14 1080.44   6
  -4  10   0 8340.72 1064.71   1
   4 -10  -1 975.112 147.412   5
   4 -10  -1 1066.17 171.877   8
   4 -10   1 872.045 189.266   8
  -4  10  -1 1094.66 161.671   1
  -4  10  -1 1051.60 179.236   3
  -4  10   1 885.051 168.462   3
   4 -10   1 884.864 181.399   7
  -4  10   1 892.159 147.265   4
   4 -10   1 713.675 149.661   5
   4 -10  -1 1295.72 185.775   7
  -4  10   1 849.999 165.915   1
   4 -10   1 944.398 204.933   6
   4 -10  -1 796.718 200.866   6
  -4  10   2 4663.13 588.021   3
  -4  10  -2 4085.07 589.933   3
   4 -10  -2 3859.84 571.901   5
   4 -10   2 3772.19 574.927   5
   4 -10  -2 4266.68 581.783   8
   4 -10   2 4294.52 595.926   8
   4 -10   2 4609.99 594.420   7
  -4  10   2 4110.30 573.875   4
   4 -10  -2 4031.81 585.886   7
   4 -10   2 3982.57 602.589   6
   4 -10  -2 4648.71 608.846   6
  -4  10  -2 4266.41 577.206   1
  -4  10   2 4383.33 583.399   1
   4 -10  -3 1165.18 180.746   5
   4 -10  -3 1104.78 191.555   8
   4 -10   3 1169.79 186.672   5
  -4  10   3 1117.47 205.240   1
   4 -10   3 895.139 220.835   8
  -4  10   3 1445.75 188.977   4
   4 -10   3 1057.50 210.386   7
  -4  10  -3 1064.54 207.595   3
   4 -10  -3 1177.63 201.998   7
  -4  10  -3 1402.14 188.596   1
   4 -10   3 1261.93 226.310   6
   4 -10  -3 1271.32 242.604   6
  -4  10   3 1304.06 202.118   3
  -4 -10   4 300.873 201.863   5
   4 -10   4 591.422 117.544   5
   4 -10   4 729.871 179.290   8
  -4  10  -4 472.013 137.818   3
  -4  10   4 626.853 116.350   4
   4 -10  -4 531.404 144.021   7
  -4  10   4 646.244 145.222   1
   4 -10   4 628.072 170.888   6
   4 -10  -4 687.875 187.167   6
  -4  10  -4 788.671 113.112   1
  -4  10  -5 3080.77 398.085   3
   4 -10   5 2501.19 379.496   5
  -4 -10   5 2323.77 425.252   5
   4 -10   5 2401.73 409.077   8
   4 -10  -5 2435.05 388.123   7
  -4  10   5 2655.11 377.359   4
   4  10  -5 2921.31 414.112   2
   4 -10   5 2316.99 401.489   6
   4 -10  -5 3405.36 421.203   6
  -4  10   5 2971.80 397.072   1
  -4 -10   6 198.250 151.232   5
  -4 -10   6 145.439 76.5746   8
   4 -10  -6-33.1136 96.6227   7
   4  10  -6 171.168 127.500   2
   4 -10   6 37.6641 73.6370   5
   4 -10   6-183.331 151.934   8
  -4  10  -6 45.2441 102.223   3
  -4  10   6 86.7073 71.2101   4
   4 -10  -6-54.0192 149.234   6
  -4  10   6 66.8423 113.774   1
  -4 -10   7 1446.62 274.271   5
  -4  10   7 1149.71 234.911   1
  -4 -10   7 1267.70 211.652   8
   4 -10   7 1143.68 212.997   5
   4 -10   7 1283.22 272.098   8
   4 -10  -7 1589.57 224.811   7
  -4  10   7 1340.09 210.904   4
  -4  10  -7 1724.27 243.613   3
   4 -10  -7 1816.74 261.247   6
   4  10  -7 1797.42 270.405   2
  -4 -10   8-61.5808 166.539   5
  -4 -10   8-52.6306 72.6526   8
  -4  10   8 58.8437 128.741   1
   4 -10   8 30.5163 74.9205   5
   4 -10  -8 33.2207 86.7682   7
  -4  10   8 41.4197 84.4709   4
  -4  10  -8 47.7519 119.578   3
   4 -10  -8 181.346 150.597   6
   4 -10   8-59.6193 163.415   8
   4  10  -8 220.175 161.287   2
  -4 -10   9 998.755 253.168   5
   4 -10  -9 1134.83 215.423   7
   4 -10   9 1036.40 202.113   5
   4 -10   9 1162.94 269.351   8
  -4  10   9 1456.45 202.800   4
  -4  10  -9 1278.31 228.263   3
  -4  10   9 1308.44 246.287   1
   4 -10  -9 1498.94 269.776   6
   4  10 -10 593.752 225.902   2
  -4 -10  10 1068.01 220.163   5
  -4  10  10 901.421 212.157   1
   4 -10 -10 526.194 168.319   7
   4 -10  10 1313.68 171.759   5
   4 -10  10 670.018 226.087   8
  -4  10 -10 1059.85 191.012   3
  -4  10  10 958.080 161.221   4
   4 -10 -10 994.021 222.105   6
   4  10 -11 700.181 207.284   2
  -4 -10  11 881.674 205.740   5
   4 -10  11 881.716 154.615   5
   4 -10  11 837.940 226.122   8
  -4  10  11 620.671 183.837   1
  -4  10 -11 1143.21 186.057   3
   4 -10 -11 832.104 160.226   7
  -4  10  11 771.876 146.285   4
  -4 -10  11 623.059 143.449   8
   4 -10 -11 834.099 201.169   6
  -4  10 -12 3707.89 463.048   3
   4  10 -12 2597.92 475.314   2
  -4 -10  12 2775.72 464.892   5
   4 -10  12 3159.87 439.687   5
   4 -10  12 1943.76 474.411   8
   4 -10 -12 3198.17 441.623   7
  -4  10  12 2995.97 434.207   4
  -4 -10  12 3472.35 434.932   8
   4 -10 -12 2816.40 462.762   6
  -4  10  12 2725.69 460.599   1
   4  10 -13 510.756 223.854   3
  -4 -10  13 1024.58 216.267   5
   4 -10  13 1049.41 178.739   5
  -4  10 -13 715.979 196.613   3
  -4  10  13 1109.45 170.717   4
   4 -10 -13 983.633 221.038   6
   4 -10  15 541.007 234.718   8
  -4  10 -16 644.420 255.313   3
  -4 -10  16 1711.01 219.534   8
   4  10 -16 886.138 292.762   2
   4 -10 -16 1115.60 221.128   7
  -4  10  16 1046.19 263.222   1
  -4  10  16 1254.71 214.668   4
  10  -4 -16 1585.31 295.647   6
   4 -10 -16 1789.11 262.224   6
  -4 -10  17 186.458 104.044   8
   4  10 -17 23.5469 209.008   3
   4  10 -17-52.0478 227.689   2
  -4 -10  17-53.5946 158.123   5
   4 -10 -17 12.5200 114.247   7
  -4  10 -17-145.304 163.743   3
  -4  10  17 134.077 114.358   4
   4 -10 -17-422.710 170.064   6
   4  10 -18-194.931 216.632   3
   4  10 -18 26.5480 232.495   2
  -4 -10  18 313.897 159.157   5
  -4 -10  18 329.103 109.046   8
   4 -10 -18 51.1577 118.790   7
  -4  10  18 150.136 101.342   4
   4 -10 -18 19.3801 164.777   6
   4 -10 -19 216.146 154.022   6
   4  10 -19-75.4334 211.752   3
   4  10 -19-27.0584 231.009   2
  -4 -10  19 453.993 157.255   5
  -4 -10  19 348.887 117.671   8
   4 -10 -19 235.138 131.222   7
  -4  10  19 286.105 131.713   4
   4 -10 -20 298.749 171.169   6
   4  10 -20 83.1116 218.532   2
   4  10 -20 180.799 215.838   3
  -4 -10  20 23.8244 108.111   8
  -4 -10  20-153.786 152.100   5
   4 -10 -20-80.0946 108.288   7
  -4  10  20-24.6991 105.490   4
  10  -4 -20 51.8820 221.589   6
   4 -10 -21 462.864 177.084   6
   4  10 -21 140.851 248.404   2
   4  10 -21 602.994 235.569   3
  -4 -10  21 609.563 172.415   5
  -4 -10  21 469.610 140.468   8
 -10   4  21 463.971 113.742   4
   4 -10 -21 354.619 140.086   7
  -4  10  21 538.357 145.967   4
  10  -4 -21 285.729 236.757   6
   4 -10 -22-141.953 173.280   6
   4  10 -22-343.461 247.509   2
   4  10 -22-240.386 225.380   3
  -4 -10  22 97.6464 129.827   5
  -4 -10  22 12.6569 113.383   8
   4 -10 -22 69.6919 122.028   7
 -10   4  22-18.9517 87.5008   4
  -4  10  22 13.3289 122.355   4
  10  -4 -22-103.158 232.180   6
 -10   4  22-122.908 103.786   1
   4 -10 -23 742.784 202.985   6
   4  10 -23 494.148 277.215   2
   4 -10 -23 455.814 156.424   7
  -4 -10  23 536.083 163.250   5
   4  10 -23 514.961 259.453   3
  -4 -10  23 440.967 144.720   8
  -4  10  23 277.600 146.732   4
   4 -10 -24 209.992 188.465   6
  -4 -10  24 478.871 145.888   8
   4  10 -24 533.926 257.227   2
   4  10 -24-54.2355 220.543   3
  -4 -10  24 453.414 162.936   5
   4 -10 -24 422.342 149.147   7
  -4  10  24 749.381 164.787   4
   4 -10 -25 42.7699 167.333   6
   4  10 -25 361.267 259.079   2
  -4 -10  25 463.499 161.571   5
  -4 -10  25 587.258 148.023   8
   4  10 -25 109.435 229.053   3
   4 -10 -25 431.964 150.222   7
  -4  10  25 195.088 152.894   4
   4 -10 -26 86.9686 209.385   6
  -4 -10  26 1118.14 211.326   5
   4  10 -26 61.1320 270.576   2
  -4 -10  26 1657.00 211.138   8
   4  10 -26 732.140 276.708   3
   4 -10 -26 1036.41 209.000   7
  -4  10  26 1173.18 222.040   4
   4 -10 -27 243.197 211.667   6
   4  10 -27-527.937 303.914   2
   4  10 -27 108.666 229.524   3
  -4  10  27-953.125 311.485   1
  -4 -10  27 475.839 158.814   5
   4 -10 -27 299.153 164.969   7
  -4  10  27 800.280 173.424   4
  -4 -10  27 766.897 169.013   8
   4 -10 -28 134.692 201.257   6
   4  10 -28-189.335 289.552   2
  -4 -10  28 1362.34 206.478   5
   4  10 -28 27.2009 230.282   3
   4 -10 -28 677.684 183.773   7
  -4  10  28 935.741 322.677   1
  -4  10  28 802.480 203.107   4
  -4 -10  28 1658.42 200.270   8
  -4  10  29 105.734 299.208   1
   4 -10 -29 91.0486 178.256   6
   4 -10 -29-148.978 146.511   7
  -4  10  29 89.3928 171.686   4
   4 -10 -30 115.287 174.494   6
   4 -10 -30 289.035 154.894   7
  -4  10  30 223.734 310.733   1
  -4  10  30 131.428 186.508   4
   4 -10 -31 176.280 161.770   7
  -4  10  31 78.0813 184.786   4
  -5  10   0 1564.07 209.939   3
  -5  10   0 1051.27 184.944   1
   5 -10   0 1270.10 223.207   8
   5 -10   0 993.978 175.516   5
   5 -10   0 1001.61 212.394   7
   5 -10   0 1595.63 245.196   6
  -5  10  -1 4095.71 523.902   3
  -5  10   1 4069.34 522.714   3
   5 -10   1 3816.01 507.185   5
   5 -10   1 3445.08 534.243   8
   5 -10   1 2916.25 525.408   7
   5 -10   1 3339.83 539.312   6
   5 -10  -1 4039.65 549.724   6
  -5  10  -1 3340.17 506.804   1
  -5  10   1 3690.78 512.846   1
  -5  10  -2 2290.43 297.825   3
  -5  10   2 1972.64 291.132   3
   5 -10   2 1877.91 276.684   5
   5 -10  -2 1814.62 294.247   8
   5 -10   2 1469.70 316.185   8
   5 -10  -2 1608.99 299.494   7
  -5  10  -2 1852.64 275.043   1
   5 -10   2 2084.25 315.114   6
   5 -10  -2 1733.64 322.508   6
  -5  10   2 2017.37 286.826   1
  -5  10   3 2360.95 281.142   3
   5 -10   3 1727.57 261.119   5
   5 -10  -3 1613.94 284.366   7
   5 -10   3 1848.84 311.061   8
  -5  10  -3 1855.96 278.973   3
   5 -10   3 1200.62 294.827   6
   5 -10  -3 2036.26 320.100   6
  -5  10   3 1601.23 269.208   1
  -5  10  -4 2643.46 345.465   3
   5 -10   4 2253.30 325.224   5
   5 -10   4 1984.82 373.329   8
  -5  10   4 2000.63 323.691   4
   5 -10  -4 1963.40 344.320   7
   5 -10   4 2200.74 354.040   6
   5 -10  -4 2463.88 380.305   6
  -5  10   4 2719.25 339.463   1
   5 -10  -5 78.9888 113.539   7
  -5  10  -5 125.247 112.385   3
   5 -10   5 20.5588 168.502   8
  -5  10   5-8.03666 67.2519   4
   5 -10   5 15.3371 136.566   6
   5 -10  -5-19.9011 178.179   6
  -5  10   5 12.0111 94.1277   1
  -5  10  -6 2727.69 403.031   3
   5 -10   6 3541.64 443.618   8
  -5  10   6 2365.75 379.613   4
   5 -10  -6 2893.24 400.572   7
   5 -10   6 2973.66 413.639   6
   5 -10  -6 2852.00 431.688   6
  -5  10   6 2520.70 395.584   1
  -5  10   7 187.745 118.442   1
   5 -10  -7 205.360 127.087   7
  -5  10   7 174.862 83.0873   4
  -5  10  -7 299.601 128.604   3
   5 -10  -7 121.575 181.692   6
   5 -10   7 134.620 193.964   8
  -5  10  -8 2211.20 298.357   3
  -5 -10   8 2153.46 335.999   5
  -5  10   8 1642.11 286.602   1
   5 -10   8 2462.27 358.065   8
  -5  10   8 1707.09 265.691   4
   5 -10  -8 1387.76 282.873   7
   5 -10  -8 1824.61 325.047   6
  -5 -10   9 22.2290 168.668   5
  -5  10   9 69.3479 81.8262   4
   5 -10   9 24.4332 181.676   8
  -5  10   9 102.827 119.732   1
   5 -10  -9 25.2919 112.216   7
  -5  10  -9 265.274 131.213   3
   5 -10  -9 142.605 179.658   6
  -5 -10  10 1636.79 306.970   5
   5 -10 -10 1477.03 258.044   7
   5 -10  10 1917.04 345.827   8
  -5  10  10 1501.12 243.839   4
  -5  10  10 1268.77 268.347   1
   5 -10 -10 1513.70 298.666   6
   5  10 -10 1430.08 288.141   2
  -5 -10  10 2048.84 248.766   8
  -5 -10  11 644.029 215.946   5
   5 -10  11 885.967 265.329   8
  -5 -10  11 1113.40 166.271   8
   5 -10 -11 1174.38 186.020   7
  -5  10  11 931.355 162.177   4
   5 -10 -11 986.033 234.475   6
  -5  10  11 459.681 191.917   1
   5  10 -11 953.852 233.031   2
  -5 -10  12 919.604 238.786   5
  -5  10  12 1085.64 184.006   4
   5 -10 -12 1531.13 262.080   6
   5  10 -15 352.720 238.744   2
  -5  10  15 830.915 227.924   1
  -5 -10  15 867.297 173.986   8
   5 -10 -15 1050.00 192.666   7
  -5  10  15 1056.05 176.184   4
   5  10 -16 363.666 222.584   2
   5  10 -16 425.238 220.400   3
  -5 -10  16 855.203 191.295   5
  -5 -10  16 814.091 134.855   8
  -5  10  16 312.257 204.287   1
   5 -10 -16-13.3512 138.563   7
  -5  10  16 731.732 132.659   4
   5 -10 -16 838.705 204.886   6
   5  10 -17-174.855 208.115   2
   5  10 -17-115.747 221.799   3
  -5 -10  17 291.947 177.647   5
  -5 -10  17 151.874 105.514   8
   5 -10 -17 67.2206 127.278   7
  -5  10  17-80.7284 184.206   1
  -5  10  17-129.708 105.630   4
  10  -5 -17 133.621 246.498   6
   5 -10 -17 205.797 185.292   6
   5  10 -18 101.875 215.091   2
   5  10 -18 313.020 218.051   3
  -5 -10  18 399.504 171.305   5
  -5 -10  18 577.488 121.308   8
   5 -10 -18 13.6889 118.487   7
  -5  10  18 358.152 123.716   4
  -5  10  18 793.560 206.722   1
   5 -10 -18 351.806 183.739   6
 -10   5  18 321.507 118.578   1
  10  -5 -18 433.754 267.478   6
 -10   5  19-73.4421 99.6764   1
   5  10 -19-52.3813 207.844   2
   5  10 -19-275.395 203.607   3
  -5 -10  19-57.1101 166.212   5
   5 -10 -19-237.060 124.272   7
  -5 -10  19-91.1421 107.965   8
  -5  10  19-81.6051 108.768   4
  10  -5 -19 54.2577 260.918   6
  -5  10  19-131.326 189.800   1
   5 -10 -19-62.4732 155.826   6
  -5  10  20 476.270 229.074   1
 -10   5  20 477.349 144.161   1
   5  10 -20 453.443 240.024   2
   5  10 -20 207.215 241.477   3
  -5 -10  20 760.965 194.432   5
  -5 -10  20 1040.29 156.762   8
   5 -10 -20 355.233 158.406   7
  -5  10  20 725.005 150.559   4
  10  -5 -20 1009.15 295.365   6
 -10   5  20 565.558 122.178   4
   5 -10 -20 524.494 190.805   6
  -5 -10  21 132.178 121.904   8
 -10   5  21 180.076 114.388   1
  -5  10  21 23.5100 204.788   1
   5  10 -21-54.2830 223.424   2
   5  10 -21-187.022 228.493   3
  -5 -10  21 167.019 161.795   5
   5 -10 -21 14.4806 124.947   7
 -10   5  21 57.7033 93.0211   4
  -5  10  21 124.859 117.779   4
  10  -5 -21 27.0583 245.823   6
   5 -10 -21 105.571 176.228   6
   5 -10 -22 320.499 188.865   6
 -10   5  22 486.618 150.192   1
   5  10 -22-27.8174 242.550   2
  -5  10  22 609.940 237.051   1
   5  10 -22 384.008 275.472   3
  -5 -10  22 959.975 193.411   5
  10  -5 -22 532.254 232.069   7
 -10   5  22 627.529 127.804   4
   5 -10 -22 354.305 171.302   7
  -5  10  22 696.002 160.507   4
  10  -5 -22 374.958 271.857   6
  -5 -10  22 739.617 145.855   8
   5 -10 -23-64.1537 159.966   6
 -10   5  23-13.4313 115.435   1
   5  10 -23-254.462 220.607   2
  -5  10  23-278.670 212.382   1
   5  10 -23 27.8082 234.607   3
  -5 -10  23 268.490 167.235   5
  -5 -10  23 25.2879 113.500   8
  10  -5 -23 152.858 201.684   7
  10  -5 -23-158.501 241.050   6
 -10   5  23 60.2869 92.1793   4
   5 -10 -23-15.0570 138.864   7
  -5  10  23-120.192 135.510   4
   5 -10 -24 302.027 195.249   6
  -5  10  24 579.466 258.262   1
   5  10 -24 287.204 256.217   2
   5  10 -24 367.740 251.993   3
  -5 -10  24 788.860 187.583   5
 -10   5  24 750.584 135.713   4
  10  -5 -24 230.505 227.238   7
   5 -10 -24 337.982 153.555   7
  -5 -10  24 895.601 153.468   8
  -5  10  24 429.670 157.591   4
  10  -5 -24 550.475 273.367   6
   5 -10 -25 87.6738 190.836   6
  -5  10  25 685.264 279.264   1
   5  10 -25 583.268 255.969   2
  -5 -10  25 1602.55 213.617   5
   5 -10 -25 297.974 165.887   7
   5  10 -25 198.544 249.820   3
  -5  10  25 518.792 173.656   4
  -5 -10  25 1213.31 186.465   8
   5 -10 -26 155.821 178.650   6
   5  10 -26-148.120 237.859   2
  -5 -10  26 434.247 153.537   5
  -5 -10  26 633.342 141.583   8
   5  10 -26 57.2114 233.136   3
   5 -10 -26 448.528 171.535   7
  -5  10  26 405.246 153.793   4
  -5  10  26-314.346 242.143   1
   5 -10 -27 293.925 231.146   6
   5  10 -27 842.200 335.671   2
  -5 -10  27 1446.69 231.347   5
  -5 -10  27 1304.62 211.605   8
   5 -10 -27 802.481 222.617   7
   5  10 -27 1439.98 351.694   3
  -5  10  27 1223.47 328.614   1
  -5  10  27 719.807 214.221   4
   5 -10 -28 436.516 204.619   6
   5 -10 -28 251.295 163.118   7
  -5  10  28 432.055 286.019   1
  -5  10  28 130.444 153.635   4
   5 -10 -29 93.2245 193.637   6
  -5  10  29 161.964 285.604   1
   5 -10 -29 154.437 157.383   7
  -5  10  29 357.221 167.662   4
  -5  10  30 68.2061 278.185   1
   5 -10 -30 94.1790 200.718   6
   5 -10 -30 249.103 168.089   7
  -5  10  30 71.0981 171.252   4
   5 -10 -31-238.315 198.505   6
  -5  10  31-468.451 295.029   1
  -5  10  31-148.772 167.187   4
   6 -10   0 1923.91 310.094   8
  -6  10   0 1706.41 256.430   1
   6 -10   0 1542.32 302.797   6
   6 -10  -1 1365.64 292.369   7
   6 -10  -1 2012.61 310.322   8
   6 -10   1 1882.63 319.827   8
  -6  10   1 1931.67 263.503   1
   6 -10   1 1440.77 308.601   6
   6 -10  -1 1567.24 319.861   6
  -6  10   2 251.317 93.7190   1
   6 -10   2 192.283 176.762   8
   6 -10  -2 35.0847 149.535   7
   6 -10   2 53.3011 163.946   6
   6 -10  -2 244.749 185.705   6
   6 -10   3 1670.88 312.209   8
   6 -10  -3 1700.17 282.577   7
   6 -10   3 1280.29 278.474   6
  -6  10   3 1758.04 248.874   1
   6 -10  -3 1357.09 308.833   6
   6 -10   4-92.8926 194.864   8
  -6  10   4-77.4110 91.5966   1
   6 -10  -4-147.149 140.334   7
   6 -10   4 66.6846 151.938   6
   6 -10  -4 85.9136 199.812   6
   6 -10   5 2752.39 407.278   8
   6 -10  -5 2095.53 358.459   7
   6 -10  -5 1985.15 387.180   6
  -6  10   5 2413.82 343.668   1
  -6  10   6 958.248 179.918   4
   6 -10  -6 1033.91 216.642   7
  -6  10   6 1293.30 200.777   1
   6 -10  -6 1593.87 271.806   6
  -6  10   7 1628.73 239.642   4
   6 -10  -7 1192.98 264.765   7
   6 -10  -7 1816.23 315.848   6
  -6  10   7 1745.68 260.010   1
  -6  10   8 959.846 157.254   4
   6 -10  -8 609.127 190.156   7
   6 -10  -8 1218.41 260.112   6
  -6  10   8 967.484 179.531   1
  -6  10   9 2191.93 331.884   4
   6 -10  -9 2227.56 353.898   7
  -6  10   9 2250.87 346.885   1
   6 -10  -9 3017.68 403.304   6
   6 -10 -10-173.922 127.183   7
  -6  10  10 63.3559 82.3760   4
   6 -10 -10 181.558 207.645   6
  -6 -10  11 892.407 223.890   5
  -6  10  11 506.800 121.617   4
   6 -10 -11 614.065 226.022   6
   6  10 -13-21.9209 175.483   2
  -6 -10  13 1011.65 144.100   8
  -6 -10  14 641.202 124.620   8
  -6  10  14 567.998 122.992   4
   6 -10 -14 564.848 215.900   6
  -6 -10  15 1025.36 211.493   5
  -6 -10  15 695.045 128.084   8
  -6  10  15 208.471 168.510   1
   6 -10 -15 14.5511 152.253   7
  -6  10  15 784.101 131.119   4
  10  -6 -15 764.588 268.911   6
   6  10 -15 158.964 201.668   2
   6 -10 -15 407.099 217.893   6
  -6  10  16-237.038 170.736   1
  -6 -10  16 65.6671 180.916   5
   6 -10 -16-206.449 148.758   7
  -6  10  16-62.0443 100.903   4
  10  -6 -16-140.059 253.094   6
  -6 -10  16 10.7874 100.653   8
   6 -10 -16-135.774 225.363   6
   6  10 -16-139.603 187.798   2
 -10   6  16-83.7299 104.045   1
 -10   6  17 147.866 122.885   1
   6  10 -17 442.592 213.739   3
  -6 -10  17 448.534 213.730   5
  10  -6 -17 682.463 282.066   6
  -6 -10  17 869.711 132.051   8
   6 -10 -17 369.191 151.614   7
  -6  10  17 586.292 134.207   4
  -6  10  17 882.888 199.647   1
   6 -10 -17 514.076 209.745   6
   6  10 -17 262.727 204.736   2
 -10   6  18-63.3582 107.695   1
   6  10 -18-48.1786 192.127   3
  -6 -10  18 376.010 183.368   5
  -6 -10  18 89.7623 98.5851   8
   6 -10 -18-14.9840 130.041   7
  -6  10  18 32.9142 106.242   4
  -6  10  18 39.4907 164.552   1
  10  -6 -18-199.258 259.092   6
   6 -10 -18 134.353 178.601   6
   6  10 -18 24.3007 196.520   2
 -10   6  19 585.264 141.856   1
   6  10 -19 274.918 231.320   3
  -6 -10  19 335.454 184.418   5
  -6 -10  19 874.814 137.435   8
  10  -6 -19 100.234 214.240   7
 -10   6  19 385.318 114.834   4
   6 -10 -19 349.892 160.444   7
  -6  10  19 541.944 141.185   4
  -6  10  19 774.180 208.571   1
  10  -6 -19 457.570 257.235   6
   6 -10 -19 829.948 205.273   6
   6  10 -19-224.859 223.258   2
 -10   6  20 79.9595 126.843   1
   6  10 -20 51.8475 223.907   3
  -6 -10  20 307.058 180.175   5
  -6 -10  20 505.432 118.090   8
   6 -10 -20 290.134 147.448   7
  10  -6 -20 429.486 208.361   7
 -10   6  20 332.466 100.869   4
  -6  10  20 293.533 125.578   4
  10  -6 -20 255.019 265.908   6
  -6  10  20 126.148 186.930   1
   6 -10 -20 427.597 184.719   6
   6  10 -20 482.949 219.691   2
   6  10 -21 336.034 232.585   2
 -10   6  21 260.279 128.275   1
   6  10 -21 457.842 247.329   3
  10  -6 -21 101.853 221.502   7
  -6 -10  21 470.048 183.643   5
 -10   6  21 99.3964 101.217   4
   6 -10 -21 263.850 150.933   7
  -6 -10  21 422.289 124.513   8
  -6  10  21 425.461 130.005   4
  10  -6 -21 702.197 279.981   6
  -6  10  21 521.230 204.105   1
   6 -10 -21 338.730 207.536   6
   6  10 -22-132.849 212.715   2
 -10   6  22 364.100 133.971   1
   6  10 -22 751.195 268.401   3
  -6 -10  22 218.544 172.134   5
  10  -6 -22 27.7134 243.829   6
  -6 -10  22 445.879 116.498   8
   6 -10 -22 47.3324 143.975   7
  10  -6 -22 152.941 204.978   7
  -6  10  22 226.487 122.630   4
 -10   6  22 193.059 102.597   4
  -6  10  22 157.165 211.620   1
   6 -10 -22 179.379 188.851   6
  -6  10  23 905.830 237.465   1
   6  10 -23-81.0140 221.704   2
 -10   6  23 743.581 166.397   1
   6  10 -23 658.934 287.556   3
  -6 -10  23 909.186 207.074   5
  -6 -10  23 877.156 159.312   8
 -10   6  23 581.105 137.783   4
  10  -6 -23 436.027 242.090   7
   6 -10 -23 288.905 177.719   7
  -6  10  23 847.375 166.602   4
  10  -6 -23 517.182 269.643   6
   6 -10 -23 495.198 212.171   6
   6 -10 -24 90.8800 183.091   6
  -6  10  24-216.445 215.917   1
   6  10 -24-82.3013 225.586   2
 -10   6  24 132.109 136.852   1
   6  10 -24 88.0194 228.118   3
  -6 -10  24-384.464 171.160   5
  -6 -10  24 13.0064 119.386   8
  10  -6 -24 25.7924 203.494   7
   6 -10 -24-147.050 156.572   7
 -10   6  24 63.5329 97.2242   4
  -6  10  24-107.769 125.603   4
  10  -6 -24 107.761 237.114   6
   6 -10 -25 160.545 185.438   6
  -6  10  25 24.9253 203.904   1
   6  10 -25-222.873 213.179   2
 -10   6  25 456.779 120.149   4
 -10   6  25 314.372 146.027   1
   6  10 -25 88.9777 254.128   3
  -6 -10  25 477.559 166.540   5
  -6 -10  25 895.504 152.956   8
  10  -6 -25 207.439 216.584   7
   6 -10 -25 382.667 171.397   7
  -6  10  25 278.644 134.179   4
  10  -6 -25 449.422 249.864   6
   6 -10 -26 623.075 251.086   6
   6  10 -26 486.010 277.635   2
   6  10 -26 208.360 272.842   3
  -6 -10  26 918.396 206.922   5
  -6  10  26 548.985 166.482   4
   6 -10 -26 406.964 187.810   7
  -6 -10  26 398.708 161.127   8
  -6  10  26 362.315 259.999   1
  -6 -10  27 693.473 157.331   8
   6 -10 -27 242.151 171.451   7
  -6  10  27 720.503 155.427   4
  -6  10  27 403.653 255.489   1
   6 -10 -28 211.105 187.322   6
   6 -10 -28 212.019 166.908   7
  -6  10  28 46.8473 147.230   4
  -6  10  28 504.749 250.824   1
   6 -10 -29 380.464 218.108   6
   6 -10 -29 530.187 183.813   7
  -6  10  29 58.5570 252.812   1
  -6  10  29 372.655 151.926   4
   6 -10 -30 24.1144 197.614   6
   6 -10 -30-131.021 164.253   7
  -6  10  30 30.6649 261.145   1
  -6  10  30 168.593 161.519   4
   7 -10   0 2157.80 293.377   8
   7 -10   0 889.713 270.011   6
   7 -10   1-152.385 173.250   6
   7 -10  -1-20.3049 161.148   6
  -7  10   2 858.894 165.563   1
   7 -10  -2 1320.82 253.135   6
  -7  10   3 286.994 96.5833   1
   7 -10  -3 174.787 150.788   7
   7 -10  -3 65.7676 198.120   6
  -7  10   4 1004.19 163.937   1
   7 -10  -4 473.248 236.650   6
   7 -10  -4 795.172 212.872   7
   7 -10  -5 1158.41 282.726   7
  -7  10   5 1630.46 240.949   1
   7 -10  -5 1519.99 315.496   6
  -7  10   6 747.607 153.912   1
   7 -10  -6 800.177 202.446   7
   7 -10  -6 787.186 251.651   6
  -7  10   7 2998.01 426.184   1
   7 -10  -7 2336.20 446.534   7
   7 -10  -7 3855.43 491.778   6
  -7  10   8 794.460 167.979   1
   7 -10  -8 1127.97 213.933   7
   7 -10  -8 692.088 267.588   6
  -7  10   9 893.688 181.893   4
   7 -10  -9 2675.85 319.087   6
   7 -10 -11 119.147 147.329   7
  -7  10  11 84.6933 127.055   1
  -7  10  12 315.878 103.450   4
   7 -10 -12 201.633 158.432   7
  -7  10  12 323.626 139.450   1
   7 -10 -12 453.950 223.240   6
  -7  10  13 19.4979 83.7145   4
   7 -10 -13 201.964 222.234   6
  -7  10  14 496.585 134.987   4
  10  -7 -14 849.013 302.522   6
   7 -10 -14 1226.30 263.794   6
  -7  10  14 913.637 194.233   1
 -10   7  14 559.598 151.177   1
 -10   7  15 12.2818 107.643   1
  -7  10  15-177.755 152.549   1
  -7 -10  15-366.118 195.905   5
  -7  10  15-90.8747 91.4697   4
   7 -10 -15-248.904 150.994   7
  10  -7 -15-58.2177 242.970   6
   7 -10 -15-24.9723 205.224   6
 -10   7  16 278.173 119.591   1
  -7  10  16 169.203 147.011   1
  -7 -10  16 883.497 218.962   5
  10  -7 -16-171.829 185.469   7
   7 -10 -16 100.513 153.627   7
  -7  10  16 536.598 114.760   4
   7  10 -16 115.374 183.489   2
  10  -7 -16 384.953 265.660   6
   7 -10 -16 149.507 203.069   6
 -10   7  17 220.987 113.624   1
  -7  10  17 278.076 145.278   1
  -7 -10  17 359.684 216.868   5
   7 -10 -17 366.316 169.951   7
  -7  10  17 158.540 103.490   4
  10  -7 -17 237.509 266.816   6
   7  10 -17 234.416 205.631   2
   7 -10 -17 123.021 218.723   6
 -10   7  18 576.205 136.589   1
  -7  10  18 443.547 113.830   4
  -7  10  18 656.470 174.436   1
  -7 -10  18 725.637 214.836   5
  10  -7 -18 200.582 210.688   7
 -10   7  18 294.640 106.663   4
   7 -10 -18 185.244 162.339   7
  10  -7 -18 298.606 269.428   6
   7  10 -18 23.7705 194.026   2
   7 -10 -18 368.068 223.403   6
   7 -10 -19 738.502 206.141   7
   7  10 -19 1178.06 269.582   3
 -10   7  19 961.695 192.825   1
  -7 -10  19 1736.91 261.606   5
  -7  10  19 1012.35 221.258   1
  -7 -10  19 1131.85 177.895   8
  10  -7 -19 603.707 251.558   7
 -10   7  19 985.957 168.010   4
  -7  10  19 738.583 172.513   4
  10  -7 -19 860.179 320.866   6
   7  10 -19 508.982 234.734   2
   7 -10 -19 440.577 244.778   6
   7  10 -20 344.430 234.768   3
 -10   7  20 212.301 125.058   1
  -7 -10  20 252.114 200.647   5
  -7  10  20 19.2872 173.863   1
  -7 -10  20 430.717 118.128   8
  10  -7 -20 279.016 215.748   7
 -10   7  20 90.9496 101.754   4
   7 -10 -20 220.931 156.662   7
  -7  10  20 345.063 117.401   4
  10  -7 -20 87.9535 262.408   6
   7  10 -20-196.797 189.656   2
   7 -10 -20 48.8209 196.547   6
  -7 -10  21 1325.33 206.198   8
   7  10 -21 219.427 288.998   3
 -10   7  21 1375.58 220.406   1
  -7 -10  21 1857.50 270.619   5
  10  -7 -21 638.677 272.164   7
  -7  10  21 1339.59 260.511   1
 -10   7  21 937.963 197.071   4
   7 -10 -21 568.249 235.004   7
   7 -10 -21 722.671 284.438   6
  -7  10  21 1914.53 209.750   4
  10  -7 -21 1444.93 319.559   6
   7  10 -21 75.4149 243.237   2
 -10   7  22 188.941 105.490   4
   7  10 -22 284.744 248.650   3
 -10   7  22 340.460 147.025   1
  -7 -10  22 289.903 197.633   5
  -7 -10  22 302.166 119.756   8
  10  -7 -22 305.382 214.150   7
  -7  10  22 564.523 196.447   1
  -7  10  22 268.434 122.514   4
   7 -10 -22 244.367 158.801   7
  10  -7 -22 228.486 248.656   6
   7  10 -22-127.609 194.067   2
   7 -10 -22 216.878 205.634   6
   7  10 -23 558.718 267.570   3
 -10   7  23 488.702 151.724   1
  -7 -10  23 862.805 207.025   5
  -7 -10  23 321.469 137.275   8
  10  -7 -23 281.726 234.631   7
 -10   7  23 406.138 115.129   4
  -7  10  23 409.446 208.845   1
  -7  10  23 279.091 129.764   4
  10  -7 -23 307.727 257.175   6
   7  10 -23 259.132 216.020   2
   7 -10 -23 424.872 175.260   7
   7 -10 -23 650.931 215.706   6
   7  10 -24 424.054 258.945   3
  -7 -10  24 435.851 125.728   8
 -10   7  24 93.5674 143.475   1
  -7 -10  24 564.606 190.272   5
  -7  10  24 711.329 209.762   1
  10  -7 -24 206.097 222.007   7
   7 -10 -24 593.065 178.799   7
 -10   7  24 305.966 120.970   4
  -7  10  24 236.076 133.007   4
  10  -7 -24 27.6462 255.715   6
   7  10 -24-185.613 192.361   2
   7 -10 -24 217.236 192.250   6
   7 -10 -25-215.889 192.624   7
  -7 -10  25-149.292 129.116   8
   7  10 -25-123.689 291.400   3
 -10   7  25-79.5911 148.425   1
  -7 -10  25-434.665 197.353   5
  -7  10  25-527.976 229.616   1
  10  -7 -25-128.144 244.319   7
 -10   7  25-257.828 114.858   4
  -7  10  25 13.5728 142.193   4
  10  -7 -25-81.2364 262.424   6
   7  10 -25-53.8237 206.733   2
   7 -10 -25-71.6753 215.838   6
   7 -10 -26 96.2261 200.003   6
  -7 -10  26 376.886 124.994   8
 -10   7  26 276.260 156.985   1
  -7  10  26 23.7376 213.965   1
  10  -7 -26 103.200 213.492   7
   7 -10 -26-55.6684 167.826   7
 -10   7  26 300.372 116.401   4
  -7  10  26 266.068 142.419   4
  10  -7 -26 160.926 231.720   6
   7 -10 -27-242.149 194.183   6
  10  -7 -27-207.826 207.534   7
  -7  10  27-73.7333 205.805   1
   7 -10 -27-188.850 178.276   7
  -7  10  27 43.3065 132.019   4
   7 -10 -28-218.679 199.160   6
  -7  10  28-203.926 238.817   1
   7 -10 -28 269.368 180.746   7
  -7  10  28 104.872 145.681   4
   7 -10 -29-243.972 211.915   6
   7 -10 -29 117.753 179.481   7
  -7  10  29-202.162 151.255   4
  -7  10  29 26.4970 226.657   1
   7 -10 -30 49.1786 202.894   6
  -7  10  30 32.3277 147.182   4
   8 -10  -3 402.206 209.868   6
   8 -10  -4 2172.96 316.130   6
  -8  10   4 1291.34 224.587   1
  -8  10   5 217.396 104.036   1
   8 -10  -5 508.481 223.754   6
   8 -10  -6 4661.00 700.605   6
   8 -10  -7 25.8796 219.731   6
  -8  10   9 312.287 121.861   1
   8 -10  -9 144.821 169.200   7
  -8  10  10 376.378 132.048   1
   8 -10 -10 406.458 187.208   7
   8 -10 -10 300.604 239.442   6
  -8  10  11 107.972 113.339   1
   8 -10 -11-99.9801 170.317   7
  -8  10  11 220.242 92.1806   4
   8 -10 -11 276.118 240.932   6
  -8  10  12-204.316 110.057   4
  10  -8 -12-368.498 286.913   6
   8 -10 -12-166.248 265.400   6
   8 -10 -12-78.7657 188.114   7
 -10   8  13-145.829 118.252   1
  10  -8 -13 205.953 269.253   6
   8 -10 -13-110.664 284.422   6
  -8  10  13 197.749 93.9719   4
 -10   8  14-112.717 100.216   1
  -8  10  14-59.5875 127.650   1
  -8  10  14 60.3328 89.5216   4
   8 -10 -14 19.1299 161.905   7
  10  -8 -14 29.9477 251.067   6
   8 -10 -14 110.676 245.599   6
 -10   8  15 425.181 118.077   1
  -8  10  15 247.731 133.457   1
  10  -8 -15 49.2179 196.453   7
   8 -10 -15 19.2362 168.235   7
  -8  10  15 71.6461 100.564   4
  10  -8 -15 183.330 272.388   6
   8 -10 -15 165.698 227.707   6
 -10   8  16 79.4318 116.204   1
  10  -8 -16 149.010 192.574   7
   8 -10 -16-57.0349 153.981   7
  -8  10  16 72.9406 89.7707   4
  -8  10  16 126.878 143.065   1
  10  -8 -16 153.553 270.419   6
   8 -10 -16-27.3024 234.831   6
 -10   8  17 109.145 118.943   1
  10  -8 -17 74.7802 188.785   7
 -10   8  17 190.048 94.4197   4
   8 -10 -17 153.224 162.560   7
  -8  10  17 74.1462 96.7282   4
  -8  10  17 148.678 141.366   1
  10  -8 -17 30.9525 249.145   6
   8 -10 -17 271.560 226.901   6
 -10   8  18 998.932 167.048   1
  -8 -10  18 1325.64 256.010   5
  10  -8 -18 427.295 222.000   7
 -10   8  18 354.883 121.726   4
   8 -10 -18 398.363 192.715   7
  -8  10  18 421.470 130.748   4
  -8  10  18 507.950 171.371   1
  10  -8 -18 460.822 280.996   6
   8 -10 -18 27.0029 255.560   6
  -8 -10  19-52.8007 213.310   5
 -10   8  19 172.991 130.408   1
  10  -8 -19-100.290 199.848   7
 -10   8  19 133.919 102.113   4
   8 -10 -19 19.1398 173.985   7
  -8  10  19 187.962 104.557   4
  -8  10  19 208.375 171.905   1
  10  -8 -19 121.886 280.746   6
   8 -10 -19 53.1676 227.654   6
   8  10 -20 756.967 310.533   3
  -8 -10  20 2006.33 316.192   5
 -10   8  20 1519.86 243.072   1
  -8  10  20 1390.18 224.406   4
  10  -8 -20 1313.20 304.932   7
   8 -10 -20 676.221 266.480   7
 -10   8  20 1267.28 221.799   4
  -8  10  20 1577.08 260.014   1
  10  -8 -20 1842.27 366.623   6
   8 -10 -20 1373.85 330.133   6
  10  -8 -21-25.4241 194.740   7
   8  10 -21-28.9420 244.975   3
  -8 -10  21 25.7177 214.956   5
 -10   8  21 15.2416 131.061   1
 -10   8  21 53.3003 98.1464   4
   8 -10 -21-57.5405 165.891   7
  -8  10  21 233.462 108.866   4
  -8  10  21-167.434 167.976   1
  10  -8 -21-148.425 243.286   6
   8 -10 -21-52.5325 224.408   6
   8  10 -22 745.311 285.476   3
  -8 -10  22 1025.43 245.107   5
 -10   8  22 311.732 176.927   1
  10  -8 -22 151.775 240.939   7
   8 -10 -22 678.437 215.789   7
 -10   8  22 941.236 159.145   4
  10  -8 -22 850.427 311.939   6
  -8  10  22 922.332 166.465   4
  -8  10  22 1317.99 224.946   1
   8 -10 -22 678.937 268.559   6
   8  10 -23-30.8498 261.183   3
  -8 -10  23 169.524 196.586   5
 -10   8  23 32.2146 143.152   1
 -10   8  23 121.273 108.899   4
  10  -8 -23-152.747 205.229   7
   8 -10 -23 39.2153 177.128   7
  -8  10  23 49.1706 107.477   4
   8  10 -23 25.7360 188.762   2
  10  -8 -23 372.687 265.876   6
  -8  10  23-19.6282 176.339   1
   8 -10 -23-25.6782 226.738   6
   8  10 -24-191.013 268.349   3
  -8 -10  24 359.098 216.251   5
 -10   8  24 16.4546 147.172   1
  10  -8 -24 153.729 224.242   7
 -10   8  24 158.041 109.907   4
   8 -10 -24 39.6884 184.862   7
  -8  10  24 126.707 118.553   4
   8  10 -24 130.471 192.106   2
  10  -8 -24 84.9730 255.599   6
  -8  10  24 452.488 186.529   1
   8 -10 -24 51.2115 226.061   6
 -10   8  25 184.964 157.936   1
   8 -10 -25-201.021 182.961   7
  10  -8 -25 232.240 219.768   7
 -10   8  25-92.3200 108.415   4
  -8  10  25-13.1561 138.375   4
  10  -8 -25-166.065 221.466   6
  -8  10  25-126.975 202.256   1
   8 -10 -25 178.750 223.438   6
 -10   8  26-68.7177 156.879   1
  10  -8 -26-178.475 221.848   7
   8 -10 -26 101.889 181.493   7
 -10   8  26 11.9300 108.739   4
  -8  10  26-230.775 120.650   4
  10  -8 -26 54.7620 238.937   6
  -8  10  26 108.999 189.148   1
   8 -10 -26 101.963 206.167   6
 -10   8  27-105.404 144.853   1
  10  -8 -27 231.290 205.190   7
   8 -10 -27 206.773 173.144   7
 -10   8  27 98.0972 119.964   4
  -8  10  27 98.2234 131.564   4
  10  -8 -27 26.7750 228.980   6
  -8  10  27-22.4753 192.302   1
   8 -10 -27 251.605 227.993   6
   8 -10 -28 75.7771 194.434   6
  10  -8 -28-103.762 212.101   7
   8 -10 -28 42.0187 167.226   7
 -10   8  28 12.6788 120.401   4
  -8  10  28-144.586 122.026   4
  -8  10  28-324.937 215.975   1
  10  -8 -28-239.018 227.086   6
   8 -10 -29-126.769 209.687   6
  -8  10  29 223.741 149.133   4
  -9  10   8-58.6814 100.880   1
   9 -10  -8-245.224 253.509   6
  -9  10   9 917.258 159.978   1
   9 -10  -9 297.207 223.063   7
   9 -10  -9 594.417 269.947   6
  -9  10  10 311.128 135.507   1
   9 -10 -10 593.828 227.179   7
   9 -10 -10 664.379 312.911   6
  -9  10  11-192.576 126.854   1
   9 -10 -11-181.579 198.670   7
  10  -9 -11-700.343 303.166   6
   9 -10 -11-354.220 303.429   6
 -10   9  12-123.525 106.885   1
  10  -9 -12-151.396 280.256   6
   9 -10 -12 209.038 270.569   6
 -10   9  13 101.689 111.002   1
  -9  10  13 79.7711 87.5479   4
  10  -9 -13-122.302 185.420   7
  10  -9 -13 92.5022 245.167   6
   9 -10 -13 210.947 259.180   6
 -10   9  14 104.478 115.729   1
  -9  10  14 169.142 123.916   1
  10  -9 -14 73.9802 182.627   7
   9 -10 -14 111.392 198.230   7
  -9  10  14 172.293 96.3747   4
   9 -10 -14-120.474 274.100   6
 -10   9  15 26.9305 117.485   1
  10  -9 -15-99.4776 194.057   7
  -9  10  15 29.2820 123.540   1
   9 -10 -15 109.915 183.716   7
  -9  10  15 10.3005 82.1542   4
  10  -9 -15-31.6479 280.120   6
   9 -10 -15 30.0828 253.006   6
   9 -10 -16-44.1863 186.061   7
 -10   9  16 41.4362 116.571   1
  10  -9 -16 124.597 199.616   7
  -9  10  16 106.563 136.622   1
 -10   9  16 70.9483 89.7297   4
  -9  10  16 157.062 101.025   4
  10  -9 -16 31.8015 277.593   6
   9 -10 -16-330.070 280.519   6
 -10   9  17 298.912 131.590   1
  -9  10  17 155.813 136.433   1
  10  -9 -17 301.279 213.975   7
   9 -10 -17 218.137 191.782   7
  -9  10  17 63.9164 101.801   4
  10  -9 -17-63.2793 280.674   6
   9 -10 -17 148.310 242.170   6
 -10   9  17 92.7252 90.2704   4
 -10   9  18 524.925 151.531   1
  -9  10  18 86.7030 98.2444   4
  -9  10  18 210.619 151.101   1
  10  -9 -18 75.0611 203.298   7
   9 -10 -18-43.8949 192.877   7
 -10   9  18 313.294 108.917   4
  10  -9 -18 440.343 294.771   6
   9 -10 -18 618.217 288.482   6
 -10   9  19 753.552 174.052   1
  -9  10  19 646.677 179.036   1
   9 -10 -19 640.818 224.445   7
 -10   9  19 648.970 140.999   4
  -9  10  19 583.038 140.044   4
  10  -9 -19 931.984 308.247   6
   9 -10 -19 700.587 295.668   6
  10  -9 -19 352.709 223.459   7
 -10   9  20-200.469 137.853   1
  10  -9 -20-250.560 197.074   7
 -10   9  20-54.0771 94.9180   4
  -9  10  20 50.9357 148.300   1
   9 -10 -20-65.5174 179.706   7
  -9  10  20 33.6499 99.5559   4
  10  -9 -20-153.622 260.940   6
   9 -10 -20 28.6442 232.480   6
 -10   9  21 701.780 180.473   1
  10  -9 -21 630.544 248.124   7
  -9  10  21 528.483 183.638   1
   9 -10 -21 88.0221 212.202   7
 -10   9  21 548.453 144.525   4
  -9  10  21 962.483 150.576   4
  10  -9 -21 728.530 295.559   6
   9 -10 -21 851.822 259.412   6
   9 -10 -22 28.1169 228.087   6
  -9  10  22 72.1656 164.187   1
  10  -9 -22-126.904 220.108   7
   9 -10 -22-155.313 189.532   7
 -10   9  22 122.735 103.180   4
  -9  10  22 35.2533 98.5227   4
  10  -9 -22-29.6779 250.383   6
 -10   9  22-260.917 142.263   1
   9  10 -23 134.615 292.310   3
  -9 -10  23 433.194 270.126   5
 -10   9  23 450.223 162.183   1
  10  -9 -23 701.706 262.220   7
   9 -10 -23 241.686 214.012   7
  -9  10  23 55.4639 180.697   1
 -10   9  23 182.438 115.213   4
  -9  10  23 217.168 128.070   4
  10  -9 -23 615.324 275.399   6
   9 -10 -23 195.089 245.751   6
  -9 -10  24-139.096 224.212   5
  -9  10  24-75.7903 159.467   1
  10  -9 -24 50.4761 200.602   7
   9 -10 -24-177.402 206.742   7
 -10   9  24-46.5379 110.805   4
  -9  10  24 24.7237 112.967   4
 -10   9  24 17.0421 145.704   1
  10  -9 -24-289.434 277.332   6
   9 -10 -24-54.5522 230.199   6
 -10   9  25 70.7123 152.944   1
  10  -9 -25 25.4184 206.964   7
   9 -10 -25-112.003 202.819   7
  -9  10  25 213.793 170.133   1
 -10   9  25 166.907 110.946   4
  -9  10  25-101.321 118.453   4
  10  -9 -25 141.202 240.551   6
   9 -10 -25-189.445 221.094   6
 -10   9  26 54.2448 154.928   1
  10  -9 -26 25.6264 196.242   7
   9 -10 -26-113.232 186.191   7
  -9  10  26 39.8893 172.446   1
 -10   9  26 24.5787 115.700   4
  10  -9 -26-83.6751 227.791   6
   9 -10 -26-26.9056 229.829   6
 -10   9  27-148.029 163.857   1
  10  -9 -27 51.6992 209.042   7
   9 -10 -27-45.8265 184.677   7
  -9  10  27 20.8009 188.340   1
 -10   9  27-113.299 117.129   4
  -9  10  27 81.0663 130.165   4
  10  -9 -27 272.785 248.296   6
   9 -10 -27-290.761 239.299   6
 -10   9  28 132.644 168.223   1
  10  -9 -28 234.934 223.000   7
 -10   9  28-12.9651 121.790   4
  -9  10  28-41.7762 128.800   4
  10  -9 -28 27.0585 226.137   6
   9 -10 -28-52.6569 237.011   6
  10 -10 -10 89.3954 257.923   6
 -10  10  11-100.053 103.319   1
  10 -10 -11 397.172 289.135   6
  10 -10 -12 408.275 277.025   6
 -10  10  13 197.877 121.579   1
  10 -10 -13 31.8195 273.597   6
 -10  10  14 108.659 116.403   1
  10 -10 -14 199.776 201.791   7
 -10  10  14 292.849 103.497   4
 -10  10  15 13.9980 119.208   1
  10 -10 -15-174.834 199.834   7
 -10  10  15 20.5624 89.4300   4
  10 -10 -15 226.525 299.229   6
 -10  10  16 258.073 133.325   1
  10 -10 -16-99.4381 198.937   7
 -10  10  16-41.6762 90.4422   4
  10 -10 -16-96.9374 304.233   6
 -10  10  17 21.1890 92.3674   4
 -10  10  17-118.577 132.832   1
  10 -10 -17-125.034 207.725   7
  10 -10 -17-161.014 271.756   6
 -10  10  18 90.9967 137.169   1
  10 -10 -18 99.4339 213.322   7
 -10  10  18 280.501 104.432   4
  10 -10 -18 159.389 291.289   6
  10 -10 -19 94.7748 274.294   6
 -10  10  19-15.6894 127.981   1
  10 -10 -19-75.0082 221.072   7
 -10  10  19-175.350 102.750   4
 -10  10  20 625.848 158.073   1
  10 -10 -20 276.568 218.837   7
 -10  10  20 177.856 115.460   4
  10 -10 -20 531.306 289.503   6
 -10  10  21-16.4074 140.660   1
  10 -10 -21 421.920 200.698   7
 -10  10  21-56.5127 100.433   4
  10 -10 -21 275.412 277.766   6
 -10  10  22 595.824 173.119   1
  10 -10 -22 624.347 253.907   7
 -10  10  22 103.611 131.671   4
  10 -10 -22 574.360 269.385   6
  10 -10 -23 50.2748 216.326   7
 -10  10  23-330.719 163.424   1
 -10  10  23-23.5087 100.410   4
  10 -10 -23 238.865 265.259   6
 -10  10  24 266.947 168.773   1
  10 -10 -24-174.033 208.736   7
 -10  10  24 84.1916 120.437   4
  10 -10 -24 58.2726 244.524   6
 -10  10  25-145.626 153.686   1
  10 -10 -25-50.1052 204.688   7
 -10  10  25 12.3298 106.769   4
  10 -10 -25-57.5010 251.611   6
 -10  10  26 74.5090 156.461   1
 -10  10  26 75.8544 119.419   4
  10 -10 -26 56.8466 215.372   6
   0 -11   0-23.8013 92.5253   6
   0  11   0 15.7508 120.164   3
   0  11   0-125.260 143.677   2
   0 -11   0 53.1546 108.902   5
   0 -11   0 59.5771 65.9304   8
   0 -11   0 54.0553 74.5291   7
   0  11   0-43.2019 65.5415   4
   0 -11   1 333.350 120.062   6
   0 -11  -1 369.461 116.881   6
   0  11   1 373.464 156.472   2
   0  11  -1 437.079 159.976   3
   0  11  -1 353.734 170.382   2
   0 -11  -1 438.124 139.110   5
   0 -11   1 479.354 133.017   5
   0 -11   1 528.190 98.4182   7
   0 -11  -1 426.962 104.246   7
   0 -11   1 677.219 103.805   8
   0  11  -1 535.405 100.482   4
   0  11   1 528.062 101.466   4
   0 -11  -1 494.581 101.039   8
   0 -11   2-33.3202 90.7085   6
   0 -11  -2 12.7410 96.8205   6
   0  11  -2-99.8129 132.164   3
   0 -11  -2 119.372 107.227   5
   0 -11   2-26.0229 97.7190   5
   0  11  -2 77.0567 156.801   2
   0 -11  -2 49.8182 57.9283   8
   0 -11   2 8.03890 70.1278   8
   0 -11   2-43.0836 69.4550   7
   0 -11  -2-25.0779 69.8556   7
   0  11  -2-6.53882 58.3686   4
   0  11   2 23.7879 70.9790   4
   0  11   2-16.2043 129.648   2
   0 -11  -3 2629.53 411.316   5
   0 -11   3 2220.30 404.086   5
   0  11  -3 1936.28 415.329   3
   0 -11  -3 2788.12 389.179   8
   0 -11   3 3009.20 394.470   8
   0  11  -3 2771.29 387.652   4
   0 -11  -3 3012.17 395.288   7
   0  11   3 2826.42 393.774   4
   0  11   3 2815.93 413.353   2
   0  11  -3 2931.75 438.497   2
   0 -11  -3 3133.98 408.879   6
   0  11  -4 208.677 170.625   2
   0 -11  -4-13.5629 104.976   6
   0  11  -4-159.496 152.529   3
   0 -11  -4-95.2480 110.686   5
   0 -11   4-39.2297 110.629   5
   0 -11   4-97.1135 73.0507   8
   0 -11  -4-59.8775 75.7257   7
   0  11   4-134.238 115.812   2
   0  11   4-34.6147 75.0510   4
   0  11  -5 8198.97 1107.53   3
   0 -11  -5 7046.85 1090.64   5
   0 -11   5 9034.30 1094.00   5
   0 -11   5 6626.21 1080.13   8
   0 -11  -5 8560.14 1082.15   7
   0  11   5 8645.70 1082.93   4
   0 -11  -5 7806.63 1091.70   6
   0  11  -5 7714.28 1111.52   2
   0 -11  -6 100.895 111.820   6
   0  11  -6-37.5906 148.401   3
   0 -11   6-13.1090 111.131   5
   0 -11   6 9.78444 84.0848   8
   0  11  -6 45.2700 183.103   2
   0 -11  -6 115.604 78.9733   7
   0  11   6 47.1957 83.3181   4
   0  11  -7 7035.89 1113.32   3
   0 -11   7 7978.38 1101.51   5
   0 -11   7 8260.09 1096.60   8
   0 -11  -7 8017.20 1093.80   7
   0  11   7 7767.36 1094.49   4
   0 -11  -7 8943.09 1109.07   6
   0  11  -7 7855.93 1130.51   2
   0 -11  -8 151.999 122.256   6
   0  11  -8 337.339 187.432   3
   0 -11   8 12.9030 112.135   5
   0  11  -8 339.464 236.881   2
   0 -11  -8 37.0499 85.0611   7
   0  11   8 61.5570 92.6391   4
   0 -11   8-85.9189 102.893   8
   0  11  -9 3736.52 699.274   3
   0 -11   9 3749.55 676.403   8
   0  11   9 5698.09 678.647   4
   0 -11  -9 6303.86 696.162   6
   0  11  -9 5122.03 725.067   2
   0 -11 -10 31.9455 117.563   6
   0  11 -10 205.583 183.517   3
   0 -11  10 12.9078 102.194   5
   0 -11  10 11.5008 98.8511   8
   0  11 -10 256.741 229.825   2
   0 -11 -10 19.4270 76.6347   7
   0  11  10-122.311 102.014   4
   0  11  11 2247.45 336.293   4
   0 -11 -11 1924.26 348.238   6
   0 -11  11 2210.12 338.384   5
   0  11 -11 1547.56 366.087   3
   0 -11  11 2321.58 339.272   8
   0 -11 -11 2601.40 330.927   7
   0  11 -11 2369.51 412.675   2
   0 -11 -12-49.8554 128.233   6
   0  11 -12-169.758 176.187   3
   0 -11  12 38.3630 101.600   5
   0 -11 -12-30.9455 88.6578   7
   0  11  12 72.1590 107.960   4
   0 -11 -13 221.192 140.817   6
   0  11  13 251.211 119.056   4
   0  11 -15 564.522 273.619   2
   0 -11 -15 283.689 120.855   7
   0 -11  15 683.988 142.002   5
   0  11 -15 351.821 189.178   3
   0 -11  16-130.474 104.397   5
   0  11 -16-22.1683 177.988   3
   0 -11  16 96.2465 130.103   8
   0  11 -16-28.5430 202.108   2
   0 -11 -16 35.1620 97.6373   7
   0  11  16 41.8127 124.068   4
   0  11  17 1613.22 273.621   4
   0 -11  17 1570.25 253.179   5
   0  11 -17 1316.44 311.986   3
   0 -11  17 1268.57 258.782   8
   0  11 -17 1789.45 396.989   2
   0 -11  18 13.3552 113.434   5
   0  11 -18-154.442 167.523   3
   0 -11  18-218.223 134.105   8
   0  11 -18-29.1517 230.327   2
   0 -11  19 3362.55 430.225   5
   0 -11  19 3897.50 440.182   8
   0  11 -19 1285.66 442.194   3
   0  11 -19 2089.55 483.719   2
   0 -11  20-150.260 112.326   5
   0 -11  20 165.031 139.465   8
   0  11 -20 44.6501 155.959   3
   0 -11  21 4213.69 424.388   8
   0  11 -21 1006.34 419.654   3
   0 -11  22-108.965 139.846   8
   0  11 -22-44.9228 175.990   3
   0 -11  22 14.1601 122.927   5
   0 -11  23 1081.63 242.880   8
   0  11 -23 995.492 277.445   3
   0 -11  23 1578.72 233.098   5
   0 -11  24 146.649 143.093   8
   0 -11  24-14.7963 116.015   5
   0  11 -24 22.8173 154.288   3
   0  11 -24 31.0426 254.437   2
   0 -11  25 553.273 175.219   8
   0 -11  25 257.402 136.676   5
   0  11 -25 184.928 172.532   3
   0  11 -25 31.4696 259.993   2
   0 -11  26 15.5278 128.976   5
   0 -11  26 33.5406 158.721   8
   0  11 -26-305.571 185.449   3
   0  11 -26 223.753 271.388   2
   0 -11  27 126.320 149.738   5
   0 -11  27 86.7225 166.105   8
   0  11 -27 431.890 212.095   3
   0  11 -27 357.612 301.702   2
   0 -11  28-107.987 173.101   8
   0  11 -28-98.3257 179.671   3
   0 -11  28-64.2802 133.344   5
   0  11 -28 33.1736 254.220   2
   0 -11  29 18.7536 168.001   8
   0  11 -29-135.438 286.631   2
   0 -11  29 115.026 141.803   5
   0  11 -29 50.5751 189.274   3
   0 -11  30 95.3870 184.161   8
   0 -11  30-84.6094 136.905   5
   0  11 -30 34.6300 283.819   2
   0  11 -30 313.435 207.580   3
   0 -11  31 641.985 207.850   8
   0  11 -31 851.598 350.686   2
   0  11 -31 296.642 202.474   3
  -1  11   0 111.507 137.860   3
  -1 -11   0 16.2507 116.710   5
   1 -11   0 21.8797 86.8845   5
   1 -11   0 214.370 72.9858   8
   1 -11   0 8.11397 73.4224   7
  -1 -11   0 181.593 64.6801   7
  -1  11   0 177.941 66.2823   4
  -1 -11   0 253.217 69.6340   8
  -1  11   0 18.1308 142.908   2
   1  11   0 228.110 147.058   2
   1  11   0 16.6095 76.0870   4
   1 -11   0-35.9087 97.1289   6
   1  11  -1 548.678 153.139   2
  -1 -11  -1 241.977 79.4202   8
  -1  11   1 123.325 139.195   3
  -1 -11  -1 16.7883 137.674   5
  -1  11  -1 246.583 147.427   3
  -1 -11   1 290.268 137.785   5
  -1  11   1 260.387 151.240   2
   1 -11  -1 347.765 104.211   5
   1 -11   1 220.232 99.8767   5
  -1 -11   1 451.221 82.8962   8
   1 -11   1 356.162 87.9966   8
  -1  11  -1 77.0022 108.624   1
   1 -11   1 143.917 80.2593   7
   1 -11  -1 489.683 94.0504   7
  -1 -11   1 318.846 79.2449   7
  -1 -11  -1 312.170 77.3902   7
  -1  11  -1 195.380 73.1698   4
  -1  11   1 150.884 77.6399   4
   1  11   1 150.789 126.957   2
   1 -11  -1 269.007 78.5180   8
  -1  11  -1 246.473 160.465   2
   1 -11   1 279.001 109.813   6
   1  11   1 249.576 91.5736   4
   1 -11  -1 236.571 106.226   6
   1  11  -1 296.838 82.2488   4
   1  11  -2 528.465 168.554   2
  -1  11   2 312.863 143.055   3
  -1  11   2 577.527 161.763   2
  -1 -11  -2 84.5503 152.367   5
  -1 -11   2 640.456 155.393   5
  -1  11  -2 389.707 160.827   3
   1 -11  -2 507.085 116.121   5
  -1  11  -2 271.398 109.137   1
   1 -11   2 321.837 108.676   5
   1 -11  -2 397.721 90.8685   8
   1 -11   2 351.757 100.974   8
  -1  11  -2 888.423 186.030   2
   1 -11   2 404.812 94.9518   7
   1 -11  -2 306.435 97.8271   7
  -1 -11   2 531.472 96.2491   7
  -1 -11  -2 439.996 94.6862   7
  -1 -11   2 569.499 99.2201   8
  -1  11  -2 463.784 89.4255   4
  -1  11   2 428.582 96.9453   4
   1  11   2 488.581 147.173   2
   1 -11   2 445.231 115.096   6
   1  11   2 571.566 112.031   4
   1 -11  -2 320.899 123.191   6
   1 -11  -3 106.447 105.735   6
  -1  11   3-31.4258 130.905   2
  -1  11   3-14.3918 119.126   3
   1  11  -3 314.388 155.569   2
  -1 -11  -3 52.4216 141.766   5
  -1 -11   3 15.4844 116.774   5
  -1  11  -3 34.8609 142.849   3
  -1  11  -3 39.0815 89.8975   1
   1 -11  -3 138.819 91.5228   5
   1 -11   3 11.1864 77.0905   5
   1 -11  -3-20.2301 59.3863   8
  -1 -11   3 97.5146 70.0871   8
  -1  11  -3-61.8210 169.438   2
   1 -11   3 80.7474 77.6064   8
   1 -11   3-39.6734 71.2613   7
   1 -11  -3 61.0285 74.2784   7
  -1 -11  -3-38.8173 67.1630   7
  -1  11  -3 75.7692 61.8226   4
  -1  11   3-94.2022 76.6880   4
   1 -11   3-85.1033 89.4937   6
   1  11   3-37.1042 77.3007   4
   1  11  -4 3901.60 544.429   3
  -1  11   4 3587.89 535.458   3
  -1  11  -4 3199.44 540.159   3
   1 -11   4 4002.59 522.188   8
  -1 -11  -4 3002.31 540.242   5
  -1 -11   4 3760.68 535.155   5
   1 -11  -4 3318.68 520.388   5
   1 -11   4 3326.37 522.867   5
  -1 -11   4 4044.16 517.233   8
   1 -11  -4 3625.55 517.613   7
  -1 -11  -4 4311.52 516.866   7
  -1  11   4 4102.00 518.390   4
   1  11   4 3479.66 520.601   4
  -1  11   4 3683.16 535.169   2
   1  11  -4 3266.61 547.684   2
   1 -11  -4 2897.71 525.919   6
  -1  11  -4 3406.76 564.507   2
   1 -11  -4 4017.80 512.447   8
   1 -11  -5 310.738 118.729   6
  -1  11   5 376.902 132.527   3
   1  11  -5 234.988 153.542   3
  -1 -11  -5 105.698 146.929   5
  -1 -11   5 169.024 114.843   5
   1  11  -5 379.989 184.734   2
  -1  11  -5 36.5375 148.242   3
   1 -11   5 215.878 104.116   5
  -1 -11   5 209.585 85.6538   8
  -1  11  -5 333.684 193.923   2
   1 -11   5 192.155 99.7584   8
   1 -11  -5 110.243 81.3548   7
  -1 -11  -5 236.566 76.5127   7
  -1  11   5 111.102 78.1302   4
  -1  11   5 27.8275 108.984   2
   1  11   5 170.280 92.5255   4
   1  11  -6 7429.57 1124.86   3
  -1  11  -6 6762.82 1120.17   3
  -1 -11  -6 7125.49 1121.79   5
  -1 -11   6 8105.32 1116.26   5
   1 -11   6 7849.72 1107.12   5
  -1 -11   6 8741.65 1104.67   8
   1 -11   6 7271.63 1105.33   8
   1 -11  -6 8903.07 1105.51   7
  -1  11   6 7719.81 1103.49   4
   1  11   6 8354.90 1106.98   4
   1  11  -6 9222.38 1135.46   2
   1 -11  -6 9185.74 1118.22   6
   1 -11   7 78.4391 100.504   8
   1 -11  -7 102.929 118.052   6
   1  11  -7 76.4384 154.270   3
  -1 -11   7 164.552 127.373   5
  -1 -11   7-56.8071 84.8436   8
  -1  11  -7 18.9745 152.127   3
   1 -11  -7 126.568 86.9711   7
   1 -11   7 56.7312 93.4892   5
  -1  11  -7-309.567 189.439   2
  -1 -11  -7 103.272 73.9384   7
  -1  11   7 166.693 86.1889   4
   1  11  -7-91.1962 188.319   2
   1  11   7 151.077 96.5541   4
   1  11   8 5859.01 785.114   4
   1  11  -8 5389.77 811.048   3
  -1  11  -8 5801.02 813.402   3
  -1 -11   8 5091.46 796.623   5
   1 -11   8 4916.11 782.334   5
   1 -11   8 5705.51 786.324   8
   1 -11  -8 5750.82 780.877   7
  -1 -11  -8 5611.56 777.058   7
  -1  11   8 6090.33 781.683   4
   1  11  -8 6494.17 833.761   2
  -1  11  -8 7256.92 845.987   2
  -1 -11   8 5345.59 780.145   8
   1 -11  -9 46.5299 118.885   6
   1 -11   9-56.3129 94.2597   5
   1  11  -9-161.951 189.209   3
  -1 -11   9 14.5168 125.997   5
  -1  11  -9 19.5667 157.726   3
  -1 -11   9-102.588 104.450   8
   1 -11   9-37.2827 118.582   8
   1 -11  -9-10.2913 90.9741   7
  -1 -11  -9-45.7400 77.8347   7
   1  11  -9-269.073 221.457   2
  -1  11   9 10.0616 91.2145   4
  -1 -11  10 2542.78 362.752   5
   1 -11  10 2198.91 350.391   5
   1  11 -10 2331.81 393.801   3
   1 -11  10 2054.31 353.581   8
  -1  11  10 2365.68 349.830   4
   1 -11 -10 2312.78 347.540   7
  -1 -11 -10 2619.82 346.080   7
  -1  11 -10 2336.86 385.048   3
   1 -11 -10 2634.29 370.858   6
   1  11 -10 2516.87 411.585   2
   1 -11 -11-16.2810 127.565   6
   1 -11 -11 42.6171 91.6570   7
  -1 -11  11-55.6903 104.143   8
   1  11 -11 85.4918 169.247   3
   1 -11  11 93.2184 116.923   8
   1  11 -11 25.9614 216.291   2
  -1 -11  11 174.589 123.198   5
  -1  11 -11-60.1189 160.945   3
   1 -11  11 104.004 96.3454   5
  -1 -11 -11-58.7629 81.9450   7
  -1  11  11 75.6399 99.7382   4
   1 -11 -12 316.181 139.848   6
   1  11 -12 131.213 185.547   3
  -1  11 -12 485.511 183.078   3
  -1 -11  12 218.632 118.371   5
   1 -11  12 269.697 103.695   5
   1 -11 -12 229.807 106.407   7
  -1  11  12 392.882 118.001   4
   1 -11 -13-102.019 128.795   6
  -1  11  13 11.6085 106.317   4
   1 -11  14 14.4056 131.546   8
   1  11 -14 111.306 239.203   2
   1 -11 -15 70.9823 139.309   6
  -1  11 -15 103.112 163.675   3
  -1 -11  15 188.143 110.171   8
   1  11 -15-91.3328 185.988   3
   1 -11  15 282.033 105.923   5
   1  11 -15 28.3093 223.663   2
  -1 -11  15 27.9742 119.811   5
   1 -11 -15 237.800 106.188   7
  -1  11  15 275.689 117.488   4
   1 -11 -16 72.3656 140.964   6
  -1 -11  16 210.566 126.714   5
   1 -11  16 12.4413 99.7715   5
  -1 -11  16 318.503 124.493   8
  -1  11 -16 82.9474 156.821   3
   1  11 -16 69.4428 199.667   3
   1  11 -16 201.044 238.028   2
   1 -11 -16 207.889 106.342   7
  -1  11  16 325.953 126.105   4
   1 -11 -17 460.283 168.764   6
  -1 -11  17 105.881 134.283   8
   1  11 -17 444.400 213.510   3
   1 -11  17 190.299 123.328   5
   1 -11  17 202.140 155.144   8
  -1  11 -17 125.448 177.605   3
   1  11 -17 640.204 296.991   2
  -1  11  17 350.464 142.166   4
  -1 -11  17 112.672 132.409   5
  -1 -11  18 2229.52 239.014   8
   1 -11 -18 786.028 234.817   6
  -1 -11  18 1303.20 229.266   5
   1  11 -18 685.107 274.752   3
   1 -11  18 1484.30 245.329   8
  -1  11 -18 964.020 245.627   3
   1 -11  18 1747.52 228.028   5
   1  11 -18 971.448 330.426   2
   1 -11 -18 659.656 214.580   7
  -1  11  18 1572.77 245.824   4
  -1 -11  19-339.068 122.290   5
   1 -11 -19 76.4751 143.704   6
   1  11 -19-71.4006 184.423   3
   1 -11  19-80.2688 150.486   8
  -1  11 -19 42.1399 162.680   3
   1 -11  19 13.2480 111.214   5
   1  11 -19 29.7190 236.180   2
   1 -11 -19 79.7878 113.042   7
  -1 -11  19 27.2637 129.115   8
  -1  11  19-43.9577 132.746   4
   1 -11 -20 3029.04 429.567   6
  -1 -11  20 3276.22 408.937   5
   1 -11  20 2554.31 401.291   5
  -1 -11  20 3128.15 408.704   8
   1  11 -20 1201.29 428.881   3
   1 -11  20 2190.54 412.666   8
  -1  11 -20 1890.03 430.388   3
  -1  11  20 3384.98 414.687   4
   1  11 -20 3151.41 477.398   2
   1 -11  21-50.0372 150.974   8
  -1 -11  21 28.1450 130.139   8
   1  11 -21 47.2960 176.907   3
  -1 -11  21 86.2438 123.924   5
   1 -11  21 69.5558 123.844   5
  -1  11 -21-64.3045 161.631   3
   1  11 -21 272.756 265.935   2
   1 -11 -21-28.0664 122.795   7
  -1  11  21-78.5870 148.732   4
   1 -11  22 2311.66 297.489   5
   1  11 -22 640.789 314.318   3
  -1 -11  22 1985.10 291.188   5
  -1 -11  22 2506.97 303.864   8
   1 -11  22 1296.28 298.958   8
   1 -11 -22 2565.07 300.582   7
  -1  11 -22 912.196 315.857   3
   1  11 -22 367.223 355.945   2
   1 -11  23 52.4531 157.880   8
  -1 -11  23 175.060 122.380   5
  -1 -11  23-14.6087 130.845   8
   1 -11  23 14.6647 121.840   5
   1  11 -23 23.8832 172.161   3
   1  11 -23 92.7706 262.562   2
  -1  11 -23-154.643 171.796   3
  -1 -11  24 399.635 142.188   5
  -1 -11  24 582.439 155.328   8
   1 -11  24 682.891 191.284   8
   1  11 -24 191.180 189.049   3
   1  11 -24 187.616 249.574   2
  -1  11 -24-90.1761 174.039   3
   1 -11  24 522.640 149.416   5
  -1 -11  25 30.1305 135.634   5
   1 -11  25-18.5242 170.858   8
   1 -11  25-60.8864 125.588   5
  -1 -11  25-76.5277 136.650   8
   1  11 -25 23.9859 179.443   3
   1  11 -25 284.888 247.904   2
  -1  11 -25-115.405 173.364   3
  -1 -11  26 157.291 145.113   8
   1 -11  26 31.1341 131.802   5
   1  11 -26-193.133 187.017   3
  -1 -11  26 15.3725 143.309   5
   1  11 -26-256.714 277.478   2
  -1  11 -26 189.805 168.787   3
   1 -11  26 18.5189 169.480   8
  -1 -11  27 48.6475 154.135   8
  -1 -11  27 125.328 144.056   5
   1 -11  27 16.0356 156.527   5
   1  11 -27-32.5816 316.805   2
   1  11 -27 409.806 208.662   3
   1 -11  27-211.415 197.374   8
  -1  11 -27 195.518 211.542   3
  -1 -11  28-16.7750 141.278   8
   1 -11  28 40.0321 171.510   8
   1  11 -28-563.850 284.508   2
   1  11 -28 269.300 191.498   3
  -1  11 -28-176.919 188.785   3
  -1 -11  28-256.094 141.500   5
  -1 -11  29 139.446 153.468   8
   1 -11  29 20.2648 195.601   8
  -1 -11  29-16.2670 135.585   5
   1  11 -29 67.6011 292.286   2
   1  11 -29-24.9545 179.886   3
  -1 -11  30 82.5416 135.319   5
   1  11 -30-34.5078 295.407   2
   1 -11  30 127.672 188.262   8
  -1 -11  30 373.300 163.798   8
   1  11 -30 25.5470 178.692   3
  -1 -11  31 111.819 162.594   8
  -1 -11  31 33.6614 137.937   5
   1  11 -31-176.498 282.437   2
   1  11 -31-210.023 196.395   3
  -2 -11   0 555.310 179.901   5
  -2  11   0 554.011 177.537   2
  -2  11   0 449.085 150.657   3
  -2  11   0 206.464 121.299   1
   2 -11   0 342.098 102.172   5
   2 -11   0 418.781 101.036   8
   2 -11   0 485.755 109.396   7
  -2  11   0 439.419 93.4755   4
  -2 -11   0 570.572 93.9532   7
   2  11   0 597.634 158.614   2
   2 -11   0 398.917 132.336   6
  -2  11   1 194.862 106.018   1
  -2 -11  -1 292.682 159.780   5
  -2 -11   1 217.105 162.759   5
   2 -11  -1 219.524 78.8257   8
  -2  11   1 202.303 135.072   3
  -2  11  -1 147.367 139.735   3
   2 -11  -1 152.030 78.9428   5
   2 -11   1 167.632 83.7328   5
  -2  11   1 194.163 149.334   2
   2 -11   1 61.6305 80.2683   8
  -2  11  -1 288.907 174.854   2
  -2 -11   1 348.882 82.8924   8
   2 -11   1 148.020 90.7210   7
   2 -11  -1 145.905 83.5096   7
  -2  11  -1 187.292 66.6015   4
  -2  11   1 211.709 72.7839   4
  -2 -11   1 318.349 72.8267   7
  -2 -11  -1 170.607 70.7344   7
  -2  11  -1 74.9342 89.5455   1
   2  11  -1 72.0519 132.406   2
   2 -11   1 256.071 113.097   6
   2 -11  -1 272.512 112.843   6
  -2 -11  -2 260.325 166.042   5
  -2 -11   2 330.314 165.876   5
   2 -11   2 456.249 101.551   8
  -2  11   2 243.258 134.188   3
   2 -11  -2 142.005 82.2822   5
  -2  11  -2 200.075 140.361   3
  -2  11   2 302.760 150.600   2
  -2 -11   2 303.657 80.8817   8
   2 -11  -2 400.389 87.9237   8
  -2  11  -2 239.779 97.8069   1
  -2  11  -2 339.709 75.5301   4
   2 -11   2 205.907 87.9517   5
   2 -11   2 300.797 99.4210   7
  -2  11  -2-40.1595 176.798   2
   2 -11  -2 349.737 95.7355   7
  -2  11   2 330.422 84.1892   4
  -2 -11   2 341.854 79.4986   7
  -2 -11  -2 305.484 76.9424   7
  -2  11   2 331.642 105.478   1
   2 -11   2 411.322 124.766   6
   2  11  -2 446.355 163.999   2
   2 -11  -2 208.918 115.674   6
   2  11  -3-38.2007 134.430   2
  -2  11  -3 154.664 82.8599   1
  -2 -11  -3 109.991 175.540   5
  -2  11   3 92.6277 108.233   1
  -2 -11   3 130.693 159.841   5
  -2  11   3 192.667 136.592   3
  -2  11   3 95.4443 132.243   2
   2 -11  -3 157.230 77.2942   5
  -2 -11   3 91.0994 75.9360   8
   2 -11   3 209.091 77.7991   5
   2 -11   3 80.3818 90.6884   8
   2 -11  -3 34.2395 62.4662   8
   2 -11   3 146.802 90.8042   7
   2 -11  -3-46.1679 79.3767   7
  -2  11  -3 397.161 181.480   2
  -2  11  -3 222.720 61.5783   4
  -2  11   3 145.735 74.2388   4
  -2 -11  -3 186.500 69.1344   7
  -2  11  -3-16.9673 134.847   3
   2 -11   3 169.362 108.930   6
   2 -11  -3 42.6960 109.807   6
   2  11  -4 516.884 174.495   2
  -2  11   4 754.607 155.614   2
  -2 -11   4 461.424 171.896   5
  -2  11   4 547.066 155.164   3
   2 -11   4 492.155 116.131   5
   2 -11  -4 713.901 112.114   5
   2 -11  -4 643.770 101.612   8
  -2  11  -4 313.720 158.978   3
  -2 -11   4 428.283 107.359   8
   2 -11  -4 488.560 113.899   7
  -2  11  -4 627.955 98.0520   4
   2 -11   4 570.066 129.705   8
  -2 -11  -4 473.910 102.138   7
  -2  11  -4 631.793 204.189   2
  -2  11   4 472.297 109.567   4
  -2  11  -4 338.643 108.732   1
   2 -11  -4 602.250 147.192   6
  -2  11  -5 2279.49 425.932   3
  -2  11   5 3180.08 399.469   4
  -2 -11   5 3069.70 427.474   5
   2 -11   5 1981.06 397.826   5
  -2 -11   5 3282.28 400.466   8
   2 -11   5 2338.80 405.621   8
   2 -11  -5 3081.64 404.363   7
   2  11  -5 2870.17 438.717   2
   2 -11  -5 3230.49 420.484   6
   2  11  -6 405.339 184.117   2
  -2 -11   6 263.723 157.487   5
  -2  11  -6 537.360 152.805   3
   2 -11   6 481.800 123.692   8
   2 -11   6 389.793 98.3813   5
   2 -11  -6 380.986 101.484   7
  -2  11   6 285.263 98.2294   4
  -2 -11   6 358.750 100.491   8
   2 -11  -6 365.250 139.741   6
   2  11  -7 3666.90 511.246   3
  -2  11  -7 3331.92 500.490   3
  -2 -11   7 3785.07 498.582   5
   2 -11   7 2661.54 468.128   5
  -2 -11   7 3455.62 468.723   8
  -2  11   7 3649.19 469.786   4
   2 -11  -7 3715.03 473.459   7
   2 -11   7 3081.65 482.309   8
   2  11  -7 3214.35 518.628   2
   2 -11  -7 2832.51 484.246   6
   2  11  -8 136.083 171.799   3
   2  11  -8 136.495 201.031   2
  -2 -11   8 270.194 151.538   5
   2 -11   8 219.775 103.323   5
  -2  11  -8 146.246 148.513   3
   2 -11   8 174.516 127.542   8
   2 -11  -8 326.095 104.552   7
  -2 -11   8 523.277 106.519   8
  -2  11   8 205.503 95.0518   4
   2 -11  -8 204.202 137.601   6
   2  11  -9 1573.07 314.006   3
   2 -11   9 1865.79 270.735   5
  -2 -11   9 1616.23 296.648   5
   2  11  -9 2586.28 347.876   2
  -2 -11   9 2142.43 269.537   8
  -2  11   9 1711.03 271.235   4
  -2  11  -9 1454.88 297.820   3
   2 -11   9 1378.24 281.106   8
   2 -11  -9 1932.12 273.603   7
   2 -11  -9 1531.71 289.748   6
   2 -11 -10 16.4199 125.804   6
   2  11 -10 102.331 173.253   3
  -2 -11  10-32.7954 132.625   5
   2  11 -10-24.2932 181.039   2
  -2  11 -10 55.6431 143.171   3
   2 -11  10-43.4726 89.4442   5
  -2 -11  10 50.4254 90.1138   8
   2 -11  10 60.0385 144.541   8
   2 -11 -10 53.1244 96.7730   7
  -2  11  10 99.7941 99.5646   4
   2 -11 -11 16.7071 125.198   6
   2  11 -11-63.3954 175.400   3
  -2 -11  11 49.0453 135.964   5
   2  11 -11 150.574 206.081   2
  -2 -11  11 105.172 96.3928   8
   2 -11  11 66.3917 88.0031   5
   2 -11  11 15.2750 133.928   8
  -2  11 -11 246.636 153.440   3
   2 -11 -11 195.821 97.2224   7
  -2  11  11 134.285 95.2100   4
   2 -11 -12 101.600 130.676   6
   2  11 -12 261.053 198.549   3
  -2 -11  12 521.869 152.300   5
   2 -11  12 236.606 106.788   5
  -2  11 -12 305.541 160.546   3
  -2  11  12 255.948 105.425   4
  -2 -11  14 324.819 116.618   8
   2  11 -14-109.055 233.558   2
   2 -11  14 66.3165 153.161   8
   2 -11 -14 397.648 113.504   7
   2 -11  15-193.424 100.967   5
   2 -11 -15-71.6196 132.522   6
  -2 -11  15-59.1600 107.050   8
   2  11 -15 251.632 229.986   2
   2  11 -15 70.5685 188.346   3
  -2 -11  15-143.052 131.747   5
   2 -11  15 33.6697 139.971   8
  -2  11 -15 19.4542 147.444   3
   2 -11 -15 35.9627 104.525   7
  -2  11  15-95.0930 116.844   4
   2 -11 -16-18.2413 144.373   6
   2  11 -16-239.974 206.577   3
  -2 -11  16 200.741 135.221   5
   2 -11  16 186.145 112.632   5
  -2 -11  16 134.856 108.220   8
   2  11 -16-113.850 253.627   2
  -2  11 -16 19.6215 143.094   3
  -2  11  16 110.652 114.296   4
   2 -11 -17 55.7687 153.438   6
   2 -11  17-191.427 164.340   8
   2  11 -17-121.077 235.962   3
  -2 -11  17-91.8846 142.079   5
  -2 -11  17 62.3889 134.983   8
   2  11 -17 28.9172 272.297   2
   2 -11  17-12.7638 113.102   5
  -2  11 -17-19.8093 158.030   3
  -2  11  17-63.7405 119.535   4
   2 -11 -18-113.710 139.063   6
   2  11 -18 49.1223 195.246   3
  -2 -11  18 12.6885 113.461   8
   2  11 -18-29.4490 242.210   2
   2 -11  18 39.3212 107.970   5
   2 -11  18 230.400 156.559   8
  -2  11 -18-60.2219 141.023   3
   2 -11 -18 25.8445 120.299   7
  -2 -11  18 75.8716 128.996   5
  -2  11  18 223.868 126.635   4
   2 -11 -19 733.023 208.313   6
  -2 -11  19 852.711 179.408   5
  -2 -11  19 812.786 171.513   8
   2  11 -19 99.5385 219.090   3
   2  11 -19 1192.77 292.870   2
   2 -11  19 646.924 163.775   5
   2 -11  19 795.469 204.780   8
  -2  11 -19 510.220 197.061   3
   2 -11 -19 1046.56 175.053   7
  -2  11  19 601.501 168.529   4
   2 -11 -20 39.2858 146.937   6
  -2 -11  20 66.8496 117.659   8
  -2 -11  20-120.019 123.345   5
   2  11 -20-100.526 205.249   3
   2 -11  20 18.4788 155.898   8
   2 -11  20 41.6469 112.230   5
   2  11 -20-90.4870 258.437   2
  -2  11 -20-41.8248 151.344   3
   2 -11 -20 13.5748 116.667   7
  -2  11  20 85.2717 126.506   4
   2 -11 -21 1277.84 230.574   6
   2  11 -21 300.233 254.622   3
   2 -11  21 1048.24 209.416   5
  -2 -11  21 1221.33 216.901   5
   2 -11  21 965.319 240.759   8
   2  11 -21 1189.08 316.303   2
  -2  11 -21 533.672 224.423   3
   2 -11 -21 1321.59 215.892   7
  -2 -11  21 1767.45 216.911   8
  -2  11  21 784.179 212.402   4
   2 -11 -22-122.320 181.499   6
  -2 -11  22 30.3167 131.887   5
  -2 -11  22 166.104 131.993   8
   2 -11  22 19.4347 177.845   8
   2  11 -22-184.872 281.173   2
   2 -11  22 115.698 128.412   5
  -2  11 -22-87.4330 169.324   3
   2  11 -22 25.1578 198.476   3
   2 -11 -22-114.016 126.905   7
  -2  11  22 154.270 148.898   4
  -2 -11  23 499.606 147.133   5
   2 -11 -23 165.597 181.753   6
   2 -11 -23 481.573 148.906   7
   2 -11  23 459.994 199.386   8
   2  11 -23-126.180 200.885   3
   2  11 -23 124.752 262.246   2
   2 -11  23 459.132 138.351   5
  -2 -11  23 507.821 154.556   8
  -2  11 -23 22.4578 169.689   3
  -2  11  23 274.038 164.457   4
  -2 -11  24 106.530 140.463   5
   2 -11  24 247.698 189.070   8
   2  11 -24 50.6026 208.897   3
   2  11 -24 157.665 251.821   2
   2 -11  24 137.475 128.972   5
  -2 -11  24 187.217 132.828   8
  -2  11 -24 277.440 167.841   3
   2 -11 -24 358.711 143.015   7
  -2  11  24 133.789 161.845   4
  -2 -11  25 76.5110 129.465   5
  -2 -11  25 117.886 140.462   8
   2 -11  25-341.839 190.425   8
   2  11 -25 95.6998 262.449   2
   2  11 -25-177.558 208.080   3
   2 -11 -25-168.254 141.400   7
  -2  11 -25-143.246 167.814   3
  -2  11  25-103.935 150.983   4
  -2 -11  26 15.4650 134.549   5
   2 -11  26-21.4335 186.452   8
   2  11 -26 193.427 268.552   2
   2  11 -26 100.125 181.952   3
   2 -11 -26-78.2485 132.895   7
  -2  11 -26 98.4860 172.016   3
  -2 -11  26 45.3410 142.324   8
  -2 -11  27-15.6739 145.395   5
  -2 -11  27-342.001 151.527   8
   2 -11  27 22.3277 218.331   8
   2  11 -27-32.6898 294.481   2
   2  11 -27 250.851 217.201   3
  -2 -11  28-16.0455 148.572   8
  -2 -11  28 63.7702 138.475   5
   2  11 -28 166.003 273.073   2
   2  11 -28 126.079 188.785   3
  -2 -11  29 199.518 167.011   8
  -2 -11  29 97.1438 132.439   5
   2  11 -29 50.7949 184.272   3
   2  11 -29-101.300 277.927   2
   2  11 -30-206.527 282.103   2
  -2 -11  30 16.9652 164.564   8
   2  11 -30-76.5252 184.672   3
  -2 -11  30-16.4920 135.233   5
  -2 -11  31 70.9255 162.847   8
  -2 -11  31 252.664 142.812   5
   2  11 -31-129.876 186.098   3
  -3  11   0 3223.09 462.896   3
   3 -11   0 3345.25 442.405   5
  -3 -11   0 3425.45 499.324   5
   3 -11   0 3180.39 447.116   8
   3 -11   0 2603.69 448.894   7
  -3  11   0 3303.98 440.080   4
   3 -11   0 3323.59 467.807   6
  -3  11   0 2839.47 478.248   2
  -3  11   0 3007.35 449.697   1
  -3  11  -1 412.089 107.589   1
  -3 -11   1 477.953 194.445   5
   3 -11  -1 289.502 83.4825   5
  -3  11   1 254.947 135.922   3
   3 -11  -1 295.015 93.4814   8
  -3  11   1 172.487 110.631   1
   3 -11   1 259.606 110.449   7
   3 -11   1 301.309 110.674   8
   3 -11  -1 362.127 112.154   7
  -3  11   1 624.739 172.386   2
  -3  11  -1 344.489 79.8636   4
  -3  11   1 367.110 89.1923   4
   3 -11   1 281.344 134.006   6
   3 -11  -1 279.465 142.177   6
   3 -11   1 292.188 82.7499   5
  -3  11  -1 156.279 123.328   3
   3 -11  -2 592.268 143.404   5
   3 -11   2 888.904 167.451   8
  -3  11   2 1077.83 187.116   3
  -3 -11   2 868.531 234.426   5
  -3  11  -2 994.943 187.495   3
  -3  11   2 938.233 214.228   2
   3 -11   2 699.672 148.261   5
   3 -11   2 1193.35 174.794   7
  -3  11  -2 977.000 145.527   4
   3 -11  -2 952.311 162.669   7
   3 -11  -2 1082.96 154.005   8
  -3  11  -2 990.073 157.252   1
  -3  11   2 798.250 170.139   1
   3  11  -2 936.303 204.098   2
   3 -11   2 841.321 188.924   6
   3 -11  -2 1121.23 200.160   6
  -3  11   2 863.009 148.681   4
   3 -11  -3 517.777 107.174   5
  -3 -11   3 644.459 115.678   8
  -3 -11   3 335.490 186.209   5
  -3  11   3 340.869 144.165   1
   3 -11  -3 604.069 112.176   8
  -3  11   3 569.031 170.886   2
   3 -11   3 541.239 113.347   5
  -3  11  -3 972.455 172.863   3
   3 -11   3 808.841 142.342   8
   3 -11   3 840.616 143.225   7
  -3  11   3 749.097 151.662   3
   3 -11  -3 637.293 128.323   7
  -3  11  -3 637.704 119.281   1
  -3  11  -3 393.437 103.603   4
  -3  11   3 506.550 110.964   4
   3  11  -3 648.243 185.270   2
   3 -11   3 354.363 157.506   6
   3 -11  -3 850.265 169.092   6
  -3 -11   4-42.7691 166.246   5
   3 -11   4 36.3868 75.9159   5
  -3  11  -4-8.11882 67.8479   1
  -3  11  -4 327.224 133.049   3
   3 -11   4 63.6845 115.233   8
  -3  11   4 315.125 122.460   1
   3 -11   4 233.268 114.947   7
  -3  11  -4 122.717 59.9529   4
   3 -11  -4-20.9405 86.4277   7
  -3  11   4 142.960 74.4555   4
  -3 -11   4 156.786 75.1057   8
   3  11  -4 485.409 161.851   2
   3 -11  -4-16.2665 130.485   6
  -3 -11   5 672.018 219.653   5
  -3  11   5 844.408 185.814   1
   3 -11   5 994.469 154.990   5
  -3 -11   5 781.687 150.899   8
  -3  11  -5 809.062 194.149   3
   3 -11  -5 811.295 160.502   7
  -3  11   5 888.364 151.599   4
   3 -11  -5 725.002 197.928   6
   3 -11   5 1129.26 183.351   8
   3  11  -5 1061.55 208.631   2
   3  11  -6 1151.71 218.097   2
  -3 -11   6 1330.05 224.898   5
  -3 -11   6 712.752 147.568   8
   3 -11   6 874.128 155.189   5
   3 -11   6 680.918 187.592   8
  -3  11  -6 795.153 195.967   3
   3 -11  -6 565.522 162.149   7
  -3  11   6 923.619 193.437   1
  -3  11   6 1180.95 156.729   4
   3 -11  -6 883.013 210.337   6
   3  11  -7 428.079 209.853   2
  -3 -11   7 816.407 207.842   5
  -3 -11   7 950.799 132.844   8
   3 -11   7 653.014 133.058   5
  -3  11   7 154.457 176.612   1
   3 -11   7 600.065 170.622   8
  -3  11  -7 667.060 172.769   3
   3 -11  -7 539.100 142.896   7
  -3  11   7 937.572 137.116   4
   3 -11  -7 590.094 193.049   6
   3  11  -8 331.002 189.359   2
  -3  11   8 255.772 157.438   1
  -3 -11   8 727.547 170.685   5
   3 -11   8 551.161 176.019   8
  -3 -11   8 600.117 117.357   8
   3 -11   8 345.774 112.494   5
  -3  11  -8 687.582 161.165   3
   3 -11  -8 587.029 126.281   7
  -3  11   8 761.799 124.948   4
   3 -11  -8 545.329 164.074   6
   3  11  -9 182.134 176.149   2
  -3 -11   9-37.9632 154.983   5
   3 -11   9 209.084 92.5129   5
   3 -11   9 315.907 151.354   8
  -3  11  -9 70.3829 130.335   3
   3 -11  -9 141.471 101.658   7
  -3 -11   9 310.814 93.8800   8
  -3  11   9 130.653 91.3918   4
   3 -11  -9 293.059 146.238   6
   3  11 -10 60.6958 151.952   3
   3  11 -10 164.466 183.327   2
  -3 -11  10 18.3405 152.284   5
   3 -11  10-50.8689 148.359   8
   3 -11  10-96.9411 84.3615   5
  -3  11 -10-35.4470 139.307   3
  -3 -11  10-38.6460 85.7664   8
   3 -11 -10 11.0553 96.7331   7
  -3  11  10 77.3003 91.2071   4
   3 -11 -10-52.2577 152.854   6
   3  11 -11 269.609 183.470   3
  -3 -11  11 474.985 163.774   5
   3 -11  11 354.400 112.617   5
   3 -11  11 410.754 161.330   8
  -3  11 -11 304.135 151.992   3
   3 -11 -11 349.850 117.540   7
  -3  11  11 400.145 109.598   4
   3 -11 -11 369.626 157.473   6
   3 -11  12 605.773 139.541   5
  -3  11 -12 723.069 185.387   3
  -3  11  12 714.279 145.928   4
   3 -11 -12 960.964 189.356   6
  -3 -11  13 127.066 97.6049   8
   3  11 -14 421.327 229.553   2
   3 -11  14 623.905 206.781   8
  -3 -11  14 614.765 126.456   8
   3 -11 -14 263.090 129.229   7
   3 -11 -15 480.534 153.476   6
   3  11 -15 163.488 200.894   3
   3 -11  15-62.3651 99.2663   5
  -3 -11  15 241.172 148.656   5
   3  11 -15-108.202 232.447   2
  -3 -11  15 235.751 98.0885   8
   3 -11  15 119.216 169.083   8
   3 -11 -15 183.364 111.746   7
  -3  11  15 56.8934 112.765   4
  -3  11 -15 57.2370 136.842   3
   3 -11 -16 392.312 187.807   6
   3  11 -16 120.324 225.929   3
  -3 -11  16 602.745 174.507   5
   3  11 -16 662.186 301.512   2
   3 -11  16 445.874 217.614   8
   3 -11  16 373.392 132.926   5
  -3 -11  16 431.047 137.675   8
  -3  11 -16 58.3796 152.734   3
  -3  11  16 305.675 130.513   4
   3 -11 -17 302.178 163.073   6
   3  11 -17 247.213 215.067   3
  -3 -11  17-33.6736 152.998   5
   3  11 -17-28.2682 231.317   2
  -3 -11  17 118.916 112.505   8
   3 -11  17 328.950 120.808   5
  -3  11 -17 79.8111 137.560   3
  -3  11  17 291.846 120.556   4
   3 -11 -18-38.5725 163.779   6
   3  11 -18-201.235 218.825   3
  -3 -11  18-84.1574 149.875   5
   3  11 -18-86.2010 213.249   2
  -3 -11  18-24.2521 108.316   8
   3 -11  18 190.656 187.003   8
   3 -11  18-13.4469 109.524   5
  -3  11 -18-224.622 152.190   3
   3 -11 -18-13.0692 114.079   7
  -3  11  18 63.0250 113.218   4
   3 -11 -19 39.2652 160.416   6
   3  11 -19 51.2479 212.931   3
  -3 -11  19 66.7431 138.525   5
  -3 -11  19 176.207 115.222   8
   3 -11  19 260.566 181.891   8
   3  11 -19-58.3394 242.954   2
  -3  11 -19 209.613 154.193   3
   3 -11 -19 106.908 120.498   7
  -3  11  19 340.149 134.704   4
   3 -11  19 82.7121 110.043   5
   3 -11 -20 39.9383 157.921   6
   3  11 -20 312.651 203.555   3
  -3 -11  20 305.034 142.434   5
   3  11 -20 476.291 265.402   2
  -3 -11  20 320.570 132.312   8
   3 -11  20 388.144 211.496   8
   3 -11  20 128.189 115.628   5
   3 -11 -20 150.320 139.919   7
  -3  11 -20 107.720 156.517   3
  -3  11  20 378.983 135.363   4
   3 -11 -21-60.9825 161.518   6
  -3 -11  21 288.935 156.104   5
   3  11 -21 271.309 259.805   2
  -3 -11  21 287.414 139.836   8
   3  11 -21-26.1409 219.310   3
   3 -11  21 22.1932 199.608   8
   3 -11  21 117.633 116.777   5
   3 -11 -21 83.8382 130.655   7
  -3  11 -21-44.4027 155.585   3
  11  -3 -21-76.2895 222.686   6
  -3  11  21 407.298 132.649   4
   3 -11 -22-20.6959 174.402   6
  -3 -11  22 319.530 137.071   8
  -3 -11  22 160.370 147.141   5
   3  11 -22 152.537 278.130   2
   3  11 -22 396.056 235.845   3
   3 -11  22 68.7088 224.147   8
   3 -11 -22 114.298 135.399   7
  -3  11 -22 45.7631 171.145   3
  -3  11  22 393.801 144.518   4
   3 -11 -23 294.555 199.919   6
  -3 -11  23 63.4832 124.854   5
   3  11 -23 61.7189 262.129   2
   3  11 -23 79.9094 210.814   3
  -3 -11  23 275.545 130.995   8
   3 -11  23 213.211 243.342   8
   3 -11 -23 423.530 144.188   7
  -3  11  23 257.992 156.323   4
   3 -11 -24 470.818 180.005   6
   3  11 -24 31.2080 250.579   2
  -3 -11  24-15.9169 140.506   5
  -3 -11  24 14.0701 124.567   8
   3  11 -24-187.591 209.886   3
   3 -11 -24-104.505 151.514   7
  -3  11  24 15.8110 157.644   4
   3 -11 -25 130.398 165.625   6
  -3 -11  25 111.707 140.815   5
   3  11 -25 284.155 258.521   2
   3  11 -25 291.178 209.945   3
  -3 -11  25 316.579 132.197   8
   3 -11 -25 244.213 148.194   7
  -3  11  25 132.024 154.380   4
   3 -11 -26-22.0491 185.867   6
  -3 -11  26 349.638 147.769   5
  -3 -11  26 368.531 152.669   8
   3  11 -26 265.097 219.591   3
   3  11 -26 255.665 275.701   2
   3 -11 -26 62.4243 150.032   7
  -3  11  26 327.899 156.515   4
   3 -11 -27-44.7002 184.365   6
   3  11 -27 32.3890 279.205   2
  -3 -11  27 30.2900 138.200   8
  -3 -11  27 111.479 148.415   5
   3  11 -27-53.0911 216.799   3
   3 -11 -27-95.9460 151.311   7
  -3  11  27-53.7558 169.973   4
   3  11 -28 230.035 275.240   2
  -3 -11  28 514.893 169.122   8
   3  11 -28-104.616 212.777   3
  -3 -11  28 368.974 150.101   5
   3 -11 -28 327.177 167.060   7
  -3  11  28 334.400 179.956   4
   3  11 -29-200.257 271.890   2
  -3 -11  29 301.987 154.499   8
  -3 -11  29-16.1784 144.026   5
   3  11 -29 26.1807 192.999   3
   3 -11 -29 83.7194 148.187   7
   3  11 -30 237.637 283.732   2
  -3 -11  30 32.9864 136.134   8
  -3 -11  30 32.8658 131.565   5
   3  11 -30-52.5649 193.491   3
   4 -11   0 309.269 86.4098   5
   4 -11   0 159.400 117.045   8
  -4  11   0 428.245 126.949   3
   4 -11   0 200.258 125.620   7
  -4  11   0 371.630 93.1617   4
  -4  11   0 474.015 112.994   1
   4 -11   0 365.481 168.976   6
  -4  11   1 4055.33 549.252   3
  -4  11  -1 4108.65 550.878   3
   4 -11   1 3741.58 532.888   5
   4 -11  -1 3303.85 538.390   8
   4 -11   1 3587.18 547.599   8
  -4  11  -1 3846.19 531.405   4
   4 -11   1 3644.39 551.244   7
  -4  11   1 3748.02 532.333   4
   4 -11   1 3664.47 562.640   6
   4 -11  -1 4473.16 568.976   6
  -4  11  -1 3971.21 538.439   1
  -4  11   1 4288.25 543.416   1
  -4  11   2 348.214 111.183   1
   4 -11  -2 285.175 79.7853   5
  -4  11  -2 283.681 90.2731   1
   4 -11   2 350.655 88.7730   5
   4 -11  -2 275.136 103.600   8
   4 -11   2 164.297 126.727   8
  -4  11   2 175.608 115.003   3
  -4  11  -2 252.535 129.002   3
   4 -11   2 455.725 140.419   7
  -4  11  -2 328.535 81.5481   4
   4 -11  -2 264.348 118.190   7
  -4  11   2 442.773 90.7988   4
   4 -11   2 201.991 161.572   6
   4 -11  -2-17.9229 166.295   6
  -4  11  -3 769.176 138.195   1
  -4  11   3 1115.74 167.525   1
   4 -11   3 660.894 180.119   8
   4 -11   3 990.715 181.117   7
  -4  11  -3 808.347 172.227   3
  -4  11  -3 588.717 131.868   4
  -4  11   3 873.185 141.557   4
   4 -11  -3 500.175 161.052   7
   4 -11   3 776.149 200.282   6
   4 -11  -3 815.778 206.020   6
   4 -11   3 836.384 141.524   5
  -4 -11   4 1611.15 297.728   5
  -4  11  -4 1405.95 233.976   3
  -4  11   4 881.314 223.508   1
   4 -11   4 1288.31 242.475   8
  -4  11   4 1627.58 205.054   4
   4 -11   4 1186.08 228.456   7
   4 -11  -4 1242.12 224.636   7
  -4  11  -4 1283.95 196.662   1
   4 -11   4 1287.94 247.784   6
   4 -11  -4 1560.60 269.361   6
   4 -11   4 1106.08 199.320   5
  -4 -11   5-46.6707 169.628   5
   4 -11   5 9.55007 74.8551   5
   4 -11   5 16.7650 136.495   8
  -4  11  -5-47.5472 119.072   3
  -4  11   5-94.8512 123.017   1
   4 -11  -5 224.122 113.867   7
  -4  11   5 82.7810 77.0092   4
   4  11  -5-120.454 147.173   2
   4 -11  -5 36.6060 161.565   6
  -4 -11   6 823.489 233.093   5
   4 -11   6 977.571 158.078   5
   4 -11   6 828.222 206.802   8
  -4  11  -6 836.946 184.377   3
   4 -11  -6 775.828 176.500   7
  -4  11   6 949.785 156.810   4
  -4 -11   6 948.758 155.436   8
   4  11  -6 1263.04 224.012   2
   4 -11  -6 442.811 199.141   6
  -4  11   6 936.474 189.162   1
  -4  11   7 14.8685 131.397   1
  -4 -11   7 240.896 192.238   5
   4 -11   7 81.6500 83.4178   5
  -4 -11   7 111.982 78.7912   8
  -4  11  -7 181.512 124.906   3
   4 -11  -7 164.390 104.800   7
  -4  11   7 95.7081 84.1972   4
   4 -11   7 36.6365 157.252   8
   4 -11  -7 130.148 168.545   6
   4  11  -7 248.908 155.943   2
  -4 -11   8 539.560 209.556   5
  -4  11   8 467.523 181.739   1
   4 -11  -8 917.741 163.118   7
   4 -11   8 834.781 147.727   5
   4 -11   8 581.934 205.555   8
  -4  11  -8 940.909 181.767   3
  -4  11   8 606.570 141.080   4
   4 -11  -8 804.624 206.975   6
   4  11  -8 1327.02 227.104   2
  -4 -11   8 946.869 147.282   8
  -4 -11   9-20.7960 164.736   5
   4 -11   9-142.260 94.5153   5
  -4  11  -9-155.047 122.124   3
   4 -11   9-217.547 183.920   8
  -4  11   9 81.4347 132.698   1
   4 -11  -9 82.6325 110.164   7
  -4  11   9-55.0741 86.6164   4
  -4 -11   9 28.8100 75.9806   8
   4 -11  -9 56.4877 155.429   6
   4  11  -9-153.841 179.584   2
  -4  11  10 374.175 171.984   1
  -4 -11  10 576.536 195.464   5
   4 -11  10 700.666 133.259   5
   4 -11  10 242.648 192.485   8
  -4  11 -10 703.120 169.039   3
   4 -11 -10 635.292 134.301   7
  -4  11  10 473.147 123.013   4
   4 -11 -10 719.265 192.004   6
   4 -11  11 1227.36 189.967   5
  -4  11 -11 1153.59 210.296   3
  -4  11  11 983.078 181.788   4
   4 -11 -11 838.324 229.512   6
  -4  11  13 1119.16 213.702   1
   4  11 -13 466.753 246.773   2
   4 -11 -13 432.833 173.583   7
  -4 -11  13 1327.94 169.156   8
   4 -11  13 422.359 227.469   8
   4  11 -14 399.277 202.487   3
   4  11 -14 101.280 197.693   2
  -4 -11  14 230.121 142.035   5
  -4  11  14 39.2567 164.706   1
  -4 -11  14 596.342 111.974   8
   4 -11  14-22.7487 217.891   8
   4 -11  14 37.7133 105.358   5
   4 -11 -14 424.724 122.572   7
  -4  11 -14 77.6339 137.681   3
  -4  11  14 96.6493 104.538   4
   4 -11 -14 194.484 166.330   6
   4  11 -15 320.233 231.608   3
   4  11 -15 182.463 253.087   2
  -4 -11  15 935.951 200.100   5
  -4 -11  15 1199.54 161.097   8
   4 -11  15 512.760 248.293   8
   4 -11  15 532.973 159.198   5
   4 -11 -15 572.846 166.569   7
  -4  11 -15 557.878 200.880   3
  -4  11  15 1009.44 159.605   4
   4 -11 -15 450.624 211.339   6
   4  11 -16 94.7813 213.610   3
   4  11 -16 53.1998 235.445   2
  -4 -11  16 261.804 164.606   5
  -4 -11  16 325.052 110.566   8
   4 -11  16 286.913 239.152   8
   4 -11  16 389.289 127.941   5
  -4  11 -16 225.255 155.254   3
  -4  11  16 22.9349 110.617   4
   4 -11 -16-158.024 184.864   6
  -4 -11  17 229.323 105.090   8
   4  11 -17-218.376 191.955   2
   4  11 -17 122.295 212.478   3
  -4 -11  17 236.422 152.003   5
   4 -11  17-49.1331 212.775   8
   4 -11 -17 145.576 123.008   7
  -4  11 -17 105.448 140.243   3
  -4  11  17-131.106 196.542   1
  -4  11  17 47.2739 102.946   4
   4 -11 -17 39.7908 165.661   6
   4 -11 -18 221.596 152.054   6
  -4 -11  18 106.206 105.840   8
   4  11 -18-138.973 222.120   2
   4  11 -18 25.2266 209.324   3
  -4 -11  18 127.350 148.359   5
   4 -11 -18 240.738 119.009   7
  -4  11 -18 21.6767 151.484   3
  -4  11  18 158.123 114.363   4
  -4  11  18-136.040 194.270   1
   4 -11 -19-285.464 179.442   6
   4  11 -19-28.4452 224.383   2
   4  11 -19 155.731 216.900   3
  -4 -11  19-18.1919 153.964   5
   4 -11 -19 27.2894 126.833   7
  -4  11  19 37.6980 126.956   4
  -4 -11  19 24.1175 107.042   8
   4 -11 -20 267.469 167.033   6
   4  11 -20-115.571 238.422   2
   4  11 -20 79.7849 214.368   3
  -4 -11  20 35.5613 147.780   5
  -4 -11  20 147.812 117.030   8
   4 -11 -20-83.5159 123.026   7
  11  -4 -20 26.7330 248.571   6
  -4  11  20 12.9988 124.397   4
   4 -11 -21-207.672 186.706   6
   4  11 -21-58.6209 247.499   2
   4  11 -21-80.8343 226.845   3
  -4 -11  21 17.6113 151.257   5
  -4 -11  21-88.8517 123.800   8
   4 -11 -21-71.0142 129.320   7
  11  -4 -21-26.8246 239.001   6
  -4  11  21-80.8593 126.342   4
   4 -11 -22 232.281 195.718   6
   4  11 -22 267.342 253.726   2
   4  11 -22-273.999 240.779   3
  -4 -11  22 152.304 150.717   5
  -4 -11  22 570.194 145.000   8
   4 -11 -22 159.427 136.976   7
 -11   4  22 243.448 95.0155   4
  11  -4 -22 405.718 253.741   6
  -4  11  22 335.876 145.794   4
   4 -11 -23-128.739 173.465   6
   4  11 -23 60.5345 233.545   2
   4 -11 -23 73.9421 125.160   7
  -4 -11  23 13.2359 128.029   8
  -4 -11  23-152.032 150.369   5
   4  11 -23 83.3148 216.692   3
  -4  11  23 101.389 137.737   4
   4 -11 -24 370.757 200.829   6
   4  11 -24-30.6476 246.267   2
  -4 -11  24 189.362 128.461   8
   4  11 -24 360.736 229.445   3
  -4 -11  24 202.107 147.965   5
  -4  11  24 229.803 248.031   1
   4 -11 -24 256.627 154.577   7
  -4  11  24 240.645 140.630   4
   4 -11 -25 288.281 196.180   6
   4  11 -25 31.0338 250.064   2
  -4  11  25 329.875 268.045   1
  -4 -11  25 553.714 146.550   8
  -4 -11  25 432.206 171.965   5
   4 -11 -25 416.123 155.531   7
   4  11 -25 307.763 254.221   3
  -4  11  25 312.658 143.341   4
   4 -11 -26 202.664 211.404   6
  -4 -11  26 564.987 187.142   5
   4  11 -26 439.874 297.713   2
  -4 -11  26 382.946 165.294   8
   4  11 -26-112.465 256.350   3
  -4  11  26 219.458 292.603   1
   4 -11 -26 492.213 173.222   7
  -4  11  26 195.232 161.833   4
   4 -11 -27 205.835 210.017   6
   4  11 -27 382.059 283.682   2
  -4 -11  27 1193.74 193.364   8
  -4 -11  27 896.761 180.351   5
   4  11 -27 610.173 254.525   3
  -4  11  27 590.797 316.018   1
   4 -11 -27 778.769 192.113   7
  -4  11  27 593.759 187.607   4
  -4  11  28-34.4459 305.195   1
   4 -11 -28 92.7718 171.964   6
   4  11 -28 32.2672 246.545   2
  -4 -11  28 65.9083 146.088   5
  -4 -11  28 314.687 143.528   8
   4  11 -28-110.936 221.559   3
   4 -11 -28-33.1702 150.349   7
  -4  11  28 230.310 168.627   4
   4 -11 -29-23.4918 185.091   6
   4  11 -29 65.5218 292.464   2
  -4 -11  29 633.970 158.447   8
  -4 -11  29 674.613 171.213   5
   4  11 -29 166.304 233.710   3
  -4  11  29 362.239 324.937   1
   4 -11 -29 593.822 180.992   7
  -4  11  29 352.238 178.871   4
  -4  11  30 57.7947 184.261   4
  -5  11   0 2298.99 348.516   3
   5 -11   0 2128.24 328.593   5
   5 -11   0 2563.06 357.620   8
   5 -11   0 2386.69 362.402   7
  -5  11   0 2373.88 335.359   1
   5 -11   0 2083.45 379.985   6
  -5  11  -1 497.680 106.692   1
   5 -11  -1 354.926 151.453   8
  -5  11   1 578.990 114.388   1
   5 -11   1 554.078 160.621   8
   5 -11   1 504.424 98.8999   5
   5 -11  -1 304.828 95.9384   5
   5 -11   1 269.049 147.285   7
  -5  11   1 265.653 96.1589   4
   5 -11  -1 377.028 155.217   7
  -5  11  -1 703.525 147.199   3
  -5  11   1 502.484 135.441   3
   5 -11   1 228.039 184.631   6
   5 -11  -1 435.983 194.088   6
  -5  11  -2 2758.36 358.635   3
   5 -11   2 2473.75 336.036   5
   5 -11   2 2454.86 371.748   8
  -5  11   2 2067.85 333.490   4
   5 -11  -2 2137.37 361.499   7
   5 -11   2 2190.35 366.079   7
   5 -11   2 1953.56 375.502   6
   5 -11  -2 1984.52 383.680   6
  -5  11   2 2740.41 348.342   1
   5 -11   3 660.751 125.298   5
  -5  11   3 545.297 121.447   4
   5 -11  -3 896.573 170.656   7
   5 -11   3 993.467 196.124   8
  -5  11  -3 816.407 156.248   3
  -5  11   3 619.951 140.775   1
   5 -11   3 617.929 195.477   6
   5 -11  -3 263.220 203.312   6
   5 -11   4 38.6265 73.1355   5
   5 -11   4 170.239 174.920   8
   5 -11  -4 42.4126 120.416   7
  -5  11   4 8.39377 79.6557   4
  -5  11  -4-80.4848 115.519   3
   5 -11   4 17.7047 161.135   6
   5 -11  -4 122.601 180.353   6
  -5  11   4-36.4753 100.650   1
  -5  11   5 607.891 154.881   1
   5 -11   5 843.859 220.924   8
   5 -11   5 601.096 134.479   5
   5 -11  -5 555.265 159.555   7
  -5  11   5 983.343 136.060   4
  -5  11  -5 743.057 168.683   3
   5 -11  -5 618.579 220.497   6
  -5  11   6 161.849 121.019   1
   5 -11   6 289.927 190.590   8
   5 -11   6 155.887 77.6783   5
   5 -11  -6 82.0250 123.319   7
  -5  11  -6 271.036 132.080   3
   5 -11  -6 41.2562 175.783   6
  -5  11   6-8.70259 84.9480   4
   5 -11   7 1746.11 235.979   5
  -5  11   7 1580.93 252.974   1
  -5  11   7 1222.87 223.215   4
   5 -11   7 1331.92 299.661   8
   5 -11  -7 1243.17 243.761   7
  -5  11  -7 2017.14 260.151   3
   5 -11  -7 1222.44 284.009   6
  -5 -11   8 70.5963 177.690   5
  -5  11   8 177.086 117.219   1
   5 -11   8 157.110 189.000   8
   5 -11   8-22.3125 97.2227   5
   5 -11  -8-53.5795 118.944   7
  -5  11   8 54.0632 81.0026   4
  -5  11  -8 107.132 126.228   3
   5  11  -8 297.527 172.076   2
   5 -11  -8 228.751 175.154   6
  -5 -11   9 533.935 209.947   5
   5 -11   9 590.590 233.866   8
   5 -11   9 659.475 128.935   5
  -5  11   9 277.834 158.774   1
   5 -11  -9 398.768 149.417   7
  -5  11   9 515.001 117.990   4
  -5  11  -9 881.414 167.240   3
   5 -11  -9 667.889 207.170   6
   5 -11  10 364.002 208.241   8
  -5  11  10 37.6430 93.3146   4
  -5  11 -10 471.595 152.052   3
   5 -11 -10 356.041 187.664   6
  -5 -11  11 294.987 100.627   8
   5  11 -11 225.281 178.497   2
  -5  11  12 470.746 179.378   1
  -5 -11  12 899.945 136.392   8
   5 -11  12 384.486 231.079   8
   5 -11 -12 160.971 139.371   7
   5  11 -12 254.093 197.269   2
  -5  11  13 71.8346 160.075   1
  -5 -11  13 395.709 173.541   5
  -5 -11  13 115.628 93.6570   8
   5 -11  13 290.178 235.271   8
   5 -11 -13 80.6272 122.834   7
  -5  11  13 30.5186 97.6017   4
   5 -11 -13 83.4402 172.692   6
   5  11 -13 93.9963 191.831   2
  -5 -11  14 1039.36 233.367   5
  -5  11  14 640.906 236.604   1
  -5 -11  14 1145.14 169.881   8
  -5  11  14 940.610 171.658   4
   5 -11 -14 1022.74 194.865   7
   5 -11 -14 669.890 233.706   6
   5  11 -14 362.638 248.250   2
   5  11 -15 99.5947 211.762   2
   5  11 -15 158.333 206.587   3
  -5 -11  15 242.644 178.681   5
  -5 -11  15 317.706 116.711   8
  -5  11  15 182.452 113.607   4
   5 -11 -15 336.029 201.698   6
   5  11 -16 177.582 219.076   2
   5  11 -16 69.9336 199.280   3
  -5 -11  16 357.551 112.762   8
  -5 -11  16 324.082 185.634   5
  -5  11  16 132.826 113.738   4
   5 -11 -16 295.453 173.041   6
   5  11 -17 339.457 208.726   2
   5  11 -17-72.2520 207.120   3
  -5 -11  17 228.834 109.406   8
  -5 -11  17 198.030 172.629   5
  -5  11  17 231.425 197.174   1
   5 -11 -17 140.047 124.488   7
  -5  11  17 228.627 115.810   4
   5 -11 -17 445.202 182.283   6
   5  11 -18 53.1597 205.093   2
   5  11 -18 174.941 212.825   3
  -5 -11  18 19.8092 161.240   5
  -5 -11  18 11.6894 104.933   8
   5 -11 -18-185.123 126.760   7
  -5  11  18 282.769 211.398   1
  -5  11  18-23.7482 108.062   4
   5 -11 -18 21.3130 165.686   6
   5  11 -19-218.489 224.887   2
   5  11 -19-103.332 211.346   3
  -5 -11  19 173.485 168.617   5
  -5 -11  19 59.8193 106.923   8
   5 -11 -19 202.855 133.508   7
  -5  11  19 49.0965 107.170   4
  -5  11  19 569.486 198.524   1
  11  -5 -19-83.8745 241.330   6
   5 -11 -19 85.7913 174.430   6
   5  11 -20 27.7610 219.068   2
   5  11 -20-26.6694 218.623   3
  -5 -11  20 38.5723 158.155   5
  -5 -11  20 73.2703 111.896   8
   5 -11 -20-73.7197 135.754   7
  -5  11  20 88.5323 126.794   4
  11  -5 -20 423.232 263.686   6
  -5  11  20 23.5783 188.084   1
   5 -11 -20 43.1240 160.112   6
   5 -11 -21 196.164 188.399   6
   5  11 -21-312.926 220.764   2
   5  11 -21-109.800 234.890   3
  -5 -11  21 308.365 169.191   5
  -5  11  21 78.1126 127.880   4
 -11   5  21 114.066 86.4472   4
  -5 -11  21 262.335 121.338   8
   5 -11 -21 15.0074 135.054   7
  11  -5 -21 28.3704 260.632   6
  -5  11  21 24.4287 208.492   1
   5 -11 -22 110.142 173.784   6
  -5  11  22-25.3235 216.994   1
   5  11 -22-28.8613 242.738   2
   5  11 -22-196.995 258.183   3
  -5 -11  22 56.4338 165.564   5
  -5 -11  22-114.981 118.163   8
 -11   5  22 29.0243 90.4320   4
   5 -11 -22 106.965 146.050   7
  -5  11  22 94.1555 130.442   4
  11  -5 -22 140.625 251.774   6
   5 -11 -23 110.948 185.457   6
  -5  11  23 236.454 216.736   1
   5  11 -23 146.356 235.866   2
   5  11 -23 370.447 253.846   3
  -5 -11  23 316.142 182.028   5
 -11   5  23 354.968 104.452   4
   5 -11 -23 233.470 160.088   7
  -5 -11  23 353.630 126.753   8
  -5  11  23 320.167 149.280   4
  11  -5 -23 83.7830 254.456   6
  -5  11  24 27.2810 235.562   1
   5 -11 -24 22.2963 184.418   6
   5  11 -24-148.335 229.314   2
   5  11 -24 405.446 241.616   3
  -5 -11  24 17.8243 151.459   5
  -5 -11  24 187.661 133.414   8
   5 -11 -24 221.983 145.319   7
  -5  11  24 28.8684 130.992   4
   5 -11 -25 45.2293 174.530   6
   5  11 -25-58.0203 239.801   3
  -5 -11  25 319.281 151.848   5
  -5 -11  25 288.179 128.495   8
   5 -11 -25 64.6543 137.247   7
  -5  11  25 284.930 140.968   4
  -5  11  25-85.1068 247.964   1
   5 -11 -26 229.553 200.613   6
   5  11 -26-304.433 279.407   2
  -5 -11  26 562.767 156.265   8
  -5 -11  26 504.365 171.798   5
   5  11 -26-233.944 269.529   3
   5 -11 -26 346.004 164.060   7
  -5  11  26 472.624 277.828   1
  -5  11  26 760.870 171.207   4
   5 -11 -27 23.3022 187.632   6
   5  11 -27 123.384 254.842   2
  -5 -11  27 103.972 153.163   5
  -5 -11  27 14.4400 131.474   8
   5  11 -27 147.135 239.138   3
   5 -11 -27 134.507 158.135   7
  -5  11  27 30.4341 263.527   1
  -5  11  27 257.972 151.698   4
  -5 -11  28 896.861 195.193   5
   5 -11 -28 23.6273 195.396   6
   5  11 -28 125.094 263.252   2
  -5 -11  28 1084.41 175.004   8
   5  11 -28-87.2140 242.209   3
   5 -11 -28 463.507 170.156   7
  -5  11  28 635.846 315.447   1
  -5  11  28 402.265 164.549   4
   5 -11 -29 47.9219 193.066   6
  -5  11  29 133.180 293.455   1
  -5  11  29 157.060 150.410   4
  -6  11   0 1051.73 167.554   1
   6 -11   0 1001.28 223.083   8
   6 -11   0 821.757 211.630   7
   6 -11   0 817.096 238.089   6
  -6  11   1 1051.46 183.421   1
   6 -11   1 996.566 240.479   8
   6 -11  -1 1008.66 227.872   7
   6 -11   1 1453.47 257.375   6
   6 -11  -1 1155.37 261.808   6
  -6  11  -1 1049.70 176.304   1
   6 -11   2 353.658 187.135   6
  -6  11   2 193.430 98.9971   1
   6 -11   2 266.138 179.140   8
   6 -11  -2 347.193 154.575   7
   6 -11  -2 413.974 198.932   6
  -6  11   3 134.234 103.716   1
   6 -11   3 127.719 178.420   8
   6 -11  -3 315.614 153.348   7
   6 -11   3 38.1977 180.901   6
   6 -11  -3 66.3923 205.597   6
   6 -11   4 361.555 203.532   8
  -6  11   4 531.298 132.519   1
  -6  11   4 444.110 111.837   4
   6 -11  -4 359.609 167.400   7
   6 -11   4 778.955 201.062   6
   6 -11  -4 722.493 229.721   6
   6 -11   5 47.8292 209.280   8
  -6  11   5 309.087 93.0319   4
   6 -11  -5 262.679 143.913   7
  -6  11   5 232.181 111.092   1
   6 -11   5 107.184 167.463   6
   6 -11  -5 204.796 207.918   6
   6 -11   6 445.178 230.870   8
  -6  11   6 544.251 120.339   4
   6 -11  -6 337.227 158.367   7
  -6  11   6 645.886 143.589   1
   6 -11  -6 641.325 232.791   6
   6 -11   7 587.926 250.503   8
   6 -11  -7 645.725 179.831   7
  -6  11   7 796.717 146.292   4
  -6  11   7 919.896 169.410   1
   6 -11  -7 644.946 242.203   6
  -6  11   8 810.767 155.967   4
   6 -11  -8 949.532 250.049   6
  -6  11  10 594.961 187.534   1
   6 -11 -10 467.349 199.891   7
  -6 -11  11-120.775 194.175   5
  -6  11  11 15.5607 129.559   1
   6 -11 -11 44.8265 130.706   7
  -6  11  11 77.4409 87.9078   4
   6  11 -11 157.354 176.303   2
   6 -11 -11 370.003 197.166   6
  -6 -11  12 257.687 185.801   5
  -6  11  12 261.042 142.414   1
   6 -11 -12-15.0584 141.093   7
  -6  11  12 276.418 104.065   4
   6  11 -12 45.5511 182.015   2
   6 -11 -12 208.241 214.278   6
  -6 -11  13 774.437 213.958   5
  -6 -11  13 438.656 110.145   8
  -6  11  13 50.2408 171.767   1
   6 -11 -13 494.183 154.820   7
  -6  11  13 211.989 107.279   4
   6  11 -13 138.988 201.984   2
   6 -11 -13 185.209 202.464   6
  -6 -11  14 204.662 193.111   5
  -6 -11  14 251.259 109.738   8
  -6  11  14 386.196 167.833   1
   6 -11 -14-44.6996 149.605   7
  -6  11  14 226.965 104.919   4
   6  11 -14 234.769 191.030   2
   6 -11 -14 46.3379 207.386   6
  -6 -11  15 132.683 195.914   5
  -6 -11  15 502.411 119.950   8
  -6  11  15 254.108 113.483   4
   6 -11 -15 595.144 208.819   6
  -6 -11  16 287.868 180.600   5
  -6  11  16 94.6601 163.520   1
  -6  11  16 206.975 109.596   4
   6  11 -16 24.5465 174.235   2
   6 -11 -16 594.827 220.885   6
  -6 -11  16 386.186 114.564   8
   6  11 -17 289.282 196.281   3
  -6 -11  17-107.993 174.082   5
  -6 -11  17-208.299 106.839   8
   6 -11 -17-61.0722 130.914   7
  -6  11  17-77.9675 173.574   1
  -6  11  17-33.5586 101.918   4
   6  11 -17 299.346 193.985   2
   6 -11 -17 183.212 202.759   6
   6  11 -18-49.8004 209.677   3
  -6 -11  18 260.105 184.292   5
   6 -11 -18-108.353 141.169   7
  -6  11  18 40.9519 181.763   1
  -6  11  18 369.546 121.388   4
  11  -6 -18 382.183 284.660   6
  -6 -11  18 462.048 118.643   8
   6 -11 -18 504.394 202.351   6
   6  11 -18-25.5795 185.297   2
  -6 -11  19 60.2737 109.305   8
   6  11 -19-154.584 218.122   3
  -6 -11  19 339.465 188.385   5
   6 -11 -19 219.832 147.343   7
  -6  11  19 250.209 119.813   4
  -6  11  19 253.323 183.696   1
  11  -6 -19 237.341 266.010   6
   6 -11 -19 344.873 183.731   6
   6  11 -19 233.958 210.212   2
   6  11 -20 321.072 249.083   3
  -6 -11  20 42.4549 185.699   5
  -6 -11  20 61.7214 113.494   8
 -11   6  20 145.071 102.028   4
   6 -11 -20 173.227 155.832   7
  -6  11  20 36.9135 122.896   4
  11  -6 -20 385.462 290.543   6
  -6  11  20 21.7792 198.148   1
   6 -11 -20 414.927 229.181   6
   6  11 -20-240.176 210.963   2
   6  11 -21-55.3484 224.247   3
  -6 -11  21 206.398 176.747   5
  -6 -11  21 278.040 120.430   8
 -11   6  21 206.190 90.3802   4
   6 -11 -21 207.838 152.789   7
  -6  11  21 406.521 123.965   4
  11  -6 -21 473.126 275.811   6
  -6  11  21 247.271 205.702   1
   6 -11 -21-69.3756 194.382   6
   6  11 -21 54.1886 212.795   2
   6  11 -22-54.9801 223.328   2
   6  11 -22-28.5797 253.968   3
  -6 -11  22-20.6189 178.688   5
  -6 -11  22 141.658 108.982   8
 -11   6  22 129.984 100.635   4
   6 -11 -22 211.105 149.069   7
  -6  11  22-65.6477 117.499   4
  11  -6 -22 87.6154 266.051   6
  -6  11  22 255.495 203.577   1
   6 -11 -22 137.637 185.213   6
   6  11 -23 253.770 237.225   2
   6  11 -23-205.699 249.554   3
  -6 -11  23-60.3232 168.698   5
  -6 -11  23 118.655 115.871   8
   6 -11 -23 49.5022 151.918   7
  -6  11  23 67.6495 112.529   4
  11  -6 -23-260.421 274.552   6
 -11   6  23 109.766 117.387   1
  -6  11  23 48.0271 202.061   1
   6 -11 -23-46.2682 192.814   6
   6 -11 -24-116.660 192.393   6
  -6  11  24 99.3966 212.774   1
   6  11 -24 28.5885 214.361   2
   6  11 -24-298.843 243.690   3
  -6 -11  24 280.049 169.405   5
  -6 -11  24 54.0231 118.738   8
 -11   6  24 135.266 105.692   4
   6 -11 -24 184.566 153.402   7
  -6  11  24 208.956 135.868   4
  11  -6 -24-113.834 268.331   6
 -11   6  24 209.889 133.546   1
  -6  11  25 308.869 254.322   1
   6 -11 -25 187.636 205.765   6
   6  11 -25 202.816 272.245   2
   6  11 -25 334.384 293.281   3
  -6 -11  25 191.362 171.970   5
  -6 -11  25 387.548 146.176   8
   6 -11 -25 273.032 191.836   7
  -6  11  25 273.407 148.249   4
  11  -6 -25-55.7701 263.511   6
   6  11 -26 381.728 254.200   2
   6 -11 -26-188.701 193.056   6
   6  11 -26 30.8197 273.853   3
  -6 -11  26 395.973 131.718   8
   6 -11 -26 34.7364 155.553   7
  -6  11  26-104.698 137.430   4
  -6 -11  26 169.158 164.930   5
  -6  11  26 26.6942 228.375   1
   6  11 -27 29.7476 237.479   2
   6 -11 -27 215.086 197.402   6
  -6 -11  27 464.520 151.693   8
  -6 -11  27 641.326 184.066   5
   6 -11 -27 424.635 169.834   7
   6  11 -27-184.702 258.792   3
  -6  11  27 667.612 168.477   4
  -6  11  27 249.532 250.589   1
   6 -11 -28-217.657 206.616   6
  -6 -11  28 74.5998 131.352   8
   6 -11 -28 72.1328 155.964   7
  -6  11  28 80.3120 149.732   4
  -6  11  28-28.8588 242.732   1
   6 -11 -29 146.954 205.496   6
  -6  11  29 16.6672 159.101   4
   7 -11   0 386.762 186.370   6
   7 -11   1 981.097 234.418   8
   7 -11   1 604.322 206.298   6
   7 -11  -1 685.296 227.611   6
  -7  11   1 562.964 127.743   1
  -7  11   2-31.3858 88.4090   1
   7 -11   2-267.298 205.713   8
   7 -11  -2-121.893 159.176   7
   7 -11   2 100.953 174.646   6
   7 -11  -2 92.0758 201.460   6
  -7  11   3 282.225 102.633   1
   7 -11  -3 263.487 176.561   7
   7 -11  -3 400.694 208.796   6
  -7  11   4 348.117 111.673   1
   7 -11  -4 260.702 169.160   7
   7 -11  -4 360.796 210.820   6
  -7  11   5 11.7540 100.722   1
   7 -11  -5 316.298 156.933   7
   7 -11  -5 366.933 223.311   6
   7 -11  -6 1646.95 342.012   6
   7 -11  -9 178.178 153.414   7
  -7  11   9 163.101 119.680   1
  -7  11  10 174.006 93.3551   4
   7 -11 -10 17.4995 147.707   7
  -7  11  10 112.758 122.905   1
   7 -11 -11 172.324 155.094   7
  -7  11  11 29.5172 95.1661   4
  -7  11  11 248.950 137.066   1
   7 -11 -11 179.045 247.335   6
  -7  11  12 189.891 101.272   4
   7 -11 -12-103.781 158.307   7
  -7  11  12-198.204 144.680   1
   7 -11 -12 178.975 244.364   6
  -7  11  13 162.369 101.993   4
   7 -11 -13 68.3384 155.571   7
   7 -11 -13-76.6287 230.620   6
  -7  11  13-143.179 130.910   1
   7 -11 -14-84.5433 142.127   7
  -7  11  14-123.964 99.7382   4
   7 -11 -14 277.708 229.978   6
  -7 -11  15 98.2228 184.324   5
  -7  11  15 284.595 110.742   4
   7 -11 -15 25.1894 206.911   6
  -7  11  16-52.4647 142.756   1
  -7 -11  16-215.583 194.612   5
   7 -11 -16 50.7436 147.082   7
  -7  11  16-161.674 103.816   4
   7  11 -16-193.866 186.593   2
   7 -11 -16 351.926 222.116   6
  -7  11  17 201.576 157.671   1
  -7 -11  17 48.0885 189.639   5
   7 -11 -17-51.2446 147.198   7
  -7  11  17 254.424 108.338   4
  11  -7 -17 61.4123 269.596   6
   7  11 -17 123.054 190.520   2
   7 -11 -17 501.310 222.993   6
   7  11 -18 178.378 237.359   3
  -7  11  18 677.720 183.820   1
  -7 -11  18 634.064 233.874   5
   7 -11 -18 310.709 165.920   7
  -7  11  18 363.865 118.668   4
  11  -7 -18 776.033 277.567   6
   7  11 -18 274.289 201.760   2
   7 -11 -18 125.039 222.094   6
   7  11 -19-105.350 230.553   3
  -7 -11  19-23.5890 196.155   5
  -7  11  19 116.082 184.059   1
  -7 -11  19-12.1976 113.229   8
 -11   7  19 88.6502 105.741   4
   7 -11 -19 412.665 166.221   7
  -7  11  19 198.297 114.172   4
  11  -7 -19 31.0503 286.245   6
   7  11 -19 381.137 198.451   2
   7 -11 -19 615.965 245.810   6
   7  11 -20 27.2092 228.483   3
  -7 -11  20 415.566 193.205   5
  -7  11  20 366.157 197.913   1
 -11   7  20 310.715 107.597   4
   7 -11 -20 365.406 165.623   7
  -7  11  20 406.647 131.715   4
  11  -7 -20 557.401 273.147   6
   7  11 -20 103.056 198.339   2
  -7 -11  20 599.420 128.819   8
   7 -11 -20 98.3918 211.532   6
 -11   7  20 420.773 139.282   1
 -11   7  21 41.6693 113.375   1
   7  11 -21-113.051 243.780   3
  -7 -11  21 115.842 204.650   5
  -7  11  21-41.8670 182.811   1
  -7 -11  21 51.1301 116.005   8
 -11   7  21 50.7757 94.7729   4
   7 -11 -21 264.226 149.784   7
  -7  11  21 147.859 124.497   4
  11  -7 -21 61.1331 279.043   6
   7  11 -21-78.3635 203.989   2
   7 -11 -21-24.5944 212.818   6
 -11   7  22 283.888 136.785   1
   7  11 -22 87.7572 247.513   3
  -7 -11  22 630.540 204.209   5
  -7 -11  22 706.777 142.186   8
  -7  11  22 301.722 201.754   1
 -11   7  22 165.283 113.694   4
   7 -11 -22 339.038 174.500   7
  -7  11  22 508.335 139.645   4
  11  -7 -22 423.270 294.867   6
   7  11 -22 106.626 212.041   2
   7 -11 -22 786.797 224.243   6
 -11   7  23 115.929 129.281   1
  -7 -11  23 333.381 134.462   8
   7  11 -23 30.2433 264.148   3
  -7 -11  23 22.4235 186.029   5
   7 -11 -23 108.514 159.227   7
 -11   7  23 52.6113 97.9074   4
  -7  11  23-22.2061 192.438   1
  -7  11  23 26.3692 120.362   4
  11  -7 -23 178.015 273.930   6
   7  11 -23 243.230 203.383   2
   7 -11 -23-24.6082 186.727   6
 -11   7  24 340.006 151.026   1
   7  11 -24 529.308 293.271   3
  -7 -11  24 283.329 204.935   5
  -7 -11  24 163.997 136.106   8
  -7  11  24 389.285 242.682   1
  11  -7 -24 110.606 260.357   7
   7 -11 -24 253.094 182.825   7
 -11   7  24 192.415 117.756   4
  -7  11  24 217.780 151.759   4
  11  -7 -24 526.603 269.535   6
   7  11 -24 794.359 255.344   2
   7 -11 -24 271.045 247.343   6
  -7  11  25 23.6393 219.257   1
 -11   7  25 195.797 144.083   1
   7  11 -25 254.453 268.422   3
  -7 -11  25 86.5423 184.365   5
  -7 -11  25 28.0208 126.637   8
  11  -7 -25-250.006 229.987   7
   7 -11 -25 55.0502 150.014   7
 -11   7  25 32.7168 96.4802   4
  -7  11  25 28.0247 125.609   4
  11  -7 -25 228.621 259.446   6
   7  11 -25-27.9761 220.781   2
   7 -11 -25 24.4863 207.337   6
   7 -11 -26 147.780 210.563   6
   7 -11 -26 260.906 159.420   7
 -11   7  26-15.3429 130.937   1
   7  11 -26-226.491 247.921   3
  -7 -11  26-20.7881 183.139   5
  -7 -11  26 114.963 132.107   8
  -7  11  26-219.835 222.448   1
 -11   7  26 22.3763 106.470   4
  -7  11  26 144.064 141.919   4
  11  -7 -26-27.8974 210.519   7
  11  -7 -26 649.368 262.567   6
   7  11 -26 28.3476 225.375   2
   7 -11 -27 246.988 187.389   6
  -7  11  27 227.496 236.504   1
  -7 -11  27 191.823 127.445   8
   7 -11 -27-151.511 171.414   7
  -7  11  27 44.6028 133.318   4
   7 -11 -28-148.629 208.553   6
  -7  11  28 153.616 129.553   4
   8 -11  -2 70.3768 196.265   6
   8 -11  -3 120.984 218.410   6
   8 -11  -4 323.871 221.015   6
  -8  11   6 94.1857 98.1715   1
   8 -11  -6-152.566 176.256   7
  -8  11   7 1565.73 221.815   1
   8 -11  -7 668.339 258.386   7
  -8  11   8 177.624 109.867   1
   8 -11  -8-42.5698 168.825   7
   8 -11  -8-163.767 231.230   6
  -8  11   9 184.247 136.897   1
   8 -11  -9 20.8530 201.439   7
  -8  11   9 473.329 106.345   4
  -8  11  10 13.4521 126.346   1
   8 -11 -10 81.8516 187.235   7
  -8  11  10-68.6885 90.2868   4
   8 -11 -10 83.8022 269.556   6
  -8  11  11-125.688 126.527   1
   8 -11 -11 281.364 184.457   7
  -8  11  11 69.4938 93.8736   4
   8 -11 -11 140.134 245.992   6
  -8  11  12 173.942 131.495   1
   8 -11 -12-59.2602 166.121   7
  -8  11  12 110.914 95.8347   4
   8 -11 -12 84.2492 235.047   6
  -8  11  13 240.284 135.593   1
   8 -11 -13 158.437 182.472   7
  -8  11  13 10.2628 95.2377   4
   8 -11 -13-83.9084 236.944   6
  -8  11  14-41.7496 90.7669   4
   8 -11 -14-111.625 242.099   6
  -8  11  15 84.6762 102.636   4
   8 -11 -15 250.266 254.816   6
   8 -11 -16 135.495 161.503   7
  -8  11  16 150.788 103.268   4
  -8  11  16 232.335 148.048   1
  11  -8 -16 349.650 275.082   6
   8 -11 -16 193.788 250.373   6
   8 -11 -17-76.6023 175.768   7
  -8  11  17 197.707 111.353   4
  -8  11  17 254.951 151.508   1
  11  -8 -17 96.6503 298.223   6
   8 -11 -17-327.382 232.027   6
 -11   8  18 10.0229 91.0313   4
   8 -11 -18-38.5977 165.393   7
  -8  11  18 123.421 109.616   4
  -8  11  18 17.4178 141.335   1
  11  -8 -18-64.6041 307.186   6
   8 -11 -18-217.139 220.953   6
 -11   8  18 54.1657 110.647   1
 -11   8  19 569.360 154.978   1
  -8 -11  19 551.845 239.232   5
 -11   8  19 469.024 128.279   4
   8 -11 -19 77.8356 180.220   7
  -8  11  19 733.245 140.859   4
  -8  11  19 490.566 180.175   1
  11  -8 -19 516.279 302.280   6
   8 -11 -19 458.925 239.854   6
 -11   8  20 42.6541 126.920   1
   8  11 -20 172.058 235.177   3
  -8 -11  20 501.847 227.202   5
 -11   8  20 51.6161 103.354   4
   8 -11 -20 77.1858 170.081   7
  -8  11  20 35.4445 109.666   4
  11  -8 -20 159.907 299.719   6
  -8  11  20 18.6332 167.069   1
   8 -11 -20-53.6974 218.745   6
 -11   8  21 348.904 154.282   1
   8  11 -21 444.498 247.803   3
  -8 -11  21 955.893 246.734   5
  11  -8 -21 191.720 223.025   7
   8 -11 -21 389.723 193.348   7
 -11   8  21 356.556 124.834   4
  -8  11  21 798.813 147.822   4
  11  -8 -21 410.072 297.645   6
  -8  11  21 688.330 192.289   1
   8 -11 -21 400.356 221.480   6
 -11   8  22-118.835 137.653   1
   8  11 -22 214.758 275.544   3
  -8 -11  22 51.7724 229.295   5
  11  -8 -22-55.1163 212.033   7
 -11   8  22 32.0003 98.0147   4
  -8  11  22-334.793 128.309   4
  11  -8 -22 249.226 275.095   6
  -8  11  22-60.0331 173.774   1
   8 -11 -22-209.964 212.371   6
   8 -11 -22 98.4297 176.451   7
   8 -11 -23 636.796 208.718   7
 -11   8  23 515.699 163.841   1
   8  11 -23 31.7270 289.820   3
  -8 -11  23 553.949 246.207   5
  11  -8 -23 664.525 273.587   7
 -11   8  23 379.598 129.253   4
  -8  11  23 63.7768 139.307   4
  11  -8 -23 761.613 324.760   6
  -8  11  23 102.776 221.707   1
   8 -11 -23 549.417 267.740   6
 -11   8  24-123.771 140.094   1
   8  11 -24-196.844 277.682   3
  -8 -11  24 24.3517 194.880   5
  11  -8 -24-194.816 233.354   7
   8 -11 -24-241.618 186.228   7
 -11   8  24-121.052 93.8093   4
  -8  11  24 13.1382 128.660   4
   8  11 -24 379.078 223.392   2
  11  -8 -24 299.960 281.716   6
  -8  11  24 232.418 189.182   1
   8 -11 -24 286.849 213.727   6
 -11   8  25 47.5309 136.697   1
   8  11 -25 101.224 281.115   3
  -8 -11  25-96.5999 191.949   5
  11  -8 -25-139.865 223.097   7
   8 -11 -25-61.1400 168.759   7
 -11   8  25-78.5695 104.215   4
  -8  11  25 13.6119 118.182   4
   8  11 -25-27.4194 208.442   2
  11  -8 -25 263.379 258.337   6
  -8  11  25-173.914 207.313   1
   8 -11 -25-234.162 193.928   6
 -11   8  26-129.237 134.583   1
  11  -8 -26 393.593 244.539   7
   8 -11 -26-103.257 164.084   7
 -11   8  26 103.409 107.374   4
  -8  11  26 14.0299 125.257   4
  11  -8 -26-519.648 251.853   6
  -8  11  26 22.3847 197.570   1
   8 -11 -26-103.905 212.869   6
 -11   8  27-131.716 143.774   1
  11  -8 -27-56.5406 222.291   7
 -11   8  27 11.7896 108.921   4
  -8  11  27 28.8411 123.728   4
  11  -8 -27-253.295 266.376   6
   8 -11 -27-205.896 215.172   6
  11  -8 -28-199.101 229.924   7
   9 -11  -5-262.115 274.518   6
   9 -11  -6 838.217 318.395   6
  -9  11   7-95.2381 112.840   1
   9 -11  -7-112.535 284.527   6
  -9  11   8 574.904 131.613   1
   9 -11  -8-23.4348 190.380   7
   9 -11  -8 604.356 275.851   6
  -9  11   9-37.7917 115.282   1
   9 -11  -9-211.137 189.859   7
   9 -11  -9 58.6180 244.295   6
  -9  11  10-90.8473 110.524   1
   9 -11 -10 93.4446 190.150   7
   9 -11 -10 416.278 259.388   6
  -9  11  11 53.6609 115.294   1
   9 -11 -11-92.6340 172.539   7
  -9  11  11 9.98123 88.0900   4
   9 -11 -11-151.346 279.155   6
  -9  11  12 247.002 131.871   1
   9 -11 -12 114.635 189.642   7
  -9  11  12 343.845 106.345   4
   9 -11 -12 212.875 262.401   6
   9 -11 -13-112.680 186.622   7
  -9  11  13 61.6557 96.4789   4
   9 -11 -13 274.282 271.355   6
  -9  11  14 271.531 106.187   4
   9 -11 -14 60.9915 278.785   6
  -9  11  15 10.6359 92.5126   4
  -9  11  15-75.2903 130.975   1
  11  -9 -15-65.6463 297.081   6
   9 -11 -15 424.594 284.081   6
  -9  11  16 125.138 149.751   1
   9 -11 -16 263.404 190.289   7
  -9  11  16 97.3315 106.008   4
  11  -9 -16-99.3485 307.324   6
   9 -11 -16-60.3808 265.271   6
 -11   9  16 93.7294 116.937   1
 -11   9  17-192.416 120.742   1
  -9  11  17 48.7429 140.182   1
 -11   9  17 10.1757 87.1193   4
   9 -11 -17 22.0557 182.027   7
  -9  11  17-43.8598 102.875   4
  11  -9 -17-468.566 301.322   6
   9 -11 -17 120.056 257.233   6
 -11   9  18 464.974 140.810   1
  -9  11  18 216.091 138.060   1
   9 -11 -18-22.1799 188.217   7
  -9  11  18 144.997 104.297   4
 -11   9  18 113.467 100.784   4
  11  -9 -18 466.870 311.782   6
   9 -11 -18 59.6122 250.342   6
 -11   9  19 100.977 122.494   1
  11  -9 -19-81.4118 218.323   7
  -9  11  19 17.0110 141.468   1
   9 -11 -19 197.111 200.329   7
 -11   9  19 157.251 102.353   4
  -9  11  19 68.1821 104.898   4
  11  -9 -19 132.139 292.718   6
   9 -11 -19 351.408 262.504   6
 -11   9  20 191.929 131.084   1
  11  -9 -20 327.581 243.362   7
  -9  11  20 582.151 170.010   1
   9 -11 -20 242.604 187.481   7
 -11   9  20 266.174 107.863   4
  -9  11  20 104.390 112.889   4
  11  -9 -20 458.290 298.268   6
   9 -11 -20 319.568 249.016   6
 -11   9  21-181.059 130.611   1
  11  -9 -21 27.4662 226.651   7
   9 -11 -21-22.2083 188.644   7
  -9  11  21-18.0611 151.545   1
 -11   9  21-97.3911 91.2281   4
  -9  11  21 47.5292 104.154   4
  11  -9 -21 129.409 268.691   6
   9 -11 -21-28.7981 235.278   6
 -11   9  22 232.170 154.908   1
  11  -9 -22 165.832 247.449   7
   9 -11 -22 461.501 243.316   7
 -11   9  22 120.945 124.916   4
  -9  11  22 194.945 126.487   4
  -9  11  22 369.953 187.217   1
  11  -9 -22 759.955 330.479   6
   9 -11 -22 285.559 271.455   6
 -11   9  23-31.6043 133.828   1
  11  -9 -23-333.452 246.698   7
   9 -11 -23-44.3200 189.357   7
  -9  11  23 18.9506 159.453   1
 -11   9  23-55.6971 103.929   4
  -9  11  23 12.4665 112.017   4
  11  -9 -23 155.872 288.302   6
   9 -11 -23-83.8669 228.367   6
   9  11 -24-35.7415 304.371   3
 -11   9  24-96.7732 143.577   1
  -9 -11  24 174.641 248.637   5
  11  -9 -24-27.7813 219.936   7
   9 -11 -24-111.812 197.368   7
  -9  11  24-19.7164 164.242   1
 -11   9  24 45.3646 96.2945   4
  -9  11  24-63.7499 116.665   4
  11  -9 -24-121.534 265.834   6
   9 -11 -24 194.126 225.733   6
 -11   9  25 98.7455 146.931   1
  -9 -11  25 139.967 239.134   5
  11  -9 -25 474.770 243.642   7
   9 -11 -25 203.276 202.761   7
  -9  11  25-283.154 178.005   1
 -11   9  25-104.081 106.122   4
  -9  11  25 13.0965 129.105   4
  11  -9 -25-119.649 260.954   6
   9 -11 -25-330.688 225.829   6
 -11   9  26-33.7675 136.415   1
  11  -9 -26 56.1740 243.064   7
 -11   9  26 189.513 113.656   4
  -9  11  26 148.978 125.327   4
  11  -9 -26 88.3620 249.483   6
   9 -11 -26-301.149 230.472   6
 -11   9  27-133.566 112.477   4
  11  -9 -27-114.608 250.565   6
  10 -11  -9 60.5331 251.430   6
 -10  11  10 164.243 111.756   1
  10 -11 -10 61.9558 282.639   6
 -10  11  11 531.786 134.566   1
  10 -11 -11-63.4993 280.814   6
 -10  11  12 26.5857 108.655   1
  10 -11 -12 225.531 210.315   7
  10 -11 -12 128.810 266.690   6
 -10  11  13 377.730 104.256   4
  10 -11 -13 162.932 294.053   6
 -10  11  14 124.584 106.307   4
  11 -10 -14 233.129 304.387   6
  10 -11 -14 65.4258 298.199   6
 -10  11  15 590.587 147.029   1
  10 -11 -15-124.793 213.353   7
 -10  11  15 263.872 117.923   4
  11 -10 -15 576.133 304.293   6
  10 -11 -15 489.708 287.772   6
 -11  10  15 649.025 137.287   1
 -11  10  16 97.0914 117.316   1
 -10  11  16 119.001 129.652   1
  10 -11 -16 25.0669 192.139   7
 -11  10  16 61.6416 87.8875   4
 -10  11  16 42.9077 96.3860   4
  11 -10 -16 239.128 303.334   6
  10 -11 -16-293.351 292.702   6
 -11  10  17 142.132 125.440   1
 -10  11  17-91.2880 128.763   1
  11 -10 -17 215.017 217.284   7
  10 -11 -17-99.5420 198.408   7
 -11  10  17-10.4466 92.9895   4
 -10  11  17-10.9119 90.8948   4
  11 -10 -17-68.2810 293.413   6
  10 -11 -17 32.4559 283.961   6
 -11  10  18 14.5474 129.568   1
 -10  11  18-188.776 145.150   1
  11 -10 -18 135.310 223.273   7
  10 -11 -18 100.010 199.389   7
 -11  10  18-84.9542 99.8231   4
 -10  11  18-33.2792 103.473   4
  11 -10 -18-33.9171 286.179   6
  10 -11 -18 386.858 288.613   6
 -11  10  19-178.653 129.519   1
 -10  11  19-128.629 144.754   1
  11 -10 -19 190.424 214.601   7
  10 -11 -19 49.2851 193.702   7
 -11  10  19 10.7904 97.7006   4
 -10  11  19 56.2636 110.427   4
  11 -10 -19 33.7007 300.839   6
  10 -11 -19-63.3556 281.987   6
 -11  10  20 15.2797 135.371   1
 -10  11  20 16.4397 153.713   1
  11 -10 -20-164.204 253.127   7
  10 -11 -20-247.798 226.797   7
 -11  10  20 10.9678 105.493   4
 -10  11  20-57.1755 113.895   4
  11 -10 -20 66.7807 291.343   6
  10 -11 -20-407.560 274.358   6
 -11  10  21 46.8465 153.014   1
 -10  11  21-204.599 166.586   1
 -11  10  21-11.1377 107.196   4
  11 -10 -21-246.262 241.132   7
  10 -11 -21-423.615 245.361   7
 -10  11  21-58.3444 106.096   4
  11 -10 -21-163.626 293.216   6
  10 -11 -21-186.086 290.046   6
 -10  11  22-104.584 147.298   1
 -11  10  22-111.636 131.390   1
  11 -10 -22-27.5116 217.958   7
  10 -11 -22 246.154 220.506   7
 -11  10  22-33.8330 102.977   4
 -10  11  22-11.8811 111.042   4
  11 -10 -22-322.541 301.467   6
  10 -11 -22-490.813 280.789   6
 -11  10  23-32.7525 138.264   1
 -10  11  23-124.775 157.407   1
  11 -10 -23 138.319 229.751   7
  10 -11 -23 24.7802 199.716   7
 -11  10  23 91.7686 103.963   4
 -10  11  23 109.305 114.177   4
  11 -10 -23-127.117 272.343   6
  10 -11 -23 119.813 241.382   6
 -11  10  24 100.323 152.592   1
 -10  11  24 18.2287 162.278   1
  11 -10 -24 111.294 216.310   7
  10 -11 -24-199.627 223.383   7
 -11  10  24 35.0625 104.650   4
 -10  11  24 62.1694 111.640   4
  11 -10 -24 247.887 275.046   6
  10 -11 -24-413.962 242.308   6
 -11  10  25 95.1450 124.244   4
  11 -10 -25 213.430 258.504   6
 -11  11  14 1273.42 237.449   4
 -11  11  14 2026.70 260.602   1
  11 -11 -14 1264.57 371.166   6
 -11  11  15-41.8232 123.210   1
 -11  11  15-62.2821 94.6886   4
  11 -11 -15 34.5121 285.692   6
 -11  11  16 685.233 152.995   1
  11 -11 -16 161.196 228.602   7
 -11  11  16 432.876 119.048   4
  11 -11 -16 69.1079 302.403   6
 -11  11  17-189.912 124.704   1
  11 -11 -17-351.305 237.481   7
 -11  11  17-10.7065 102.893   4
  11 -11 -17 138.002 283.009   6
 -11  11  18-14.9397 131.943   1
  11 -11 -18-27.1355 225.356   7
 -11  11  18 54.5258 99.3624   4
  11 -11 -18 275.024 312.041   6
 -11  11  19 919.987 197.228   1
  11 -11 -19 1091.18 291.513   7
 -11  11  19 365.856 164.366   4
  11 -11 -19 1560.43 387.753   6
 -11  11  20-109.692 142.911   1
  11 -11 -20-245.311 227.966   7
 -11  11  20 56.3237 104.310   4
  11 -11 -20-537.201 316.233   6
 -11  11  21 16.0948 136.235   1
  11 -11 -21-54.7847 224.476   7
 -11  11  21-57.0317 106.600   4
  11 -11 -21 199.001 278.060   6
 -11  11  22 197.254 150.707   1
  11 -11 -22 55.0669 213.749   7
 -11  11  22 81.2055 110.742   4
  11 -11 -22 65.4691 274.816   6
 -11  11  23 11.8139 101.575   4
  11 -11 -23-319.445 287.558   6
   0 -12   0 709.222 163.196   6
   0  12   0 497.272 197.622   2
   0  12   0 905.302 210.008   3
   0 -12   0 768.547 181.748   5
   0 -12   0 768.520 140.686   8
   0 -12   0 1073.21 143.156   7
   0  12   0 544.780 140.440   4
   0  12   1-73.2469 142.472   2
   0 -12   1 51.0634 107.180   6
   0 -12  -1-189.262 114.915   6
   0  12   1 186.974 159.322   3
   0  12  -1-17.8302 158.371   3
   0  12  -1 199.257 181.422   2
   0 -12  -1 199.305 130.381   5
   0 -12   1 55.4898 114.955   5
   0 -12  -1 24.1153 71.5888   8
   0 -12   1 41.9547 77.1975   8
   0 -12   1 75.0000 84.0219   7
   0 -12  -1 106.214 85.8126   7
   0  12  -1-54.5637 74.7170   4
   0  12   1 144.171 81.0541   4
   0 -12  -2 1447.88 228.761   6
   0  12   2 1809.60 248.775   3
   0  12  -2 878.173 245.464   3
   0  12  -2 1284.00 255.352   2
   0 -12  -2 868.689 224.870   5
   0 -12   2 1249.89 225.475   5
   0 -12   2 1626.92 206.453   8
   0 -12  -2 1059.92 195.092   8
   0 -12  -2 1250.19 202.623   7
   0  12   2 1334.64 203.989   4
   0  12   2 1454.28 245.908   2
   0 -12  -3 157.059 118.987   6
   0 -12   3-80.7505 83.9039   8
   0  12  -3-37.5687 160.004   3
   0 -12  -3-85.4127 119.773   5
   0 -12   3 83.1678 115.517   5
   0  12  -3-128.458 177.798   2
   0 -12  -3 23.4335 69.4252   8
   0 -12  -3 46.9554 83.4331   7
   0  12   3-235.911 150.037   2
   0  12   3-101.261 85.1953   4
   0  12  -4 4532.03 791.639   3
   0 -12   4 5243.38 782.004   5
   0 -12   4 5747.30 772.102   8
   0 -12  -4 5808.52 773.530   7
   0  12   4 5316.70 771.388   4
   0  12   4 6098.57 791.825   2
   0  12  -4 5573.09 810.535   2
   0 -12  -4 6434.62 787.380   6
   0 -12  -5 75.5297 123.398   6
   0  12  -5-39.6135 165.538   3
   0 -12   5-110.462 116.153   5
   0  12  -5 115.645 190.176   2
   0 -12   5 127.597 85.1589   8
   0 -12  -5-29.0422 91.4081   7
   0  12   5 20.0287 88.6756   4
   0  12  -6 7525.12 1135.39   3
   0 -12   6 7081.25 1118.36   5
   0 -12   6 7806.22 1111.91   8
   0 -12  -6 8672.68 1111.90   7
   0  12   6 8476.60 1113.64   4
   0  12  -6 9398.77 1153.55   2
   0 -12  -6 8257.03 1124.97   6
   0  12  -7-24.8638 207.133   2
   0 -12  -7-63.5296 127.111   6
   0  12  -7-124.415 179.314   3
   0 -12   7 55.2335 114.692   5
   0 -12   7 10.6128 93.7163   8
   0 -12  -7 59.4654 94.0629   7
   0  12   7 75.5441 93.0827   4
   0  12  -8 8371.90 1234.86   3
   0 -12   8 8290.60 1215.56   5
   0 -12  -8 8875.95 1208.12   7
   0  12   8 8937.29 1212.90   4
   0 -12  -8 9806.98 1226.18   6
   0  12  -8 8850.46 1249.90   2
   0 -12  -9 182.838 135.755   6
   0  12  -9 171.889 187.440   3
   0 -12   9-124.412 116.631   5
   0  12  -9-106.092 206.952   2
   0 -12  -9-40.8321 87.7415   7
   0 -12   9 138.350 108.276   8
   0  12   9-34.9736 107.805   4
   0 -12  10 3335.38 471.891   5
   0  12 -10 2637.71 492.163   3
   0 -12 -10 3207.75 459.433   7
   0  12  10 3305.18 467.088   4
   0 -12 -10 3454.45 480.824   6
   0 -12 -11-138.538 121.543   6
   0  12  11 138.181 112.475   4
   0 -12  12 725.442 168.508   8
   0  12 -12 798.049 270.517   2
   0  12 -13-293.433 193.491   3
   0 -12  13-40.0481 107.345   5
   0 -12  13-64.5765 111.828   8
   0  12 -13-173.983 253.028   2
   0 -12 -13-156.470 94.7751   7
   0  12  13 324.501 125.165   4
   0 -12  14 161.051 102.064   5
   0  12 -14-91.0001 183.359   3
   0 -12  14-53.6472 122.446   8
   0  12 -14 29.4515 263.386   2
   0 -12 -14 253.109 106.480   7
   0  12  14 181.634 132.185   4
   0 -12  15 175.952 127.903   5
   0  12 -15-183.411 201.272   3
   0 -12 -15-47.4290 98.9722   7
   0  12  15-216.289 146.766   4
   0  12  16 980.681 180.477   4
   0 -12  16 969.474 163.495   5
   0  12 -16 576.305 229.906   3
   0 -12 -16 452.410 155.002   7
   0 -12  17 27.5669 106.359   5
   0  12 -17 277.749 191.554   3
   0  12 -17-91.1967 261.259   2
   0 -12  17-99.6822 123.497   8
   0 -12  18 2144.56 321.439   5
   0 -12  18 2491.03 328.785   8
   0  12 -18 1276.04 355.794   3
   0  12 -18 1808.09 414.470   2
   0 -12  19 87.3909 133.631   8
   0  12 -19 93.0220 186.723   3
   0 -12  19-56.2310 111.305   5
   0  12 -19-30.8727 256.339   2
   0 -12  20 4101.85 517.425   5
   0 -12  20 4351.53 527.053   8
   0  12 -20 2855.93 580.429   2
   0 -12  21 104.695 140.882   8
   0  12 -21-46.0058 177.550   3
   0  12 -21 187.623 272.826   2
   0 -12  21-14.4099 116.184   5
   0 -12  22 1566.63 299.094   5
   0  12 -22 2205.60 404.364   2
   0 -12  23 14.9210 126.736   5
   0 -12  23-15.4630 138.475   8
   0  12 -23 92.6826 167.018   3
   0  12 -23 127.105 258.675   2
   0 -12  24 1530.20 231.388   8
   0 -12  24 1235.19 205.652   5
   0  12 -24 962.101 320.206   2
   0 -12  25-62.2411 131.492   5
   0  12 -25-188.553 181.631   3
   0 -12  25 80.6843 152.465   8
   0  12 -25-519.459 283.511   2
   0 -12  26-149.024 163.746   8
   0 -12  26 15.9134 147.339   5
   0  12 -26 23.9078 188.060   3
   0  12 -26-197.183 304.767   2
   0 -12  27 16.3114 131.524   5
   0  12 -27-170.354 174.693   3
   0  12 -27-66.6494 278.533   2
   0 -12  27-17.0487 146.176   8
   0 -12  28 51.5001 162.277   8
   0 -12  28 198.885 145.773   5
   0  12 -28 203.100 273.349   2
   0  12 -28 124.283 177.761   3
   0 -12  29 89.0142 166.336   8
   0 -12  29 16.8572 150.901   5
   0  12 -29 103.338 282.264   2
   0  12 -29-229.497 189.219   3
   1 -12   0 310.311 119.780   6
  -1  12   0 35.2083 163.084   3
  -1 -12   0 363.210 163.298   5
  -1  12   0 507.483 181.673   2
   1 -12   0 281.199 108.183   5
   1 -12   0 233.414 91.3489   8
  -1 -12   0 279.144 86.8961   8
   1 -12   0 287.769 97.3702   7
  -1 -12   0 439.329 95.2302   7
  -1  12   0 303.908 90.0623   4
   1  12   0 263.678 161.490   2
   1  12   1 354.862 106.680   4
   1 -12   1 398.560 123.952   6
   1  12  -1 430.904 179.223   2
   1 -12  -1 335.130 132.680   6
  -1 -12  -1 492.781 93.1257   8
  -1  12   1 205.588 159.262   3
  -1  12   1 617.920 182.528   2
  -1 -12  -1 331.235 161.816   5
  -1 -12   1 257.340 148.333   5
  -1  12  -1 198.689 166.289   3
   1 -12  -1 175.197 118.429   5
   1 -12   1 270.664 111.662   5
  -1  12  -1 345.794 188.129   2
   1 -12  -1 311.518 88.0441   8
   1 -12   1 423.116 104.807   8
   1 -12   1 338.775 103.476   7
   1 -12  -1 219.900 96.8494   7
  -1 -12  -1 218.215 93.9670   7
  -1  12  -1 464.221 93.1083   4
  -1  12   1 533.390 94.2248   4
  -1  12  -1 313.028 130.264   1
   1  12   1 473.397 160.734   2
  -1 -12   1 324.352 91.4925   8
   1  12   2 168.323 95.1094   4
   1 -12  -2 68.6458 119.662   6
   1  12  -2 161.437 161.856   2
  -1  12   2 89.6430 151.338   2
  -1  12   2 33.3120 145.946   3
  -1 -12  -2 157.789 147.104   5
  -1 -12   2 132.460 143.394   5
  -1  12  -2 129.524 149.094   3
   1 -12  -2 69.8328 102.469   5
   1 -12   2 319.203 110.171   5
  -1  12  -2-42.2558 181.889   2
   1 -12  -2 161.812 77.4607   8
   1 -12   2 81.9471 83.8441   8
   1 -12  -2 159.516 91.8242   7
  -1 -12  -2 262.610 82.6665   7
  -1  12  -2 34.2935 100.405   1
  -1  12  -2 41.4830 68.0802   4
  -1  12   2 149.616 83.8081   4
   1  12   2 35.3526 139.049   2
  -1 -12   2 190.191 79.7999   8
  -1  12   3 1555.40 339.355   2
   1  12  -3 2059.70 357.897   3
  -1 -12   3 2547.63 350.240   5
   1 -12  -3 1971.27 322.047   5
   1  12  -3 2247.39 368.776   2
   1 -12   3 2043.33 323.917   5
  -1  12   3 2118.31 345.109   3
  -1 -12  -3 1867.65 348.452   5
  -1  12  -3 1441.05 349.678   3
   1 -12  -3 2371.47 310.816   8
   1 -12   3 1637.08 313.565   8
  -1  12  -3 1787.46 367.460   2
  -1 -12   3 2705.13 318.934   8
   1 -12  -3 1993.89 319.209   7
  -1  12   3 2363.61 317.725   4
   1  12   3 2754.82 325.003   4
   1 -12  -3 2497.81 337.278   6
   1  12   4 84.7955 97.9987   4
   1 -12  -4 190.452 121.045   6
   1  12  -4 19.2631 163.173   3
  -1  12   4 172.600 150.471   3
   1  12  -4 238.382 168.610   2
  -1 -12  -4 18.1503 143.340   5
  -1 -12   4-49.0046 130.420   5
  -1  12  -4 19.3475 168.921   3
   1 -12   4-23.8653 95.7234   5
   1 -12   4 50.1812 91.3495   8
  -1 -12   4 90.0711 80.4753   8
  -1  12  -4 22.9282 159.574   2
   1 -12  -4 117.276 84.5318   7
  -1 -12  -4 60.5367 79.2172   7
  -1  12   4-90.4298 89.1920   4
  -1  12   4 64.2579 132.258   2
   1  12   5 4741.30 704.360   4
   1  12  -5 5227.61 733.521   3
  -1  12  -5 3779.32 724.408   3
  -1 -12  -5 4781.46 724.185   5
  -1 -12   5 5298.80 720.935   5
   1 -12   5 4829.42 706.276   5
   1 -12   5 5391.71 704.477   8
   1 -12  -5 5282.42 704.391   7
  -1 -12  -5 5254.94 698.738   7
  -1  12   5 4914.85 700.327   4
   1  12  -5 5223.65 740.993   2
  -1  12  -5 6442.49 758.112   2
   1 -12  -6 184.675 126.368   6
   1  12  -6 321.728 181.181   3
  -1 -12   6 63.1491 130.050   5
   1  12  -6 232.635 206.649   2
  -1  12  -6 139.921 168.301   3
   1 -12   6 59.2405 100.911   5
  -1 -12   6 202.636 91.4338   8
   1 -12   6-98.7822 95.2451   8
  -1  12  -6 49.2504 217.482   2
   1 -12  -6-81.5691 90.6086   7
  -1 -12  -6 134.210 83.5592   7
  -1  12   6-29.3854 92.3406   4
   1  12  -7 8115.62 1210.49   3
  -1  12  -7 7622.19 1207.15   3
  -1 -12   7 8619.02 1196.51   5
   1 -12   7 7881.33 1186.08   5
  -1 -12   7 8298.64 1184.20   8
   1 -12   7 8247.17 1186.51   8
   1 -12  -7 9488.37 1187.04   7
  -1  12   7 9321.35 1185.74   4
   1  12  -7 10797.1 1229.46   2
   1 -12  -7 8992.58 1197.11   6
   1 -12  -8 32.2800 131.693   6
   1 -12   8 84.1851 113.025   8
   1  12  -8 338.575 192.268   3
  -1 -12   8 62.4614 121.289   5
   1  12  -8 174.156 206.103   2
  -1  12  -8 143.549 174.336   3
  -1 -12   8-20.8360 94.9953   8
   1 -12   8-23.7621 98.4342   5
  -1  12  -8 26.1962 216.991   2
   1 -12  -8 181.174 96.1051   7
  -1 -12  -8 74.7332 80.3242   7
  -1  12   8 42.2828 89.6528   4
   1  12  -9 4613.71 677.922   3
  -1  12  -9 4853.46 673.183   3
  -1 -12   9 4319.99 649.850   5
   1 -12   9 4774.29 643.249   5
  -1 -12   9 4072.24 638.023   8
   1 -12   9 5636.60 650.179   8
   1 -12  -9 4338.84 638.273   7
  -1 -12  -9 3619.05 633.974   7
  -1  12   9 5476.77 644.697   4
   1 -12  -9 5017.18 657.923   6
  -1  12  -9 5271.89 700.645   2
   1 -12 -10 287.610 135.956   6
   1  12 -10-155.127 191.696   3
  -1 -12  10-108.450 131.245   5
   1 -12  10 60.3321 96.7147   5
  -1  12 -10 104.589 162.714   3
   1 -12 -10 245.657 102.600   7
  -1 -12 -10-68.8901 86.0469   7
  -1  12  10 11.3196 105.916   4
  -1 -12  12 225.397 115.512   8
   1  12 -12 56.0649 238.725   2
  -1  12 -12 229.130 235.385   2
   1 -12  12 326.122 130.743   8
   1 -12 -13 414.132 152.918   6
   1  12 -13 187.475 177.656   3
  -1 -12  13 433.999 134.787   5
   1 -12  13 277.150 106.161   5
  -1 -12  13 229.312 123.605   8
   1  12 -13 28.7345 248.877   2
   1 -12 -13 336.785 117.848   7
   1 -12  13 240.827 131.244   8
  -1  12 -13 106.672 167.377   3
  -1  12  13 213.400 122.510   4
   1 -12 -14-147.159 148.001   6
   1  12 -14-306.351 218.113   3
  -1 -12  14-44.4728 133.416   5
  -1  12 -14-42.8003 173.273   3
   1 -12  14-28.6715 131.864   8
   1 -12 -14-73.9905 112.028   7
  -1  12  14 13.0145 128.630   4
   1 -12  14-76.4890 103.157   5
   1 -12 -15 205.941 155.205   6
   1 -12  15 206.597 113.369   5
   1  12 -15 119.128 215.019   3
  -1 -12  15 88.0994 133.433   5
  -1  12 -15 107.320 185.114   3
   1 -12  15 29.8940 143.323   8
   1 -12 -15 25.3023 112.083   7
  -1  12  15 162.068 134.007   4
   1 -12 -16-133.143 156.951   6
   1  12 -16-24.0803 204.471   3
  -1 -12  16 29.4063 114.376   5
   1 -12  16 13.0677 116.723   5
  -1 -12  16 104.954 123.271   8
  -1  12 -16-86.1195 153.859   3
   1  12 -16 150.916 264.110   2
   1 -12 -16 12.9888 113.052   7
  -1  12  16 194.915 131.801   4
   1 -12 -17 1164.03 235.605   6
  -1 -12  17 750.813 202.491   5
   1 -12  17 1309.80 207.205   5
  -1 -12  17 1341.38 207.415   8
  -1  12 -17 844.619 232.961   3
   1  12 -17 1589.04 332.811   2
   1 -12 -17 1013.74 206.718   7
   1  12 -17 461.014 264.695   3
  -1  12  17 1272.47 216.254   4
   1 -12 -18 19.6841 146.100   6
  -1 -12  18 134.432 116.629   8
   1 -12  18 13.4649 107.027   5
   1 -12  18-15.4683 148.217   8
  -1  12 -18-173.299 167.181   3
   1  12 -18 185.168 270.819   2
  -1 -12  18-14.6172 114.520   5
   1  12 -18 171.127 215.781   3
  -1  12  18 30.0793 134.292   4
   1 -12 -19 1595.91 367.292   6
   1  12 -19 1056.66 368.683   3
  -1 -12  19 3104.66 356.565   5
   1 -12  19 2372.85 349.553   5
  -1 -12  19 2920.23 360.445   8
   1 -12  19 2335.27 358.797   8
  -1  12 -19 1021.10 376.301   3
   1  12 -19 1431.63 428.764   2
  -1  12  19 3211.45 370.375   4
  -1 -12  20 281.561 139.722   8
   1  12 -20-24.6638 194.562   3
   1 -12  20-14.0130 109.356   5
   1 -12  20 127.207 151.965   8
   1  12 -20-250.893 265.423   2
  -1  12 -20 109.238 171.728   3
  -1 -12  20-103.729 130.043   5
   1 -12 -20-115.615 126.088   7
  -1  12  20 64.1037 151.651   4
  -1  12  21 2412.05 355.304   4
  -1 -12  21 2284.66 334.511   5
   1 -12  21 2798.67 331.282   5
  -1 -12  21 2638.34 341.283   8
   1  12 -21 963.454 368.123   3
   1 -12 -21 1809.70 335.794   7
   1  12 -21 2084.52 439.353   2
  -1  12 -21 792.057 353.735   3
   1 -12  21 2165.53 349.324   8
  -1 -12  22 15.0325 125.261   5
  -1 -12  22 14.4702 131.369   8
   1 -12  22 16.4583 132.640   8
   1 -12  22 14.6762 128.447   5
   1  12 -22-24.3580 182.964   3
   1  12 -22-540.920 279.220   2
  -1  12 -22-88.9640 158.917   3
   1 -12  23 2045.26 270.502   5
  -1 -12  23 1771.62 263.842   5
   1 -12  23 2083.06 283.532   8
   1  12 -23 293.633 277.296   3
   1  12 -23 641.241 350.552   2
  -1 -12  23 1925.94 265.677   8
  -1  12 -23 654.469 284.786   3
  -1 -12  24 15.3323 126.541   5
  -1 -12  24 14.9643 129.452   8
   1 -12  24 137.543 163.138   8
   1 -12  24 15.4362 137.077   5
   1  12 -24 24.4418 174.653   3
   1  12 -24 129.317 273.637   2
  -1  12 -24-45.9360 181.222   3
  -1 -12  25 458.317 150.863   8
   1 -12  25 157.024 138.730   5
  -1 -12  25 264.742 139.210   5
   1  12 -25 122.441 184.234   3
   1  12 -25 97.8754 286.224   2
  -1  12 -25 23.5208 173.628   3
   1 -12  25 247.045 183.522   8
  -1 -12  26 15.8634 143.595   5
   1 -12  26 490.571 197.530   8
   1 -12  26-15.9892 138.262   5
   1  12 -26-230.860 296.871   2
   1  12 -26 24.5994 193.356   3
  -1  12 -26-96.2090 206.095   3
  -1 -12  26-234.472 158.624   8
  -1 -12  27-16.1420 135.754   5
  -1 -12  27 16.0487 147.226   8
   1 -12  27 18.2028 174.374   8
   1 -12  27 16.3456 131.690   5
   1  12 -27-333.824 261.423   2
   1  12 -27 99.0186 180.675   3
  -1  12 -27 24.6955 171.711   3
   1 -12  28-207.612 175.555   8
  -1 -12  28 16.5275 159.733   8
  -1 -12  28-329.089 145.501   5
   1 -12  28 16.8210 143.069   5
   1  12 -28-175.022 191.268   3
   1  12 -28 135.380 283.187   2
  -1  12 -28 50.7932 173.869   3
  -1 -12  29 100.274 155.077   8
  -1 -12  29-100.870 127.924   5
   1  12 -29-309.329 297.242   2
   1  12 -29 76.1144 188.379   3
  -1  12 -29-157.340 184.967   3
  -1 -12  30 17.0359 139.133   5
   1  12 -30-51.6795 190.958   3
  -2 -12   0 276.996 166.898   5
  -2  12   0 74.4359 116.257   1
  -2  12   0-179.732 178.796   2
  -2  12   0-104.581 148.014   3
   2 -12   0-9.83802 84.6219   5
   2 -12   0-8.77093 80.1083   8
   2 -12   0-30.3432 95.2860   7
  -2 -12   0-84.9173 70.5268   7
  -2  12   0-14.9207 67.9798   4
   2  12   0-94.7238 153.718   2
   2 -12   0-41.5929 120.639   6
   2 -12  -1 374.384 92.8215   8
  -2 -12  -1 563.049 187.017   5
  -2 -12   1 367.692 183.259   5
  -2  12   1 325.951 161.225   3
  -2  12  -1 232.123 162.106   3
  -2  12   1 229.084 163.250   2
   2 -12  -1 186.638 95.3940   5
   2 -12   1 157.645 94.2457   5
  -2 -12   1 424.171 95.2757   8
   2 -12   1 390.654 99.7764   8
  -2  12  -1 478.273 194.489   2
   2 -12   1 357.987 106.248   7
   2 -12  -1 502.833 112.093   7
  -2  12   1 52.0503 131.346   1
  -2  12  -1 379.207 85.6308   4
  -2 -12  -1 500.865 92.5676   7
  -2  12   1 250.071 88.8468   4
  -2  12  -1 254.744 119.918   1
   2  12  -1 154.525 160.412   2
   2 -12   1 324.421 123.228   6
   2 -12  -1 416.300 133.726   6
  -2 -12  -2 197.797 178.331   5
  -2 -12   2 60.3389 158.140   5
   2 -12   2 10.1356 82.8866   5
   2 -12  -2 70.8299 76.2417   8
  -2  12   2-16.8593 137.755   3
  -2  12   2-36.4501 162.740   2
   2 -12  -2 47.5941 80.9217   5
  -2  12  -2 72.3638 149.289   3
   2 -12   2 49.7244 93.7233   8
  -2 -12   2 232.883 80.5149   8
  -2  12  -2 86.4514 99.4896   1
  -2  12  -2 43.3083 192.252   2
  -2  12   2 13.7432 113.444   1
   2 -12   2-83.4626 95.8025   7
   2 -12  -2 50.6584 92.5475   7
  -2  12  -2-74.9068 66.6306   4
  -2 -12  -2-7.92361 65.2835   7
  -2  12   2 24.5099 74.6707   4
   2  12  -2 59.5586 154.391   2
   2 -12   2 13.0078 118.130   6
   2 -12  -2 29.3290 119.840   6
  -2 -12  -3 364.128 187.048   5
  -2 -12   3 218.162 160.761   5
  -2  12   3 518.771 163.304   2
  -2  12   3-98.5959 144.747   3
   2 -12   3 256.235 96.5219   5
  -2 -12   3 378.924 97.6271   8
   2 -12   3 312.926 109.262   8
  -2  12   3 242.662 121.561   1
  -2  12  -3 269.927 193.930   2
  -2  12  -3 238.200 154.638   3
   2 -12  -3 324.548 100.588   7
  -2 -12  -3 305.057 81.5388   7
  -2  12   3 262.864 90.6915   4
   2 -12  -3 239.366 125.684   6
   2  12  -3 41.0948 165.682   2
   2  12  -4 1204.39 277.624   2
   2 -12   4 1813.92 231.150   5
  -2 -12  -4 1608.83 293.963   5
  -2 -12   4 1254.04 265.234   5
  -2 -12   4 1528.76 224.126   8
  -2  12  -4 1128.95 261.182   3
   2 -12   4 1239.02 230.308   8
  -2 -12  -4 1298.41 219.434   7
  -2  12  -4 1586.06 301.319   2
   2 -12  -4 1506.62 227.619   7
  -2  12   4 1422.17 222.742   4
   2 -12  -4 1711.79 255.076   6
   2  12  -5 65.2878 166.133   2
  -2 -12   5 56.2445 146.952   5
  -2  12  -5 378.332 168.498   3
   2 -12   5-10.4960 89.3224   5
  -2 -12   5 36.9919 77.0368   8
   2 -12   5 92.2692 107.107   8
   2 -12  -5 41.6337 89.6693   7
  -2  12  -5-72.5343 202.143   2
  -2  12   5 27.4349 82.3249   4
   2 -12  -5 31.4004 130.927   6
   2  12  -6 4383.93 576.492   3
  -2  12  -6 3819.75 560.736   3
  -2 -12   6 3928.19 559.145   5
   2 -12   6 3794.30 535.661   5
   2 -12   6 3623.08 541.506   8
  -2  12   6 3336.69 531.895   4
  -2 -12   6 4164.86 535.550   8
   2  12  -6 3555.76 568.934   2
  -2  12  -6 4304.77 598.666   2
  -2  12  -7-173.161 162.220   3
   2  12  -7 61.5965 179.484   3
   2  12  -7 327.105 179.293   2
  -2 -12   7 214.173 150.068   5
   2 -12   7 87.3687 91.4077   5
  -2 -12   7 86.5181 89.4041   8
   2 -12   7-12.7949 114.474   8
   2 -12  -7 107.601 98.3344   7
  -2  12   7 68.8294 90.9386   4
   2 -12  -7 229.240 145.798   6
   2  12  -8 2907.11 558.579   3
  -2  12  -8 3231.69 548.567   3
  -2 -12   8 4148.40 523.932   8
  -2 -12   8 4056.17 549.670   5
   2 -12   8 3802.58 525.419   5
   2 -12   8 3946.68 537.630   8
   2 -12  -8 3084.14 523.318   7
  -2  12   8 3957.04 525.391   4
   2  12  -8 3855.35 570.297   2
   2 -12  -9 33.9362 136.687   6
   2  12  -9 42.7715 190.626   3
  -2 -12   9 123.195 142.123   5
   2 -12   9 168.913 95.5965   5
  -2  12  -9 197.448 165.488   3
   2 -12   9 226.757 132.641   8
   2 -12  -9 178.480 105.063   7
  -2  12   9 240.712 110.806   4
   2 -12 -10 973.134 198.716   6
   2 -12  10 1007.23 160.230   5
  -2  12 -10 614.392 210.488   3
  -2  12  10 756.965 161.709   4
  -2 -12  11-86.5933 97.4461   8
   2  12 -11 105.815 202.713   2
   2  12 -12 23.0262 187.431   3
  -2 -12  12 33.6790 127.978   5
   2  12 -12 216.693 224.173   2
  -2 -12  12 78.5567 98.4902   8
   2 -12  12-30.7085 126.250   8
   2 -12 -12-82.6774 104.554   7
   2 -12 -13 18.1417 148.022   6
   2 -12  13 120.618 102.996   5
   2  12 -13 117.824 192.464   3
  -2 -12  13 402.637 154.316   5
   2 -12  13 77.7813 142.076   8
  -2  12 -13 221.076 157.619   3
   2 -12 -13-48.2305 101.689   7
  -2  12  13 238.280 114.681   4
   2 -12 -14-92.3085 165.289   6
   2  12 -14-72.2620 202.975   3
  -2 -12  14-294.432 140.731   5
   2 -12  14 16.3215 154.574   8
  -2  12 -14-80.4446 160.285   3
   2 -12 -14-98.5936 103.775   7
   2 -12  14-86.1518 108.744   5
  -2  12  14-37.0129 121.427   4
   2 -12 -15-188.497 165.481   6
   2 -12  15 12.5694 106.833   5
   2  12 -15 122.776 216.775   3
  -2 -12  15 146.890 126.513   5
   2  12 -15-145.736 252.818   2
  -2 -12  15 171.633 121.771   8
   2 -12  15-82.6076 149.216   8
  -2  12 -15 80.7220 160.412   3
   2 -12 -15 12.6049 115.750   7
  -2  12  15 101.793 116.842   4
   2 -12 -16 134.252 159.561   6
   2 -12  16 16.7332 150.676   8
   2  12 -16 29.7662 251.656   2
   2  12 -16 74.8795 202.445   3
  -2 -12  16 145.459 134.317   5
  -2 -12  16 186.872 113.326   8
   2 -12  16 115.822 105.315   5
  -2  12 -16 164.671 156.060   3
   2 -12 -16 90.2686 112.027   7
  -2  12  16 144.739 119.239   4
   2 -12 -17-234.242 154.647   6
   2  12 -17-452.000 223.602   3
  -2 -12  17 63.9656 132.046   5
   2  12 -17-30.1813 231.200   2
  -2 -12  17 257.225 118.139   8
   2 -12  17 118.871 105.475   5
  -2  12 -17 207.111 156.277   3
   2 -12 -17 92.4060 111.182   7
  -2  12  17-54.2057 125.776   4
  -2 -12  18 948.834 179.453   5
   2 -12 -18 476.021 197.406   6
   2  12 -18 583.975 239.053   3
   2  12 -18 30.5553 279.306   2
  -2 -12  18 704.470 166.383   8
   2 -12  18 744.171 162.486   5
  -2  12 -18 375.707 204.287   3
  -2  12  18 757.296 165.625   4
   2 -12 -19 20.1621 160.965   6
  -2 -12  19-15.5689 132.843   5
  -2 -12  19 66.1179 118.663   8
   2  12 -19 93.1259 266.104   2
   2  12 -19 256.587 220.675   3
   2 -12  19 13.8789 116.279   5
   2 -12  19-17.4852 154.098   8
  -2  12 -19 126.646 159.369   3
  -2  12  19 159.858 129.627   4
   2 -12 -20 760.310 225.122   6
  -2 -12  20 1559.26 213.918   5
   2  12 -20 491.194 263.152   3
  -2 -12  20 1728.96 204.925   8
   2  12 -20 751.967 301.957   2
   2 -12  20 1121.31 230.744   8
   2 -12  20 796.343 193.711   5
  -2  12 -20 449.859 222.318   3
   2 -12 -20 963.070 198.116   7
  -2  12  20 678.589 207.449   4
   2 -12 -21-166.830 178.758   6
  -2 -12  21 62.6107 136.650   5
   2  12 -21-182.291 221.828   3
  -2 -12  21-138.189 126.545   8
   2  12 -21 31.5961 264.090   2
   2 -12  21 14.6266 123.513   5
  -2  12 -21 109.051 161.924   3
   2 -12  21 36.3111 172.726   8
   2 -12 -21-58.0000 125.857   7
  -2  12  21-94.0418 146.535   4
   2 -12 -22 486.159 212.286   6
  -2 -12  22 1131.84 205.129   5
  -2 -12  22 1373.98 202.481   8
   2  12 -22 77.3623 243.961   3
   2  12 -22 1337.83 323.018   2
   2 -12  22 946.729 224.718   8
   2 -12  22 1087.77 192.431   5
  -2  12 -22 333.989 214.325   3
   2 -12 -22 949.599 193.220   7
  -2  12  22 930.020 217.985   4
  -2 -12  23 15.7887 130.713   5
   2 -12 -23-64.2635 169.010   6
  -2 -12  23 142.399 133.771   8
   2  12 -23 129.117 196.266   3
   2 -12  23 95.1177 184.040   8
   2 -12  23-75.9751 124.148   5
  -2  12 -23 68.4584 169.364   3
   2 -12 -23-91.0722 128.507   7
   2  12 -23 32.1035 260.446   2
  -2  12  23 151.673 159.498   4
   2  12 -24 129.454 278.513   2
   2 -12  24 430.093 197.915   8
  -2 -12  24 110.315 136.699   5
   2  12 -24 258.566 208.503   3
  -2 -12  24 144.849 145.112   8
   2 -12  24 419.675 141.547   5
  -2  12 -24-23.4219 167.870   3
   2 -12 -24 77.6156 133.519   7
  -2  12  24 226.678 153.876   4
  -2  12  25-252.198 187.243   4
  -2 -12  25 158.343 139.527   5
  -2 -12  25-88.5903 137.070   8
   2  12 -25 32.6492 286.576   2
   2  12 -25-51.7717 188.271   3
   2 -12  25-16.0071 139.410   5
   2 -12  25-141.037 205.451   8
   2 -12 -25-15.8688 143.019   7
  -2  12 -25-192.578 190.019   3
   2  12 -26 32.9727 279.155   2
  -2 -12  26-15.9879 128.592   5
  -2 -12  26-15.0837 132.960   8
   2 -12  26 20.0953 183.526   8
   2  12 -26-285.727 205.039   3
  -2  12 -26-124.122 178.278   3
  -2 -12  27-154.511 155.428   8
  -2 -12  27 64.6380 135.490   5
   2  12 -27 66.6544 265.721   2
   2 -12  27 145.927 188.696   8
   2  12 -27-153.090 193.151   3
  -2 -12  28 15.8802 145.686   8
   2  12 -28 337.391 300.513   2
  -2 -12  28-147.485 139.530   5
   2 -12  28-195.269 196.665   8
   2  12 -28-153.623 212.164   3
  -2 -12  29-96.6016 154.329   8
   2  12 -29-136.875 296.797   2
  -2 -12  29 83.3842 153.492   5
   2  12 -29-102.915 200.085   3
  -2 -12  30-33.9025 155.782   5
   2  12 -30-129.842 184.925   3
  -3 -12   0-51.1885 202.641   5
  -3  12   0-11.4947 101.498   1
  -3  12   0 33.1080 130.620   3
  -3  12   0 40.5042 172.492   2
   3 -12   0-35.4180 108.353   7
   3 -12   0 52.8591 70.8048   5
  -3  12   0 7.57640 68.8352   4
   3 -12   0 62.8917 146.557   6
   3 -12   0 67.6757 88.7492   8
  -3  12  -1 1000.80 188.085   1
  -3 -12   1 1439.29 277.898   5
  -3  12   1 1001.38 219.032   3
   3 -12  -1 1023.79 180.444   5
   3 -12   1 946.654 180.549   5
   3 -12  -1 1504.15 190.861   8
   3 -12   1 950.334 189.391   8
  -3  12   1 775.245 195.973   1
  -3  12   1 1322.71 249.354   2
  -3  12  -1 1230.22 177.483   4
  -3  12   1 1304.18 180.196   4
   3 -12   1 1181.60 204.485   7
   3 -12  -1 1206.73 202.424   7
  -3  12  -1 1118.46 262.931   2
  -3  12  -1 1049.45 221.465   3
   3 -12   1 1144.75 226.382   6
   3 -12  -1 1199.53 223.398   6
  -3  12   2 224.483 138.126   3
  -3 -12   2 428.171 199.869   5
   3 -12   2 99.5036 99.7735   8
   3 -12   2 176.507 79.8954   5
  -3  12   2-148.993 172.569   2
   3 -12   2 341.321 117.522   7
   3 -12  -2 148.542 101.831   7
  -3  12  -2 112.957 73.0910   4
  -3  12   2 145.855 77.3887   4
  -3  12  -2 153.268 134.980   3
  -3  12  -2 241.865 201.712   2
  -3  12   2 118.299 113.516   1
  -3  12  -2 151.645 89.0908   1
   3  12  -2 120.701 158.909   2
   3 -12   2 164.467 130.942   6
   3 -12  -2 194.892 148.465   6
  -3  12   3-27.5616 121.995   1
  -3 -12   3 417.784 196.444   5
  -3 -12   3 64.9925 83.8380   8
   3 -12   3 47.5026 80.1866   5
  -3  12  -3-69.5986 134.277   3
   3 -12   3-152.162 105.093   8
   3 -12  -3-11.2652 98.0108   7
  -3  12   3 8.40207 75.2479   4
   3  12  -3 325.598 173.845   2
   3 -12  -3-65.8355 136.232   6
  -3  12  -4 314.828 151.306   3
  -3 -12   4 265.286 191.281   5
  -3 -12   4 321.032 91.9320   8
   3 -12   4 185.633 85.3789   5
  -3  12   4 144.504 133.822   1
   3 -12   4 148.925 124.629   8
   3 -12  -4 203.033 116.291   7
  -3  12   4 277.716 91.6314   4
   3  12  -4-83.2012 154.131   2
   3 -12  -4-101.315 138.162   6
  -3 -12   5 411.659 197.884   5
  -3 -12   5 399.357 115.282   8
   3 -12   5 498.501 122.017   5
   3 -12   5 645.028 150.630   8
  -3  12  -5 517.913 162.167   3
   3 -12  -5 735.267 140.710   7
  -3  12   5 805.597 125.328   4
  -3  12   5 504.572 160.427   1
   3  12  -5 530.790 191.408   2
   3 -12  -5 855.125 178.776   6
  -3 -12   6 42.5791 167.562   5
  -3 -12   6 182.696 85.8041   8
  -3  12  -6 71.7889 138.762   3
   3 -12   6 51.1970 87.3737   5
  -3  12   6-111.255 142.940   1
   3 -12   6 209.436 130.748   8
   3 -12  -6 56.7903 95.0205   7
  -3  12   6 37.0381 82.6610   4
   3 -12  -6-17.2987 147.122   6
   3  12  -6-43.9584 184.470   2
   3  12  -7 2057.00 361.614   2
   3 -12   7 1733.08 299.910   5
  -3 -12   7 1913.37 339.978   5
  -3 -12   7 2416.58 302.996   8
   3 -12   7 1628.40 322.581   8
  -3  12  -7 2278.20 330.840   3
   3 -12  -7 1908.46 307.220   7
  -3  12   7 2246.81 301.997   4
  -3  12   7 1924.87 328.396   1
   3 -12  -7 1977.78 333.058   6
  -3 -12   8 60.1860 157.190   5
   3 -12   8 313.240 144.636   8
   3 -12   8 64.1640 90.0885   5
  -3  12  -8 147.585 141.019   3
   3 -12  -8 149.750 106.651   7
  -3  12   8 295.386 105.997   4
  -3  12   8-67.9527 139.200   1
   3 -12  -8 176.876 144.334   6
   3 -12   9 438.703 107.390   5
   3 -12   9 303.310 141.323   8
  -3  12  -9 277.122 161.993   3
   3 -12  -9 325.103 120.167   7
  -3  12   9 274.782 107.880   4
   3 -12  -9 268.001 161.990   6
   3 -12  10 33.7156 89.3079   5
  -3  12 -10-37.0936 146.313   3
   3  12 -11 178.747 200.093   2
  -3 -12  11 189.333 107.602   8
   3  12 -12-90.3018 186.358   3
  -3 -12  12 36.7730 150.836   5
   3 -12  12 154.361 101.059   5
   3 -12  12 143.604 156.296   8
  -3  12 -12 57.1382 131.394   3
   3 -12 -12 24.4108 110.402   7
  -3  12  12 11.1665 101.046   4
   3 -12 -12 18.5941 147.899   6
   3 -12 -13 75.3736 148.273   6
   3  12 -13 69.4552 207.356   3
  -3 -12  13 18.2692 156.786   5
   3 -12  13 194.779 108.956   5
   3 -12  13 255.031 169.561   8
  -3  12 -13 153.533 149.301   3
   3 -12 -13 61.9510 112.653   7
  -3  12  13 389.973 119.367   4
   3 -12 -14 286.260 178.749   6
   3  12 -14 47.6414 229.650   3
   3  12 -14-27.6283 246.946   2
  -3 -12  14 254.337 164.913   5
  -3 -12  14 68.0142 105.850   8
   3 -12  14 149.995 113.838   5
   3 -12  14 36.9777 173.204   8
  -3  12 -14 58.7822 163.704   3
   3 -12 -14-12.6342 120.213   7
  -3  12  14 94.3162 116.082   4
   3 -12 -15 308.211 151.492   6
   3  12 -15 146.553 210.927   3
   3  12 -15 226.748 238.310   2
  -3 -12  15 108.420 157.972   5
  -3 -12  15 268.466 115.396   8
   3 -12  15 308.387 114.813   5
  -3  12 -15 138.733 152.308   3
   3 -12 -15 77.3285 122.037   7
   3 -12  15 37.5384 169.592   8
  -3  12  15 206.471 119.004   4
   3 -12 -16 369.375 169.878   6
   3  12 -16 25.0359 215.783   3
   3  12 -16 144.322 213.933   2
  -3 -12  16 52.7853 144.142   5
  -3 -12  16 192.797 116.300   8
   3 -12  16 65.9365 115.182   5
  -3  12 -16 140.755 151.297   3
   3 -12 -16 13.1214 117.932   7
   3 -12  16 133.522 170.570   8
  -3  12  16 150.352 123.428   4
   3 -12 -17 118.598 166.764   6
   3  12 -17 25.5323 213.366   3
   3  12 -17-205.385 245.975   2
  -3 -12  17 70.2386 150.917   5
  -3 -12  17 159.483 112.549   8
   3 -12  17-95.0867 102.428   5
   3 -12  17 97.0215 168.779   8
  -3  12 -17-122.793 151.246   3
   3 -12 -17 40.1861 118.227   7
  -3  12  17-51.7860 118.140   4
   3 -12 -18 241.815 172.382   6
   3  12 -18-51.9766 204.916   3
   3  12 -18 419.133 271.461   2
  -3 -12  18 52.5439 150.959   5
  -3 -12  18 49.9036 113.179   8
   3 -12  18 221.659 122.659   5
  -3  12 -18 292.344 164.938   3
  -3  12  18 13.3996 125.299   4
   3 -12 -19 409.292 179.278   6
   3  12 -19-52.7854 219.044   3
   3  12 -19 90.9726 252.540   2
  -3 -12  19 353.584 140.935   5
  -3 -12  19 218.942 133.286   8
   3 -12  19 254.361 119.034   5
  -3  12 -19 278.009 172.825   3
   3 -12 -19 139.641 130.076   7
  -3  12  19 414.586 136.870   4
   3 -12 -20-145.582 166.459   6
   3  12 -20 30.6814 278.490   2
   3  12 -20-133.857 227.321   3
  -3 -12  20 78.4948 127.527   8
   3 -12  20 144.448 202.963   8
  -3 -12  20 266.433 152.830   5
   3 -12  20-14.4579 121.676   5
  -3  12 -20-65.7358 160.662   3
   3 -12 -20 42.7813 135.346   7
  -3  12  20 57.1791 145.118   4
   3 -12 -21-84.5740 184.497   6
  -3 -12  21 558.101 136.124   8
  -3 -12  21 133.061 139.813   5
   3  12 -21 280.623 266.998   2
   3  12 -21 241.220 226.682   3
   3 -12  21 528.784 209.945   8
   3 -12  21 298.164 147.021   5
   3 -12 -21 87.3829 140.479   7
  -3  12 -21 22.4811 162.272   3
  -3  12  21 384.726 144.300   4
   3 -12 -22 21.4618 178.205   6
   3  12 -22-125.924 263.081   2
   3  12 -22 81.0438 211.566   3
  -3 -12  22 49.8113 134.245   5
   3 -12  22 21.7267 208.648   8
   3 -12 -22-44.6081 128.193   7
  -3  12 -22 69.3835 178.466   3
  -3  12  22-15.2630 145.152   4
  -3 -12  22 53.9960 132.137   8
   3 -12 -23-348.877 195.790   6
   3  12 -23-31.7576 253.244   2
  -3 -12  23 180.723 151.197   5
   3  12 -23-81.6577 230.410   3
   3 -12  23 89.5045 208.580   8
  -3 -12  23 54.8752 134.362   8
   3 -12 -23 227.785 141.599   7
  -3  12 -23 23.7586 176.363   3
  -3  12  23-15.8363 142.631   4
  -3 -12  24 156.371 127.266   8
   3 -12 -24 22.1149 166.758   6
   3  12 -24 128.177 252.778   2
  -3 -12  24-115.277 145.772   5
   3  12 -24-27.3419 230.681   3
   3 -12  24 46.2185 214.808   8
   3 -12 -24-15.4985 133.214   7
  -3  12  24-49.3725 149.376   4
   3 -12 -25-89.5973 202.976   6
  -3 -12  25 16.5046 154.789   5
   3  12 -25 743.680 344.895   2
  -3 -12  25 14.4837 143.022   8
   3  12 -25 269.766 245.945   3
   3 -12 -25 301.277 164.651   7
  -3  12  25 514.065 201.259   4
   3 -12 -26-90.7364 175.039   6
   3  12 -26 65.2954 263.940   2
  -3 -12  26-82.7671 135.655   5
  -3 -12  26 73.9258 124.748   8
   3  12 -26 53.9924 192.859   3
   3 -12 -26 48.5626 139.971   7
  -3  12  26 35.7410 153.128   4
   3  12 -27-131.919 278.600   2
  -3 -12  27 411.679 152.539   5
  -3 -12  27 348.039 145.217   8
   3  12 -27-188.969 219.816   3
   3 -12 -27 99.1297 150.207   7
  -3  12  27 148.163 173.697   4
  -3  12  28 19.1588 176.877   4
   3  12 -28-333.572 285.054   2
  -3 -12  28 93.1657 144.930   8
  -3 -12  28 16.5767 142.696   5
   3  12 -28-54.1337 219.716   3
   3 -12 -28-253.002 148.224   7
   3  12 -29 540.667 304.422   2
  -3 -12  29 15.6915 133.374   8
  -3 -12  29 100.226 141.911   5
   3  12 -29 53.9761 205.458   3
  -3 -12  30 16.8862 134.308   5
   3  12 -30 133.056 213.751   3
  -4  12   0 2306.99 459.432   3
   4 -12   0 3122.06 445.003   5
   4 -12   0 3032.53 455.748   8
   4 -12   0 3535.10 467.375   7
  -4  12   0 3284.34 443.607   4
   4 -12   0 3144.75 482.927   6
  -4  12   0 3568.34 455.843   1
   4 -12   1 95.9047 118.171   8
   4 -12  -1 41.1951 67.9921   5
  -4  12   1-15.1433 119.039   3
  -4  12  -1-15.8239 119.798   3
  -4  12  -1-10.5201 90.9819   1
   4 -12   1-14.8830 130.229   7
   4 -12  -1-13.6937 120.175   7
  -4  12  -1-85.7634 72.3101   4
  -4  12   1-24.4056 75.2506   4
  -4  12   1 118.089 163.955   2
   4 -12   1-106.344 152.339   6
   4 -12  -1 181.894 156.338   6
  -4  12   1-138.953 109.309   1
   4 -12   1-8.82188 67.3284   5
  -4  12   2 861.876 176.482   1
  -4  12  -2 908.888 160.090   1
   4 -12   2 967.611 155.785   5
   4 -12   2 1181.86 189.979   8
  -4  12  -2 501.435 179.733   3
   4 -12   2 1302.25 200.781   7
   4 -12  -2 590.804 180.174   7
  -4  12  -2 983.100 150.072   4
  -4  12   2 856.526 152.844   4
   4 -12   2 728.555 209.482   6
   4 -12  -2 772.250 213.093   6
  -4  12  -3-9.17201 88.9001   1
  -4  12   3 51.4480 113.983   1
   4 -12   3 47.1146 74.5483   5
   4 -12   3 85.2533 123.352   8
  -4  12  -3-163.013 132.359   3
  -4  12  -3 22.3145 71.3093   4
   4 -12  -3 91.0969 116.957   7
  -4  12   3 102.168 78.9325   4
   4 -12  -3 167.078 158.679   6
  -4 -12   4-50.9400 201.635   5
   4 -12   4-9.71768 77.4850   5
  -4  12   4-68.7061 121.627   1
  -4  12  -4-16.6577 120.041   3
   4 -12   4 348.709 149.776   8
   4 -12  -4-77.1652 116.408   7
  -4  12   4-26.1863 81.1407   4
   4 -12  -4-74.9101 158.990   6
  -4 -12   5 123.980 190.909   5
   4 -12   5-64.5663 144.084   8
  -4  12  -5 255.252 136.099   3
  -4  12   5 14.3619 122.399   1
   4 -12  -5 113.183 113.710   7
  -4  12   5 8.92505 84.0790   4
   4 -12   5 160.805 86.5227   5
   4  12  -5 64.0475 157.492   2
   4 -12  -5 113.299 165.562   6
  -4 -12   6 919.374 210.190   5
   4 -12   6 513.624 172.009   8
  -4  12  -6 428.968 150.361   3
   4 -12  -6 450.718 140.582   7
   4 -12   6 455.528 122.614   5
  -4 -12   6 562.308 126.228   8
  -4  12   6 630.480 124.250   4
  -4  12   6 751.562 163.726   1
   4 -12  -6 798.486 199.618   6
  -4  12   7 94.4071 137.263   1
  -4 -12   7 92.2605 173.913   5
   4 -12   7-96.0433 83.8798   5
   4 -12   7-87.6741 156.965   8
  -4  12  -7 87.6123 130.025   3
   4 -12  -7-112.443 108.671   7
  -4  12   7 46.9503 86.6037   4
   4 -12  -7 153.015 170.257   6
   4 -12   8 175.740 92.8923   5
   4 -12   8 148.237 185.584   8
  -4  12  -8-17.7231 134.351   3
   4 -12  -8 200.008 120.557   7
  -4  12   8 231.888 100.636   4
   4 -12  -8 96.1330 166.170   6
  -4 -12   9-61.3841 86.5764   8
   4 -12   9 169.883 98.9228   5
  -4  12  -9 72.4221 139.676   3
  -4  12   9 198.361 100.015   4
   4 -12  -9 19.3428 162.586   6
   4  12  -9 254.329 184.716   2
  -4 -12  10 145.351 90.4670   8
   4  12 -10 332.695 196.163   2
  -4 -12  11-102.858 158.657   5
  -4  12  11 147.873 168.248   1
  -4 -12  11 116.588 95.4821   8
   4 -12  11-40.6200 176.599   8
   4 -12 -11 216.688 127.146   7
   4  12 -12 200.525 209.564   3
  -4 -12  12 652.292 188.405   5
   4 -12  12 503.507 134.809   5
   4 -12  12 620.478 209.451   8
  -4  12  12 211.422 183.699   1
  -4  12 -12 687.470 174.925   3
   4 -12 -12 582.396 144.920   7
  -4  12  12 485.704 136.667   4
   4 -12 -12 649.835 198.367   6
   4  12 -13 545.628 247.422   2
   4  12 -13 272.995 212.697   3
  -4 -12  13 315.697 174.970   5
   4 -12  13 214.883 112.691   5
   4 -12  13 568.792 207.859   8
  -4  12 -13 564.806 203.097   3
   4 -12 -13 286.596 135.077   7
  -4  12  13 476.238 209.733   1
  -4  12  13 178.020 126.858   4
   4 -12 -13 801.892 217.672   6
  -4 -12  13 142.971 118.217   8
   4  12 -14 318.111 235.994   2
   4  12 -14 465.406 221.507   3
  -4 -12  14 746.862 192.286   5
  -4 -12  14 683.875 144.063   8
   4 -12  14 171.739 233.156   8
   4 -12  14 735.762 147.348   5
  -4  12 -14 139.494 172.776   3
   4 -12 -14 741.723 166.561   7
  -4  12  14 550.268 145.220   4
   4 -12 -14 463.954 188.058   6
  -4  12  14 534.665 206.371   1
   4  12 -15 299.902 202.324   2
   4  12 -15-119.850 206.646   3
  -4 -12  15 19.6138 153.624   5
  -4  12  15-510.283 195.587   1
   4 -12  15-43.7988 173.387   8
   4 -12  15 39.9104 103.837   5
   4 -12 -15-26.9483 115.833   7
  -4  12 -15-40.7785 148.212   3
  -4  12  15-35.4583 107.304   4
  -4 -12  15 11.4556 109.237   8
   4 -12 -15 101.563 157.344   6
   4  12 -16 222.223 215.724   2
   4  12 -16 98.6130 210.716   3
  -4 -12  16 171.106 168.605   5
   4 -12  16 178.915 198.323   8
   4 -12  16 395.122 131.217   5
  -4  12  16-22.0015 193.481   1
   4 -12 -16 40.8012 121.818   7
  -4 -12  16 246.182 114.663   8
  -4  12 -16 62.6485 148.565   3
  -4  12  16 218.657 120.564   4
   4 -12 -16 265.618 179.389   6
   4 -12 -17 20.6599 178.802   6
   4  12 -17 28.4920 247.209   2
   4  12 -17 304.604 211.586   3
  -4 -12  17 18.9396 162.468   5
  -4 -12  17 59.8134 109.731   8
   4 -12  17 28.0683 113.340   5
  -4  12 -17 171.265 161.607   3
   4 -12  17 137.238 206.037   8
  -4  12  17-12.4697 116.768   4
   4 -12 -18-83.5504 161.776   6
   4  12 -18-28.9615 238.111   2
   4  12 -18-104.260 218.513   3
  -4 -12  18 12.2513 111.493   8
  -4 -12  18 18.9004 153.321   5
   4 -12  18-187.482 205.039   8
  -4  12 -18-65.9905 155.755   3
  -4  12  18 205.467 130.305   4
   4 -12 -19-21.0476 169.009   6
   4  12 -19 147.937 245.677   2
   4  12 -19 80.1729 230.388   3
  -4 -12  19 18.4475 151.191   5
  -4 -12  19 149.828 118.172   8
   4 -12 -19-14.3642 128.969   7
  -4  12 -19 67.6828 158.339   3
  -4  12  19-119.235 123.493   4
  -4  12  19 24.5003 206.066   1
  -4  12  20 76.2803 243.444   1
   4 -12 -20 42.4302 186.759   6
   4  12 -20 119.935 244.514   2
   4  12 -20 217.099 243.381   3
  -4 -12  20 36.8138 165.907   5
   4 -12 -20 14.6350 137.554   7
  -4  12  20 54.7738 130.109   4
  -4 -12  20 307.260 128.503   8
   4 -12 -21 150.796 186.906   6
   4  12 -21-273.204 258.570   2
   4  12 -21-27.5949 220.859   3
  -4 -12  21 36.4307 151.841   5
  -4 -12  21 13.0315 119.371   8
  -4  12  21-26.4103 249.336   1
   4 -12 -21-119.305 124.359   7
  -4  12  21-99.2389 128.796   4
   4 -12 -22 196.740 177.999   6
   4  12 -22-154.503 262.783   2
   4  12 -22 84.0214 226.945   3
  -4 -12  22 159.198 123.320   8
  -4  12  22 137.282 243.503   1
   4 -12 -22 258.386 135.028   7
  -4 -12  22 52.4797 149.767   5
  -4  12  22-14.6278 142.328   4
   4 -12 -23 221.933 177.740   6
  -4  12  23-28.5623 250.020   1
   4  12 -23-124.904 242.873   2
   4  12 -23 141.691 226.072   3
  -4 -12  23-17.4535 142.282   5
  -4 -12  23 27.0072 124.129   8
   4 -12 -23-46.4651 142.305   7
  -4  12  23 242.318 136.551   4
   4 -12 -24 22.5389 185.936   6
   4  12 -24 31.5339 260.983   2
   4  12 -24-56.5777 233.363   3
  -4 -12  24 123.827 137.798   8
  -4 -12  24 52.2109 151.396   5
   4 -12 -24 47.3575 138.942   7
  -4  12  24-297.543 271.515   1
  -4  12  24-15.6232 141.042   4
   4 -12 -25-205.750 200.689   6
   4  12 -25 191.121 305.943   2
  -4 -12  25 14.0268 131.189   8
   4  12 -25 113.973 255.838   3
  -4  12  25-279.183 293.576   1
   4 -12 -25 16.0906 155.007   7
  -4  12  25-178.203 165.204   4
  -4 -12  25 17.1827 148.687   5
   4 -12 -26 278.361 190.599   6
  -4  12  26 647.553 307.955   1
   4  12 -26 96.5069 260.229   2
  -4 -12  26 653.127 166.711   5
   4  12 -26 400.564 241.447   3
  -4 -12  26 730.351 153.976   8
   4 -12 -26 213.201 149.906   7
  -4  12  26 286.008 158.097   4
   4 -12 -27 23.5048 178.622   6
   4  12 -27 162.482 257.261   2
  -4 -12  27 58.6052 137.596   8
  -4 -12  27 17.1741 136.452   5
   4 -12 -27-200.732 146.361   7
  -4  12  27 101.521 291.717   1
   4  12 -27-84.5893 209.231   3
  -4  12  27 34.9972 159.249   4
   4 -12 -28 23.7895 190.178   6
   4  12 -28 32.8685 281.148   2
  -4 -12  28 345.409 137.009   8
  -4 -12  28 188.867 151.664   5
   4  12 -28 225.362 218.966   3
  -4  12  28 127.646 163.550   4
   4  12 -29-299.395 284.229   2
  -4 -12  29-51.0832 144.691   5
   4  12 -29 196.975 218.839   3
  -4 -12  29-61.7700 141.048   8
  -5  12   0 85.3103 92.2893   1
   5 -12   0 13.3415 120.158   8
   5 -12   0 17.9495 76.5334   5
   5 -12   0-17.3530 131.929   7
  -5  12   0-16.8612 80.8615   4
  -5  12   0 94.4513 121.987   3
   5 -12   0 141.862 189.872   6
  -5  12  -1 2628.78 343.019   3
   5 -12   1 2208.35 312.305   5
   5 -12   1 2152.90 340.713   8
  -5  12  -1 1913.49 309.893   4
   5 -12  -1 2361.60 349.361   7
  -5  12   1 1845.98 311.216   4
   5 -12   1 1967.36 346.485   7
  -5  12  -1 2418.61 317.767   1
  -5  12   1 1839.30 318.873   1
   5 -12   1 2766.38 371.689   6
   5 -12  -1 2825.90 378.395   6
  -5  12  -2-85.8278 86.0646   1
   5 -12   2-159.169 147.693   8
   5 -12   2-9.59287 75.1058   5
   5 -12   2 90.5130 150.431   7
  -5  12  -2-106.701 77.5211   4
   5 -12  -2 15.9107 130.090   7
  -5  12   2-8.67114 80.4188   4
  -5  12   2-11.6946 99.1668   1
  -5  12  -2-32.6857 129.526   3
   5 -12   2-217.776 174.334   6
   5 -12  -2 124.040 186.191   6
  -5  12  -3 387.623 94.5566   1
   5 -12   3 277.579 97.6585   5
   5 -12   3 425.706 166.351   8
   5 -12  -3 248.414 136.820   7
  -5  12   3 370.458 103.966   4
  -5  12  -3 333.561 137.520   3
  -5  12   3 283.336 108.705   1
   5 -12   3 641.077 192.103   6
   5 -12  -3 291.676 190.014   6
   5 -12   4-36.3705 169.520   8
   5 -12   4-20.3123 73.3064   5
   5 -12  -4 14.9271 119.085   7
  -5  12   4 116.535 90.6604   4
  -5  12  -4 34.0537 128.955   3
   5 -12  -4 272.479 189.753   6
  -5  12   4-25.5921 107.356   1
  -5  12   5 27.1796 120.452   1
   5 -12   5 37.4676 159.169   8
   5 -12   5 115.440 90.4204   5
   5 -12  -5 161.170 132.405   7
  -5  12   5 18.1711 87.0590   4
  -5  12  -5-191.315 133.847   3
   5 -12  -5 252.690 183.266   6
  -5  12   6 70.9102 129.136   1
   5 -12   6 19.9128 169.631   8
   5 -12   6 21.6797 87.1431   5
   5 -12  -6-14.4213 121.364   7
  -5  12   6-9.24211 85.7963   4
  -5  12  -6 159.877 129.183   3
   5 -12  -6 105.675 182.791   6
   5 -12   7 84.1569 186.855   8
   5 -12   7 189.040 102.652   5
  -5  12   7 442.721 106.754   4
  -5  12  -7 326.880 141.700   3
   5 -12  -7 360.533 191.464   6
   5 -12   8 21.5592 188.465   8
   5 -12   8 57.4100 92.0290   5
  -5  12  -8 92.8565 132.643   3
   5  12  -8 270.351 170.971   2
  -5 -12   9 117.959 185.102   5
  -5  12   9 16.1957 145.422   1
   5  12  -9 159.683 171.700   2
  -5 -12  10-162.680 182.704   5
   5 -12  10 162.730 196.782   8
   5 -12 -10-97.5650 158.581   7
  -5 -12  10-74.4456 88.3927   8
  -5  12  10 99.7313 146.330   1
  -5  12  10-30.1526 104.255   4
   5 -12 -10 85.5165 189.806   6
  -5 -12  11 22.3392 188.920   5
   5 -12  11 118.913 202.950   8
   5 -12  11 202.106 109.019   5
   5 -12 -11-83.4602 167.773   7
  -5  12 -11 99.6332 147.839   3
  -5  12  11-17.4113 167.305   1
   5 -12 -11 406.979 204.609   6
  -5  12  12 36.4764 175.036   1
  -5 -12  12 221.017 183.866   5
  -5 -12  12 207.906 114.073   8
   5 -12  12 462.456 254.270   8
   5 -12 -12 70.3421 157.323   7
  -5  12  12 211.325 134.902   4
  -5  12 -12 550.927 204.507   3
   5  12 -12 121.048 217.819   2
   5 -12 -12 836.483 249.747   6
  -5  12  13 394.130 193.859   1
  -5 -12  13 618.388 199.520   5
  -5 -12  13 994.206 145.952   8
   5 -12  13 698.082 254.380   8
   5 -12 -13 42.2261 155.045   7
  -5  12  13 962.947 154.653   4
  -5  12 -13 229.723 175.636   3
   5 -12 -13 602.232 226.163   6
   5  12 -13 769.783 241.194   2
   5  12 -14-230.525 192.688   3
  -5 -12  14-21.2045 168.517   5
  -5  12  14 39.3556 160.224   1
  -5 -12  14 22.6795 98.1382   8
   5 -12  14 357.792 255.950   8
   5 -12 -14-142.647 130.581   7
  -5  12  14-44.4899 108.180   4
   5 -12 -14 107.802 183.085   6
   5  12 -14-204.177 198.449   2
   5  12 -15 207.738 219.284   2
   5  12 -15 307.144 214.685   3
  -5 -12  15 253.614 176.927   5
  -5  12  15 527.276 191.837   1
   5 -12 -15 372.135 146.149   7
  -5 -12  15 426.586 121.545   8
  -5  12  15 549.633 130.014   4
   5 -12 -15 411.347 192.071   6
   5  12 -16 213.701 211.075   2
   5  12 -16 24.2279 208.589   3
  -5 -12  16-143.958 146.142   5
  -5 -12  16-129.600 118.625   8
  -5  12  16-188.238 192.779   1
   5 -12 -16-188.815 128.044   7
  -5  12  16 35.3844 110.327   4
   5 -12 -16-238.993 183.715   6
   5  12 -17-135.850 227.075   2
   5  12 -17-200.171 219.583   3
  -5 -12  17 41.1548 171.441   5
  -5 -12  17 59.9576 100.590   8
  -5  12  17 48.5916 113.552   4
   5 -12 -17 109.097 172.151   6
   5  12 -18-446.425 231.776   2
   5  12 -18-128.955 227.735   3
  -5 -12  18-159.887 161.734   5
  -5  12  18-67.8249 189.672   1
  -5  12  18-150.236 119.272   4
  -5 -12  18 122.472 117.261   8
   5 -12 -18 285.056 178.625   6
   5  12 -19 85.0000 241.594   2
   5  12 -19 239.216 244.144   3
  -5 -12  19 39.8911 164.986   5
  -5 -12  19 24.9588 123.329   8
   5 -12 -19 105.410 151.293   7
  -5  12  19 116.847 216.440   1
  -5  12  19 90.0810 125.377   4
   5 -12 -19 198.209 190.245   6
   5 -12 -20 222.319 184.058   6
   5  12 -20 87.1027 229.082   2
   5  12 -20 27.3805 221.410   3
  -5 -12  20 39.8531 164.987   5
  -5 -12  20 38.2057 118.481   8
   5 -12 -20-153.051 140.869   7
  -5  12  20-120.837 216.393   1
  -5  12  20-184.934 131.781   4
   5 -12 -21-157.099 181.510   6
   5  12 -21 176.568 252.646   2
   5  12 -21 309.250 229.383   3
  -5 -12  21-116.777 163.937   5
  -5 -12  21 116.922 127.257   8
   5 -12 -21 264.532 142.877   7
  -5  12  21 250.131 214.254   1
  -5  12  21 149.704 124.201   4
   5 -12 -22 90.3511 195.320   6
   5  12 -22-178.764 234.190   2
   5  12 -22 114.308 241.867   3
  -5 -12  22 77.6716 157.007   5
  -5 -12  22 13.2156 117.005   8
   5 -12 -22-63.3024 138.085   7
  -5  12  22-104.908 222.671   1
  -5  12  22 126.400 132.920   4
   5 -12 -23-68.2297 181.455   6
   5  12 -23 241.224 234.503   2
   5  12 -23-261.730 234.394   3
  -5 -12  23 76.7809 159.521   5
  -5 -12  23-134.791 122.521   8
 -12   5  23 9.63578 89.8227   4
   5 -12 -23-80.5014 141.439   7
  -5  12  23-163.132 249.515   1
  -5  12  23-101.648 130.526   4
   5 -12 -24 345.900 221.428   6
   5  12 -24 369.056 279.201   2
   5  12 -24 88.5561 277.347   3
  -5 -12  24 128.885 175.126   5
  -5 -12  24-137.536 133.841   8
   5 -12 -24 147.421 158.025   7
  -5  12  24 902.630 293.779   1
  -5  12  24 255.777 152.877   4
   5 -12 -25 93.4745 197.430   6
   5  12 -25 279.848 235.204   2
   5  12 -25 147.770 244.511   3
  -5 -12  25 165.000 157.255   5
  -5 -12  25 266.700 137.393   8
   5 -12 -25 250.042 161.564   7
  -5  12  25-28.9528 233.217   1
  -5  12  25-62.1477 139.188   4
   5  12 -26 148.846 246.365   3
   5 -12 -26 23.6885 188.864   6
   5  12 -26-157.110 260.044   2
  -5 -12  26 35.9771 166.334   5
  -5 -12  26 14.3419 126.938   8
   5 -12 -26-135.726 148.001   7
  -5  12  26 150.496 261.797   1
  -5  12  26 32.1747 141.571   4
   5 -12 -27 48.0543 191.589   6
   5  12 -27 285.869 260.797   2
   5  12 -27-89.8468 245.553   3
  -5 -12  27 587.047 156.044   8
   5 -12 -27 190.116 166.987   7
  -5  12  27 156.758 269.216   1
  -5 -12  27 753.794 172.934   5
  -5  12  27 250.249 159.299   4
   5  12 -28 96.3605 252.740   2
  -5 -12  28-90.2592 128.664   8
  -5 -12  28-125.173 154.612   5
   5  12 -28-147.906 227.705   3
   5  12 -29 617.483 268.793   2
  -5 -12  29 462.987 170.871   5
   5  12 -29 147.640 245.367   3
   6 -12   0 1761.74 364.231   7
  -6  12   0 2132.71 319.608   1
   6 -12   0 2824.57 393.559   6
  -6  12  -1 29.6808 87.0542   1
  -6  12   1 64.5931 96.6857   1
   6 -12   1-72.0039 164.915   8
   6 -12  -1 526.823 174.306   7
   6 -12   1 153.214 208.141   6
   6 -12  -1 474.169 228.588   6
  -6  12   2 429.308 125.157   1
   6 -12   2 231.154 186.964   8
   6 -12  -2 697.373 180.329   7
  -6  12   2 493.911 115.397   4
   6 -12   2 236.478 204.845   6
   6 -12  -2 687.102 236.198   6
  -6  12   3 119.206 104.158   1
   6 -12   3-102.780 191.158   8
   6 -12  -3-36.7878 150.339   7
  -6  12   3 45.4035 84.3938   4
   6 -12   3-21.0523 192.190   6
   6 -12  -3 115.448 192.422   6
   6 -12   4 276.453 189.875   8
  -6  12   4 61.8259 99.0267   1
   6 -12  -4 70.4137 146.223   7
  -6  12   4-55.1338 91.2927   4
   6 -12  -4 116.198 203.372   6
   6 -12   5 45.1422 194.588   8
   6 -12  -5 51.5351 151.197   7
  -6  12   5 27.9106 84.7086   4
   6 -12  -5-93.4938 195.342   6
   6 -12   6 238.359 206.265   8
  -6  12   6 321.197 101.864   4
   6 -12  -6 634.521 249.861   6
   6 -12   7-220.867 226.483   8
   6 -12  -8 177.810 141.768   7
  -6  12   8-14.5402 132.685   1
  -6  12   9-90.9382 138.726   1
   6 -12  -9 47.7675 143.377   7
  -6  12   9-9.85826 92.8943   4
   6 -12  -9-164.195 222.534   6
  -6  12  10 186.058 160.970   1
   6 -12 -10-125.754 177.163   7
  -6  12  10 90.1607 104.669   4
   6 -12 -10 70.3581 217.618   6
  -6  12  11-210.652 167.322   1
   6 -12 -11 46.6929 162.733   7
  -6  12  11 10.2042 105.211   4
   6 -12 -11-46.9143 225.851   6
  -6 -12  12 119.926 192.433   5
  -6  12  12-67.9112 150.089   1
   6 -12 -12-156.707 148.224   7
  -6  12  12 291.599 113.899   4
   6  12 -12 191.481 184.543   2
   6 -12 -12 328.384 217.359   6
  -6 -12  13 46.3773 201.704   5
  -6  12  13-69.6518 153.697   1
   6 -12 -13 140.136 149.178   7
  -6  12  13 10.6707 105.679   4
   6  12 -13-218.626 175.816   2
   6 -12 -13 304.715 203.283   6
  -6 -12  14 899.557 220.747   5
  -6 -12  14 655.423 139.566   8
  -6  12  14 437.692 183.095   1
   6 -12 -14 471.577 176.754   7
  -6  12  14 930.382 143.248   4
   6 -12 -14 421.707 224.848   6
  -6 -12  15-22.3693 164.193   5
  -6 -12  15-211.195 110.444   8
  -6  12  15-149.908 161.012   1
   6 -12 -15-109.498 133.937   7
  -6  12  15-11.2048 104.797   4
   6  12 -15-328.141 195.544   2
   6 -12 -15-210.593 199.411   6
  -6 -12  16 369.462 125.387   8
   6  12 -16 97.0164 211.406   3
  -6 -12  16 290.404 197.834   5
  -6  12  16 137.610 107.186   4
   6  12 -16-51.2198 200.145   2
   6 -12 -16 187.335 189.256   6
   6  12 -17 299.112 217.012   3
  -6 -12  17-43.5538 178.107   5
  -6 -12  17 146.110 112.105   8
  -6  12  17-47.1624 101.166   4
   6  12 -17 209.614 212.761   2
   6 -12 -17 140.563 193.481   6
   6  12 -18 51.2889 212.252   3
  -6 -12  18 65.4691 177.283   5
  -6 -12  18 12.3868 115.854   8
   6 -12 -18 320.368 165.215   7
  -6  12  18 145.581 181.196   1
  -6  12  18 97.0625 121.929   4
   6  12 -18 398.947 243.962   2
   6 -12 -18 258.251 209.116   6
   6  12 -19 132.806 217.723   3
  -6 -12  19 21.8908 170.267   5
  -6 -12  19 25.3070 110.525   8
   6 -12 -19 81.1735 127.723   7
  -6  12  19 12.4991 113.267   4
  -6  12  19-21.8476 188.982   1
   6  12 -19-136.229 212.660   2
   6 -12 -19 258.652 192.118   6
   6  12 -20 493.926 255.256   3
  -6 -12  20 21.3023 171.908   5
   6 -12 -20 543.143 153.451   7
  -6  12  20 206.026 117.181   4
  -6  12  20 157.685 209.328   1
  -6 -12  20 231.270 124.889   8
   6  12 -20-110.522 230.347   2
   6 -12 -20 396.357 206.698   6
   6  12 -21-85.0693 226.111   3
  -6 -12  21 276.635 179.565   5
  -6 -12  21 39.3729 115.555   8
   6 -12 -21-82.4684 152.556   7
  -6  12  21-13.2746 124.080   4
  -6  12  21 209.128 203.333   1
   6  12 -21 28.0068 218.556   2
   6 -12 -21-70.1026 198.412   6
   6  12 -22-29.2127 242.549   3
  -6 -12  22 166.160 171.327   5
  -6 -12  22 13.4024 116.226   8
   6 -12 -22 33.4734 148.134   7
  -6  12  22-163.749 133.559   4
  -6  12  22 311.841 217.111   1
   6  12 -22-57.3446 210.146   2
   6 -12 -22-70.6442 193.603   6
   6 -12 -23-308.483 204.461   6
   6  12 -23-180.045 263.424   3
  -6 -12  23-580.647 185.328   5
  -6 -12  23 68.4405 124.750   8
 -12   6  23-119.158 94.5523   4
   6 -12 -23-169.896 165.743   7
  -6  12  23 14.0084 136.562   4
  12  -6 -23-179.359 262.428   6
  -6  12  23-545.267 251.320   1
   6  12 -23-261.176 241.909   2
   6  12 -24 29.3646 243.071   2
   6 -12 -24 47.6670 184.660   6
   6  12 -24 152.498 254.923   3
  -6 -12  24-351.215 173.823   5
  -6 -12  24 125.239 130.445   8
 -12   6  24 20.2453 86.0874   4
   6 -12 -24-396.772 160.842   7
  -6  12  24 72.1891 139.744   4
  12  -6 -24-118.408 247.425   6
  -6  12  24 25.6309 223.650   1
   6  12 -25-29.7003 224.030   2
   6 -12 -25-143.709 183.526   6
   6  12 -25-155.085 239.414   3
  -6 -12  25 39.6016 155.196   5
  -6 -12  25-213.323 133.704   8
   6 -12 -25 17.5238 148.905   7
  -6  12  25 14.9014 144.276   4
  -6  12  25 318.342 241.501   1
   6  12 -26 364.320 260.841   2
   6 -12 -26 24.2429 198.923   6
   6  12 -26-311.177 257.402   3
  -6 -12  26 214.190 171.939   5
  -6 -12  26 203.589 134.785   8
   6 -12 -26 142.496 161.042   7
  -6  12  26 107.888 144.176   4
  -6  12  26 357.365 234.164   1
   6  12 -27 61.3998 234.260   2
   6 -12 -27 24.5165 199.630   6
   6  12 -27 31.4111 253.128   3
  -6 -12  27 38.0484 154.424   5
  -6 -12  27-133.956 127.261   8
  -6  12  27-79.8156 147.324   4
  -6 -12  28 213.539 160.331   8
  -6 -12  28 188.609 177.830   5
   6  12 -28 631.467 292.376   3
   7 -12   0-165.138 216.979   6
  -7  12   1 456.728 122.605   1
   7 -12   1 568.663 227.258   6
   7 -12  -1 722.208 250.480   6
  -7  12   2-110.041 93.7909   1
   7 -12   2-115.035 203.087   8
   7 -12  -2 21.3297 171.889   7
   7 -12   2 265.792 189.820   6
   7 -12  -2 97.9839 218.082   6
   7 -12   3 47.7684 204.383   8
   7 -12   3 172.431 197.173   6
   7 -12  -3 248.578 234.298   6
   7 -12   4-177.435 219.820   8
   7 -12  -4 201.638 223.086   6
   7 -12  -6 19.7025 172.819   7
  -7  12   6 245.266 126.549   1
  -7  12   7 414.742 122.388   1
   7 -12  -7-134.759 177.129   7
  -7  12   7 368.796 106.262   4
   7 -12  -7 412.939 235.264   6
  -7  12   8 594.602 163.872   1
   7 -12  -8 433.052 196.851   7
  -7  12   8 206.473 117.677   4
   7 -12  -9 73.7754 162.818   7
  -7  12   9-129.809 98.2546   4
  -7  12   9 128.894 136.235   1
   7 -12  -9-51.7312 255.542   6
   7 -12 -10-54.2969 157.887   7
  -7  12  10-10.1337 96.8389   4
  -7  12  10-58.4743 132.312   1
   7 -12 -10 336.226 226.283   6
   7 -12 -11-17.8038 160.304   7
  -7  12  11 30.8551 93.1684   4
  -7  12  11 15.1748 139.263   1
   7 -12 -11 155.005 219.352   6
   7 -12 -12-157.947 158.382   7
  -7  12  12-72.9322 95.2448   4
  -7  12  12-173.634 140.969   1
   7 -12 -13 17.6254 157.448   7
  -7  12  13 296.984 114.430   4
   7 -12 -13 51.4671 209.834   6
  -7  12  13 98.7728 143.498   1
  -7  12  14 33.7058 145.266   1
   7 -12 -14-191.739 155.557   7
  -7  12  14-129.830 105.736   4
   7 -12 -14 179.770 226.275   6
  -7  12  15 140.898 157.176   1
   7 -12 -15 87.7694 156.217   7
  -7  12  15 66.1721 102.598   4
   7 -12 -15 51.2646 200.314   6
  -7 -12  16 119.835 198.350   5
  -7  12  16-67.7285 104.654   4
   7  12 -16 76.2110 198.943   2
   7 -12 -16 202.080 203.511   6
  -7 -12  17-72.1025 192.539   5
  -7  12  17 23.1642 109.748   4
   7  12 -17 179.923 213.633   2
   7 -12 -17 402.699 238.938   6
   7  12 -18 26.1336 204.668   3
  -7  12  18-97.0674 163.797   1
  -7 -12  18 24.1103 204.695   5
   7 -12 -18 70.9418 155.185   7
  -7  12  18 35.5771 112.511   4
   7  12 -18-52.2238 188.985   2
   7 -12 -18 100.486 214.599   6
   7  12 -19 134.800 236.842   3
  -7 -12  19 283.021 217.369   5
  -7  12  19 438.728 193.833   1
   7 -12 -19 35.3090 157.709   7
  -7  12  19 437.024 124.434   4
   7  12 -19 185.059 205.956   2
   7 -12 -19 250.741 208.247   6
   7  12 -20 306.905 249.137   3
  -7 -12  20-23.7019 191.725   5
  -7  12  20-230.553 180.793   1
  -7 -12  20 51.9513 117.732   8
   7 -12 -20-160.686 156.343   7
  -7  12  20-99.8162 111.253   4
   7  12 -20 215.360 207.035   2
   7 -12 -20-250.700 203.471   6
   7  12 -21 288.823 242.053   3
  -7 -12  21 671.844 214.191   5
  -7  12  21 172.428 186.585   1
  -7 -12  21 13.2685 132.570   8
   7 -12 -21 72.2468 156.566   7
  -7  12  21 258.427 121.800   4
   7  12 -21 27.2594 208.054   2
   7 -12 -21 425.885 227.688   6
   7  12 -22-329.370 275.276   3
  -7 -12  22-23.1620 189.384   5
  -7 -12  22-108.488 125.043   8
  -7  12  22-66.5654 198.879   1
 -12   7  22-90.5854 104.138   4
   7 -12 -22-36.5663 164.192   7
  -7  12  22-279.253 132.291   4
  12  -7 -22-628.277 319.950   6
   7  12 -22 82.7985 210.502   2
   7 -12 -22-25.0558 226.873   6
   7  12 -23-216.293 279.720   3
  -7 -12  23 22.5676 206.000   5
 -12   7  23 10.2344 95.5358   4
  -7  12  23-228.533 214.136   1
   7 -12 -23-92.5941 173.110   7
  -7  12  23-13.6986 133.249   4
  -7 -12  23-69.2976 133.207   8
  12  -7 -23 123.827 270.109   6
   7  12 -23-140.578 242.428   2
   7 -12 -23 25.0834 221.445   6
   7  12 -24-254.263 252.605   3
  -7 -12  24 157.643 208.359   5
  -7 -12  24 99.1666 139.162   8
  -7  12  24-164.841 208.548   1
 -12   7  24-41.6920 95.6271   4
   7 -12 -24-147.895 159.999   7
  -7  12  24-28.1295 115.085   4
  12  -7 -24-458.299 289.181   6
   7  12 -24-483.609 229.300   2
   7 -12 -24 351.159 216.987   6
   7 -12 -25-25.2274 200.425   6
   7  12 -25 227.657 268.270   3
  -7 -12  25-153.526 173.627   5
  -7 -12  25-28.8224 138.054   8
   7 -12 -25 37.4958 165.462   7
 -12   7  25 21.2405 93.1918   4
  -7  12  25 24.3018 214.477   1
  -7  12  25-14.4274 129.867   4
  12  -7 -25-29.8934 271.302   6
   7  12 -25-57.5478 230.216   2
   7 -12 -26-150.523 200.038   6
   7  12 -26-231.735 276.662   3
  -7 -12  26 21.5967 181.653   5
  -7 -12  26 14.7443 134.573   8
  -7  12  26 59.4100 132.241   4
   7  12 -26-145.519 220.325   2
   7  12 -27-266.267 246.976   3
  -7 -12  27-42.3684 179.848   5
  -7 -12  27 75.4814 133.241   8
   7  12 -27 176.548 241.922   2
   8 -12   0 95.9212 225.561   6
   8 -12  -1-49.3688 224.124   6
  -8  12   3 78.5242 101.801   1
  -8  12   4 532.807 143.856   1
   8 -12  -4 295.848 224.042   7
  -8  12   5 239.056 120.981   1
   8 -12  -5 454.875 237.329   7
   8 -12  -5 728.513 307.351   6
  -8  12   6 542.310 135.262   1
   8 -12  -6-90.2588 204.152   7
   8 -12  -6 247.837 286.982   6
  -8  12   7-140.066 106.031   1
   8 -12  -7-200.385 190.349   7
  -8  12   7-117.363 90.1058   4
   8 -12  -7 55.7956 252.371   6
  -8  12   8 368.299 127.829   1
   8 -12  -8 197.396 198.590   7
  -8  12   8 366.997 112.716   4
   8 -12  -8 617.566 262.806   6
  -8  12   9 149.899 141.505   1
  -8  12  10 84.7674 109.061   1
   8 -12 -10-21.0171 173.397   7
  -8  12  10-60.9735 96.2119   4
  -8  12  11-14.6443 129.263   1
   8 -12 -11 82.4625 176.653   7
  -8  12  11-61.9800 87.9969   4
   8 -12 -11 141.716 244.337   6
  -8  12  12 119.626 124.797   1
   8 -12 -12-101.215 173.618   7
  -8  12  12 62.9208 100.267   4
   8 -12 -12 113.392 240.035   6
   8 -12 -13 99.5196 169.744   7
  -8  12  13-15.4739 131.276   1
  -8  12  13 127.819 107.289   4
   8 -12 -13-28.0808 242.965   6
   8 -12 -14 139.713 178.574   7
  -8  12  14 388.710 123.760   4
  -8  12  14 561.881 167.436   1
   8 -12 -14 755.298 283.579   6
   8 -12 -15-177.064 196.629   7
  -8  12  15 65.8440 99.1777   4
   8 -12 -15 306.469 250.140   6
  -8  12  16-123.242 113.510   4
   8 -12 -16-83.2404 228.652   6
   8 -12 -17-78.1946 179.838   7
  -8  12  17-57.0903 101.396   4
  -8  12  17-17.4694 137.340   1
   8 -12 -17 276.333 238.227   6
   8 -12 -18-78.7356 166.195   7
  -8  12  18 46.7261 101.215   4
  -8  12  18 163.852 168.030   1
   8 -12 -18 82.4756 244.110   6
   8 -12 -19 79.3536 158.730   7
  -8  12  19 11.9757 119.392   4
  -8  12  19 18.6540 170.677   1
   8 -12 -19-164.127 233.668   6
   8  12 -20 204.258 253.967   3
  -8 -12  20 524.029 227.166   5
   8 -12 -20 137.646 183.584   7
  -8  12  20 441.142 133.122   4
  -8  12  20 917.999 194.112   1
   8 -12 -20 806.440 258.279   6
   8  12 -21-60.3381 263.348   3
  -8 -12  21-231.430 214.401   5
 -12   8  21 10.2198 88.3326   4
   8 -12 -21-158.772 183.273   7
  -8  12  21-12.5301 117.743   4
  12  -8 -21-197.093 299.079   6
  -8  12  21-137.342 179.278   1
   8 -12 -21-294.281 239.661   6
   8  12 -22 313.557 289.242   3
  -8 -12  22 181.174 221.849   5
 -12   8  22 10.3818 95.6960   4
   8 -12 -22 20.0401 186.857   7
  -8  12  22 90.0967 123.755   4
  12  -8 -22 32.3748 280.825   6
  -8  12  22 20.5237 176.496   1
   8 -12 -22-106.725 215.789   6
   8  12 -23 292.302 260.783   3
  -8 -12  23-25.2171 222.585   5
   8 -12 -23-40.5005 177.726   7
 -12   8  23-73.8631 98.9046   4
  -8  12  23-13.2297 110.969   4
  12  -8 -23 319.216 280.939   6
  -8  12  23-231.852 192.362   1
   8 -12 -23 132.956 208.271   6
   8  12 -24 167.763 270.334   3
  -8 -12  24 75.4897 223.369   5
   8 -12 -24 204.678 174.859   7
 -12   8  24-10.7280 97.9297   4
  -8  12  24-68.4017 118.669   4
   8  12 -24-224.640 202.364   2
  12  -8 -24 155.871 283.706   6
  -8  12  24 324.926 196.613   1
   8 -12 -24-159.083 224.406   6
   8  12 -25 69.1798 275.796   3
  -8 -12  25 75.1718 206.034   5
 -12   8  25-43.5369 96.6595   4
  -8  12  25 14.0728 125.658   4
   8  12 -25 28.3865 222.322   2
  12  -8 -25 183.901 261.832   6
   8 -12 -25 185.252 197.195   6
   8  12 -26-35.4404 303.204   3
  -8 -12  26-24.3163 223.118   5
 -12   8  26 155.125 105.415   4
   8  12 -26 401.708 229.390   2
  12  -8 -26-271.391 276.410   6
 -12   8  26 184.106 137.606   1
 -12   8  27 56.6005 104.696   4
  12  -8 -27 411.428 264.863   6
   9 -12  -4 245.257 252.153   6
   9 -12  -5 195.840 244.758   6
   9 -12  -6 257.593 241.760   6
  -9  12   6 60.2295 100.721   1
  -9  12   7 284.664 116.814   1
   9 -12  -7 48.1967 191.423   7
   9 -12  -7 320.993 255.831   6
  -9  12   8-50.7456 98.7168   1
   9 -12  -8-72.2338 187.420   7
   9 -12  -8-207.516 252.631   6
  -9  12   9 143.410 115.654   1
   9 -12  -9-47.8397 196.162   7
  -9  12   9 80.0464 87.6327   4
  -9  12  10 120.640 122.495   1
   9 -12 -10 23.6598 186.966   7
  -9  12  10 71.1385 90.3853   4
   9 -12 -10 121.693 270.272   6
  -9  12  11 221.312 128.062   1
   9 -12 -11 23.3699 187.319   7
  -9  12  11-20.6226 88.2614   4
  -9  12  12 14.2886 127.093   1
   9 -12 -12 23.3677 196.071   7
  -9  12  12 187.925 98.6326   4
   9 -12 -13-45.8735 201.775   7
  -9  12  13 325.739 140.273   1
  -9  12  13 308.125 115.076   4
  -9  12  14-15.1212 134.218   1
   9 -12 -14 90.2181 182.338   7
  -9  12  14-53.9910 101.403   4
   9 -12 -14 275.957 279.030   6
  -9  12  15 318.158 114.785   4
   9 -12 -15 303.233 285.040   6
  -9  12  16-66.7508 93.6859   4
   9 -12 -16 241.273 273.010   6
  -9  12  17-316.317 142.713   1
   9 -12 -17-22.3609 193.129   7
  -9  12  17 11.3081 106.864   4
   9 -12 -17 29.9806 254.010   6
  -9  12  18-119.170 156.019   1
   9 -12 -18-176.471 193.204   7
  -9  12  18-46.1597 114.089   4
   9 -12 -18 178.716 245.052   6
  -9  12  19 70.5688 150.041   1
   9 -12 -19 155.266 207.570   7
  -9  12  19 188.045 106.318   4
   9 -12 -19 59.1925 235.895   6
   9 -12 -20 66.9627 222.011   7
  -9  12  20 451.261 195.481   1
 -12   9  20-155.478 105.858   4
  -9  12  20 12.0173 110.829   4
  12  -9 -20 273.060 339.494   6
   9 -12 -20 29.3623 260.623   6
   9 -12 -21 22.0651 195.132   7
 -12   9  21 105.272 89.6767   4
  -9  12  21 443.449 173.957   1
  -9  12  21-98.4911 117.150   4
  12  -9 -21 269.538 302.690   6
   9 -12 -21 145.689 256.717   6
   9 -12 -22 111.137 193.341   7
 -12   9  22-182.047 103.850   4
  -9  12  22 75.6617 162.085   1
  -9  12  22 125.869 119.116   4
  12  -9 -22-365.939 290.215   6
   9 -12 -22 285.573 234.796   6
   9 -12 -23-156.866 190.113   7
 -12   9  23-32.5862 97.3150   4
  -9  12  23-137.729 173.152   1
  -9  12  23-141.423 121.455   4
  12  -9 -23 65.5272 285.278   6
   9 -12 -23-141.706 222.339   6
 -12   9  23-136.106 134.502   1
 -12   9  24 11.0026 95.3051   4
  -9  12  24-13.1817 117.144   4
  12  -9 -24 95.7912 284.280   6
   9 -12 -24-281.619 236.911   6
 -12   9  24-138.782 124.367   1
 -12   9  25 55.9255 108.457   4
  12  -9 -25 62.7282 272.098   6
  10 -12  -8 30.6286 268.006   6
  10 -12  -9 343.903 274.450   6
 -10  12   9 25.4777 96.3893   1
 -10  12  10 326.591 127.762   1
  10 -12 -10 255.815 289.381   6
 -10  12  11 240.802 135.292   1
  10 -12 -11 50.9149 209.272   7
 -10  12  11 50.8887 89.3063   4
  10 -12 -11 486.539 309.651   6
  10 -12 -12 25.4820 219.544   7
 -10  12  12 445.294 123.517   4
  10 -12 -12 163.328 299.370   6
 -10  12  13-140.578 114.888   1
  10 -12 -13-101.527 207.548   7
 -10  12  13 10.4900 94.2052   4
  10 -12 -13-360.792 308.183   6
 -10  12  14 1141.64 178.294   1
 -10  12  14 650.487 141.539   4
  10 -12 -14 723.212 306.635   6
 -10  12  15 43.4319 104.066   4
  10 -12 -15-98.6696 277.497   6
 -10  12  16 396.153 146.422   1
 -10  12  16 375.303 123.845   4
  10 -12 -16 358.551 291.393   6
 -10  12  17-173.170 130.843   1
  10 -12 -17 75.2870 207.360   7
 -10  12  17-44.8734 101.144   4
  10 -12 -17-291.716 285.494   6
 -10  12  18 16.0801 135.687   1
  10 -12 -18 24.7130 226.123   7
 -10  12  18 11.3774 103.852   4
  10 -12 -18 96.5350 272.340   6
 -10  12  19-279.355 155.513   1
  10 -12 -19-74.4485 240.305   7
 -12  10  19-10.4942 110.711   4
 -10  12  19-115.702 114.863   4
  12 -10 -19 175.824 326.204   6
  10 -12 -19 287.200 290.622   6
 -10  12  20 85.1688 148.169   1
  10 -12 -20-74.8037 216.242   7
 -12  10  20 10.6616 91.0917   4
 -10  12  20-11.7950 103.214   4
  12 -10 -20-208.859 300.979   6
  10 -12 -20 316.425 271.951   6
 -10  12  21-87.0449 147.820   1
  10 -12 -21-24.6187 208.369   7
 -12  10  21 43.3779 100.052   4
 -10  12  21 12.0013 103.181   4
  12 -10 -21-103.344 310.091   6
  10 -12 -21 219.364 265.228   6
 -12  10  21 74.9943 127.364   1
 -12  10  22-15.3173 143.190   1
 -10  12  22 17.7966 154.407   1
 -12  10  22 98.9844 95.2144   4
 -10  12  22-12.2622 107.704   4
  12 -10 -22 33.9829 299.093   6
  10 -12 -22 91.9361 261.013   6
 -12  10  23-187.587 132.923   1
 -12  10  23 22.2743 100.256   4
  12 -10 -23 99.4597 306.649   6
 -11  12  13 1067.47 211.574   4
  11 -12 -13 1238.88 368.869   6
 -11  12  13 1679.31 232.412   1
 -11  12  14 146.214 95.7679   4
  11 -12 -14 138.570 315.862   6
 -11  12  15 924.277 176.411   4
  11 -12 -15 935.883 374.481   6
 -11  12  16-58.5048 134.201   1
  11 -12 -16 81.1923 215.031   7
 -11  12  16 97.2198 101.729   4
  11 -12 -16-416.208 344.988   6
 -11  12  17 896.898 183.451   1
  11 -12 -17 597.085 289.509   7
 -11  12  17 517.106 145.582   4
  11 -12 -17 795.797 361.807   6
 -11  12  18 30.6707 142.190   1
  11 -12 -18-54.5072 206.312   7
 -12  11  18-63.5392 87.0964   4
 -11  12  18 89.4104 93.1249   4
  12 -11 -18 500.768 342.659   6
  11 -12 -18-68.8298 300.228   6
 -11  12  19 15.6668 131.342   1
  11 -12 -19-81.6383 204.376   7
 -12  11  19 21.5271 97.1571   4
 -11  12  19-11.3356 107.261   4
  12 -11 -19 35.6280 314.437   6
  11 -12 -19-307.422 295.338   6
 -12  11  19 14.7573 120.525   1
 -11  12  20-160.872 148.753   1
  11 -12 -20 27.3293 217.123   7
 -12  11  20 10.9465 101.748   4
 -11  12  20 69.0809 101.905   4
  12 -11 -20 70.7298 290.756   6
  11 -12 -20-270.641 288.978   6
 -12  11  20 45.2496 128.049   1
 -12  11  21-33.3469 100.407   4
 -11  12  21-175.646 114.059   4
  12 -11 -21-69.9632 309.025   6
  11 -12 -21-132.526 293.551   6
 -12  12  18 97.5828 111.453   4
  12 -12 -18 144.426 311.406   6
 -12  12  18 576.087 146.240   1
 -12  12  19 88.2249 109.018   4
  12 -12 -19-357.062 310.593   6
   0  13   0-183.746 169.528   2
   0  13   0 190.976 173.807   3
   0 -13   0-14.7445 125.193   5
   0 -13   0 71.5699 81.8828   8
   0  13   0-18.1802 81.4009   4
   0 -13  -1 102.650 116.863   6
   0  13  -1 255.155 184.433   2
   0  13   1 224.281 157.260   3
   0  13  -1 117.262 168.660   3
   0 -13  -1 339.338 134.876   5
   0 -13   1 147.377 125.783   5
   0 -13  -1 344.277 93.0191   8
   0 -13  -1 506.774 105.275   7
   0 -13   1 254.243 92.4922   8
   0  13   1 217.084 96.5787   4
   0  13   1 469.541 169.841   2
   0 -13  -2 60.1440 114.702   6
   0  13   2 18.2806 159.471   3
   0  13  -2-20.0095 166.136   3
   0  13  -2 65.8300 172.468   2
   0 -13  -2-44.2562 124.065   5
   0 -13   2-14.6846 112.021   5
   0 -13  -2 34.8990 83.3749   8
   0 -13   2-18.5858 80.1076   8
   0 -13  -2 29.9306 91.7682   7
   0  13   2-19.6035 87.9847   4
   0  13   2-93.9536 138.864   2
   0 -13  -3 1141.08 204.913   6
   0  13   3 822.672 235.196   3
   0  13  -3 1044.26 242.603   3
   0  13  -3 706.469 235.557   2
   0 -13  -3 1224.00 211.470   5
   0 -13   3 1009.05 201.449   5
   0 -13  -3 1132.67 175.210   8
   0 -13   3 884.805 178.008   8
   0 -13  -3 959.393 179.906   7
   0  13   3 962.302 220.717   2
   0  13   3 1505.87 189.001   4
   0 -13  -4-31.6398 117.391   6
   0  13  -4-20.9317 176.594   3
   0  13  -4 211.859 191.605   2
   0 -13   4 247.509 131.778   5
   0 -13   4 69.2993 89.6067   8
   0 -13  -4-104.269 92.5536   7
   0  13   4-63.7475 95.9025   4
   0  13  -5 3119.89 547.107   3
   0 -13   5 3672.67 522.327   5
   0 -13   5 3882.03 511.351   8
   0 -13  -5 3489.76 511.148   7
   0  13   5 3559.67 510.697   4
   0  13  -5 3334.59 557.202   2
   0 -13  -5 3730.78 527.981   6
   0 -13  -6-99.3079 127.892   6
   0  13  -6 87.1955 199.028   3
   0 -13   6 115.859 122.755   5
   0 -13   6-42.5332 95.4281   8
   0 -13  -6-118.731 96.0497   7
   0  13   6-137.004 110.906   4
   0  13  -6 152.131 211.993   2
   0  13  -7 4528.39 833.059   3
   0 -13   7 5825.18 813.088   5
   0  13   7 6690.75 809.088   4
   0 -13  -7 5458.05 814.457   6
   0 -13  -8 52.0364 132.828   6
   0 -13  -8-32.7709 91.8688   7
   0  13   8 24.6394 107.155   4
   0  13  -9 2395.75 432.590   2
   0  13   9 3233.97 374.303   4
   0 -13  -9 3317.75 392.253   6
   0  13 -10-23.0639 177.988   3
   0 -13  10 70.6850 111.958   5
   0 -13  10-12.2608 103.810   8
   0  13 -10 86.0425 249.480   2
   0 -13 -11 640.882 160.200   6
   0  13 -11 23.2867 203.302   3
   0 -13  11 517.846 139.728   5
   0  13 -11 440.869 248.598   2
   0 -13  11 161.940 135.518   8
   0 -13 -11 181.574 113.898   7
   0  13  11 602.037 144.121   4
   0  13 -12-23.4587 208.328   3
   0 -13  12 224.109 133.696   5
   0 -13  12 103.246 135.187   8
   0  13 -12 29.9872 291.554   2
   0 -13 -12 278.387 126.141   7
   0  13  12 423.642 174.289   4
   0 -13  13 112.206 115.543   5
   0  13 -13 118.129 185.161   3
   0 -13  13 52.2736 118.504   8
   0  13 -13-213.800 270.428   2
   0 -13 -13 105.484 99.7653   7
   0  13  13-43.6612 129.385   4
   0  13 -14-23.7367 199.181   3
   0 -13  14-84.4074 114.446   5
   0 -13  14-27.0276 120.262   8
   0  13 -14-123.974 264.888   2
   0 -13 -14-120.290 104.364   7
   0  13  14 14.9677 132.381   4
   0  13  15 123.307 139.745   4
   0  13 -15 47.6990 189.824   3
   0 -13  15 353.762 116.459   5
   0 -13  15 13.6482 129.343   8
   0  13 -15-156.794 242.762   2
   0 -13 -15 197.789 119.469   7
   0  13 -16 23.9193 190.718   3
   0 -13  16 14.2482 117.165   5
   0 -13  17 688.969 159.840   5
   0  13 -17 359.322 213.484   3
   0  13 -18 23.9538 181.352   3
   0 -13  18 43.4127 114.608   5
   0 -13  18 14.3318 139.327   8
   0  13 -18-32.0958 270.799   2
   0 -13  19 1633.28 284.364   5
   0 -13  19 1778.42 288.518   8
   0  13 -19 1221.45 346.716   3
   0  13 -19 2065.71 398.465   2
   0 -13  20 29.4072 110.630   5
   0  13 -20 95.8396 189.796   3
   0  13 -20 259.472 279.671   2
   0 -13  20 14.5952 128.615   8
   0 -13  21 1859.50 252.002   8
   0 -13  21 1668.84 245.189   5
   0  13 -21 1467.02 370.180   2
   0 -13  22 137.718 142.983   8
   0 -13  22-75.5918 123.076   5
   0  13 -22-119.909 187.819   3
   0  13 -22 327.700 285.036   2
   0 -13  23 900.205 176.404   8
   0 -13  23 446.062 160.897   5
   0  13 -23 119.980 197.874   3
   0  13 -23 527.376 308.386   2
   0 -13  24-141.955 155.904   8
   0 -13  24 125.581 144.105   5
   0  13 -24 72.2657 196.803   3
   0  13 -24 331.791 313.200   2
   0 -13  25 360.710 145.783   8
   0 -13  25-159.917 131.923   5
   0  13 -25-290.576 177.483   3
   0  13 -25 133.799 275.015   2
   0 -13  26-48.0846 150.519   8
   0 -13  26 32.6474 128.302   5
   0  13 -26 122.208 177.641   3
   0  13 -26-303.858 284.836   2
   0 -13  27-16.4263 146.215   8
   0 -13  27 16.6978 138.639   5
   0  13 -27 102.368 291.476   2
   0  13 -27-49.5258 176.897   3
   1 -13   0-151.658 106.840   6
  -1  13   0 291.262 182.587   2
  -1 -13   0-35.5276 140.672   5
  -1  13   0-19.3027 166.934   3
   1 -13   0 74.8697 105.665   5
  -1 -13   0-27.7163 82.0829   8
  -1  13   0 163.630 117.245   1
   1 -13   0 29.8848 91.2121   7
   1 -13   0 8.94209 80.1250   8
  -1  13   0-8.42061 78.5533   4
   1  13   0 381.528 158.438   2
   1 -13  -1 199.406 125.291   6
  -1  13   1 39.9462 162.578   2
  -1  13   1-18.8849 168.389   3
  -1 -13  -1 125.231 146.229   5
  -1 -13   1 387.920 164.924   5
  -1  13  -1-19.7190 164.330   3
  -1  13  -1 21.6486 181.064   2
   1 -13  -1 161.879 114.202   5
   1 -13   1 212.546 111.540   5
  -1 -13   1 269.874 94.4458   8
   1 -13  -1 329.980 99.7080   8
   1 -13   1 316.184 93.5629   8
  -1 -13  -1 209.386 84.6473   8
   1 -13  -1 232.819 98.9634   7
  -1 -13  -1 228.702 96.0642   7
  -1  13   1 264.634 91.7553   4
   1  13   1 331.533 159.409   2
   1  13  -1 124.883 169.194   2
   1 -13  -2 338.148 129.815   6
   1  13  -2 299.807 173.287   2
  -1  13   2 629.972 188.455   2
   1  13  -2 202.313 188.959   3
  -1  13   2 756.397 192.764   3
  -1 -13  -2 305.967 157.372   5
  -1 -13   2 542.118 164.600   5
  -1  13  -2 201.114 181.554   3
   1 -13  -2 261.337 119.594   5
   1 -13   2 413.492 125.688   5
  -1  13  -2 540.660 205.003   2
  -1 -13   2 506.387 108.532   8
   1 -13  -2 442.197 100.528   8
   1 -13   2 499.711 107.380   8
   1 -13  -2 226.185 106.475   7
  -1 -13  -2 409.567 108.543   7
   1  13   2 133.598 155.719   2
  -1  13   2 349.029 105.578   4
   1 -13  -3-30.2212 122.611   6
   1  13  -3-22.2805 170.943   2
   1  13  -3 41.1421 170.567   3
  -1 -13  -3 217.018 154.839   5
  -1 -13   3 34.7064 141.637   5
  -1  13  -3 163.595 162.228   3
   1 -13   3 179.662 109.451   5
  -1 -13   3 114.139 87.6574   8
   1 -13   3 151.676 95.0570   8
  -1  13  -3 23.3678 189.850   2
   1 -13  -3-10.4887 94.2147   7
  -1 -13  -3 38.0599 79.4434   7
  -1  13   3 95.5466 88.0485   4
   1 -13  -4 1431.74 277.250   6
   1  13  -4 1631.33 311.683   3
   1  13  -4 1653.15 325.154   2
   1 -13   4 1772.58 267.796   5
  -1 -13  -4 1592.98 293.912   5
  -1 -13   4 1016.37 277.565   5
  -1  13  -4 1388.82 303.151   3
  -1 -13   4 1962.60 259.923   8
   1 -13   4 1656.46 258.988   8
  -1  13  -4 1671.43 332.609   2
   1 -13  -4 1876.81 261.832   7
  -1 -13  -4 1958.26 256.728   7
  -1  13   4 1516.83 259.294   4
   1 -13  -5 176.095 131.300   6
   1  13  -5 106.581 185.489   3
   1  13  -5 118.412 177.948   2
  -1 -13   5 34.2149 136.510   5
  -1  13  -5-62.9241 179.254   3
   1 -13   5 12.7585 105.392   5
  -1 -13   5 9.87913 87.8682   8
   1 -13   5 10.8789 98.6245   8
  -1  13  -5 276.502 228.199   2
   1 -13  -5 43.2623 91.1323   7
  -1 -13  -5 19.2137 84.4839   7
  -1  13   5 51.7575 93.3464   4
   1  13  -6 4110.62 642.800   3
  -1  13  -6 3815.64 638.035   3
  -1 -13   6 4732.97 623.446   5
   1 -13   6 3686.21 606.527   5
  -1 -13   6 4344.26 604.035   8
   1 -13   6 4661.48 608.916   8
  -1 -13  -6 4452.78 603.052   7
  -1  13   6 4354.16 605.158   4
   1 -13  -6 4457.45 622.136   6
  -1  13  -6 4297.67 659.614   2
   1 -13  -7 84.1068 140.272   6
   1  13  -7-155.386 180.800   3
  -1 -13   7 32.8197 139.033   5
  -1  13  -7-171.029 188.793   3
   1 -13   7 75.4520 97.9795   5
   1 -13  -7 167.586 102.431   7
  -1 -13  -7 39.0580 87.1655   7
  -1  13   7 55.5834 101.651   4
   1 -13  -8 3631.54 565.137   7
  -1  13   8 4423.08 568.471   4
   1 -13  -8 3972.03 583.114   6
   1  13  -9-81.1511 220.927   2
  -1 -13   9 22.2778 98.3249   8
  -1  13  -9-142.320 245.374   2
  -1 -13  10 693.481 162.109   8
   1  13 -10 211.718 240.325   3
  -1 -13  10 1045.95 192.575   5
   1  13 -10 471.453 247.974   2
   1 -13  10 828.322 163.831   5
   1 -13  10 584.495 175.314   8
  -1  13 -10 698.996 276.160   2
   1 -13 -10 941.358 160.277   7
   1 -13 -11-73.4606 141.755   6
   1  13 -11-333.880 225.121   3
  -1 -13  11-32.0317 133.890   5
   1 -13  11 89.9705 104.683   5
   1  13 -11-485.938 303.621   2
  -1 -13  11 35.8156 113.024   8
   1 -13  11 40.5113 118.205   8
  -1  13 -11-446.199 307.706   2
   1 -13 -11-11.9787 108.483   7
  -1  13 -11-177.354 199.588   3
  -1  13  11 76.3392 121.642   4
   1 -13 -12 317.632 176.226   6
   1  13 -12 144.841 231.497   3
  -1 -13  12-31.8783 144.656   5
   1 -13  12 78.5154 125.808   5
   1  13 -12-264.168 286.137   2
  -1  13 -12 88.9477 205.354   3
  -1 -13  12 157.822 123.377   8
   1 -13  12-95.7017 128.503   8
  -1  13 -12 30.2408 290.594   2
   1 -13 -12 134.323 123.824   7
  -1  13  12 184.440 138.658   4
   1 -13 -13-76.0336 152.653   6
   1  13 -13 195.146 197.907   3
  -1 -13  13 31.4979 126.491   5
   1 -13  13 52.8061 100.379   5
   1  13 -13-59.8542 250.112   2
  -1 -13  13 188.058 113.525   8
  -1  13 -13 245.121 180.182   3
   1 -13  13-56.7255 125.923   8
  -1  13 -13 153.504 249.913   2
   1 -13 -13-62.5976 109.269   7
  -1  13  13-108.498 120.087   4
   1 -13 -14 348.950 141.736   6
   1  13 -14-98.5161 197.228   3
  -1 -13  14 108.877 120.301   5
   1 -13  14-39.9909 113.120   5
  -1 -13  14-63.5355 111.486   8
   1  13 -14 367.297 250.113   2
  -1  13 -14 44.5780 170.886   3
  -1  13 -14 310.478 274.140   2
   1 -13 -14 38.3799 116.089   7
   1 -13  14 42.9640 134.403   8
  -1  13  14 84.2590 125.630   4
   1 -13 -15 39.3347 158.578   6
   1  13 -15-24.8085 204.737   3
  -1 -13  15 46.0917 128.956   5
   1 -13  15 94.3069 114.548   5
  -1 -13  15 170.110 122.419   8
   1 -13  15 74.3436 134.356   8
  -1  13 -15-44.5960 160.111   3
  -1  13 -15-188.205 278.494   2
   1 -13 -15-52.3564 108.508   7
  -1  13  15 101.130 125.445   4
   1 -13 -16 39.8530 149.096   6
   1  13 -16-99.9731 200.694   3
  -1 -13  16 90.6745 133.035   5
   1 -13  16-13.6060 118.741   5
  -1  13 -16 156.173 173.471   3
   1 -13  16 29.9948 145.103   8
  -1  13 -16 31.6316 256.617   2
   1 -13 -16 93.8678 111.751   7
  -1  13  16-104.773 136.251   4
   1 -13 -17 101.437 151.601   6
  -1 -13  17-378.229 132.883   5
   1  13 -17-75.3249 200.525   3
   1 -13  17 123.732 120.851   5
  -1 -13  17-272.447 125.514   8
   1  13 -17 31.8708 266.588   2
  -1  13 -17 22.3890 158.253   3
   1 -13 -17 13.7481 117.659   7
  -1  13  17-77.6331 141.779   4
   1 -13 -18 800.733 248.161   6
  -1 -13  18 1428.13 233.885   5
   1  13 -18 1034.39 287.570   3
   1 -13  18 1563.68 229.631   5
   1  13 -18 353.525 326.651   2
  -1  13 -18 402.075 249.575   3
  -1 -13  18 1650.04 234.812   8
   1 -13 -18 1636.09 234.918   7
  -1  13  18 1213.74 245.562   4
  -1 -13  19 30.5341 142.194   5
   1  13 -19 252.974 205.664   3
  -1 -13  19 180.415 136.831   8
   1 -13  19 14.1980 118.671   5
   1 -13  19 15.4120 142.416   8
   1  13 -19 194.499 290.495   2
  -1  13 -19 45.4395 171.175   3
   1 -13 -19 188.141 128.088   7
  -1  13 -19 482.901 293.285   2
  -1  13  19 32.8940 147.445   4
  -1 -13  20 875.069 216.331   5
   1 -13  20 1340.53 231.613   8
   1  13 -20 481.339 278.092   3
   1  13 -20 1010.44 339.588   2
  -1  13 -20 500.393 250.000   3
  -1  13 -20 939.063 325.843   2
  -1 -13  20 1638.71 231.265   8
   1 -13  20 1360.98 225.960   5
  -1  13  20 2044.86 256.510   4
  -1 -13  21-15.4474 125.975   5
  -1 -13  21 14.1452 126.506   8
   1 -13  21-519.615 154.987   8
   1 -13  21 14.8013 121.940   5
   1  13 -21 101.290 181.853   3
   1  13 -21 98.3001 295.047   2
  -1  13 -21 68.5103 187.294   3
  -1  13 -21 325.732 284.260   2
   1  13 -22 379.717 249.848   3
  -1 -13  22 900.942 204.873   5
  -1 -13  22 1080.73 213.212   8
   1 -13  22 1136.99 224.726   8
   1 -13  22 1813.02 213.332   5
   1  13 -22 428.046 306.992   2
  -1  13 -22 344.480 238.288   3
  -1  13 -22 1180.36 333.786   2
  -1 -13  23-15.6267 140.278   5
   1 -13  23-113.992 146.183   8
   1 -13  23-15.4451 126.147   5
   1  13 -23 124.935 191.350   3
   1  13 -23 99.2825 268.462   2
  -1  13 -23 23.1784 168.463   3
  -1  13 -23 297.252 284.713   2
  -1 -13  23 29.5791 135.320   8
  -1 -13  24 345.112 170.291   8
  -1 -13  24 347.724 159.823   5
   1 -13  24 963.216 196.169   8
   1 -13  24 332.285 167.163   5
   1  13 -24 665.769 338.422   2
   1  13 -24 423.626 210.797   3
  -1  13 -24 469.650 214.190   3
  -1  13 -24 1166.30 361.473   2
  -1 -13  25-61.0164 139.573   8
  -1 -13  25 48.0069 138.781   5
   1 -13  25 16.9714 148.493   8
   1 -13  25-80.3101 131.626   5
   1  13 -25 33.5138 279.167   2
   1  13 -25 323.910 217.362   3
  -1  13 -25 23.8759 178.607   3
  -1  13 -25 33.6542 286.596   2
  -1 -13  26 45.6790 153.330   8
   1 -13  26 87.0190 171.993   8
   1 -13  26 114.231 128.880   5
   1  13 -26 33.7727 267.658   2
  -1 -13  26 81.2752 130.664   5
   1  13 -26 24.9862 194.647   3
  -1  13 -26 170.486 169.030   3
  -1  13 -26 272.343 273.613   2
  -1 -13  27-140.128 140.922   8
   1 -13  27 268.514 176.432   8
  -1 -13  27 16.5499 133.338   5
   1  13 -27 102.242 291.119   2
   1 -13  27-16.6340 132.154   5
   1  13 -27 100.395 171.253   3
  -1  13 -27-74.7967 178.108   3
  -1  13 -27-103.570 274.277   2
  -1 -13  28 50.6149 155.745   5
   1  13 -28 50.6045 196.813   3
  -2  13   0 275.399 131.897   1
  -2 -13   0 65.5604 179.474   5
  -2  13   0 114.080 161.499   3
   2 -13   0 138.942 98.7047   5
  -2  13   0 448.081 199.301   2
   2 -13   0 252.571 95.8413   8
   2 -13   0 341.134 111.519   7
  -2  13   0 190.338 84.6207   4
   2  13   0 183.020 160.637   2
   2 -13   0 422.383 136.607   6
  -2 -13  -1 110.781 188.095   5
  -2 -13   1 62.9823 168.557   5
  -2  13   1 20.4256 165.692   2
  -2  13   1 225.580 163.020   3
  -2  13  -1 19.1834 164.868   3
   2 -13  -1 62.4589 88.6478   5
   2 -13   1 74.6360 87.6610   5
   2 -13  -1-53.2947 83.6244   8
  -2  13  -1-199.269 189.709   2
   2 -13   1-39.3278 87.7642   8
  -2  13   1-14.0035 125.001   1
   2 -13  -1-77.4047 94.1660   7
  -2  13  -1 24.4360 109.978   1
  -2 -13  -1 60.5933 76.1758   7
  -2  13  -1-134.346 74.0239   4
  -2  13   1 8.60669 76.8270   4
  -2 -13   1 57.3502 82.1473   8
   2  13  -1-82.4126 148.467   2
   2 -13  -1 134.041 131.820   6
  -2 -13   2 202.988 93.3422   8
  -2 -13  -2 22.4392 179.128   5
  -2 -13   2 20.6577 166.202   5
  -2  13   2-58.7333 157.612   2
  -2  13   2-73.3388 133.183   1
  -2  13   2 110.551 155.940   3
  -2  13  -2-78.2232 162.784   3
   2 -13   2 204.248 97.0073   5
   2 -13   2 20.3982 96.1581   8
  -2  13  -2 92.4720 202.427   2
   2 -13  -2 44.0334 105.619   7
  -2 -13  -2 321.021 86.5073   7
  -2  13   2 242.601 85.7515   4
   2  13  -2 105.419 158.053   2
   2 -13  -2 122.989 125.088   6
  -2 -13  -3-45.3493 183.920   5
  -2 -13   3 304.834 175.823   5
   2 -13   3 33.0280 92.9209   5
  -2 -13   3 97.7523 90.6825   8
  -2  13  -3 98.6120 162.840   3
   2 -13   3 205.898 104.132   8
  -2  13  -3 143.846 205.962   2
   2 -13  -3 110.955 102.346   7
  -2 -13  -3 235.260 79.8495   7
  -2  13   3 15.3005 128.735   1
  -2  13   3 55.9048 86.7787   4
   2  13  -3-43.4778 171.517   2
   2 -13  -3 78.2748 130.841   6
  -2  13   4 222.293 143.324   1
  -2 -13  -4 68.5027 183.971   5
  -2 -13   4-80.0557 159.572   5
   2 -13   4-44.3791 94.4896   5
  -2 -13   4-68.7337 87.9047   8
  -2  13  -4-158.718 181.039   3
   2 -13   4 67.9058 101.600   8
  -2  13  -4 99.4393 191.823   2
   2 -13  -4-89.5869 101.640   7
  -2 -13  -4 35.0560 76.2387   7
  -2  13   4-9.66089 82.0259   4
   2 -13  -4-32.2433 133.427   6
   2  13  -4-44.5948 180.880   2
   2  13  -5 1789.40 341.842   2
   2  13  -5 2223.43 346.091   3
  -2 -13   5 2051.18 328.049   5
  -2 -13   5 1928.25 281.283   8
   2 -13   5 2141.29 294.237   8
   2 -13   5 1388.43 281.889   5
  -2  13  -5 2100.76 336.477   3
  -2  13   5 2328.22 287.226   4
  -2  13  -5 2212.45 370.489   2
   2 -13  -5 1535.55 286.561   7
   2 -13  -5 1727.90 303.459   6
   2 -13  -6-33.7940 140.757   6
   2  13  -6-43.6810 193.865   3
  -2 -13   6-18.9338 135.857   5
   2 -13   6 68.0004 88.4431   5
  -2  13  -6-60.9556 158.544   3
   2 -13   6 49.5259 118.619   8
  -2  13  -6-106.296 220.645   2
   2 -13  -6-68.6035 97.9804   7
  -2  13   6-30.9486 96.8895   4
   2 -13  -7 1857.96 339.102   6
   2 -13   7 1759.75 317.411   5
  -2  13  -7 2060.05 356.724   3
   2 -13  -7 2141.59 321.256   7
  -2  13   7 2842.72 326.304   4
   2 -13  -8-17.4431 142.955   6
   2  13  -8-101.487 209.987   2
  -2 -13   8-31.3912 90.5041   8
  -2  13   8 22.0029 104.902   4
   2  13  -9 710.836 258.828   3
   2  13  -9 653.728 240.867   2
  -2 -13   9 826.090 202.323   5
  -2 -13   9 1007.15 163.995   8
  -2  13  -9 634.517 286.734   2
   2  13 -10 93.5090 189.666   3
   2  13 -10-350.311 228.791   2
  -2 -13  10-18.1596 152.761   5
   2 -13  10-72.1954 96.3317   5
  -2 -13  10 120.977 100.950   8
  -2  13 -10 124.864 152.565   3
   2 -13  10-129.779 136.824   8
   2 -13 -10-84.6076 110.639   7
   2 -13 -11-276.913 158.666   6
   2  13 -11 309.867 230.007   3
  -2 -13  11-143.802 157.736   5
  -2 -13  11 135.791 113.325   8
   2 -13  11-12.2710 107.058   5
   2 -13  11 131.539 143.058   8
  -2  13 -11 166.618 177.368   3
   2 -13 -11-110.626 120.878   7
  -2  13  11-60.4538 121.622   4
   2 -13 -12-169.138 163.628   6
   2  13 -12-145.805 228.090   3
  -2 -13  12-140.149 113.100   8
   2  13 -12-56.7281 247.865   2
  -2 -13  12-260.691 162.615   5
   2 -13  12-49.7024 110.943   5
   2 -13  12 15.2462 147.134   8
  -2  13 -12-62.5400 181.908   3
   2 -13 -12-124.588 116.721   7
  -2  13  12-87.4798 121.182   4
   2 -13 -13 57.3104 151.232   6
   2 -13  13-75.5118 113.284   5
   2  13 -13-24.7618 204.255   3
   2  13 -13 87.3638 244.133   2
  -2 -13  13 17.2683 139.602   5
  -2 -13  13 11.8859 106.098   8
   2 -13  13 15.4113 139.487   8
  -2  13 -13 125.538 146.821   3
   2 -13 -13 88.8220 105.695   7
  -2  13  13-128.460 116.585   4
   2 -13 -14 135.978 142.088   6
   2  13 -14-100.456 212.084   3
  -2 -13  14 120.214 145.641   5
  -2 -13  14 24.5403 117.055   8
   2 -13  14-89.6809 111.497   5
   2 -13  14 112.517 146.180   8
  -2  13 -14 234.053 161.335   3
   2 -13 -14 258.688 119.340   7
  -2  13  14 13.2225 126.083   4
   2 -13 -15-59.4000 147.012   6
   2  13 -15-127.163 222.574   3
  -2 -13  15 17.0799 133.855   5
   2 -13  15-143.603 103.845   5
   2 -13  15 16.2316 147.402   8
  -2  13 -15-84.9651 160.241   3
   2 -13 -15 13.1931 117.217   7
  -2  13  15 27.2760 123.206   4
   2 -13 -16 20.1197 161.506   6
   2  13 -16-77.1534 207.611   3
  -2 -13  16-50.5936 138.353   5
   2  13 -16-307.995 272.138   2
  -2 -13  16-347.248 127.141   8
   2 -13  16-93.3798 101.038   5
   2 -13  16-98.3564 147.322   8
  -2  13 -16-85.0768 155.787   3
   2 -13 -16 13.4686 111.140   7
  -2  13  16 14.0773 122.418   4
   2 -13 -17 306.181 168.869   6
   2  13 -17 51.9680 201.548   3
  -2 -13  17 116.503 140.350   5
   2  13 -17-62.7845 262.876   2
  -2 -13  17 91.1538 107.617   8
   2 -13  17 353.842 123.097   5
   2 -13  17 414.027 161.682   8
  -2  13 -17 85.3951 162.584   3
   2 -13 -17 206.279 126.352   7
  -2  13  17 260.327 148.891   4
   2 -13 -18-82.8690 156.836   6
   2  13 -18 130.949 219.569   3
  -2 -13  18-80.7774 143.006   5
   2  13 -18-222.099 271.034   2
  -2 -13  18 147.073 120.037   8
   2 -13  18 13.9453 124.150   5
  -2  13 -18 85.8590 161.219   3
   2 -13 -18 56.2276 110.904   7
  -2  13  18-298.874 141.766   4
   2 -13 -19 484.976 199.829   6
  -2 -13  19 758.176 174.088   5
   2  13 -19-158.351 246.012   3
   2  13 -19 256.054 300.591   2
  -2 -13  19 973.255 173.793   8
   2 -13  19 955.523 167.106   5
  -2  13 -19 238.204 182.022   3
   2 -13 -19 546.104 159.900   7
  -2  13  19 618.392 174.136   4
   2 -13 -20-21.3640 173.892   6
  -2 -13  20 80.6499 138.625   5
   2  13 -20 238.717 208.472   3
  -2 -13  20 40.9895 119.890   8
   2 -13  20 17.1988 155.665   8
   2 -13  20 14.6099 115.245   5
  -2  13 -20-22.0807 163.177   3
   2  13 -20-550.864 271.651   2
  -2  13  20-80.0642 137.619   4
   2 -13 -21 432.372 214.141   6
   2  13 -21 456.599 302.936   2
   2  13 -21 78.8968 231.358   3
  -2 -13  21 1132.21 184.917   8
   2 -13  21 978.783 202.611   8
   2 -13  21 749.702 172.914   5
  -2 -13  21 921.897 179.874   5
  -2  13 -21 246.146 201.445   3
   2 -13 -21 511.582 176.219   7
  -2  13  21 1169.95 198.821   4
   2 -13 -22 131.193 168.089   6
  -2 -13  22-97.3395 136.018   5
   2  13 -22-327.984 274.966   2
  -2 -13  22 13.9633 123.248   8
   2  13 -22-210.716 204.766   3
   2 -13  22 53.4071 168.456   8
   2 -13  22 91.4421 128.185   5
  -2  13 -22-159.213 166.016   3
   2 -13 -22 61.5723 131.904   7
  -2  13  22-51.3268 161.895   4
  -2 -13  23 276.762 147.452   5
   2  13 -23 461.803 280.019   2
  -2 -13  23 402.594 143.886   8
   2 -13  23 123.986 136.985   5
   2  13 -23 289.638 207.464   3
  -2  13 -23 115.953 173.501   3
   2 -13  23 18.1722 173.585   8
   2 -13 -23 409.099 148.924   7
  -2  13  23 582.159 183.398   4
   2  13 -24 165.859 306.461   2
  -2 -13  24-162.383 152.794   5
  -2 -13  24 189.492 150.599   8
   2 -13  24 502.215 205.671   8
   2  13 -24 78.9603 226.244   3
   2 -13  24 63.6936 155.450   5
  -2  13 -24 213.572 200.393   3
   2 -13 -24 241.266 166.313   7
  -2  13  24 127.139 199.393   4
   2  13 -25 52.6062 187.133   3
   2  13 -25 33.3677 285.067   2
  -2 -13  25 29.6112 130.377   8
  -2 -13  25 179.298 145.166   5
   2 -13  25 19.0868 165.588   8
   2 -13  25-16.2780 135.236   5
  -2  13 -25-72.9729 173.064   3
   2  13 -26 201.651 280.925   2
  -2 -13  26 15.0663 138.359   8
  -2 -13  26-16.4503 127.089   5
   2 -13  26-176.890 178.004   8
   2  13 -26-184.600 194.989   3
  -2  13 -26-75.0470 177.242   3
   2  13 -27 67.7648 258.635   2
  -2 -13  27 241.882 139.356   8
  -2 -13  27 132.880 150.616   5
   2  13 -27-184.010 203.040   3
  -2  13 -27-128.448 186.143   3
  -2 -13  28 67.3255 149.864   5
   2  13 -28-210.175 205.019   3
  -3 -13   0 1371.88 288.495   5
  -3  13   0 1041.33 189.511   1
   3 -13   0 960.811 170.673   5
  -3  13   0 879.268 208.170   3
   3 -13   0 1209.70 181.929   8
  -3  13   0 1176.04 254.600   2
   3 -13   0 800.738 185.032   7
  -3  13   0 894.735 163.347   4
   3 -13   0 1238.28 217.715   6
  -3  13  -1 103.211 103.234   1
  -3 -13   1 50.2164 170.495   5
   3 -13   1 19.5451 82.1964   5
  -3  13   1-17.8739 131.552   3
  -3  13  -1 146.121 153.615   3
   3 -13   1-63.7233 101.995   8
  -3  13   1-62.6224 174.999   2
  -3  13   1-13.1193 115.124   1
  -3  13  -1-22.6321 189.131   2
   3 -13  -1-75.4166 109.334   7
  -3  13  -1 55.8991 75.0009   4
  -3  13   1-8.55952 85.3373   4
   3 -13  -1-16.3535 145.161   6
  -3 -13   2 636.497 205.012   5
   3 -13   2 39.8092 82.1441   5
  -3  13  -2 365.957 150.718   3
   3 -13   2 239.239 117.573   8
  -3  13  -2 70.4884 198.214   2
   3 -13  -2 246.098 117.735   7
  -3  13   2 151.229 134.127   1
  -3  13   2 398.212 93.6250   4
   3 -13  -2 269.037 138.140   6
  -3  13   3-14.6959 128.585   1
  -3 -13   3-23.8908 180.850   5
   3 -13   3 102.070 89.0538   5
   3 -13   3-47.8679 114.087   8
  -3  13  -3-55.8570 149.495   3
   3 -13  -3 12.2733 108.640   7
  -3  13  -3-268.309 204.490   2
  -3  13   3 72.9844 84.3710   4
   3  13  -3 130.198 166.179   2
   3 -13  -3-119.360 139.732   6
  -3 -13   4 233.473 186.240   5
  -3  13   4 15.4033 130.088   1
   3 -13   4 25.2153 114.888   8
  -3  13  -4 18.6497 142.940   3
   3 -13  -4 60.6605 108.157   7
   3 -13   4-20.7864 85.6578   5
  -3  13  -4-126.521 222.117   2
  -3  13   4 94.4610 93.7190   4
   3 -13  -4 138.336 146.007   6
  -3 -13   5-111.136 169.610   5
   3 -13   5-84.5599 82.5753   5
   3 -13   5 53.0944 121.514   8
  -3  13  -5 18.9703 137.350   3
  -3  13   5 16.0869 140.395   1
   3 -13  -5 12.1512 101.626   7
  -3  13   5-9.77712 89.5483   4
   3 -13  -5-194.915 149.549   6
  -3  13   6 452.985 178.678   1
   3 -13   6 616.761 145.190   5
   3 -13   6 1063.10 185.636   8
  -3  13  -6 778.859 187.139   3
   3 -13  -6 621.301 157.198   7
  -3  13   6 798.641 145.791   4
   3 -13  -6 896.125 193.373   6
  -3 -13   7 176.572 91.8386   8
   3 -13   7 54.9974 90.9053   5
  -3  13  -7 77.2925 137.545   3
  -3  13   7-103.879 99.1836   4
   3 -13  -7 36.2273 154.354   6
   3  13  -7-47.4550 193.863   2
   3  13  -8 170.960 195.793   2
  -3 -13   8 452.762 112.689   8
   3  13  -9 125.815 193.474   2
   3  13  -9-22.7819 195.247   3
  -3 -13   9 80.3648 166.870   5
  -3 -13   9 107.049 96.1880   8
   3 -13   9-31.5937 141.864   8
   3 -13  -9-87.3633 107.347   7
  -3  13   9 129.880 160.001   1
   3  13 -10-207.559 220.757   2
   3  13 -10-115.409 223.752   3
  -3 -13  10-59.5290 168.063   5
  -3 -13  10-109.118 105.325   8
   3 -13  10-80.1934 155.102   8
  -3  13 -10-118.205 169.963   3
  -3  13  10-287.075 182.594   1
   3 -13 -10-188.260 128.211   7
  -3  13  10-79.4393 121.916   4
   3 -13  10-23.4725 104.341   5
   3 -13 -10-56.5703 169.915   6
   3  13 -11-80.1923 213.883   2
   3  13 -11 93.9526 209.680   3
  -3 -13  11 19.6308 179.626   5
  -3 -13  11-55.5013 107.909   8
   3 -13  11-11.9994 111.561   5
   3 -13  11 33.7032 164.569   8
  -3  13 -11 19.7214 164.823   3
   3 -13 -11 165.656 131.828   7
  -3  13  11-34.9738 115.191   4
   3 -13 -11 152.796 168.097   6
   3 -13 -12 328.674 167.534   6
   3  13 -12-27.5207 225.026   2
   3  13 -12 47.8850 206.258   3
  -3 -13  12 428.148 162.997   5
  -3 -13  12 226.913 112.068   8
   3 -13  12 86.0527 95.8405   5
   3 -13  12 17.0669 152.139   8
  -3  13 -12 79.1815 159.271   3
   3 -13 -12 38.6772 112.851   7
  -3  13  12 334.597 127.466   4
   3 -13 -13-19.7075 152.714   6
   3  13 -13-122.202 216.993   3
  -3 -13  13 149.990 147.976   5
  -3 -13  13-127.787 110.032   8
   3 -13  13 100.924 102.457   5
   3 -13  13 411.704 178.110   8
  -3  13 -13 60.4445 145.273   3
   3 -13 -13-39.3144 116.755   7
  -3  13  13 85.9988 117.219   4
   3 -13 -14 317.886 170.880   6
   3  13 -14 249.537 218.362   3
  -3 -13  14 185.757 162.387   5
   3 -13  14 322.936 111.248   5
   3 -13  14 326.070 160.750   8
  -3  13 -14 121.530 160.421   3
   3 -13 -14-26.6587 122.677   7
  -3  13  14 63.2024 117.806   4
   3 -13 -15 100.124 159.653   6
   3  13 -15 88.0773 236.534   2
   3  13 -15-152.968 218.443   3
  -3 -13  15 18.4559 148.178   5
  -3 -13  15-36.3819 109.162   8
   3 -13  15 92.5328 115.316   5
   3 -13  15-73.3354 161.806   8
  -3  13 -15-61.2970 154.664   3
   3 -13 -15 13.5142 113.654   7
  -3  13  15-25.9288 116.374   4
   3 -13 -16-20.3327 175.284   6
   3  13 -16-240.311 250.224   2
   3  13 -16-155.917 227.364   3
  -3 -13  16 91.7505 151.378   5
  -3 -13  16 61.6515 109.773   8
   3 -13  16 203.447 124.109   5
   3 -13  16-92.8522 173.068   8
  -3  13 -16-82.7116 157.145   3
   3 -13 -16 41.2795 118.630   7
  -3  13  16-53.4582 120.314   4
   3 -13 -17 82.4835 164.408   6
   3  13 -17-365.784 259.579   2
   3  13 -17 79.2733 225.719   3
  -3 -13  17 142.904 154.910   5
  -3 -13  17 63.2000 110.914   8
   3 -13  17-150.602 164.223   8
   3 -13  17 13.9329 113.025   5
  -3  13 -17 105.435 164.533   3
   3 -13 -17-84.1306 122.680   7
  -3  13  17-68.9509 132.105   4
   3 -13 -18 62.9843 165.262   6
   3  13 -18 465.945 277.296   2
   3  13 -18 321.519 230.765   3
  -3 -13  18 282.319 161.548   5
  -3 -13  18 205.156 130.907   8
   3 -13  18 248.412 182.753   8
   3 -13  18 198.433 123.533   5
  -3  13 -18 128.551 169.151   3
   3 -13 -18 214.387 143.926   7
  -3  13  18 269.447 145.354   4
   3 -13 -19-106.521 159.531   6
   3  13 -19-376.974 274.947   2
   3  13 -19-27.1301 221.691   3
  -3 -13  19 17.4229 150.820   5
  -3 -13  19 13.1646 117.079   8
   3 -13  19-145.460 145.516   5
  -3  13 -19 21.8235 135.604   3
   3 -13 -20-21.6190 169.299   6
   3  13 -20-380.574 265.811   2
   3  13 -20 81.4596 218.961   3
  -3 -13  20 326.682 158.632   5
  -3 -13  20 253.389 124.357   8
   3 -13  20 133.351 144.764   5
  -3  13 -20 200.672 159.891   3
  -3  13  20 166.064 140.718   4
   3 -13 -21 87.6737 179.607   6
   3  13 -21 257.251 264.377   2
   3  13 -21-82.1905 207.383   3
  -3 -13  21-102.913 143.335   5
  -3 -13  21 13.5057 132.805   8
   3 -13  21 20.2010 188.253   8
   3 -13  21 30.2813 131.692   5
   3 -13 -21-75.8117 130.705   7
  -3  13 -21 68.4720 165.179   3
  -3  13  21 31.0467 135.817   4
   3 -13 -22 355.649 196.338   6
   3  13 -22 32.3930 252.383   2
  -3 -13  22 202.522 142.489   5
   3  13 -22 110.206 210.854   3
  -3 -13  22 68.4059 132.459   8
   3 -13  22 82.6959 188.388   8
   3 -13  22 108.949 137.611   5
   3 -13 -22 46.4004 133.995   7
  -3  13 -22 93.5080 168.576   3
  -3  13  22 192.661 142.293   4
   3 -13 -23 67.5272 174.585   6
   3  13 -23-228.256 315.112   2
  -3 -13  23 16.9115 150.111   5
   3  13 -23-166.289 221.924   3
  -3 -13  23-263.353 135.643   8
   3 -13  23-275.686 205.523   8
   3 -13 -23-63.1096 141.978   7
  -3  13 -23-144.106 184.607   3
  -3  13  23-781.657 184.594   4
   3 -13 -24-251.843 218.296   6
  -3 -13  24 16.9444 154.119   5
  -3 -13  24-28.1132 142.175   8
   3  13 -24-27.7985 226.583   3
   3 -13  24 21.8064 217.041   8
   3 -13 -24-112.648 150.052   7
  -3  13 -24-320.347 210.365   3
  -3  13  24-293.413 171.152   4
   3 -13 -25-115.821 185.987   6
   3  13 -25-264.241 282.150   2
  -3 -13  25-16.9759 142.778   5
  -3 -13  25 130.483 138.557   8
   3  13 -25-109.573 209.779   3
   3 -13 -25 131.314 147.352   7
  -3  13  25-125.587 167.201   4
   3  13 -26-199.562 274.575   2
  -3 -13  26 58.9897 128.358   8
  -3 -13  26 17.0215 142.207   5
   3  13 -26 136.849 206.657   3
   3 -13 -26 284.501 150.206   7
  -3  13  26 18.5318 174.812   4
   3  13 -27 33.5166 271.001   2
  -3 -13  27 75.1667 145.488   8
  -3 -13  27-16.9321 150.366   5
   3  13 -27 54.6954 206.255   3
   3  13 -28-82.1844 231.382   3
  -4  13   0 169.717 143.978   3
   4 -13   0 288.710 148.094   7
  -4  13   0 289.470 92.3480   4
  -4  13   0 264.995 194.766   2
  -4  13   0 364.552 113.024   1
   4 -13   0 18.3118 158.040   6
   4 -13   1 1376.13 245.166   5
   4 -13   1 1662.32 261.849   8
  -4  13  -1 1916.84 247.962   4
  -4  13  -1 2056.71 284.791   3
  -4  13   1 1625.53 246.088   4
   4 -13   1 1302.13 274.784   7
   4 -13  -1 1635.27 272.345   7
  -4  13  -1 1770.67 334.497   2
  -4  13  -1 1637.07 257.774   1
  -4  13   1 1199.77 257.923   1
   4 -13   1 1880.24 293.382   6
   4 -13  -1 1945.21 293.245   6
  -4  13   2 338.486 125.024   1
   4 -13   2 155.186 94.0996   5
   4 -13   2 271.712 125.508   8
  -4  13  -2 34.5986 141.256   3
   4 -13  -2 229.115 128.394   7
  -4  13   2 375.839 100.307   4
   4 -13  -2 187.180 163.183   6
  -4  13   3 312.945 137.366   1
   4 -13   3 219.727 93.0329   5
   4 -13   3 233.295 128.998   8
  -4  13  -3 299.335 145.512   3
   4 -13  -3 235.956 125.624   7
  -4  13   3 339.125 99.2570   4
   4 -13  -3 490.854 178.270   6
  -4  13   4 99.7411 128.166   1
   4 -13   4 51.3200 84.1859   5
   4 -13   4 116.566 132.461   8
  -4  13  -4 53.0154 135.214   3
   4 -13  -4 274.334 130.098   7
  -4  13   4 160.090 91.7979   4
   4 -13  -4 77.0152 170.657   6
   4 -13   5 94.8504 92.0585   5
   4 -13   5 15.4815 129.176   8
  -4  13  -5 161.858 139.221   3
  -4  13   5 273.438 135.076   1
   4 -13  -5 108.595 117.468   7
  -4  13   5 164.666 101.118   4
   4 -13  -5 19.3927 176.292   6
   4 -13   6 151.994 95.9240   5
   4 -13   6 411.992 154.937   8
  -4  13  -6 128.115 145.494   3
  -4  13   6 288.112 101.322   4
   4  13  -6 91.6333 181.728   2
   4 -13  -6 526.553 191.908   6
  -4 -13   7 212.630 187.065   5
  -4 -13   7 74.6598 94.4424   8
   4 -13   7 89.1181 94.4899   5
  -4  13  -7 183.891 145.958   3
   4  13  -7 255.783 194.990   2
  -4  13   8 191.213 171.398   1
  -4 -13   8 69.2324 182.106   5
   4 -13  -8-67.1089 127.094   7
  -4 -13   8 21.5549 94.9737   8
   4  13  -8 118.482 185.638   2
  -4 -13   9-10.9128 94.4320   8
  -4  13   9-142.934 177.498   1
  -4 -13   9-203.414 193.239   5
   4 -13   9-126.182 184.675   8
   4 -13  -9-134.266 133.196   7
  -4  13   9 10.6917 105.214   4
   4  13  -9-169.614 228.269   2
   4 -13  -9 80.3509 187.860   6
  -4 -13  10 86.3767 172.018   5
  -4 -13  10 220.847 101.491   8
   4 -13  10 313.625 118.509   5
   4 -13  10-75.8799 176.450   8
  -4  13  10 18.6343 173.365   1
  -4  13 -10 249.887 157.099   3
   4 -13 -10 134.401 139.172   7
  -4  13  10 54.9891 115.120   4
   4 -13 -10 323.370 200.568   6
   4  13 -10-173.971 226.367   2
   4  13 -11 139.530 192.755   3
  -4 -13  11 212.667 161.584   5
  -4 -13  11 190.363 106.663   8
   4 -13  11 12.3752 95.3972   5
   4 -13  11-212.012 180.815   8
  -4  13 -11 272.259 153.149   3
   4 -13 -11 149.686 120.522   7
  -4  13  11 328.056 122.853   4
  -4  13  11 330.016 168.626   1
   4 -13 -11 670.519 178.418   6
   4  13 -11 153.319 189.651   2
   4  13 -12-26.3086 212.052   2
   4  13 -12-235.929 213.632   3
  -4 -13  12 336.049 172.795   5
  -4  13  12 19.9908 181.539   1
  -4 -13  12 171.256 108.482   8
   4 -13  12 50.9368 103.142   5
   4 -13  12 19.5726 169.853   8
  -4  13 -12-78.8926 134.723   3
   4 -13 -12 13.6474 131.524   7
  -4  13  12 58.1313 106.844   4
   4 -13 -12-20.4264 166.942   6
   4  13 -13 311.627 220.706   3
  -4 -13  13 304.053 182.913   5
   4 -13  13 390.240 210.429   8
  -4  13  13 602.186 202.360   1
   4 -13  13 557.678 136.607   5
  -4  13 -13 241.321 168.673   3
   4 -13 -13 498.184 142.573   7
  -4  13  13 202.213 128.616   4
   4 -13 -13 554.793 182.631   6
   4  13 -14 137.940 224.085   2
   4  13 -14-73.3821 228.235   3
  -4 -13  14 181.166 164.795   5
   4 -13  14 166.885 164.949   8
   4 -13  14 159.801 106.040   5
  -4  13  14 128.496 175.277   1
  -4  13 -14 143.226 150.398   3
   4 -13 -14 69.5333 124.663   7
  -4  13  14-12.2348 110.419   4
   4 -13 -14-61.9318 156.074   6
   4  13 -15 340.427 234.575   2
   4  13 -15 326.221 214.754   3
  -4 -13  15 479.025 186.293   5
   4 -13  15 42.3988 207.522   8
   4 -13  15 176.366 123.612   5
  -4 -13  15 637.968 127.191   8
   4 -13 -15 254.181 139.558   7
  -4  13 -15 104.416 157.106   3
  -4  13  15 375.769 207.625   1
  -4  13  15 602.107 135.966   4
   4 -13 -15 354.411 185.296   6
   4 -13 -16-168.386 172.595   6
  -4  13  16 549.665 199.896   1
   4  13 -16-202.004 231.781   2
   4  13 -16 128.369 224.058   3
  -4 -13  16-39.6094 163.491   5
  -4 -13  16-146.798 108.773   8
   4 -13  16 86.2584 188.781   8
   4 -13  16 207.823 116.328   5
   4 -13 -16-43.0403 127.144   7
  -4  13 -16 42.6525 153.812   3
  -4  13  16 243.996 132.150   4
   4 -13 -17-171.288 180.640   6
   4  13 -17-59.1491 246.352   2
   4  13 -17-78.8037 237.102   3
  -4  13  17-118.380 226.254   1
  -4 -13  17 38.3880 155.706   5
  -4 -13  17 62.2714 114.865   8
   4 -13  17 21.9675 198.830   8
   4 -13  17 85.5445 111.251   5
   4 -13 -17-116.645 130.524   7
  -4  13 -17 174.347 155.004   3
  -4  13  17-65.9603 120.381   4
   4 -13 -18 43.0894 178.883   6
   4  13 -18-480.069 260.972   2
   4  13 -18-376.192 249.115   3
  -4 -13  18-95.5910 171.136   5
   4 -13  18 22.4148 213.673   8
  -4 -13  18 25.3953 128.280   8
   4 -13  18 14.6578 128.243   5
   4 -13 -18 14.7065 131.645   7
  -4  13 -18 111.496 165.466   3
  -4  13  18 149.245 129.337   4
   4 -13 -19-65.0580 166.096   6
   4  13 -19-61.2802 252.762   2
   4  13 -19 218.850 220.420   3
  -4 -13  19 19.0529 156.156   5
  -4 -13  19 12.9040 115.228   8
   4 -13  19 68.7433 218.996   8
  -4  13 -19 22.8717 146.810   3
  -4  13  19 27.9643 132.004   4
   4 -13 -20 43.9792 175.967   6
   4  13 -20 154.951 262.292   2
   4  13 -20-138.969 252.953   3
  -4 -13  20 37.9427 151.823   5
  -4 -13  20-13.1638 118.866   8
  -4  13  20 131.581 243.995   1
  -4  13 -20-117.060 179.315   3
  -4  13  20 129.896 139.643   4
   4 -13 -21 66.8487 180.785   6
   4  13 -21 62.6322 247.046   2
   4  13 -21 56.3669 235.539   3
  -4 -13  21-18.2141 146.271   5
  -4 -13  21 26.7277 120.333   8
   4 -13 -21 46.4679 139.844   7
  -4  13  21 27.3106 235.446   1
  -4  13  21-14.8515 144.372   4
   4 -13 -22 22.5914 174.429   6
   4  13 -22-31.8087 245.060   2
   4  13 -22 28.5438 220.025   3
  -4 -13  22 162.759 131.898   8
  -4 -13  22 197.818 163.588   5
   4 -13 -22 220.773 143.665   7
  -4  13  22 255.339 249.484   1
  -4  13  22 15.2622 143.168   4
   4 -13 -23 22.9228 190.387   6
   4  13 -23 801.572 338.559   2
   4  13 -23 342.471 259.964   3
  -4 -13  23 13.7661 131.495   8
   4 -13 -23 128.419 154.256   7
  -4  13  23 678.336 312.168   1
  -4 -13  23 107.633 153.437   5
  -4  13  23 236.397 169.841   4
   4 -13 -24 208.921 188.751   6
   4  13 -24 484.730 278.868   2
  -4 -13  24 17.8763 149.467   5
   4  13 -24 57.4550 247.231   3
  -4 -13  24 69.8897 124.393   8
  -4  13  24 61.3847 299.276   1
   4 -13 -24 212.461 140.629   7
  -4  13  24-48.8791 149.631   4
   4 -13 -25 258.869 205.438   6
   4  13 -25 260.443 288.711   2
  -4 -13  25 353.125 169.447   5
   4  13 -25 115.611 243.184   3
  -4 -13  25 184.659 142.835   8
  -4  13  25 255.804 269.554   1
   4 -13 -25 316.047 163.746   7
  -4  13  25 16.8743 155.741   4
   4 -13 -26 47.6278 174.606   6
   4  13 -26 65.6094 257.882   2
  -4 -13  26 247.223 154.577   5
  -4  13  26 66.6916 264.967   1
   4  13 -26-318.931 232.835   3
  -4 -13  26-58.2167 125.556   8
   4 -13 -26 16.9410 113.452   7
  -4  13  26 174.975 170.927   4
   4  13 -27-198.340 277.111   2
  -4 -13  27 504.355 156.542   8
  -4 -13  27 370.973 160.301   5
   4  13 -27 171.331 230.325   3
  -5  13   0 2397.84 336.437   4
   5 -13   0 2345.65 371.474   7
  -5  13   0 2279.07 343.890   1
   5 -13   0 2077.63 375.944   6
  -5  13  -1 446.735 124.257   1
  -5  13   1 403.260 133.134   1
   5 -13   1 376.517 172.872   7
   5 -13  -1 439.515 166.567   7
  -5  13  -1 590.156 116.321   4
  -5  13   1 527.784 117.965   4
  -5  13  -1 497.320 161.933   3
   5 -13   1 473.307 210.499   6
   5 -13  -1 774.358 223.582   6
   5 -13   2 1514.93 210.808   5
  -5  13  -2 1395.47 210.565   1
   5 -13   2 1315.75 243.508   8
   5 -13  -2 1378.50 247.476   7
  -5  13  -2 1038.92 200.519   4
  -5  13   2 1247.84 206.805   4
  -5  13  -2 1149.47 237.871   3
  -5  13   2 1142.35 218.637   1
   5 -13   3 473.162 178.233   8
   5 -13   3 686.417 130.138   5
   5 -13  -3 377.229 179.643   7
  -5  13  -3 584.224 166.758   3
  -5  13   3 749.719 133.813   4
  -5  13   3 594.998 157.787   1
   5 -13  -3 380.662 207.989   6
   5 -13   4 17.3797 155.141   8
   5 -13   4 42.8203 87.4328   5
   5 -13  -4-47.3113 141.171   7
  -5  13  -4 35.9043 128.808   3
  -5  13   4-19.0468 83.8126   4
  -5  13   4-13.4378 120.627   1
   5 -13  -4 85.7600 194.054   6
   5 -13   5 464.094 188.656   8
   5 -13   5 606.022 125.979   5
  -5  13  -5 694.127 170.955   3
  -5  13   5 494.479 131.480   4
   5 -13  -5 710.273 230.665   6
   5 -13   6 272.195 104.011   5
  -5  13  -6 204.607 143.194   3
  -5  13   7 93.4005 165.969   1
   5 -13  -7 60.1629 141.602   7
  -5 -13   8 302.090 236.571   5
  -5  13   8-63.7482 202.225   1
   5 -13   8 838.597 255.084   8
   5 -13  -8 104.198 145.186   7
  -5  13   8 72.0602 117.820   4
   5  13  -8 523.454 220.325   2
   5 -13  -8 238.724 276.289   6
  -5 -13   9 270.579 204.449   5
   5 -13   9-237.563 226.776   8
   5 -13   9 328.528 122.001   5
  -5  13   9 466.417 176.307   1
   5 -13  -9 88.4710 154.182   7
  -5  13  -9-39.3257 157.979   3
  -5  13   9 506.029 121.166   4
   5  13  -9 144.485 212.811   2
   5 -13  -9-239.100 227.753   6
  -5 -13  10 23.4676 163.936   5
  -5 -13  10-67.4186 95.9980   8
   5 -13  10 88.1082 193.288   8
   5 -13  10-12.5245 98.4547   5
  -5  13  10 104.434 166.341   1
   5 -13 -10 146.699 151.430   7
  -5  13 -10 160.380 148.162   3
  -5  13  10-21.4798 117.208   4
   5  13 -10-220.198 186.650   2
   5 -13 -10 130.493 206.820   6
  -5 -13  11 507.022 206.399   5
  -5 -13  11 148.599 108.903   8
   5 -13  11 202.123 201.725   8
   5 -13  11 103.165 105.581   5
   5 -13 -11-59.1994 158.384   7
  -5  13 -11 225.021 155.745   3
  -5  13  11 120.784 125.789   4
  -5  13  11 72.8462 167.900   1
   5  13 -11 199.568 191.032   2
   5 -13 -11-108.969 194.710   6
  -5 -13  12 703.796 210.952   5
   5 -13  12 480.898 216.965   8
   5 -13  12 464.004 133.129   5
   5 -13 -12 236.233 161.106   7
  -5  13 -12 313.158 169.641   3
  -5  13  12 662.068 148.711   4
   5 -13 -12 785.829 208.338   6
  -5  13  12 542.345 198.347   1
  -5  13  13 137.056 165.224   1
   5  13 -13-23.7672 225.697   3
  -5 -13  13 218.182 182.961   5
   5 -13  13 217.381 214.594   8
   5 -13 -13 298.533 148.377   7
  -5  13 -13 299.024 172.238   3
  -5  13  13 276.253 115.953   4
   5  13 -13-25.8948 204.190   2
   5 -13 -13 328.366 201.389   6
   5  13 -14 314.049 226.812   3
  -5  13  14 1027.22 215.368   1
  -5 -13  14 713.509 215.958   5
  -5 -13  14 898.393 146.093   8
   5 -13  14 517.872 241.904   8
   5 -13 -14 179.102 162.456   7
  -5  13 -14 130.974 186.633   3
  -5  13  14 697.388 146.020   4
   5  13 -14 504.535 254.873   2
   5 -13 -14 570.607 213.282   6
   5  13 -15 246.458 216.882   3
  -5 -13  15 214.835 195.472   5
  -5  13  15 42.2061 195.173   1
  -5 -13  15 485.688 122.486   8
   5 -13  15 453.669 234.789   8
   5 -13 -15 75.5596 143.330   7
  -5  13 -15 245.215 165.183   3
  -5  13  15 218.691 121.744   4
   5 -13 -15-110.060 177.799   6
   5  13 -15-53.9711 221.493   2
   5  13 -16-75.6822 230.091   3
  -5 -13  16 500.740 187.559   5
  -5  13  16 282.605 205.617   1
  -5 -13  16 640.783 133.054   8
   5 -13 -16 348.480 145.907   7
  -5  13  16 224.669 120.966   4
   5 -13 -16 132.578 194.788   6
   5  13 -16-221.646 227.660   2
   5  13 -17 142.257 259.512   2
   5  13 -17 51.7524 230.760   3
  -5 -13  17 414.985 186.897   5
  -5 -13  17 163.304 122.594   8
  -5  13  17 493.046 216.882   1
   5 -13 -17 291.895 158.644   7
  -5  13  17 256.606 125.561   4
   5 -13 -17 583.188 212.870   6
   5  13 -18-230.953 220.309   2
   5  13 -18-26.6335 232.415   3
  -5 -13  18 165.200 168.187   5
  -5 -13  18-165.755 125.520   8
  -5  13  18 39.4573 127.965   4
   5 -13 -18-45.0058 177.607   6
   5 -13 -19 204.209 174.008   6
   5  13 -19 263.374 233.997   2
   5  13 -19-54.6568 222.405   3
  -5 -13  19 160.514 185.900   5
  -5 -13  19 220.779 124.173   8
  -5  13  19 26.9278 123.819   4
   5 -13 -20-274.537 185.598   6
   5  13 -20-569.022 247.048   2
   5  13 -20 28.0277 236.467   3
  -5 -13  20 20.0301 178.809   5
  -5 -13  20 198.305 123.851   8
  -5  13  20 125.052 216.255   1
   5 -13 -20 112.397 142.131   7
  -5  13  20 13.8329 130.248   4
   5 -13 -21 298.986 202.453   6
   5  13 -21 30.2977 232.335   2
   5  13 -21-28.5935 230.091   3
  -5 -13  21 279.829 172.524   5
  -5 -13  21 496.674 129.230   8
  -5  13  21 25.8641 227.109   1
   5 -13 -21 96.8018 147.744   7
  -5  13  21 199.289 138.249   4
   5 -13 -22-138.773 199.533   6
   5  13 -22-145.581 260.484   3
  -5 -13  22-19.9254 172.640   5
  -5 -13  22 122.870 135.365   8
  -5  13  22-642.500 269.232   1
   5 -13 -22 163.854 146.474   7
  -5  13  22-205.538 147.055   4
   5 -13 -23-210.838 195.524   6
   5  13 -23 562.001 265.807   2
   5  13 -23-266.068 244.671   3
  -5 -13  23 210.528 169.115   5
  -5 -13  23 333.237 134.494   8
  -5  13  23 27.7356 245.591   1
   5 -13 -23 133.161 143.139   7
  -5  13  23 166.791 151.106   4
   5 -13 -24 94.8542 188.220   6
   5  13 -24-31.5064 255.071   2
   5  13 -24 389.666 261.835   3
  -5 -13  24 37.7853 167.769   5
  -5  13  24 690.052 279.765   1
   5 -13 -24-16.9153 142.907   7
  -5 -13  24 70.6060 124.296   8
  -5  13  24 109.283 134.861   4
   5 -13 -25 456.422 210.866   6
   5  13 -25 317.670 270.703   2
   5  13 -25-59.9661 244.349   3
  -5 -13  25 188.279 160.069   5
  -5 -13  25 229.890 145.776   8
  -5  13  25-328.252 278.361   1
   5 -13 -25 154.761 155.277   7
  -5  13  25 193.514 143.432   4
   5  13 -26-320.289 239.688   2
  -5 -13  26 221.907 146.557   5
   5  13 -26-211.300 237.569   3
   5  13 -27 32.3019 208.842   2
  -5 -13  27 18.4620 163.478   5
   5  13 -27 424.909 261.180   3
  -6  13   0 152.462 103.266   1
   6 -13   0 228.692 176.648   7
  -6  13   0 334.774 98.2502   4
   6 -13   0 394.152 226.422   6
  -6  13  -1 1181.35 194.949   1
  -6  13   1 1402.09 205.588   1
   6 -13   1 1228.61 256.048   7
   6 -13  -1 1067.75 245.915   7
  -6  13  -1 912.262 188.870   4
  -6  13   1 1249.41 197.521   4
   6 -13   1 1195.11 283.826   6
   6 -13  -1 1610.64 292.371   6
  -6  13   2 815.669 162.715   1
   6 -13  -2 751.991 208.912   7
  -6  13  -2 583.875 144.954   4
  -6  13   2 1034.93 155.198   4
   6 -13  -2 775.054 256.484   6
   6 -13   3 94.7595 184.370   8
  -6  13   3 192.413 97.8861   4
   6 -13  -3 188.964 216.227   6
   6 -13   4 566.039 226.573   8
   6 -13   5 150.606 229.326   8
  -6  13   5 333.636 155.596   1
   6 -13  -6 773.526 208.757   7
  -6  13   6 575.571 179.644   1
   6 -13  -7-137.817 177.028   7
  -6  13   7 131.476 101.635   4
  -6  13   7 72.8580 162.920   1
   6 -13  -7 380.716 254.460   6
   6 -13   8 479.320 225.706   8
   6 -13  -8 287.485 175.774   7
  -6  13   8 338.463 121.575   4
   6 -13  -8 642.148 299.931   6
  -6  13   8 318.348 195.579   1
  -6  13   9-77.4285 162.451   1
   6 -13   9-50.5717 228.431   8
   6 -13  -9-183.129 159.375   7
  -6  13   9-52.1017 104.776   4
   6 -13  -9 95.1135 226.870   6
  -6  13  10 435.893 181.857   1
   6 -13  10 207.320 266.414   8
   6 -13 -10 459.851 176.860   7
  -6  13  10 625.970 136.911   4
   6 -13 -10 594.080 239.616   6
  -6  13  11-33.7315 146.331   1
   6 -13  11 212.538 227.679   8
   6 -13 -11 97.4928 144.298   7
  -6  13  11 32.3853 107.710   4
   6 -13 -11-94.9277 193.871   6
  -6 -13  12 286.833 207.920   5
  -6  13  12 459.033 165.817   1
   6 -13 -12 147.094 157.288   7
  -6  13  12 330.793 120.848   4
   6  13 -12 201.288 204.411   2
   6 -13 -12 236.991 206.821   6
  -6 -13  13 259.724 205.380   5
  -6  13  13 253.315 165.970   1
   6 -13 -13 519.085 167.392   7
  -6  13  13 282.194 121.243   4
   6  13 -13 178.638 211.206   2
   6 -13 -13 331.166 219.867   6
  -6 -13  14 655.126 228.384   5
  -6 -13  14 421.986 124.083   8
  -6  13  14 681.423 194.593   1
   6 -13 -14-16.3595 153.717   7
  -6  13  14 565.149 142.027   4
   6  13 -14 77.5100 216.400   2
   6 -13 -14 425.652 215.543   6
   6  13 -15 614.716 244.945   3
  -6 -13  15 316.431 201.706   5
  -6 -13  15 368.567 128.339   8
  -6  13  15 816.076 203.777   1
   6 -13 -15 243.860 170.008   7
  -6  13  15 164.903 122.882   4
   6  13 -15 52.6218 188.645   2
   6 -13 -15 283.585 202.012   6
   6  13 -16 125.541 244.298   3
  -6 -13  16 270.175 184.231   5
  -6 -13  16 425.889 141.983   8
  -6  13  16 366.149 197.615   1
   6 -13 -16 312.050 171.814   7
  -6  13  16 181.199 120.252   4
   6  13 -16-214.819 215.531   2
   6 -13 -16 544.214 214.771   6
   6  13 -17-205.828 224.442   3
  -6 -13  17 22.4794 183.588   5
  -6 -13  17 12.7033 115.291   8
  -6  13  17 62.7306 183.480   1
   6 -13 -17-116.242 149.889   7
  -6  13  17 49.6221 109.800   4
   6  13 -17-54.4366 191.862   2
   6 -13 -17 142.016 182.633   6
   6  13 -18 105.751 226.160   3
  -6 -13  18 284.942 195.685   5
  -6 -13  18 453.427 132.725   8
  -6  13  18 178.491 121.818   4
   6  13 -18 83.4400 221.078   2
   6 -13 -18 94.8149 202.678   6
   6  13 -19 54.6020 237.243   3
  -6 -13  19-43.7645 179.952   5
  -6 -13  19 131.496 120.304   8
  -6  13  19 44.2945 191.519   1
  -6  13  19 170.336 110.195   4
   6  13 -19 197.325 224.469   2
   6 -13 -19 118.813 202.302   6
   6  13 -20 56.2266 238.301   3
  -6 -13  20 152.921 172.417   5
  -6 -13  20 348.527 126.528   8
   6 -13 -20 238.145 155.569   7
  -6  13  20 93.0372 201.503   1
  -6  13  20 175.164 133.384   4
   6  13 -20 28.8152 222.661   2
   6 -13 -20 475.908 209.100   6
   6  13 -21-86.7942 233.892   3
  -6 -13  21 297.927 191.024   5
  -6 -13  21-259.472 127.921   8
   6 -13 -21 17.2360 154.720   7
  -6  13  21 359.653 205.440   1
  -6  13  21 96.7107 122.981   4
   6  13 -21-262.358 230.773   2
   6 -13 -21 95.8325 201.489   6
   6 -13 -22 337.733 220.026   6
   6  13 -22 148.543 275.801   3
  -6 -13  22 21.2732 202.255   5
  -6 -13  22 318.090 128.102   8
   6 -13 -22 104.838 170.340   7
  -6  13  22 247.369 247.510   1
  -6  13  22 353.787 150.642   4
   6  13 -22 58.9620 270.138   2
   6 -13 -23-24.2089 211.225   6
   6  13 -23 121.578 243.214   3
  -6 -13  23 212.498 182.671   5
  -6 -13  23-14.0881 120.776   8
   6 -13 -23-88.6081 156.005   7
  -6  13  23-204.349 222.867   1
  -6  13  23-101.806 142.071   4
   6  13 -23-29.7874 234.155   2
   6 -13 -24 170.150 202.554   6
   6  13 -24-216.888 264.416   3
  -6 -13  24 411.678 194.066   5
  -6 -13  24 301.271 133.771   8
   6 -13 -24 53.2766 161.656   7
  -6  13  24 131.951 221.206   1
  -6  13  24 29.9428 136.230   4
   6  13 -24-151.969 223.430   2
   6 -13 -25-196.689 208.548   6
   6  13 -25 62.9581 254.003   3
  -6 -13  25 264.200 189.911   5
  -6 -13  25 131.616 122.232   8
  -6  13  25 231.672 148.620   4
   6  13 -25-184.077 241.541   2
   6  13 -26-157.959 248.476   3
  -6 -13  26 220.278 165.446   5
   6  13 -26-30.9533 265.377   2
   7 -13   0 549.356 267.581   6
   7 -13   1 73.8489 246.178   6
   7 -13  -1 582.187 258.550   6
   7 -13   2 24.2154 251.016   6
  -7  13   3 322.350 118.137   1
   7 -13  -3 306.920 195.979   7
  -7  13   4 49.3805 116.108   1
   7 -13   4-23.5901 212.439   8
   7 -13  -4-301.693 205.525   7
  -7  13   5 401.184 131.033   1
   7 -13  -5 20.9995 181.218   7
  -7  13   5 368.953 111.456   4
   7 -13  -5 52.0348 232.534   6
  -7  13   6 375.543 130.500   1
   7 -13  -6-20.4833 188.513   7
  -7  13   6 261.990 103.497   4
   7 -13  -6 182.764 250.615   6
  -7  13   7 388.776 141.938   1
   7 -13  -7 519.972 199.210   7
  -7  13   7 633.137 129.797   4
   7 -13  -7 601.495 246.679   6
  -7  13   8 329.976 141.061   1
   7 -13  -8 175.887 167.400   7
  -7  13   8 268.907 100.299   4
   7 -13  -8-130.731 240.050   6
   7 -13  -9 191.322 171.393   7
  -7  13   9 230.405 100.148   4
  -7  13   9 59.3872 134.415   1
   7 -13  -9 470.149 246.705   6
   7 -13 -10 75.0491 174.399   7
  -7  13  10-84.7455 97.1882   4
  -7  13  10 153.917 145.277   1
   7 -13 -10 78.1988 231.371   6
   7 -13 -11 36.8904 150.317   7
  -7  13  11 257.754 107.485   4
  -7  13  11 455.702 148.967   1
   7 -13 -11-26.0057 230.960   6
   7 -13 -12 18.1675 160.689   7
  -7  13  12 218.339 104.999   4
  -7  13  12 228.665 148.804   1
   7 -13 -12-103.807 219.188   6
   7 -13 -13 109.390 169.798   7
  -7  13  13 300.427 116.164   4
   7 -13 -13 25.8895 219.008   6
  -7  13  13 238.281 147.430   1
   7 -13 -14 18.0121 165.137   7
  -7  13  14 34.0861 111.449   4
   7 -13 -14-335.542 238.274   6
  -7  13  14-226.344 164.671   1
  -7  13  15 545.534 180.055   1
   7 -13 -15 344.355 173.235   7
  -7  13  15 278.983 123.070   4
   7 -13 -15-25.7272 233.492   6
  -7  13  16-204.897 165.423   1
  -7 -13  16-23.9679 182.214   5
   7 -13 -16-71.8336 147.256   7
  -7  13  16 106.858 105.824   4
   7 -13 -16-307.672 236.518   6
   7  13 -17-26.0530 215.312   3
  -7 -13  17 239.641 204.729   5
   7 -13 -17-18.1092 156.731   7
  -7  13  17 484.815 124.551   4
   7  13 -17-80.6264 207.699   2
   7 -13 -17 255.871 221.674   6
   7  13 -18 80.3181 228.657   3
  -7 -13  18 264.108 212.617   5
  -7  13  18 74.5557 113.812   4
   7  13 -18 81.5417 215.113   2
   7 -13 -18 306.399 224.725   6
   7  13 -19 110.189 237.539   3
  -7 -13  19 117.436 197.225   5
  -7  13  19 390.277 192.887   1
   7 -13 -19 18.1691 157.815   7
  -7  13  19 63.7586 121.603   4
   7  13 -19 248.304 212.158   2
   7 -13 -19 255.132 192.585   6
   7  13 -20-342.263 259.829   3
  -7 -13  20 23.6019 198.221   5
  -7  13  20 316.467 190.803   1
   7 -13 -20 55.0652 170.582   7
  -7  13  20 275.113 129.962   4
   7  13 -20-362.768 224.360   2
   7 -13 -20 152.966 199.276   6
   7  13 -21 147.376 266.536   3
  -7 -13  21 70.9319 214.021   5
  -7  13  21-22.1721 201.869   1
  -7 -13  21 151.025 132.824   8
   7 -13 -21 148.487 184.898   7
  -7  13  21 215.264 138.344   4
   7  13 -21 28.3744 228.381   2
   7 -13 -21 25.4859 222.256   6
   7  13 -22-152.233 252.406   3
  -7 -13  22 414.696 198.401   5
  -7  13  22 136.845 193.456   1
  -7 -13  22 168.028 129.888   8
   7 -13 -22 56.2981 165.154   7
  -7  13  22 248.935 134.535   4
   7  13 -22-57.3549 221.875   2
   7 -13 -22 663.118 231.580   6
   7  13 -23 219.903 281.055   3
  -7 -13  23 415.353 198.523   5
  -7 -13  23 328.269 142.521   8
  -7  13  23 305.226 216.665   1
   7 -13 -23 189.926 186.732   7
  -7  13  23 99.1793 124.281   4
   7  13 -23 57.9694 209.872   2
   7 -13 -23 76.4740 206.604   6
   7 -13 -24 102.511 200.945   6
   7  13 -24 226.041 256.742   3
  -7 -13  24 22.5553 172.355   5
  -7 -13  24 174.686 146.114   8
  -7  13  24 72.5316 125.449   4
   7  13 -24-263.443 230.284   2
   7  13 -25 231.326 270.221   3
  -7 -13  25 90.0620 206.435   5
  -7 -13  25 74.2274 140.050   8
   7  13 -25 89.2429 217.528   2
   7  13 -26-33.4213 271.125   3
  -7 -13  26 44.4827 189.421   5
   8 -13  -2 161.485 241.896   6
  -8  13   3 58.5409 101.186   1
   8 -13  -3 27.3085 234.808   6
  -8  13   4 277.267 113.188   1
   8 -13  -4-47.3531 204.270   7
   8 -13  -4-276.917 247.837   6
  -8  13   5 161.435 107.645   1
   8 -13  -5 93.8125 187.490   7
  -8  13   5 279.066 99.2006   4
   8 -13  -5-56.0868 244.589   6
  -8  13   6 255.607 120.771   1
   8 -13  -6-92.4752 203.258   7
  -8  13   6 120.897 91.1426   4
   8 -13  -6 225.743 240.391   6
  -8  13   7 448.195 124.376   1
   8 -13  -7-113.716 180.032   7
  -8  13   7 122.300 100.872   4
   8 -13  -7 198.360 264.698   6
  -8  13   8 122.428 112.484   1
   8 -13  -8 22.1973 178.854   7
  -8  13   8 144.379 101.120   4
   8 -13  -8 28.4330 246.300   6
  -8  13   9 197.057 117.676   1
   8 -13  -9 260.502 191.502   7
  -8  13   9 240.653 109.472   4
   8 -13  -9 28.5094 251.052   6
  -8  13  10 72.8962 123.391   1
   8 -13 -10-106.237 189.667   7
  -8  13  10-31.8152 87.4871   4
   8 -13 -10 285.312 248.162   6
  -8  13  11 45.3040 125.388   1
   8 -13 -11 84.8306 175.514   7
  -8  13  11-107.501 103.236   4
   8 -13 -11 256.546 277.689   6
  -8  13  12 92.4415 148.369   1
   8 -13 -12 20.8028 176.655   7
  -8  13  12-43.5061 100.396   4
   8 -13 -12-341.294 243.726   6
   8 -13 -13 224.830 197.463   7
  -8  13  13 47.8000 142.790   1
  -8  13  13 209.699 108.638   4
   8 -13 -14 225.298 177.334   7
  -8  13  14 157.067 103.885   4
  -8  13  14-148.626 145.204   1
   8 -13 -14-27.9736 249.176   6
   8 -13 -15 60.5236 166.534   7
  -8  13  15 114.272 102.768   4
  -8  13  15-67.4979 145.160   1
   8 -13 -15-27.8631 225.342   6
   8 -13 -16 101.301 193.169   7
  -8  13  16 290.652 111.202   4
  -8  13  16 17.5340 155.386   1
   8 -13 -16 415.849 243.387   6
  -8  13  17-11.8811 101.187   4
   8 -13 -17 165.563 246.318   6
  -8  13  18 12.1631 118.529   4
   8 -13 -18-164.641 225.622   6
   8 -13 -19 20.2858 175.099   7
  -8  13  19 149.130 123.559   4
  -8  13  19 210.546 189.780   1
   8 -13 -19 54.6629 220.798   6
   8 -13 -20 60.2876 207.544   7
  -8  13  20-78.4674 182.518   1
   8  13 -21-183.834 258.479   3
   8 -13 -21 81.0631 192.016   7
  -8  13  21 169.116 125.840   4
  -8  13  21 442.451 182.333   1
   8 -13 -21 27.1323 215.203   6
   8  13 -22-31.7625 267.128   3
  -8 -13  22 25.5837 217.872   5
   8 -13 -22 102.259 181.540   7
  -8  13  22 13.4330 121.593   4
  -8  13  22-315.491 181.316   1
   8 -13 -22 459.741 223.815   6
   8  13 -23-98.9947 284.585   3
  -8 -13  23-308.154 191.516   5
  -8  13  23 13.7867 117.359   4
   8 -13 -23 26.9777 247.637   6
   8  13 -24 477.496 296.757   3
  -8 -13  24 25.1097 213.868   5
   8  13 -25-140.693 304.187   3
  -8 -13  25 150.796 222.545   5
   9 -13  -3-27.9628 235.197   6
   9 -13  -4 28.5705 256.490   6
   9 -13  -5 29.2801 256.953   6
  -9  13   6-62.4621 105.582   1
   9 -13  -6-178.404 261.874   6
  -9  13   7 12.8059 104.778   1
   9 -13  -7-99.3285 200.851   7
  -9  13   7 101.052 92.4261   4
   9 -13  -7 60.3037 253.656   6
  -9  13   8 302.637 116.848   1
   9 -13  -8 123.777 219.556   7
  -9  13   8 194.651 102.522   4
   9 -13  -8 364.402 274.451   6
  -9  13   9 13.5226 116.233   1
   9 -13  -9-171.848 205.161   7
  -9  13   9 20.7524 89.7361   4
   9 -13  -9-152.583 253.383   6
  -9  13  10 111.529 122.359   1
   9 -13 -10-72.7104 214.935   7
  -9  13  10 210.297 102.659   4
   9 -13 -10 398.248 284.784   6
  -9  13  11 28.4552 125.978   1
   9 -13 -11-167.341 211.618   7
  -9  13  11 21.3244 102.699   4
   9 -13 -11-307.200 278.067   6
  -9  13  12 469.767 146.454   1
   9 -13 -12-70.2583 189.900   7
  -9  13  12 108.213 101.230   4
   9 -13 -12 399.636 259.898   6
  -9  13  13-227.984 130.613   1
   9 -13 -13-140.421 195.203   7
  -9  13  13 32.9426 105.669   4
   9 -13 -13 153.438 280.198   6
  -9  13  14 496.264 146.508   1
   9 -13 -14-22.9929 193.976   7
  -9  13  14 289.152 115.965   4
   9 -13 -14 275.361 253.990   6
  -9  13  15-32.1621 141.924   1
   9 -13 -15-135.655 190.744   7
  -9  13  15 33.8716 101.349   4
   9 -13 -15 152.383 257.926   6
  -9  13  16 147.794 145.510   1
   9 -13 -16 90.6655 190.207   7
  -9  13  16 218.201 117.285   4
   9 -13 -16 151.621 248.727   6
  -9  13  17 11.7014 107.059   4
   9 -13 -17-90.5251 271.615   6
  -9  13  18 52.2261 165.172   1
  -9  13  18 47.6272 124.746   4
   9 -13 -18-148.294 265.513   6
  -9  13  19-126.282 157.540   1
   9 -13 -19-157.725 189.033   7
  -9  13  19 12.1640 117.032   4
   9 -13 -19 29.4555 260.061   6
   9 -13 -20-66.7415 208.348   7
  -9  13  20 295.132 164.522   1
  -9  13  20 236.553 130.529   4
   9 -13 -20 467.725 257.458   6
   9 -13 -21-156.708 190.667   7
  -9  13  21 264.271 169.472   1
  -9  13  21 12.7113 118.802   4
   9 -13 -21-116.176 241.950   6
  -9  13  22 51.8801 115.081   4
   9 -13 -22 375.007 234.464   6
  10 -13  -7-280.048 292.404   6
  10 -13  -8 31.6558 259.433   6
 -10  13   9 13.1404 107.484   1
 -10  13   9-91.5437 87.6217   4
  10 -13  -9 96.4497 270.447   6
 -10  13  10 201.767 120.555   1
  10 -13 -10-129.787 212.459   7
 -10  13  10 93.0200 101.662   4
  10 -13 -10 97.2622 279.829   6
 -10  13  11 357.601 134.049   1
  10 -13 -11 285.175 222.784   7
 -10  13  11 304.154 106.757   4
  10 -13 -11 228.268 298.971   6
 -10  13  12 14.1079 123.572   1
  10 -13 -12-25.9256 204.590   7
 -10  13  12 127.730 101.637   4
  10 -13 -12-327.488 275.480   6
 -10  13  13 883.886 168.263   1
  10 -13 -13 567.197 243.900   7
 -10  13  13 508.061 143.224   4
  10 -13 -13 985.381 312.020   6
 -10  13  14 88.7459 119.989   1
  10 -13 -14-51.0783 213.423   7
 -10  13  14-120.847 97.7966   4
 -10  13  15 548.972 153.791   1
  10 -13 -15 332.372 225.928   7
 -10  13  15 546.846 130.676   4
  10 -13 -15 459.142 313.395   6
  10 -13 -16-430.401 239.362   7
 -10  13  16 11.3132 114.390   4
  10 -13 -16-261.380 318.591   6
 -10  13  17 22.9851 108.472   4
  10 -13 -17-195.004 290.114   6
 -10  13  18 213.297 147.852   1
  10 -13 -18 24.9694 221.741   7
 -10  13  18 11.6902 106.611   4
  10 -13 -18-255.744 294.904   6
 -10  13  19-34.0077 141.641   1
  10 -13 -19 250.598 229.281   7
 -10  13  19 23.8180 106.009   4
  10 -13 -19-285.608 278.459   6
 -10  13  20-52.1051 156.230   1
 -10  13  20-72.7025 119.574   4
  10 -13 -20-157.307 265.617   6
 -11  13  12 403.407 123.088   4
  11 -13 -12 617.257 323.913   6
 -11  13  12 1053.39 166.616   1
 -11  13  13-13.9938 121.487   1
 -11  13  13 115.692 97.6692   4
  11 -13 -13-276.084 296.646   6
 -11  13  14 1230.62 202.827   1
 -11  13  14 673.817 163.792   4
  11 -13 -14 1594.57 406.735   6
 -11  13  15-14.6205 138.975   1
  11 -13 -15-272.235 264.910   7
 -11  13  15-98.0744 111.843   4
  11 -13 -15-312.897 336.541   6
 -11  13  16 277.033 122.922   4
  11 -13 -16 1008.04 355.722   6
 -11  13  17 22.5280 105.787   4
  11 -13 -17-275.028 301.664   6
 -11  13  18 93.7781 135.160   1
  11 -13 -18-163.532 218.840   7
 -11  13  18 45.6764 102.816   4
  11 -13 -18-307.425 294.465   6
 -11  13  19 11.6028 107.023   4
  11 -13 -19 33.9140 269.443   6
   0  14   0 21.6248 178.535   2
   0  14   0-83.6504 196.528   3
   0 -14   0 155.742 135.268   5
   0 -14   0 58.5255 84.6694   8
   0  14  -1-133.771 188.115   2
   0  14   1-102.257 186.132   3
   0  14  -1-149.590 188.622   3
   0 -14  -1 15.5836 131.087   5
   0 -14   1 124.031 129.589   5
   0 -14  -1-106.613 87.2854   8
   0 -14   1 108.344 93.0027   8
   0  14   1-145.351 158.425   2
   0 -14  -2-145.573 132.584   6
   0  14  -2 232.021 195.158   2
   0  14   2-159.964 183.951   3
   0  14  -2 261.019 195.822   3
   0 -14  -2 77.9507 131.156   5
   0 -14   2 61.6867 125.569   5
   0 -14  -2 57.1971 83.7147   8
   0 -14   2-49.8483 90.7880   8
   0 -14  -2 10.9067 94.9232   7
   0  14   2-120.167 158.586   2
   0  14   2 196.179 110.158   4
   0 -14  -3-132.229 136.364   6
   0  14  -3-23.9226 198.642   2
   0  14  -3-244.004 202.424   3
   0 -14   3 107.363 122.309   5
   0 -14   3 61.0966 91.6927   8
   0 -14  -3-110.774 104.055   7
   0  14   3 33.8458 100.455   4
   0 -14  -4 760.723 173.455   6
   0  14  -4 564.685 219.161   3
   0 -14   4 488.628 161.981   5
   0 -14  -4 549.338 134.335   7
   0  14   4 537.074 140.334   4
   0 -14  -5-155.591 147.566   6
   0 -14  -5-22.7117 103.276   7
   0  14   5-84.5511 111.852   4
   0 -14  -6 1723.37 275.953   6
   0 -14  -6 1369.12 238.180   7
   0  14   6 1811.26 257.039   4
   0  14  -7-27.3404 256.232   2
   0 -14   7-68.1907 104.323   8
   0  14  -8 452.556 272.373   3
   0 -14   8 1103.71 215.333   5
   0 -14   8 1012.19 196.329   8
   0  14  -8 960.836 320.622   2
   0 -14  -9-55.9255 134.589   6
   0  14  -9-119.968 204.493   3
   0 -14   9-45.4195 130.772   5
   0  14  -9-233.085 245.170   2
   0 -14   9 60.7145 107.488   8
   0 -14  -9-142.748 95.8665   7
   0  14   9-41.6308 119.910   4
   0 -14 -10 38.0343 161.253   6
   0  14 -10 72.4533 185.213   3
   0 -14  10 29.8804 114.408   5
   0  14 -10-89.5015 261.211   2
   0 -14  10 213.221 118.205   8
   0 -14 -10 82.8603 119.216   7
   0  14  10 14.3196 137.871   4
   0  14 -11-145.505 200.046   3
   0 -14  11 29.4947 124.035   5
   0 -14  11-51.7614 112.897   8
   0  14 -11 153.259 254.502   2
   0 -14 -11 36.0452 96.1439   7
   0  14  11 88.5323 136.447   4
   0  14 -12 48.7065 195.694   3
   0 -14  12 44.1624 120.093   5
   0 -14  12-13.1045 117.910   8
   0  14 -12-219.639 254.658   2
   0 -14 -12 61.1048 102.446   7
   0  14  12 288.570 140.302   4
   0 -14  13 88.2066 119.667   5
   0  14 -13 48.7756 192.379   3
   0 -14  13-67.5240 119.537   8
   0  14 -13-63.8016 269.981   2
   0 -14 -13 12.4612 105.798   7
   0  14  13 15.6027 133.285   4
   0 -14  14 29.4161 115.729   5
   0 -14  14 231.794 132.466   8
   0  14 -14 259.291 278.283   2
   0 -14 -14 165.639 111.934   7
   0  14 -14 24.4391 194.984   3
   0 -14  15-44.2755 122.937   5
   0  14 -15 247.705 207.661   3
   0 -14  15-14.0379 124.957   8
   0  14 -15-98.3223 250.978   2
   0 -14 -15-13.0524 111.495   7
   0 -14  16-59.2930 124.774   5
   0  14 -16 321.967 209.668   3
   0 -14  16-155.508 134.535   8
   0  14 -16 66.1509 283.445   2
   0 -14  17 29.8028 125.643   5
   0 -14  17-241.879 138.930   8
   0  14 -17-74.2070 172.513   3
   0 -14  18 179.978 130.974   5
   0  14 -18 98.6878 195.740   3
   0 -14  19 15.0871 123.634   5
   0 -14  19 29.4618 132.237   8
   0  14 -19 73.8486 191.366   3
   0  14 -19-201.900 282.101   2
   0 -14  20 1062.71 213.096   5
   0 -14  20 1349.49 216.208   8
   0  14 -20 614.084 269.652   3
   0  14 -20 844.211 327.294   2
   0 -14  21 15.3601 129.240   5
   0 -14  21 14.9430 134.194   8
   0  14 -21-270.465 198.815   3
   0  14 -21 67.7360 274.765   2
   0 -14  22 217.856 137.559   5
   0 -14  22 391.940 148.938   8
   0  14 -22-24.4825 188.948   3
   0  14 -22-33.9716 328.267   2
   0 -14  23-60.9620 144.587   8
   0 -14  23-94.8520 128.233   5
   0  14 -23 73.3437 172.653   3
   0  14 -23-443.069 300.978   2
   0 -14  24 15.4352 131.533   8
   0 -14  24 16.1029 128.929   5
   0  14 -24 122.476 178.847   3
   0  14 -24 34.2350 286.130   2
   0 -14  25 16.3806 144.236   5
   0  14 -25-240.927 294.943   2
   0  14 -25-73.7276 172.525   3
   0 -14  25-15.6737 136.417   8
   1  14   0 148.791 175.706   3
  -1  14   0-243.562 190.061   2
  -1 -14   0-18.1213 154.264   5
  -1  14   0 42.0043 188.870   3
   1 -14   0 184.843 118.409   5
  -1 -14   0 270.888 95.1442   8
   1 -14   0 67.3931 88.8242   8
   1  14   0-276.871 175.474   2
  -1  14   1-85.0286 170.182   2
   1  14  -1 129.565 191.767   3
  -1  14  -1-22.8486 190.419   2
  -1 -14  -1-91.1324 154.370   5
  -1  14   1-185.795 186.433   3
  -1 -14   1 126.045 144.193   5
  -1  14  -1-21.3792 184.393   3
  -1  14   1 138.016 137.787   1
   1 -14  -1-26.3963 111.161   5
   1 -14   1 105.674 115.728   5
   1 -14  -1 94.7202 86.8725   8
   1 -14   1 108.674 87.6499   8
   1  14   1 20.7687 156.712   2
  -1  14   1 38.7958 87.7524   4
   1  14  -1 43.5552 178.555   2
  -1 -14   1 40.3791 91.0668   8
   1 -14  -2-31.3982 119.052   6
   1  14  -2 65.8072 194.283   3
  -1 -14  -2-54.9231 148.179   5
  -1 -14   2 55.0876 153.616   5
  -1  14  -2 213.711 196.647   2
  -1  14  -2 173.355 181.803   3
   1 -14   2 148.478 116.927   5
  -1 -14   2 40.5202 90.4560   8
   1 -14   2 131.596 101.845   8
   1 -14  -2-22.4829 101.721   7
  -1  14   2-40.3831 97.4482   4
   1  14  -2 360.974 194.613   2
   1 -14  -3 48.4403 133.428   6
   1  14  -3-44.5342 197.805   3
  -1 -14  -3 110.133 159.851   5
  -1 -14   3 18.2221 147.527   5
  -1  14  -3 131.422 183.212   3
  -1  14  -3-24.5337 212.906   2
   1 -14   3 53.9353 108.924   5
   1 -14   3-10.5758 103.333   8
   1 -14  -3 182.643 106.126   7
  -1 -14  -3 85.3270 97.1250   7
  -1  14   3 31.4332 96.1929   4
   1 -14   4 10.9469 99.4474   8
   1 -14  -4 16.5420 134.260   6
   1  14  -4 45.2877 197.001   3
  -1 -14   4-158.728 156.605   5
  -1  14  -4 110.468 189.354   3
   1 -14   4 80.2265 97.2790   5
   1 -14  -4 57.9369 99.6821   7
  -1 -14  -4 10.5404 91.5124   7
  -1  14   4 97.7989 107.436   4
   1 -14  -5 917.056 202.751   6
  -1  14  -5 1346.81 250.374   3
   1 -14   5 794.711 182.145   5
   1 -14  -5 925.603 182.110   7
  -1 -14  -5 920.379 170.365   7
  -1  14   5 1069.15 180.577   4
   1 -14  -6-34.8372 144.209   6
   1  14  -6-76.9953 233.593   2
  -1 -14   6 10.7367 96.1920   8
  -1 -14  -6 10.4833 90.7289   7
  -1  14   6-140.285 117.132   4
   1  14  -7 1024.71 308.007   3
   1  14  -7 1375.77 344.625   2
  -1 -14   7 1213.40 242.023   5
  -1 -14   7 1208.91 207.615   8
   1 -14   7 859.245 209.421   8
   1  14  -8-121.011 237.105   3
   1  14  -8-354.742 266.031   2
  -1 -14   8-135.538 149.881   5
  -1  14  -8 182.590 208.518   3
   1 -14   8 13.3689 127.546   5
  -1 -14   8-157.999 115.474   8
   1 -14   8-87.7856 130.126   8
  -1  14  -8 203.508 278.692   2
   1 -14  -8-48.3286 115.638   7
   1 -14  -9 334.296 161.620   6
   1  14  -9 147.399 220.844   3
   1  14  -9-168.776 237.085   2
  -1 -14   9 134.434 137.490   5
   1 -14   9 388.300 128.542   5
  -1  14  -9 68.6233 186.859   3
  -1 -14   9 337.284 119.731   8
   1 -14   9 78.0476 129.261   8
  -1  14  -9 209.174 254.771   2
   1 -14  -9 146.679 118.019   7
  -1 -14  -9 340.220 105.711   7
  -1  14   9 245.376 135.184   4
   1 -14 -10 151.793 142.605   6
   1  14 -10 24.8998 181.051   3
   1  14 -10-144.802 248.198   2
  -1 -14  10 50.0316 138.126   5
   1 -14  10-107.436 102.199   5
  -1  14 -10-185.633 188.311   3
  -1 -14  10 47.3185 103.341   8
   1 -14  10 131.917 118.868   8
  -1  14 -10 244.943 236.311   2
   1 -14 -10 37.1023 104.154   7
  -1 -14 -10 118.693 85.5961   7
  -1  14  10 26.7552 125.106   4
   1 -14 -11-96.5082 160.261   6
   1  14 -11-100.680 201.382   3
  -1 -14  11-66.2186 132.916   5
   1  14 -11-29.7937 240.037   2
   1 -14  11 40.5216 112.877   5
  -1 -14  11 12.2055 103.622   8
  -1  14 -11 186.030 193.074   3
  -1  14 -11-156.245 241.119   2
   1 -14 -11-37.6031 110.625   7
  -1  14  11 55.0569 126.942   4
   1 -14  11 13.6594 130.533   8
   1 -14 -12-19.6847 162.978   6
   1  14 -12-202.992 224.633   3
  -1 -14  12-32.6215 136.822   5
   1 -14  12 81.6046 112.291   5
  -1 -14  12-88.2949 113.639   8
  -1  14 -12-139.541 175.421   3
   1 -14  12-82.8653 118.790   8
  -1  14 -12 317.956 271.640   2
   1  14 -12-91.2235 252.517   2
   1 -14 -12-25.4459 112.388   7
  -1  14  12-14.2464 123.638   4
   1 -14 -13 239.632 148.065   6
   1  14 -13 102.178 218.273   3
  -1 -14  13 433.802 145.339   5
   1  14 -13 124.695 258.615   2
  -1 -14  13 357.923 124.358   8
  -1  14 -13-69.7087 180.860   3
  -1  14 -13-96.8191 241.118   2
   1 -14 -13 77.8275 119.719   7
   1 -14  13-57.0489 128.575   8
   1 -14  13 54.8171 105.283   5
  -1  14  13 117.126 136.216   4
   1 -14 -14-264.301 166.672   6
   1  14 -14-128.481 204.209   3
   1  14 -14-221.722 281.989   2
   1 -14  14 55.6378 107.441   5
  -1 -14  14 13.1260 122.737   8
   1 -14  14-100.636 134.411   8
  -1  14 -14-69.5375 176.892   3
  -1 -14  14-63.3235 135.319   5
  -1  14 -14-228.403 261.107   2
   1 -14 -14 237.808 122.583   7
  -1  14  14-151.485 139.057   4
   1 -14 -15 144.033 166.103   6
  -1 -14  15 47.3308 135.171   5
   1 -14  15 14.0272 116.178   5
  -1 -14  15 66.3223 117.866   8
   1 -14  15 133.558 136.536   8
   1  14 -15 96.7976 267.232   2
  -1  14 -15 138.751 171.215   3
  -1  14 -15 32.9445 261.013   2
   1  14 -15-77.3945 215.838   3
   1 -14 -15 148.239 124.395   7
  -1  14  15 62.2012 149.331   4
   1 -14 -16-209.243 161.925   6
  -1 -14  16-15.7285 130.329   5
   1  14 -16-207.174 226.249   3
   1  14 -16 130.482 278.920   2
   1 -14  16 14.1368 122.123   5
  -1 -14  16-27.2251 131.933   8
   1 -14  16 14.9369 135.388   8
  -1  14 -16-92.3226 186.362   3
  -1  14 -16-132.776 285.547   2
   1 -14 -16-261.619 127.254   7
  -1  14  16-177.063 158.764   4
   1 -14 -17 148.035 160.708   6
  -1 -14  17 15.7080 134.182   5
   1  14 -17-181.537 213.925   3
   1 -14  17 28.5122 121.405   5
   1 -14  17-120.254 155.808   8
  -1  14 -17-161.739 177.614   3
  -1  14 -17 33.3428 281.300   2
   1 -14 -17 112.703 131.626   7
  -1  14  17-49.5604 159.028   4
   1  14 -18-207.860 218.779   3
   1  14 -18-299.869 284.814   2
   1 -14  18-390.137 127.981   5
   1 -14  18 15.1272 144.960   8
  -1  14 -18-93.7219 170.632   3
  -1 -14  18 15.7390 129.849   5
   1 -14 -18 72.1601 130.712   7
  -1  14  18 220.602 163.312   4
  -1 -14  19 410.406 168.014   5
   1  14 -19 233.849 229.260   3
  -1 -14  19 835.047 167.058   8
   1 -14  19 792.054 169.950   5
   1  14 -19 435.454 303.826   2
  -1  14 -19 350.080 213.762   3
   1 -14 -19 858.015 171.630   7
  -1  14  19 504.287 186.573   4
  -1 -14  20 15.8451 137.411   5
  -1 -14  20-14.2475 130.007   8
   1  14 -20-129.783 206.218   3
   1 -14  20 14.9305 120.291   5
   1 -14  20 15.7586 146.855   8
   1  14 -20 33.6372 275.635   2
  -1  14 -20 93.2529 172.287   3
  -1  14 -20-202.648 241.274   2
  -1 -14  21 573.123 160.154   5
  -1 -14  21 602.844 158.848   8
   1 -14  21 604.383 174.910   8
   1 -14  21 685.415 160.389   5
   1  14 -21 414.178 239.948   3
   1  14 -21 843.601 322.578   2
  -1  14 -21 186.854 200.286   3
  -1  14 -21 440.773 308.582   2
  -1 -14  22 15.9854 139.125   5
  -1 -14  22 57.8812 145.307   8
   1 -14  22 64.3491 152.297   8
   1  14 -22-101.935 294.704   2
   1 -14  22-155.203 135.083   5
   1  14 -22-103.297 212.372   3
  -1  14 -22-257.731 179.490   3
  -1  14 -22 340.438 345.472   2
  -1 -14  23 176.697 136.053   5
  -1 -14  23 146.035 142.101   8
   1 -14  23 16.3016 158.136   8
   1  14 -23 579.380 312.883   2
   1 -14  23 15.8066 129.652   5
   1  14 -23-25.4417 194.454   3
  -1  14 -23-23.6053 168.317   3
  -1  14 -23 205.342 306.587   2
  -1 -14  24 118.146 131.328   8
  -1 -14  24-324.471 153.331   5
   1 -14  24 49.6796 153.331   8
   1  14 -24 205.195 303.661   2
   1 -14  24-113.062 128.568   5
   1  14 -24-177.224 197.704   3
  -1  14 -24 23.8641 170.663   3
  -1  14 -24-137.715 284.107   2
  -1 -14  25-134.661 141.073   8
  -1 -14  25-196.896 141.578   5
   1  14 -25-377.681 307.604   2
   1 -14  25 148.856 137.458   5
   1  14 -25 25.2713 190.212   3
  -1  14 -25 24.2017 171.829   3
  -1  14 -25-659.003 316.739   2
  -1 -14  26 16.6476 134.493   5
   1  14 -26-253.003 202.669   3
  -2 -14   0 178.030 193.169   5
  -2  14   0 90.3159 185.720   2
  -2  14   0 142.926 187.063   3
   2 -14   0 202.033 106.690   5
   2 -14   0 474.522 110.682   8
  -2 -14  -1 247.343 178.015   5
  -2 -14   1-21.9516 178.079   5
  -2  14   1-29.5864 131.690   1
  -2  14  -1-23.3838 189.050   2
  -2  14  -1-20.7347 167.634   3
   2 -14   1-51.9128 95.0083   8
   2 -14   1-22.5827 94.3725   5
  -2  14   1-9.39864 83.6775   4
   2  14  -1-43.8945 174.372   2
   2 -14  -2 354.236 145.771   6
  -2 -14  -2 136.071 183.379   5
  -2 -14   2 216.336 170.812   5
   2 -14   2 115.351 90.9806   5
  -2  14  -2 62.5306 175.539   3
  -2  14  -2-48.7508 208.078   2
   2 -14   2 299.674 106.995   8
   2 -14  -2 204.927 112.999   7
  -2  14   2-46.5716 141.042   1
  -2  14   2 146.220 102.327   4
   2 -14  -3 248.632 135.024   6
  -2 -14  -3 45.6464 165.260   5
   2 -14   3 23.1985 93.9273   5
  -2  14  -3-21.1538 182.980   3
   2 -14   3-90.1110 98.9842   8
  -2  14  -3-126.438 204.505   2
  -2  14   3 16.3800 136.549   1
   2 -14  -3-48.4892 111.633   7
  -2 -14  -3 104.397 81.9899   7
  -2  14   3 141.425 96.6850   4
   2 -14  -4 152.279 138.128   6
   2 -14   4 165.676 104.093   5
   2 -14   4 198.699 107.206   8
  -2  14  -4 340.804 230.557   2
  -2  14  -4-275.627 182.875   3
   2 -14  -4 134.155 104.055   7
  -2 -14  -4 75.7634 87.5682   7
  -2  14   4 209.528 103.468   4
  -2  14   4-67.8702 153.516   1
   2  14  -5 72.1081 207.822   2
   2 -14  -5 156.396 142.871   6
  -2  14   5-70.0468 153.662   1
  -2 -14   5-53.2219 96.8699   8
   2 -14   5 11.9095 98.8862   5
  -2  14  -5 42.5322 167.148   3
   2 -14  -5 73.6474 114.389   7
  -2  14   5-108.254 110.561   4
   2 -14  -6 705.436 191.329   6
   2  14  -6 475.039 255.820   2
   2  14  -6 470.957 250.673   3
  -2 -14   6 555.004 187.757   5
  -2 -14   6 452.024 129.906   8
  -2  14   6 558.710 146.023   4
   2  14  -7-154.510 231.915   2
   2  14  -7 452.049 241.270   3
  -2 -14   7 410.781 179.214   5
  -2 -14   7 207.401 109.721   8
   2 -14   7 237.143 141.076   8
  -2  14  -7 115.365 277.319   2
   2  14  -8 132.683 225.865   2
   2  14  -8 96.7515 214.698   3
  -2 -14   8 19.3217 152.728   5
  -2 -14   8 232.537 107.566   8
   2 -14   8 346.158 118.675   5
  -2  14  -8 215.637 182.076   3
   2 -14   8-26.7774 128.658   8
  -2  14  -8-296.245 260.452   2
   2 -14  -8 12.5509 114.444   7
   2 -14  -9 93.2756 149.258   6
   2  14  -9-164.030 235.665   2
   2  14  -9-73.6306 198.418   3
  -2 -14   9-114.289 164.695   5
  -2 -14   9-67.7476 106.839   8
   2 -14   9 49.9597 101.663   5
  -2  14  -9 21.5192 164.791   3
   2 -14   9-97.4816 125.006   8
  -2  14  -9-121.333 267.708   2
   2 -14  -9 127.048 119.913   7
  -2  14   9 61.4836 117.510   4
   2 -14 -10 95.2764 154.593   6
   2  14 -10 55.8997 222.065   2
   2  14 -10-24.9038 203.402   3
  -2 -14  10-18.7856 146.054   5
  -2 -14  10-34.6230 106.181   8
   2 -14  10-25.2563 103.160   5
   2 -14  10-28.9547 128.888   8
  -2  14 -10 87.2888 172.770   3
  -2  14 -10-124.078 251.640   2
   2 -14 -10 89.8691 112.021   7
  -2  14  10 88.9761 118.169   4
   2 -14 -11 58.1141 149.474   6
   2  14 -11 57.5023 232.436   2
   2  14 -11 50.5348 209.795   3
  -2 -14  11-55.5993 148.285   5
  -2  14 -11 174.185 181.369   3
  -2 -14  11-118.206 117.044   8
   2 -14  11 12.7581 105.590   5
   2 -14  11 43.9317 131.089   8
  -2  14 -11 31.5841 248.244   2
   2 -14 -11 104.050 119.954   7
  -2  14  11-169.746 118.831   4
   2 -14 -12 316.064 163.628   6
   2  14 -12 236.401 244.208   2
   2  14 -12-307.488 236.785   3
  -2 -14  12 165.005 151.966   5
  -2 -14  12 72.1088 105.591   8
   2 -14  12 90.8467 109.129   5
   2 -14  12 15.2248 136.339   8
  -2  14 -12 239.126 176.375   3
   2 -14 -12 65.7223 121.821   7
  -2  14 -12 577.770 282.047   2
  -2  14  12 147.682 136.156   4
   2 -14 -13 100.354 157.323   6
   2  14 -13 60.2476 248.576   2
   2  14 -13 25.9709 214.334   3
  -2 -14  13 18.1515 144.366   5
  -2 -14  13-24.6453 109.586   8
   2 -14  13 65.5745 98.3361   5
   2 -14  13 76.8000 145.855   8
  -2  14 -13 108.803 152.848   3
   2 -14 -13 106.729 119.614   7
  -2  14 -13 389.978 279.380   2
  -2  14  13-41.4927 126.723   4
   2 -14 -14 305.724 176.518   6
   2  14 -14 30.8485 266.410   2
   2  14 -14 131.276 206.630   3
  -2 -14  14 369.666 159.392   5
  -2 -14  14 569.869 131.630   8
   2 -14  14 412.947 129.068   5
   2 -14  14 350.511 159.996   8
  -2  14 -14 22.0732 166.433   3
   2 -14 -14 420.154 139.270   7
  -2  14 -14 361.545 282.526   2
  -2  14  14 156.025 138.439   4
   2 -14 -15 186.707 161.871   6
   2  14 -15 126.017 265.792   2
   2  14 -15 158.892 211.883   3
  -2 -14  15-34.6611 144.831   5
  -2 -14  15 102.649 121.416   8
   2 -14  15-257.350 113.196   5
   2 -14  15-64.2105 135.861   8
  -2  14 -15 197.829 145.596   3
   2 -14 -15 13.7902 125.502   7
  -2  14  15 87.6626 137.905   4
   2 -14 -16-42.0412 175.780   6
   2  14 -16 26.6685 225.084   3
  -2 -14  16 17.0545 139.899   5
   2 -14  16-242.542 161.682   8
   2 -14  16-110.294 121.848   5
  -2  14 -16-131.708 170.135   3
   2 -14 -16-84.2578 136.955   7
  -2  14  16 225.907 141.577   4
   2 -14 -17 42.6143 166.306   6
   2  14 -17-129.123 272.373   2
   2  14 -17-268.465 224.387   3
  -2 -14  17-16.7942 143.080   5
   2 -14  17 14.0653 116.101   5
   2 -14  17-48.8893 150.749   8
  -2  14 -17 219.887 172.252   3
   2 -14 -17-42.7722 122.608   7
  -2  14  17-154.385 147.233   4
   2 -14 -18 129.932 171.205   6
   2  14 -18 229.420 294.775   2
   2  14 -18 377.547 233.899   3
  -2 -14  18-16.7215 141.395   5
  -2 -14  18 403.439 134.126   8
   2 -14  18 230.057 161.520   8
   2 -14  18 71.8972 124.212   5
  -2  14 -18-22.0499 157.910   3
   2 -14 -18 72.7507 135.104   7
  -2  14  18 63.7201 142.599   4
   2 -14 -19-131.453 177.331   6
   2  14 -19 132.048 269.747   2
  -2 -14  19-16.6589 139.037   5
   2  14 -19-160.556 212.018   3
  -2 -14  19-41.4356 129.337   8
   2 -14  19-248.829 159.149   8
   2 -14  19-14.6760 130.186   5
  -2  14 -19-22.4148 163.141   3
   2 -14 -19-14.8559 128.357   7
  -2  14  19-98.7496 146.345   4
   2 -14 -20 22.1358 191.236   6
   2  14 -20 365.235 293.683   2
  -2 -14  20 448.881 159.270   5
  -2 -14  20 570.976 139.174   8
   2 -14  20 420.126 155.637   5
  -2  14 -20-22.5800 175.084   3
   2 -14 -20 288.478 144.666   7
   2  14 -20 375.650 230.115   3
  -2  14  20 472.674 166.552   4
   2 -14 -21 22.3609 166.629   6
  -2 -14  21-66.5579 149.813   5
   2  14 -21 53.6892 210.251   3
  -2 -14  21 14.0364 122.490   8
   2 -14  21 17.5064 155.865   8
   2 -14  21 107.540 125.090   5
  -2  14 -21 22.8313 163.845   3
   2  14 -21 33.3487 269.621   2
  -2  14  21 17.4727 159.040   4
  -2 -14  22 83.3310 156.861   5
  -2 -14  22 240.634 154.263   8
   2  14 -22 187.830 236.426   3
   2 -14  22 337.615 203.439   8
   2 -14  22 31.4210 139.845   5
  -2  14 -22 208.381 201.745   3
  -2  14  22 646.499 213.471   4
   2  14 -23 371.945 284.401   2
  -2 -14  23 16.7065 131.854   5
  -2 -14  23 14.2859 125.429   8
   2  14 -23-80.3216 204.290   3
   2 -14  23 70.1228 172.037   8
   2 -14  23-159.568 136.371   5
  -2  14 -23-47.1060 169.045   3
   2 -14 -23-48.8670 136.189   7
  -2  14  23-165.848 173.541   4
   2  14 -24 237.501 284.637   2
  -2 -14  24 16.6491 135.021   5
  -2 -14  24-57.7571 129.694   8
   2 -14  24-286.054 169.080   8
   2  14 -24 26.7073 196.036   3
   2 -14  24-210.853 147.988   5
  -2  14 -24 72.1387 173.608   3
   2  14 -25 102.146 281.844   2
  -2 -14  25 58.4529 131.309   8
  -2 -14  25-267.203 141.900   5
   2  14 -25 26.6586 195.477   3
   2 -14  25 16.5384 128.703   5
  -2  14 -25-73.7869 171.909   3
   2  14 -26-240.128 214.412   3
  -3 -14   0-134.300 217.152   5
  -3 -14   1 639.960 248.566   5
   3 -14   1 873.012 162.366   5
   3 -14   1 698.278 174.923   8
  -3  14   1 1134.03 193.322   1
  -3  14  -1 1080.77 222.581   3
  -3  14  -1 1153.60 272.682   2
   3 -14  -1 594.560 182.905   7
  -3  14   1 1055.42 164.722   4
   3 -14  -1 1217.27 208.687   6
   3 -14   2 74.4195 92.0046   5
   3 -14   2 34.5731 107.149   8
  -3  14  -2 39.2170 168.205   3
  -3  14  -2 299.334 219.665   2
  -3  14   2-102.276 132.851   1
   3 -14  -2 13.3976 119.533   7
  -3  14   2 192.831 94.4960   4
   3 -14  -2-69.5000 153.998   6
   3 -14   3 10.7968 84.9221   5
   3 -14   3-36.0393 111.708   8
  -3  14  -3 59.6335 161.828   3
  -3  14  -3-206.623 246.230   2
   3 -14  -3 145.102 125.788   7
  -3  14   3 59.9804 103.883   4
   3  14  -3-45.8942 168.915   2
  -3  14   3-15.3347 144.040   1
   3 -14  -3 105.756 157.811   6
  -3  14   4 80.4124 153.076   1
  -3 -14   4-151.094 105.347   8
   3 -14   4 88.2572 102.494   5
   3 -14   4 50.1403 122.582   8
  -3  14  -4-158.697 173.686   3
  -3  14  -4-427.629 265.918   2
   3 -14  -4-158.101 125.770   7
  -3  14   4 72.0531 103.288   4
   3  14  -4-301.701 221.877   2
   3 -14  -4 17.8626 164.870   6
  -3 -14   5 536.071 238.608   5
  -3 -14   5 174.913 116.072   8
   3 -14   5 100.672 113.645   5
  -3  14  -5 723.997 217.890   3
  -3  14   5 276.670 123.187   4
   3  14  -5 687.874 239.060   2
   3 -14  -5 457.446 187.247   6
  -3 -14   6-250.664 211.320   5
  -3 -14   6 55.1269 109.778   8
   3  14  -6-145.281 218.011   2
   3  14  -7 96.3497 198.043   3
  -3 -14   7 267.690 172.131   5
  -3  14   7 18.3063 142.844   1
  -3 -14   7-77.4981 101.575   8
   3 -14   7-86.0801 133.360   8
   3 -14  -7-39.5912 123.625   7
  -3  14  -7-29.3249 261.771   2
   3  14  -7 24.8006 207.254   2
   3  14  -8-48.4257 199.070   3
  -3 -14   8 21.2817 160.466   5
  -3 -14   8 22.3823 98.7721   8
   3 -14   8-70.8343 96.7439   5
   3 -14   8-15.0051 132.811   8
  -3  14  -8 61.1187 147.442   3
  -3  14   8 94.8420 170.743   1
   3 -14  -8-92.5449 120.315   7
  -3  14   8 34.7847 108.612   4
   3 -14  -8 114.609 173.360   6
   3  14  -8-127.365 201.658   2
   3 -14  -9 19.3546 143.114   6
   3  14  -9 26.2274 204.698   2
  -3  14   9 19.5605 173.690   1
   3  14  -9 195.116 215.924   3
  -3 -14   9-20.9211 172.074   5
  -3 -14   9-102.004 100.718   8
   3 -14   9 72.1458 95.3148   5
   3 -14   9 152.321 140.561   8
  -3  14  -9 20.2823 146.864   3
   3 -14  -9 53.4997 116.090   7
  -3  14   9 107.025 113.185   4
   3 -14 -10-177.651 164.422   6
   3  14 -10-54.0209 218.362   2
   3  14 -10-344.506 219.040   3
  -3 -14  10 144.161 168.758   5
  -3 -14  10 34.6001 104.103   8
   3 -14  10 110.281 103.052   5
   3 -14  10 31.8280 144.430   8
  -3  14  10 140.777 187.415   1
  -3  14 -10 41.1376 158.112   3
   3 -14 -10-174.495 119.480   7
  -3  14  10 48.7132 118.638   4
   3 -14 -11 39.9380 157.173   6
   3  14 -11 83.4658 230.060   2
   3  14 -11-125.028 200.876   3
  -3 -14  11 487.607 176.857   5
  -3 -14  11 222.609 113.014   8
   3 -14  11 137.444 107.274   5
   3 -14  11 434.771 163.112   8
  -3  14 -11 61.6109 150.649   3
   3 -14 -11 230.971 137.056   7
  -3  14  11 41.3837 175.749   1
  -3  14  11 237.595 126.789   4
   3 -14 -12-181.110 164.364   6
   3  14 -12-141.863 210.546   2
   3  14 -12 25.3769 213.433   3
  -3 -14  12 100.056 151.496   5
  -3 -14  12 35.6868 108.571   8
   3 -14  12 25.5406 102.913   5
   3 -14  12-84.0449 153.809   8
  -3  14 -12 62.5296 159.631   3
   3 -14 -12-122.740 115.443   7
  -3  14  12 25.6112 114.012   4
   3 -14 -13 831.354 197.577   6
   3  14 -13 87.5369 251.100   2
   3  14 -13 77.2876 234.041   3
  -3 -14  13 848.464 188.152   5
  -3 -14  13 861.099 153.512   8
   3 -14  13 810.674 147.898   5
   3 -14  13 526.279 185.424   8
  -3  14 -13 104.353 183.703   3
   3 -14 -13 552.889 154.106   7
  -3  14  13 526.154 155.895   4
   3 -14 -14 103.168 164.767   6
   3  14 -14 59.9099 245.634   2
   3  14 -14 235.513 227.793   3
  -3 -14  14 361.211 181.016   5
  -3 -14  14 49.3305 110.473   8
   3 -14  14 40.0202 110.065   5
   3 -14  14-53.1974 168.874   8
  -3  14 -14 41.8564 157.447   3
   3 -14 -14 153.584 123.922   7
  -3  14  14-94.6970 131.800   4
   3 -14 -15 230.206 182.378   6
   3  14 -15 159.461 227.469   3
  -3 -14  15 282.451 166.318   5
   3 -14  15 395.474 125.186   5
   3 -14  15-89.4923 159.152   8
  -3  14 -15 126.319 145.448   3
   3 -14 -15 14.1725 122.827   7
  -3  14  15 222.836 128.101   4
   3 -14 -16 63.5928 174.977   6
   3  14 -16 93.3517 268.319   2
   3  14 -16 242.756 246.210   3
  -3 -14  16 56.0201 170.058   5
   3 -14  16 126.559 176.665   8
   3 -14  16 69.8030 106.290   5
  -3  14 -16 128.461 167.794   3
   3 -14 -16-57.6052 130.865   7
  -3  14  16-28.5178 140.039   4
   3 -14 -17 64.4527 157.597   6
   3  14 -17-220.707 256.717   2
   3  14 -17-217.169 238.287   3
  -3 -14  17 18.5255 140.927   5
  -3 -14  17-52.0835 118.991   8
   3 -14  17-200.315 123.140   5
   3 -14  17 73.0858 163.228   8
  -3  14 -17-64.8874 155.323   3
   3 -14 -17 14.6432 124.482   7
  -3  14  17-14.6249 135.387   4
   3 -14 -18 21.8344 162.675   6
   3  14 -18 128.391 273.337   2
   3  14 -18-164.278 232.439   3
  -3 -14  18 18.2436 147.992   5
  -3 -14  18 131.782 128.682   8
   3 -14  18-258.826 182.212   8
   3 -14  18-43.9104 121.528   5
  -3  14 -18 153.410 169.737   3
   3 -14 -18-119.200 144.809   7
  -3  14  18 180.501 149.949   4
   3 -14 -19 22.1315 174.486   6
   3  14 -19 64.7964 267.596   2
   3  14 -19 55.1978 216.566   3
  -3 -14  19 53.8850 144.859   5
  -3 -14  19 13.3253 124.614   8
   3 -14  19 37.4684 166.850   8
   3 -14  19 193.328 134.562   5
  -3  14 -19 268.008 176.706   3
   3 -14 -19 136.553 127.932   7
  -3  14  19 154.824 143.067   4
   3 -14 -20-44.8088 191.977   6
   3  14 -20 65.3227 264.053   2
   3  14 -20 27.7678 219.047   3
  -3 -14  20-53.0639 146.876   5
  -3 -14  20 13.5886 122.671   8
   3 -14  20 19.0185 170.256   8
   3 -14  20 45.3427 134.932   5
  -3  14 -20 204.462 162.303   3
   3 -14 -20 92.7220 129.571   7
  -3  14  20-142.857 136.846   4
   3 -14 -21 22.6866 191.529   6
   3  14 -21 32.8627 249.828   2
  -3 -14  21 233.352 144.220   8
   3  14 -21 111.753 226.745   3
   3 -14  21 30.8083 144.464   5
  -3  14 -21 23.1799 167.904   3
  -3 -14  21 17.3433 150.570   5
  -3  14  21-65.4652 147.082   4
   3 -14 -22 183.522 199.667   6
   3  14 -22-299.151 319.276   2
  -3 -14  22-103.877 152.094   5
   3  14 -22 28.0371 232.906   3
  -3 -14  22 13.8619 140.544   8
   3 -14  22 19.7149 194.449   8
   3 -14  22-47.4861 156.541   5
   3 -14 -22-96.3415 146.703   7
  -3  14 -22-23.6838 196.144   3
  -3  14  22-202.800 180.358   4
   3 -14 -23-116.493 178.531   6
   3  14 -23 133.544 273.650   2
  -3 -14  23 190.577 148.583   5
   3  14 -23 28.1317 221.998   3
  -3 -14  23 224.050 134.295   8
   3 -14  23 20.1478 171.163   8
   3 -14  23 16.2590 130.696   5
   3 -14 -23-114.590 145.443   7
  -3  14 -23-97.0924 170.449   3
  -3  14  23 87.4111 155.306   4
   3 -14 -24-141.235 188.415   6
   3  14 -24 368.767 291.641   2
  -3 -14  24 69.3895 137.442   5
  -3 -14  24 70.7898 139.329   8
   3  14 -24-83.2825 206.068   3
   3 -14  24 144.536 192.994   8
   3 -14 -24-33.3686 138.189   7
  -3  14 -24 174.132 194.888   3
  -3  14  24 18.1209 171.550   4
   3 -14 -25-118.827 185.497   6
   3  14 -25 269.336 289.386   2
  -3 -14  25-17.3699 141.469   5
   3  14 -25 110.822 211.409   3
  -3  14  25 130.424 185.387   4
  -4  14   0 1906.07 247.079   4
  -4  14   0 1121.28 255.693   1
   4 -14  -1 217.636 169.461   7
  -4  14   1 667.075 127.273   4
  -4  14   1 503.077 147.460   1
   4 -14  -1 618.538 204.010   6
  -4  14   2 878.678 204.879   1
   4 -14   2 1019.73 172.877   5
   4 -14   2 613.704 190.588   8
  -4  14  -2 775.253 220.277   3
  -4  14   2 1501.10 188.447   4
   4 -14  -2 945.857 214.180   7
  -4  14  -2 835.985 281.793   2
   4 -14  -2 632.274 239.949   6
  -4  14   3 674.599 199.341   1
   4 -14   3 453.873 153.027   5
   4 -14   3 1277.65 203.942   8
  -4  14  -3 729.647 223.972   3
   4 -14  -3 435.658 192.382   7
  -4  14   3 951.773 164.951   4
  -4  14  -3 1498.41 322.417   2
   4 -14  -3 1293.88 244.397   6
  -4 -14   4-162.324 232.697   5
   4 -14   4-10.8258 95.1777   5
   4 -14   4-28.2968 143.866   8
  -4  14  -4 18.9744 163.832   3
  -4  14   4-183.247 110.438   4
   4 -14  -4-38.9427 192.136   6
  -4 -14   5-209.743 235.050   5
  -4  14  -5 284.658 151.330   3
  -4 -14   6-25.4658 198.757   5
   4 -14  -6-28.7557 133.729   7
  -4  14   6-147.977 143.513   1
   4  14  -6 120.530 171.516   2
  -4 -14   7 618.581 221.160   5
  -4 -14   7 530.680 126.476   8
   4 -14   7 535.609 128.212   5
   4 -14   7 368.034 177.213   8
   4 -14  -7 343.384 157.083   7
  -4  14   7 438.211 140.019   4
   4  14  -7 367.985 217.589   2
  -4  14   7 584.832 179.035   1
   4 -14  -7 563.554 189.668   6
  -4  14   8 53.9336 132.465   1
  -4 -14   8-120.499 192.924   5
  -4 -14   8 68.7119 110.422   8
   4 -14   8 107.309 99.8407   5
   4 -14   8 16.8436 164.980   8
  -4  14  -8-136.939 151.646   3
   4 -14  -8 57.0314 129.204   7
  -4  14   8 78.8179 109.356   4
   4  14  -8 99.8941 176.154   2
   4 -14  -8 81.9649 179.393   6
  -4 -14   9 160.191 173.061   5
  -4  14   9 169.075 169.142   1
  -4 -14   9 185.072 111.558   8
   4 -14   9 268.295 109.684   5
   4 -14   9 106.410 162.518   8
  -4  14  -9 39.3264 156.624   3
   4 -14  -9 71.9251 124.739   7
  -4  14   9 300.816 112.120   4
   4  14  -9 204.076 191.747   2
   4 -14  -9 267.768 176.700   6
   4  14 -10 73.7124 187.440   3
  -4 -14  10 67.1787 186.049   5
  -4 -14  10 140.475 103.733   8
  -4  14  10 38.5805 180.055   1
   4 -14  10 137.470 98.5352   5
   4 -14  10 35.9875 157.369   8
  -4  14 -10 179.709 164.447   3
   4 -14 -10 301.795 138.315   7
  -4  14  10 59.3620 112.137   4
   4  14 -10 25.8971 212.846   2
   4 -14 -10 165.645 166.477   6
   4  14 -11 24.7490 206.181   3
  -4 -14  11 153.890 191.548   5
  -4 -14  11 177.505 101.988   8
   4 -14  11 396.901 191.985   8
   4 -14  11 191.792 111.096   5
  -4  14  11 341.444 173.190   1
  -4  14 -11 20.1431 152.524   3
   4 -14 -11 215.485 132.158   7
  -4  14  11 157.657 118.560   4
   4  14 -11 79.7099 211.667   2
   4 -14 -11 104.099 161.180   6
   4  14 -12 49.9423 204.037   3
  -4 -14  12 346.198 180.921   5
  -4 -14  12 383.603 121.546   8
   4 -14  12 172.325 182.727   8
   4 -14  12 275.559 118.521   5
  -4  14 -12 102.352 171.141   3
   4 -14 -12 159.766 148.065   7
  -4  14  12 236.497 136.520   4
   4 -14 -12 543.604 184.928   6
   4  14 -12 218.437 234.051   2
   4  14 -13 196.620 229.803   2
  -4  14  13 193.392 190.359   1
   4  14 -13 202.466 217.579   3
  -4 -14  13 490.892 183.637   5
  -4 -14  13 268.475 114.710   8
   4 -14  13 135.725 179.427   8
   4 -14  13 295.560 114.773   5
  -4  14 -13 290.064 158.443   3
   4 -14 -13 58.1537 135.632   7
  -4  14  13 76.3893 127.572   4
   4 -14 -13 340.000 186.686   6
   4 -14 -14 407.306 187.901   6
   4  14 -14 437.240 232.612   3
  -4 -14  14 533.963 198.482   5
  -4  14  14 574.999 206.762   1
   4 -14  14 628.290 203.499   8
   4 -14  14 628.074 155.777   5
  -4  14 -14 231.864 181.377   3
   4 -14 -14 73.6008 155.096   7
  -4  14  14 1000.95 165.830   4
   4 -14 -15-172.969 172.646   6
   4  14 -15 26.1829 219.040   3
  -4 -14  15 20.2855 183.554   5
   4 -14  15 82.3795 191.817   8
   4 -14  15 83.9513 129.785   5
  -4  14  15 596.924 236.499   1
  -4  14 -15 149.809 169.124   3
   4 -14 -15 298.282 151.074   7
  -4  14  15 585.927 147.764   4
   4 -14 -16-21.7297 163.966   6
   4  14 -16 90.3280 242.698   2
   4  14 -16 53.4031 226.297   3
  -4 -14  16 80.2331 172.164   5
  -4 -14  16 421.438 124.220   8
   4 -14  16 83.5290 193.785   8
   4 -14  16 71.1303 113.469   5
  -4  14  16 497.181 222.243   1
   4 -14 -16 134.752 142.946   7
  -4  14 -16 43.5865 153.747   3
  -4  14  16 176.936 138.879   4
   4 -14 -17 327.733 183.327   6
   4  14 -17-61.0941 246.283   2
   4  14 -17 326.155 230.062   3
  -4 -14  17 437.553 171.743   5
  -4 -14  17 467.043 143.628   8
   4 -14  17 466.338 198.383   8
   4 -14  17 203.105 129.948   5
   4 -14 -17 334.257 136.753   7
  -4  14 -17 88.8804 166.923   3
  -4  14  17-171.025 211.256   1
  -4  14  17 237.397 142.115   4
   4 -14 -18-266.301 195.890   6
   4  14 -18 30.9390 234.226   2
   4  14 -18-27.6507 234.770   3
  -4 -14  18 19.7435 164.502   5
  -4 -14  18 52.5374 117.959   8
   4 -14  18 193.959 199.310   8
   4 -14  18 29.8136 126.998   5
   4 -14 -18-77.1153 133.004   7
  -4  14 -18-204.042 182.692   3
  -4  14  18-129.171 126.358   4
  -4  14  18 126.258 235.348   1
  -4  14  19 157.181 214.598   1
   4 -14 -19-22.4717 184.895   6
   4  14 -19 63.1180 246.805   2
   4  14 -19-84.1868 226.701   3
  -4 -14  19 230.258 166.741   5
  -4 -14  19 159.784 126.149   8
   4 -14  19 285.260 210.353   8
   4 -14  19 107.102 138.729   5
   4 -14 -19 109.664 146.570   7
  -4  14 -19 162.372 171.529   3
  -4  14  19 103.411 134.019   4
   4 -14 -20-181.919 191.886   6
   4  14 -20 63.7450 275.604   2
   4  14 -20-227.381 237.549   3
  -4 -14  20 75.7521 157.288   5
  -4 -14  20 67.5880 124.397   8
   4 -14  20 89.5818 198.257   8
  -4  14 -20-189.729 176.023   3
  -4  14  20-45.4552 136.441   4
   4 -14 -21 322.316 204.983   6
   4  14 -21 482.012 284.891   2
   4  14 -21-313.424 268.261   3
  -4 -14  21 205.334 179.992   5
  -4 -14  21 246.361 147.584   8
   4 -14  21 870.275 249.966   8
  -4  14 -21-218.189 185.498   3
  -4  14  21 186.356 161.566   4
   4 -14 -22-163.234 181.967   6
   4  14 -22 32.6274 256.455   2
  -4  14  22 116.776 259.143   1
   4  14 -22-57.4378 234.561   3
  -4 -14  22 18.4036 157.225   5
  -4 -14  22 110.824 139.362   8
   4 -14 -22 16.4559 145.255   7
  -4  14  22 15.9874 160.113   4
   4 -14 -23 330.299 197.589   6
   4  14 -23 32.8200 263.921   2
  -4  14  23 90.9965 259.928   1
   4  14 -23 231.581 239.129   3
  -4 -14  23 165.005 164.607   5
  -4 -14  23 434.547 147.679   8
   4 -14 -23 636.016 167.708   7
  -4  14  23 131.822 160.032   4
   4 -14 -24-167.206 195.792   6
  -4  14  24 283.959 287.161   1
   4  14 -24 396.097 269.617   2
  -4 -14  24 54.0688 144.780   5
   4  14 -24-29.0869 253.038   3
  -4 -14  24 42.5724 134.021   8
   4 -14 -24 17.0262 150.772   7
  -4  14  24-17.0128 163.441   4
   4  14 -25 132.667 246.115   2
  -4 -14  25 18.0341 147.298   5
   4  14 -25-87.6397 229.617   3
  -5  14   0 1305.72 193.960   1
  -5  14   0 863.013 179.392   4
  -5  14   1 981.467 206.801   1
   5 -14  -1 1615.05 262.478   7
  -5  14   1 1224.95 198.395   4
   5 -14  -1 1225.53 272.886   6
  -5  14   2 1237.43 200.337   4
   5 -14  -2 986.868 267.495   6
   5 -14   3 452.554 160.225   8
   5 -14   3 142.946 106.896   5
  -5  14  -3 243.143 155.093   3
  -5  14  -4 739.297 218.100   3
  -5  14   4 774.571 207.164   1
   5 -14  -5-32.7308 137.214   7
  -5  14   5 58.6628 134.557   1
  -5  14   6 642.093 177.362   1
   5 -14   6 575.086 202.438   8
   5 -14  -6 193.284 163.383   7
  -5  14   6 709.632 146.473   4
   5 -14  -6 924.188 235.705   6
  -5  14   7-127.694 156.943   1
   5 -14   7 151.949 174.614   8
   5 -14   7 362.394 113.130   5
   5 -14  -7 47.6797 139.053   7
  -5  14  -7-39.4780 150.923   3
  -5  14   7 303.313 111.251   4
   5 -14  -7 132.288 189.533   6
  -5 -14   8 975.003 243.674   5
  -5  14   8 1035.19 195.370   1
   5 -14   8 445.404 204.480   8
   5 -14   8 577.354 143.799   5
   5 -14  -8 565.802 173.513   7
  -5  14  -8 441.006 186.610   3
  -5  14   8 420.063 136.528   4
   5 -14  -8 661.895 230.375   6
  -5 -14   9 199.612 208.612   5
   5 -14   9 224.537 179.752   8
  -5  14   9 17.4345 161.764   1
   5 -14   9-25.2038 105.511   5
   5 -14  -9 379.064 144.655   7
  -5  14  -9-40.7157 151.814   3
  -5  14   9-56.2364 108.203   4
   5  14  -9 25.2484 194.927   2
   5 -14  -9-66.3095 198.515   6
  -5 -14  10 607.985 219.040   5
   5 -14  10 228.469 190.863   8
   5 -14  10 449.548 137.781   5
  -5  14  10 200.218 173.280   1
   5 -14 -10 375.485 158.501   7
  -5  14 -10 434.635 176.104   3
  -5  14  10 412.875 138.643   4
   5  14 -10 25.5852 204.940   2
   5 -14 -10 464.668 205.210   6
  -5 -14  11 356.773 186.501   5
  -5 -14  11 264.178 110.222   8
   5 -14  11 611.128 211.006   8
   5 -14  11 224.135 117.572   5
   5 -14 -11 15.5620 142.567   7
  -5  14  11 186.527 172.394   1
  -5  14 -11 126.299 146.361   3
  -5  14  11 46.9665 121.103   4
   5  14 -11 78.0819 224.337   2
   5 -14 -11 66.5438 191.036   6
   5  14 -12 421.874 226.673   3
  -5 -14  12 723.360 238.315   5
  -5 -14  12 1050.06 161.359   8
   5 -14  12 621.275 238.570   8
   5 -14  12 771.579 155.793   5
   5 -14 -12 408.000 184.701   7
  -5  14 -12 406.885 191.967   3
  -5  14  12 1238.76 168.717   4
  -5  14  12 741.221 212.153   1
   5  14 -12 26.5514 238.935   2
   5 -14 -12 539.674 209.058   6
  -5  14  13 1040.79 212.239   1
   5  14 -13 575.689 225.960   3
  -5 -14  13 982.854 232.235   5
   5 -14  13 180.524 223.848   8
   5 -14  13 638.484 153.295   5
   5 -14 -13 625.747 177.977   7
  -5  14 -13 239.945 185.752   3
  -5  14  13 739.724 160.856   4
   5 -14 -13 473.057 225.035   6
  -5  14  14 837.589 235.009   1
   5  14 -14 430.682 245.088   3
  -5 -14  14 749.891 222.077   5
   5 -14  14 459.120 235.672   8
   5 -14 -14 284.399 173.575   7
  -5  14 -14 244.840 188.374   3
  -5  14  14 959.782 175.368   4
   5 -14 -14 496.647 220.062   6
   5  14 -15-592.719 273.189   3
  -5  14  15 602.751 199.170   1
  -5 -14  15 283.806 192.133   5
  -5 -14  15 662.887 132.575   8
   5 -14  15 116.859 225.595   8
   5 -14 -15 552.400 154.276   7
  -5  14 -15-68.1013 171.497   3
  -5  14  15 220.080 133.901   4
   5  14 -15 366.956 250.695   2
   5 -14 -15-113.195 202.956   6
   5  14 -16 157.652 268.118   3
  -5  14  16 450.669 217.653   1
  -5 -14  16 736.374 187.602   5
  -5 -14  16 296.635 142.580   8
   5 -14  16 619.522 229.866   8
   5 -14 -16 463.036 171.498   7
  -5  14 -16 370.229 192.544   3
  -5  14  16 422.750 141.962   4
   5  14 -16 315.109 248.365   2
   5 -14 -16 430.983 210.966   6
   5 -14 -17 159.930 180.363   6
   5  14 -17 509.795 241.623   3
  -5 -14  17-20.8916 169.623   5
  -5  14  17 162.401 199.516   1
  -5 -14  17-26.2403 121.528   8
   5 -14 -17 48.4773 144.825   7
  -5  14  17-81.0279 122.105   4
   5  14 -17 352.270 249.318   2
   5  14 -18 178.449 246.475   2
   5 -14 -18-299.066 204.613   6
   5  14 -18 109.686 232.088   3
  -5 -14  18 207.294 195.672   5
  -5  14  18 334.712 215.379   1
  -5 -14  18 690.283 139.352   8
   5 -14 -18-129.589 156.132   7
  -5  14  18 510.296 140.826   4
   5 -14 -19 161.662 203.938   6
   5  14 -19 30.4351 231.381   2
   5  14 -19 196.305 227.593   3
  -5 -14  19 20.6228 163.986   5
  -5 -14  19 13.4885 114.716   8
  -5  14  19-172.585 223.865   1
   5 -14 -19-65.6633 150.351   7
  -5  14  19-282.629 135.217   4
   5 -14 -20 117.180 213.591   6
   5  14 -20 92.2824 241.880   2
   5  14 -20 57.2243 266.690   3
  -5 -14  20 348.965 184.136   5
  -5 -14  20 671.033 154.111   8
  -5  14  20 406.054 155.715   4
   5 -14 -21-141.247 195.637   6
   5  14 -21-248.509 280.510   2
   5  14 -21-174.769 258.681   3
  -5 -14  21 20.0012 159.122   5
  -5 -14  21 13.8406 127.244   8
  -5  14  21-213.306 236.141   1
  -5  14  21-14.9090 143.413   4
   5 -14 -22 261.971 210.073   6
   5  14 -22 88.7208 242.913   3
  -5 -14  22 573.578 182.299   5
  -5 -14  22 533.545 138.816   8
  -5  14  22 523.803 272.075   1
   5 -14 -22 325.530 157.605   7
  -5  14  22 307.195 152.493   4
   5 -14 -23 48.1580 187.922   6
   5  14 -23 191.383 265.728   2
   5  14 -23 59.4431 238.662   3
  -5 -14  23 19.5326 165.356   5
  -5 -14  23 99.6476 124.614   8
  -5  14  23-85.6022 253.305   1
   5 -14 -23 52.1687 145.375   7
  -5  14  23-94.6190 142.008   4
   5 -14 -24-48.7311 203.002   6
   5  14 -24-32.1086 276.108   2
  -5 -14  24 231.279 166.292   5
   5  14 -24 330.205 249.532   3
  -5 -14  24 187.702 133.467   8
  -5  14  24 227.393 152.392   4
   5  14 -25-121.182 233.140   3
  -5 -14  25 189.161 164.411   5
  -6  14   0 867.282 158.787   4
   6 -14   0 780.893 256.935   6
  -6  14   3 791.752 162.501   1
   6 -14  -3 242.683 203.739   7
  -6  14   4-228.709 129.671   1
   6 -14  -4-309.514 184.508   7
  -6  14   4-10.3052 101.406   4
  -6  14  -4-20.7582 155.937   3
   6 -14  -4 120.598 220.551   6
  -6  14   5 1710.17 220.776   1
  -6  14   5 1095.11 196.307   4
   6 -14  -5 1109.89 284.278   6
   6 -14   6-187.133 202.193   8
   6 -14  -6-92.1969 157.438   7
  -6  14   6 264.410 107.473   4
  -6  14   6 331.028 142.074   1
  -6  14  -6 276.129 154.473   3
   6 -14  -6-48.2536 225.222   6
   6 -14   7 616.228 215.818   8
   6 -14  -7 198.699 178.129   7
  -6  14   7 601.556 143.844   4
  -6  14   7 999.460 180.000   1
   6 -14  -7 699.197 259.865   6
   6 -14   8 292.522 210.908   8
   6 -14  -8 141.830 160.227   7
  -6  14   8 272.231 120.915   4
  -6  14   8 278.883 142.543   1
   6 -14  -8 337.367 236.727   6
  -6  14   9 709.333 171.191   1
   6 -14   9 451.886 230.779   8
   6 -14  -9 87.2190 157.485   7
  -6  14   9 597.079 138.958   4
   6 -14  -9 769.812 228.146   6
  -6  14  10-151.234 154.236   1
   6 -14  10-48.5820 215.669   8
   6 -14 -10-189.138 147.859   7
  -6  14  10 33.8053 106.474   4
   6 -14 -10 264.165 213.824   6
  -6  14  11 754.145 189.487   1
   6 -14  11 744.282 266.812   8
   6 -14 -11 414.045 187.284   7
  -6  14  11 540.890 142.179   4
   6 -14 -11 622.807 216.805   6
  -6  14  12 107.643 167.734   1
   6 -14  12 26.2157 221.953   8
   6 -14 -12 119.529 157.187   7
  -6  14  12-11.7244 109.719   4
   6 -14 -12 47.8449 190.159   6
  -6 -14  13 770.064 267.910   5
  -6  14  13 1314.30 260.213   1
   6 -14 -13 1064.75 243.369   7
  -6  14  13 1134.66 208.173   4
   6 -14 -13 1233.71 288.612   6
   6  14 -14 403.957 234.280   3
  -6 -14  14 356.022 184.282   5
  -6  14  14-346.265 179.296   1
   6 -14 -14 170.453 154.347   7
  -6  14  14 439.804 131.307   4
   6  14 -14-108.173 223.845   2
   6 -14 -14 314.184 211.184   6
   6  14 -15-76.7723 250.103   3
  -6 -14  15 319.987 208.410   5
  -6 -14  15-64.0790 181.979   8
  -6  14  15 905.451 191.188   1
   6 -14 -15 274.889 169.299   7
  -6  14  15 325.224 134.553   4
   6  14 -15 82.1276 242.781   2
   6 -14 -15 749.390 227.598   6
   6  14 -16-338.397 302.958   3
  -6 -14  16-635.390 198.417   5
  -6 -14  16-313.043 160.533   8
  -6  14  16 82.5754 175.772   1
   6 -14 -16 17.0682 153.802   7
  -6  14  16 153.779 124.388   4
   6  14 -16 27.8667 255.997   2
   6 -14 -16 145.033 203.090   6
   6  14 -17 133.003 258.218   3
  -6 -14  17 406.366 202.726   5
  -6 -14  17 796.432 157.182   8
  -6  14  17 885.896 216.357   1
   6 -14 -17 206.761 173.520   7
  -6  14  17 524.959 142.286   4
   6  14 -17 397.710 240.954   2
   6 -14 -17 314.446 216.845   6
   6  14 -18 81.7515 225.555   3
  -6 -14  18 131.445 186.600   5
  -6 -14  18-13.4364 119.666   8
  -6  14  18-88.8307 195.470   1
   6 -14 -18 52.2404 157.225   7
  -6  14  18 67.2796 122.515   4
   6  14 -18-28.7656 221.990   2
   6 -14 -18 24.2198 191.089   6
   6  14 -19-111.823 245.236   3
  -6 -14  19 719.846 200.824   5
  -6 -14  19 574.171 146.881   8
   6 -14 -19 312.964 166.904   7
  -6  14  19 206.008 141.344   4
   6  14 -19 58.2106 241.163   2
   6 -14 -19 508.864 222.407   6
   6 -14 -20 292.503 215.976   6
   6  14 -20 28.7231 277.342   3
  -6 -14  20-152.179 185.975   5
  -6 -14  20 13.9035 133.568   8
  -6  14  20 252.845 130.952   4
   6  14 -20-177.979 251.242   2
   6 -14 -21 490.427 226.153   6
   6  14 -21 294.537 256.782   3
  -6 -14  21 803.262 206.291   5
   6 -14 -21 427.339 181.560   7
  -6  14  21 169.542 224.798   1
  -6  14  21 861.106 174.609   4
   6  14 -21 29.9589 234.097   2
  -6 -14  21 492.447 154.589   8
   6 -14 -22 49.1905 186.178   6
  -6 -14  22 14.2966 134.600   8
   6  14 -22 60.3208 265.418   3
  -6 -14  22-106.013 162.368   5
   6 -14 -22-72.1088 160.015   7
  -6  14  22-25.4524 219.409   1
  -6  14  22 132.454 137.152   4
   6  14 -22-272.245 248.701   2
   6 -14 -23 394.762 226.104   6
   6  14 -23 123.201 261.029   3
  -6 -14  23 846.669 204.624   5
  -6 -14  23 479.262 146.562   8
  -6  14  23 377.767 161.427   4
   6  14 -23-92.3651 248.438   2
   6  14 -24 31.1035 241.793   3
  -6 -14  24-20.9626 165.950   5
  -7  14   0 605.479 143.044   1
  -7  14   1 185.942 111.177   1
   7 -14  -1 23.3997 190.198   7
  -7  14   2 636.973 134.781   1
   7 -14  -2 140.124 212.117   7
  -7  14   2 388.130 121.614   4
   7 -14  -2 261.633 253.298   6
  -7  14   3-74.4221 113.776   1
   7 -14  -3 137.235 187.159   7
  -7  14   3-144.167 99.3277   4
   7 -14  -3-79.0160 232.075   6
  -7  14   4 781.608 170.753   1
   7 -14  -4 449.111 226.190   7
  -7  14   4 697.754 149.559   4
   7 -14  -4 740.082 265.206   6
  -7  14   5 228.169 133.158   1
   7 -14   5-47.2587 214.203   8
   7 -14  -5 21.8701 186.722   7
  -7  14   5 136.737 103.893   4
   7 -14  -5 397.038 248.095   6
  -7  14   6 1028.94 180.004   1
   7 -14   6 291.440 248.872   8
   7 -14  -6 106.647 195.791   7
  -7  14   6 711.987 149.163   4
   7 -14  -6 1269.90 290.021   6
   7 -14   7 282.482 245.186   8
  -7  14   7 417.404 142.435   1
   7 -14  -7 83.2619 174.537   7
  -7  14   7 278.713 116.230   4
   7 -14  -7 158.539 243.930   6
  -7  14   8 668.920 155.826   1
   7 -14  -8 61.0154 188.370   7
  -7  14   8 509.440 124.588   4
   7 -14  -8 369.116 243.708   6
   7 -14  -9 119.373 167.042   7
  -7  14   9 123.028 139.499   1
  -7  14   9 252.675 111.082   4
   7 -14  -9 157.811 226.721   6
   7 -14 -10 214.542 181.267   7
  -7  14  10 289.325 120.895   4
  -7  14  10 376.419 153.491   1
   7 -14 -10 524.533 238.708   6
   7 -14 -11 95.7979 173.762   7
  -7  14  11 11.3044 101.226   4
  -7  14  11 211.359 153.462   1
   7 -14 -11 130.802 239.604   6
   7 -14 -12 172.669 184.975   7
  -7  14  12 642.506 143.147   4
  -7  14  12 506.740 173.283   1
   7 -14 -12 417.072 231.964   6
   7 -14 -13-75.6183 161.713   7
  -7  14  13-70.1724 113.182   4
  -7  14  13 103.534 153.840   1
   7 -14 -13-363.617 217.908   6
   7 -14 -14 223.984 169.666   7
  -7  14  14 394.079 131.731   4
   7 -14 -14 568.888 237.347   6
  -7  14  14 557.416 174.380   1
  -7  14  15 110.349 155.701   1
   7 -14 -15 225.093 171.191   7
  -7  14  15 85.2254 110.054   4
   7 -14 -15-103.179 217.320   6
  -7  14  16 557.037 186.273   1
   7 -14 -16 18.8727 177.462   7
  -7  14  16 434.127 129.627   4
   7 -14 -16 205.749 214.742   6
   7  14 -17 80.2513 220.000   3
  -7  14  17 39.3545 185.334   1
  -7 -14  17 262.785 206.627   5
   7 -14 -17 56.1019 157.368   7
  -7  14  17-12.6914 123.466   4
   7 -14 -17-102.743 215.402   6
   7  14 -18 328.849 257.653   3
  -7  14  18 164.765 189.744   1
  -7 -14  18 23.8798 198.231   5
   7 -14 -18 207.369 178.424   7
  -7  14  18 247.043 132.658   4
   7  14 -18 28.3243 234.697   2
   7 -14 -18 25.6449 224.161   6
   7  14 -19-281.581 250.873   3
  -7 -14  19 23.3400 201.483   5
  -7  14  19 13.3255 130.865   4
   7  14 -19-314.812 272.357   2
   7 -14 -19-153.695 245.023   6
   7  14 -20 87.0160 266.397   3
  -7 -14  20 186.818 199.276   5
  -7  14  20 368.717 139.160   4
   7 -14 -20 102.450 215.102   6
   7  14 -21 329.755 253.635   3
  -7 -14  21 233.669 189.648   5
  -7  14  21 423.383 212.663   1
   7 -14 -21 133.642 180.971   7
  -7  14  21 224.123 130.122   4
   7  14 -21 29.2937 231.077   2
   7 -14 -21 25.9066 223.028   6
   7  14 -22-277.857 276.188   3
  -7 -14  22 70.1558 201.806   5
  -7 -14  22 403.218 144.712   8
  -7  14  22 28.6519 129.529   4
   7  14 -22-177.437 221.083   2
   7 -14 -22 517.846 233.135   6
   7  14 -23 127.106 248.980   3
  -7 -14  23 22.8886 190.828   5
   7  14 -23 59.9592 233.196   2
   8 -14   0 191.932 233.476   6
   8 -14  -1 249.952 245.997   6
  -8  14   2-10.1978 98.2416   4
   8 -14  -2-140.522 236.389   6
  -8  14   3-36.4746 101.708   1
  -8  14   3 30.8577 95.2242   4
  -8  14   4 99.9384 108.746   1
   8 -14  -4 122.782 187.753   7
  -8  14   4 134.798 100.609   4
   8 -14  -4-226.974 243.422   6
  -8  14   5 616.832 135.551   1
   8 -14  -5-72.9509 201.090   7
  -8  14   5 418.422 128.134   4
   8 -14  -5 113.847 260.308   6
  -8  14   6 766.118 153.261   1
   8 -14  -6 335.103 224.440   7
  -8  14   6 411.904 129.664   4
   8 -14  -6 515.322 280.580   6
  -8  14   7 285.935 129.463   1
   8 -14  -7-70.5619 196.972   7
  -8  14   7 171.029 109.848   4
   8 -14  -7 401.860 258.227   6
  -8  14   8 561.543 153.090   1
   8 -14  -8 137.657 205.139   7
  -8  14   8 497.204 129.216   4
   8 -14  -8 315.966 264.870   6
  -8  14   9 406.500 137.134   1
   8 -14  -9 44.8399 196.287   7
  -8  14   9 10.9311 105.575   4
   8 -14  -9 430.416 259.258   6
  -8  14  10 90.1891 133.245   1
   8 -14 -10 21.9334 185.188   7
  -8  14  10 99.3536 110.787   4
   8 -14 -10-229.057 257.119   6
  -8  14  11 93.3563 128.812   1
   8 -14 -11 393.812 194.225   7
  -8  14  11-78.2085 102.823   4
   8 -14 -11-171.235 244.553   6
  -8  14  12-47.5888 145.362   1
   8 -14 -12-64.3403 181.687   7
  -8  14  12 158.714 109.167   4
   8 -14 -12 113.792 241.644   6
   8 -14 -13 210.511 182.222   7
  -8  14  13 65.5818 140.172   1
  -8  14  13 138.263 102.451   4
   8 -14 -13 56.6888 247.091   6
   8 -14 -14-126.480 184.478   7
  -8  14  14 50.9481 146.893   1
  -8  14  14-46.7976 105.390   4
   8 -14 -14 28.2417 242.752   6
   8 -14 -15 41.4834 179.773   7
  -8  14  15 226.597 113.830   4
  -8  14  15 277.496 156.124   1
   8 -14 -15-112.431 235.285   6
   8 -14 -16-333.139 187.442   7
  -8  14  16 12.1852 105.713   4
  -8  14  16 126.083 158.077   1
   8 -14 -16 55.9671 241.244   6
   8 -14 -17-184.980 194.961   7
  -8  14  17 12.4219 124.111   4
  -8  14  17 73.6500 177.242   1
   8 -14 -17 194.845 247.769   6
   8 -14 -18-82.6725 184.522   7
  -8  14  18 63.2891 118.913   4
  -8  14  18-18.8361 168.643   1
   8 -14 -18-277.315 257.783   6
  -8  14  19 194.214 127.213   4
   8 -14 -19 55.2272 236.210   6
  -8  14  20 238.765 132.857   4
  -8  14  20 321.546 183.940   1
   8 -14 -20 137.747 250.887   6
  -8  14  21-67.9673 123.375   4
   8 -14 -21 219.707 231.700   6
   9 -14  -2-318.384 259.726   6
   9 -14  -3-469.894 263.126   6
   9 -14  -4 29.7870 268.892   6
  -9  14   5 185.058 108.296   4
  -9  14   5 226.278 123.696   1
  -9  14   6-90.3177 111.186   1
  -9  14   6-10.3888 96.7909   4
  -9  14   7 647.054 141.947   1
   9 -14  -7 357.842 221.995   7
  -9  14   7 346.628 118.675   4
   9 -14  -7 152.590 282.982   6
  -9  14   8 67.7450 111.414   1
   9 -14  -8 25.3221 202.609   7
  -9  14   8-74.3598 95.6420   4
   9 -14  -8 459.415 280.977   6
  -9  14   9-83.4746 128.645   1
   9 -14  -9-75.6702 218.088   7
  -9  14   9 64.6497 89.1745   4
   9 -14  -9 30.7122 251.666   6
  -9  14  10 57.3207 129.366   1
   9 -14 -10 74.6255 204.526   7
  -9  14  10-32.7444 96.6322   4
   9 -14 -10 153.762 260.269   6
  -9  14  11 132.982 135.728   1
   9 -14 -11 343.166 202.131   7
  -9  14  11 110.533 97.4011   4
   9 -14 -11-215.005 253.009   6
  -9  14  12-60.2658 127.948   1
   9 -14 -12-71.9561 195.915   7
  -9  14  12 122.970 106.617   4
   9 -14 -12-61.3002 247.807   6
  -9  14  13 15.5834 137.859   1
   9 -14 -13-47.9135 191.908   7
  -9  14  13 169.951 102.426   4
   9 -14 -13-183.231 257.815   6
  -9  14  14-270.128 138.426   1
   9 -14 -14 70.5570 189.642   7
  -9  14  14-34.5139 98.2795   4
   9 -14 -14 304.171 247.702   6
  -9  14  15-148.203 149.448   1
   9 -14 -15 231.099 193.738   7
  -9  14  15 58.5188 108.786   4
   9 -14 -15-333.177 262.667   6
  -9  14  16 238.948 176.953   1
   9 -14 -16 231.452 227.145   7
  -9  14  16-11.8946 105.388   4
  -9  14  17-174.223 159.272   1
   9 -14 -17-92.8181 202.659   7
  -9  14  17 12.1319 109.033   4
   9 -14 -17-239.836 263.240   6
   9 -14 -18 22.8572 201.253   7
  -9  14  18-12.3976 121.235   4
   9 -14 -18 417.233 272.019   6
  -9  14  19 214.915 132.958   4
   9 -14 -19 236.831 263.666   6
  10 -14  -6 660.023 307.462   6
 -10  14   7-82.0390 96.5120   4
  10 -14  -7-127.602 278.527   6
 -10  14   8-20.7894 98.3759   4
  10 -14  -8-160.809 283.207   6
 -10  14   8 250.678 115.532   1
 -10  14   9 148.591 121.337   1
 -10  14   9 189.512 99.8485   4
  10 -14  -9 291.301 274.999   6
 -10  14  10 27.6040 117.683   1
  10 -14 -10-238.836 215.351   7
 -10  14  10-21.3288 97.7498   4
  10 -14 -10-325.243 296.038   6
 -10  14  11-126.852 121.327   1
  10 -14 -11 344.058 228.442   7
 -10  14  11 205.391 105.456   4
  10 -14 -11 97.9557 274.849   6
 -10  14  12 317.763 136.672   1
  10 -14 -12-52.5564 212.240   7
 -10  14  12 285.316 112.939   4
  10 -14 -12-228.964 282.605   6
 -10  14  13-281.598 142.785   1
  10 -14 -13-446.310 264.448   7
 -10  14  13-100.190 108.135   4
  10 -14 -13-326.811 302.755   6
 -10  14  14 408.242 148.812   1
  10 -14 -14 441.513 290.215   7
 -10  14  14 405.949 125.894   4
  10 -14 -14 97.8572 291.719   6
 -10  14  15 46.7176 139.008   1
  10 -14 -15-233.784 221.888   7
 -10  14  15 11.4439 100.709   4
  10 -14 -15 97.5003 282.681   6
 -10  14  16 63.5450 134.976   1
  10 -14 -16-154.210 216.219   7
 -10  14  16 34.8901 105.117   4
  10 -14 -16 355.819 290.413   6
 -10  14  17 65.5484 151.345   1
  10 -14 -17-102.956 212.470   7
 -10  14  17 47.3682 106.017   4
  10 -14 -17 450.670 293.056   6
 -10  14  18-84.2729 116.912   4
  10 -14 -18-320.066 290.100   6
 -11  14  11 303.287 111.446   4
  11 -14 -11 442.891 326.723   6
 -11  14  12-74.3427 95.9975   4
 -11  14  12-42.0002 126.817   1
 -11  14  13 500.743 137.642   1
 -11  14  13 270.254 112.891   4
  11 -14 -13 137.740 306.604   6
 -11  14  14-116.833 122.304   1
  11 -14 -14 27.5124 236.585   7
 -11  14  14 131.812 108.806   4
 -11  14  15 477.038 153.655   1
  11 -14 -15 220.332 233.994   7
 -11  14  15 301.412 113.283   4
  11 -14 -15 310.488 293.768   6
  11 -14 -16-27.5472 185.261   7
 -11  14  16 11.3127 94.9033   4
  11 -14 -16 344.067 314.816   6
   0  15   0 249.504 190.758   3
   0 -15   0-65.1065 130.683   5
   0 -15   0-52.8043 91.5867   8
   0  15   0 90.0920 189.419   2
   0  15   1 422.113 206.413   3
   0  15  -1 369.902 220.475   3
   0 -15   1 566.773 157.791   5
   0  15   1 657.781 214.813   2
   0  15  -3 75.3042 200.384   2
   0 -15  -4-107.067 138.239   6
   0  15  -4-232.844 209.176   2
   0 -15   4 63.7455 128.871   5
   0 -15   4 55.2883 98.4747   8
   0  15   4-76.6991 116.055   4
   0  15  -5 53.3202 199.522   2
   0  15  -5 220.989 219.269   3
   0 -15   5 16.2106 136.470   5
   0 -15   5 22.5760 99.5264   8
   0  15  -6 192.502 229.123   2
   0  15  -6 173.549 217.603   3
   0 -15   6-64.4474 138.136   5
   0 -15   6 115.591 107.552   8
   0 -15  -6-48.8651 113.065   7
   0 -15  -7-75.8086 151.284   6
   0  15  -7 198.575 220.651   2
   0  15  -7 249.561 208.680   3
   0 -15   7 240.083 133.957   5
   0 -15   7-71.3153 106.357   8
   0 -15  -7-49.1347 107.413   7
   0  15   7 211.154 140.526   4
   0  15  -8 100.273 206.795   3
   0  15  -8 263.170 255.845   2
   0 -15   8 126.236 126.711   5
   0 -15   8-24.5129 110.956   8
   0 -15  -8-86.2481 108.139   7
   0  15   8 14.5166 132.837   4
   0  15  -9-25.3723 208.618   3
   0  15  -9 301.370 275.008   2
   0 -15   9 15.5431 126.970   5
   0 -15   9 74.6243 118.885   8
   0 -15  -9-87.0202 111.624   7
   0  15   9 74.7966 133.936   4
   0  15 -10-127.234 217.486   3
   0 -15  10 76.5731 116.149   5
   0  15 -10 155.157 244.005   2
   0 -15  10 115.551 113.864   8
   0 -15 -10-12.5123 106.137   7
   0  15  10 92.2941 139.411   4
   0  15  11-63.3296 147.965   4
   0  15 -11-127.362 205.958   3
   0 -15  11-45.7587 123.362   5
   0  15 -11 475.228 261.361   2
   0 -15  11 92.3521 123.315   8
   0 -15 -11 50.5025 112.759   7
   0 -15  12 45.6030 126.369   5
   0  15 -12-305.968 215.877   3
   0  15 -12 162.228 278.072   2
   0 -15  12-80.0545 122.237   8
   0 -15 -12 256.734 115.400   7
   0 -15  13 338.220 145.806   5
   0  15 -13 25.4582 201.539   3
   0  15 -13-98.8954 297.362   2
   0 -15  13 657.718 150.256   8
   0 -15 -13 351.823 134.085   7
   0 -15  14 76.7093 138.506   5
   0  15 -14-25.4260 239.391   3
   0 -15  14 13.8120 137.718   8
   0  15 -14-134.357 305.682   2
   0 -15 -14-92.8252 119.726   7
   0  15 -15 228.127 199.253   3
   0 -15  15 276.450 150.188   5
   0 -15  15 480.942 147.540   8
   0  15 -15 679.010 296.202   2
   0 -15  16 15.3904 125.601   5
   0 -15  16 156.452 139.830   8
   0  15 -16 100.967 196.437   3
   0  15 -16-137.537 309.638   2
   0 -15  17 15.4381 135.176   5
   0 -15  17 87.3686 138.229   8
   0  15 -17-125.528 190.115   3
   0  15 -17 311.366 300.959   2
   0 -15  18-186.080 133.525   5
   0 -15  18-102.359 133.102   8
   0  15 -18-299.750 202.217   3
   0  15 -18 173.753 287.331   2
   0 -15  19 155.636 138.847   5
   0  15 -19 252.499 189.784   3
   0 -15  20 15.6326 140.888   5
   0  15 -20 75.4317 185.946   3
   0  15 -20 174.890 318.385   2
   0 -15  21-148.181 145.790   8
   0 -15  21 378.953 140.236   5
   0  15 -21 35.0393 274.442   2
   0  15 -21-200.820 202.299   3
   0 -15  22 14.9121 131.677   8
   0 -15  22 15.9709 127.405   5
   0  15 -22-385.802 313.983   2
   0  15 -22-99.7637 202.365   3
   0 -15  23 32.4011 144.209   5
   0  15 -23 35.1326 287.889   2
   0  15 -23-49.7072 180.635   3
  -1  15   0 672.106 234.457   2
   1  15   0 940.017 252.892   3
  -1 -15   0 774.157 216.533   5
  -1  15   0 1041.68 250.869   3
   1  15   1-90.0837 201.031   3
  -1 -15  -1 75.8173 156.350   5
  -1  15  -1-160.880 202.253   3
   1 -15   1 13.8617 104.105   5
   1 -15   1-63.3044 101.318   8
   1  15   1 286.438 171.286   2
   1  15   2 44.1948 194.439   3
  -1  15  -2 278.056 207.292   3
   1 -15   2 282.741 122.157   5
   1  15  -2-118.316 183.073   2
   1  15  -3 48.5646 191.134   2
  -1 -15   3 65.8660 92.6137   8
  -1  15   3 102.609 108.374   4
   1  15  -4-75.7411 215.079   2
   1 -15  -4 87.8179 138.669   6
   1  15  -4-48.8518 189.974   3
  -1 -15   4-55.0947 148.076   5
  -1  15  -4 133.120 223.986   2
  -1 -15   4 11.0720 94.4709   8
   1 -15   4 11.3485 103.998   8
  -1 -15  -4 247.313 104.995   7
  -1  15   4-23.7078 107.158   4
   1  15  -5-25.9981 215.157   2
   1  15  -5-74.4060 215.724   3
  -1 -15   5 54.4769 142.725   5
  -1  15  -5-118.675 195.784   3
  -1  15  -5-55.0138 227.644   2
   1 -15   5-28.1695 118.827   5
  -1 -15   5-22.3980 101.085   8
   1 -15   5 70.1608 101.708   8
   1  15  -6-80.3433 217.272   2
   1  15  -6 75.4484 206.109   3
  -1 -15   6-17.9498 143.148   5
  -1  15  -6-190.293 191.005   3
   1 -15   6 97.4329 118.210   5
  -1  15  -6-113.813 242.324   2
  -1 -15   6 22.6547 100.597   8
   1 -15   6 96.7120 109.466   8
   1 -15  -6-114.816 110.681   7
  -1 -15  -6 161.173 112.198   7
   1 -15  -7-56.3568 143.477   6
   1  15  -7-27.5996 220.931   2
   1  15  -7 25.4753 208.871   3
  -1 -15   7 159.888 151.449   5
  -1  15  -7 119.196 195.472   3
   1 -15   7-13.9102 113.820   5
  -1 -15   7 126.750 105.377   8
  -1  15  -7 29.3739 247.914   2
   1 -15   7-12.4523 108.535   8
   1 -15  -7 89.6304 106.888   7
  -1 -15  -7 33.9274 102.319   7
  -1  15   7 92.0617 113.588   4
   1 -15  -8 19.2042 150.658   6
   1  15  -8 255.791 245.162   2
   1  15  -8-154.674 227.035   3
  -1 -15   8 90.0070 152.609   5
   1 -15   8 83.4214 114.281   5
  -1  15  -8 48.2449 197.870   3
  -1 -15   8 164.520 116.962   8
  -1  15  -8-120.621 249.720   2
   1 -15   8-64.2625 116.671   8
   1 -15  -8 77.3209 112.113   7
  -1 -15  -8 101.902 109.620   7
  -1  15   8 122.033 123.717   4
   1 -15  -9-156.442 166.014   6
   1  15  -9-58.5374 228.370   2
   1  15  -9 104.180 223.159   3
  -1 -15   9 17.8105 136.389   5
   1 -15   9-41.7554 112.521   5
  -1  15  -9 168.724 200.128   3
  -1 -15   9 24.0283 110.215   8
   1 -15   9 92.7847 120.623   8
  -1  15  -9 155.347 272.624   2
   1 -15  -9-167.901 118.483   7
  -1 -15  -9 125.108 100.665   7
  -1  15   9-83.8059 129.154   4
   1 -15 -10-159.639 158.652   6
   1  15 -10-29.9272 242.018   2
   1  15 -10-209.899 222.132   3
  -1 -15  10-52.8714 131.445   5
   1 -15  10 56.4520 118.094   5
  -1  15 -10 48.1752 179.565   3
  -1 -15  10-110.757 122.554   8
   1 -15  10-67.1053 119.957   8
  -1  15 -10 95.7228 283.282   2
   1 -15 -10 13.0104 110.961   7
  -1  15  10-57.8608 127.442   4
   1 -15 -11 121.532 152.177   6
   1  15 -11 30.7560 255.395   2
   1  15 -11-26.3579 229.970   3
  -1 -15  11 69.7747 149.516   5
   1 -15  11-14.1645 119.944   5
  -1 -15  11 12.6441 112.940   8
  -1  15 -11 264.265 208.378   3
   1 -15  11 41.5054 130.315   8
  -1  15 -11-228.282 283.680   2
   1 -15 -11-26.2224 116.448   7
  -1  15  11 74.3457 133.534   4
   1 -15 -12 433.118 176.155   6
   1  15 -12 220.743 262.173   2
   1  15 -12 185.072 217.257   3
  -1 -15  12 188.504 157.429   5
   1 -15  12 398.447 142.089   5
  -1 -15  12 435.659 136.530   8
  -1  15 -12 194.341 196.884   3
   1 -15  12 185.419 136.847   8
  -1  15 -12 928.974 308.444   2
   1 -15 -12 105.963 122.571   7
  -1  15  12 353.836 167.970   4
   1 -15 -13 83.5338 155.469   6
   1  15 -13-513.402 308.389   2
   1  15 -13-79.4936 213.115   3
  -1 -15  13-218.790 147.782   5
   1 -15  13 71.5208 119.427   5
  -1 -15  13-197.518 128.589   8
   1 -15  13-43.1366 139.314   8
  -1  15 -13-169.378 199.333   3
  -1  15 -13-33.7062 292.572   2
   1 -15 -13-80.4518 120.682   7
  -1  15  13-110.524 145.004   4
   1 -15 -14 445.932 185.561   6
   1  15 -14 393.265 310.309   2
   1  15 -14-26.5111 231.320   3
  -1 -15  14 314.147 159.834   5
   1 -15  14 359.834 138.349   5
  -1 -15  14 811.344 154.155   8
   1 -15  14 369.990 167.136   8
  -1  15 -14 48.1572 197.825   3
  -1  15 -14 272.811 285.774   2
   1 -15 -14 339.877 142.868   7
  -1  15  14 359.319 178.650   4
   1 -15 -15-278.900 181.568   6
   1  15 -15 165.974 274.717   2
   1  15 -15-132.646 203.157   3
  -1 -15  15 82.1314 141.175   5
   1 -15  15 116.616 123.369   5
  -1 -15  15-13.6651 138.359   8
   1 -15  15 297.612 144.623   8
  -1  15 -15-287.537 180.670   3
  -1  15 -15-68.8596 294.102   2
   1 -15 -15-55.2759 131.410   7
  -1  15  15 16.7396 145.601   4
   1  15 -16 67.5027 276.396   2
   1  15 -16-105.917 216.486   3
  -1 -15  16 114.355 136.720   5
  -1 -15  16 481.768 144.997   8
   1 -15  16 175.936 127.636   5
   1 -15  16 194.380 130.489   8
  -1  15 -16 47.6902 184.422   3
  -1  15 -16-34.6629 290.378   2
   1 -15 -16 14.0780 121.599   7
  -1  15  16 188.850 162.906   4
  -1 -15  17 16.2738 136.641   5
   1  15 -17 170.137 293.424   2
   1  15 -17 132.228 226.719   3
  -1 -15  17 126.470 123.896   8
   1 -15  17-14.7560 130.078   5
   1 -15  17-15.0142 144.030   8
  -1  15 -17 23.8123 187.313   3
  -1  15 -17 452.892 305.786   2
   1 -15 -17-14.3686 121.841   7
  -1  15  17 193.449 164.905   4
  -1 -15  18 16.2677 135.632   5
   1  15 -18 105.470 212.512   3
   1 -15  18 14.9273 118.736   5
   1 -15  18-46.2937 142.432   8
  -1  15 -18-24.0979 172.998   3
  -1  15 -18 559.604 316.612   2
   1 -15 -18 102.808 127.498   7
  -1 -15  19 16.2746 133.016   5
   1  15 -19 210.124 213.852   3
   1 -15  19-15.1249 124.048   5
   1 -15  19 124.026 148.243   8
  -1  15 -19-47.8790 174.067   3
  -1  15 -19 35.0717 297.785   2
   1  15 -20 380.915 346.546   2
  -1 -15  20 293.493 158.568   5
  -1 -15  20 270.880 144.436   8
   1  15 -20 52.2456 221.269   3
   1 -15  20 15.3629 129.890   5
  -1  15 -20-47.7196 191.916   3
   1  15 -21 34.6860 276.941   2
  -1 -15  21-98.1209 134.377   5
  -1 -15  21-87.4190 137.275   8
   1 -15  21-46.9512 136.928   5
   1  15 -21-155.951 204.085   3
  -1  15 -21-703.931 317.161   2
   1  15 -22 173.630 296.745   2
  -1 -15  22 49.1856 148.620   5
  -1 -15  22 87.8970 135.708   8
   1 -15  22 126.596 147.698   8
   1 -15  22-47.7052 131.428   5
   1  15 -22 129.377 202.802   3
  -1  15 -22 238.753 188.512   3
  -1  15 -22-317.574 300.601   2
   1  15 -23-347.661 289.719   2
  -1 -15  23 16.4461 130.937   5
   1 -15  23-223.792 149.209   8
   1 -15  23-16.1867 132.471   5
   1  15 -23 77.5243 190.376   3
  -1  15 -23-47.9876 176.793   3
  -2 -15  -1 836.822 221.788   5
  -2  15  -1 490.713 224.331   2
  -2  15  -1 618.435 199.083   3
  -2 -15  -2-22.7585 180.174   5
  -2  15  -2 67.0553 189.761   3
  -2 -15   2-11.1277 91.1982   8
   2 -15   2 12.1322 99.7591   5
   2  15  -2 93.8690 182.437   2
   2 -15  -3 276.578 151.529   6
   2  15  -3-24.7055 207.635   3
  -2 -15   3 323.822 168.656   5
  -2 -15   3 112.608 106.448   8
  -2  15   3 208.146 110.701   4
   2  15  -3-23.9938 191.902   2
   2  15  -4-49.8278 195.188   3
  -2 -15   4 212.851 166.175   5
  -2 -15   4-78.9967 97.1540   8
  -2  15  -4 54.6786 232.165   2
   2 -15   4 193.666 121.609   8
   2  15  -4-24.4861 196.675   2
   2  15  -5 150.670 217.775   3
  -2 -15   5-20.9819 164.320   5
  -2 -15   5-68.1385 102.797   8
   2 -15   5 25.0098 104.843   5
  -2  15  -5-22.5862 178.809   3
   2 -15   5-12.5017 115.305   8
  -2  15  -5-113.228 241.061   2
   2 -15  -5 66.5355 109.777   7
  -2  15   5 18.6183 156.091   1
   2  15  -5 325.964 207.515   2
   2  15  -6 334.791 209.659   2
   2 -15  -6 18.4096 142.643   6
   2  15  -6-76.0851 214.678   3
  -2 -15   6-144.729 166.627   5
  -2 -15   6-68.6856 96.3647   8
   2 -15   6-12.7133 102.863   5
  -2  15  -6-225.391 167.977   3
   2 -15   6 77.6530 130.242   8
  -2  15  -6-234.182 242.293   2
   2 -15  -6-40.0205 122.125   7
  -2  15   6-48.4795 110.967   4
  -2  15   6 76.5412 166.488   1
   2 -15  -7 376.841 158.464   6
   2  15  -7 53.0338 210.670   2
   2  15  -7-128.176 222.971   3
  -2 -15   7-61.1681 156.734   5
  -2 -15   7-34.7000 98.1979   8
   2 -15   7 76.8561 109.084   5
  -2  15  -7 68.3791 172.536   3
   2 -15   7-147.604 132.255   8
  -2  15  -7 60.3351 253.710   2
   2 -15  -7-120.135 118.484   7
  -2  15   7-12.5561 108.566   4
   2 -15  -8 231.174 152.023   6
   2  15  -8-136.603 209.261   2
   2  15  -8-233.313 228.173   3
  -2 -15   8-80.1838 162.116   5
  -2 -15   8 11.7173 106.719   8
   2 -15   8 103.319 106.270   5
  -2  15  -8-158.967 173.959   3
   2 -15   8 95.2869 129.516   8
  -2  15  -8 248.129 268.207   2
   2 -15  -8 13.4086 121.769   7
  -2  15   8 77.5219 121.410   4
   2 -15  -9-156.824 152.416   6
   2  15  -9 478.657 229.196   2
   2  15  -9 131.010 231.263   3
  -2 -15   9 118.297 157.219   5
  -2 -15   9 83.0847 103.884   8
   2 -15   9 13.1139 106.777   5
   2 -15   9-14.1003 130.751   8
  -2  15  -9-158.160 175.014   3
  -2  15  -9-31.7861 268.181   2
   2 -15  -9-310.904 131.092   7
  -2  15   9-13.3038 125.597   4
   2 -15 -10 59.8337 150.158   6
   2  15 -10 203.005 238.665   2
   2  15 -10-158.802 226.328   3
  -2 -15  10 174.532 161.878   5
   2 -15  10 13.2318 109.654   5
   2 -15  10 233.543 136.082   8
  -2 -15  10 24.1691 109.287   8
  -2  15 -10-224.897 191.216   3
  -2  15 -10 162.405 278.503   2
   2 -15 -10 271.569 127.624   7
  -2  15  10 40.9876 131.305   4
   2 -15 -11 406.566 166.281   6
   2  15 -11 119.357 258.054   2
   2  15 -11-106.923 242.981   3
  -2 -15  11 172.027 162.296   5
  -2 -15  11 441.879 119.645   8
   2 -15  11 280.105 119.523   5
   2 -15  11 58.9807 142.108   8
  -2  15 -11-159.188 185.457   3
  -2  15 -11 496.028 278.711   2
   2 -15 -11 123.310 128.936   7
  -2  15  11 267.385 133.265   4
   2 -15 -12-82.6205 158.785   6
   2  15 -12 30.6292 246.774   2
   2  15 -12 107.855 223.884   3
  -2 -15  12 94.3163 161.634   5
  -2 -15  12-137.602 118.966   8
   2 -15  12 13.5389 112.790   5
   2 -15  12-137.237 148.908   8
  -2  15 -12-67.9212 159.603   3
  -2  15 -12 100.854 298.404   2
   2 -15 -12 96.8248 132.840   7
  -2  15  12 86.5594 138.212   4
   2 -15 -13 399.388 198.694   6
   2  15 -13 1122.80 326.678   2
   2  15 -13 54.2720 250.628   3
  -2 -15  13 651.990 185.649   5
  -2 -15  13 779.059 164.996   8
   2 -15  13 928.377 171.894   5
   2 -15  13 568.349 192.931   8
  -2  15 -13 723.548 220.525   3
  -2  15 -13 952.617 343.977   2
   2 -15 -13 586.217 163.430   7
  -2  15  13 430.639 175.306   4
   2 -15 -14 42.5929 162.536   6
   2  15 -14-95.7348 270.115   2
   2  15 -14-163.506 236.374   3
  -2 -15  14-165.633 166.644   5
  -2 -15  14-103.472 127.867   8
   2 -15  14-152.219 121.527   5
   2 -15  14 77.3025 154.203   8
  -2  15 -14-91.5149 176.603   3
  -2  15 -14 137.593 289.332   2
   2 -15 -14 155.417 139.020   7
  -2  15  14 45.6073 144.291   4
   2 -15 -15 627.742 195.504   6
   2  15 -15 64.7506 238.082   2
   2  15 -15 328.009 236.724   3
  -2 -15  15 18.0573 175.860   5
  -2 -15  15 765.784 153.241   8
   2 -15  15 308.930 137.177   5
   2 -15  15 653.974 168.415   8
  -2  15 -15 68.1628 172.538   3
  -2  15 -15 520.484 321.625   2
   2 -15 -15 429.856 148.439   7
  -2  15  15 547.600 165.230   4
   2 -15 -16-65.7614 167.880   6
   2  15 -16-164.858 291.838   2
   2  15 -16-54.8152 216.986   3
  -2 -15  16 17.7174 141.776   5
  -2 -15  16 13.3323 119.369   8
   2 -15  16-57.0628 119.239   5
   2 -15  16 80.1725 161.298   8
  -2  15 -16-135.857 187.405   3
  -2  15 -16-279.165 321.830   2
   2 -15 -16-14.5518 128.451   7
  -2  15  16 80.5483 135.505   4
   2 -15 -17 155.107 170.350   6
   2  15 -17 82.2857 224.775   3
  -2 -15  17 17.3888 142.990   5
   2 -15  17-451.377 152.558   8
   2 -15  17 14.5208 127.445   5
  -2  15 -17 361.951 176.530   3
   2 -15 -17 132.746 125.634   7
  -2  15 -17-35.0941 277.835   2
  -2  15  17 148.351 155.600   4
   2 -15 -18-89.9201 169.499   6
   2  15 -18-137.296 225.009   3
  -2 -15  18-17.2651 137.652   5
   2 -15  18 145.982 154.242   8
   2 -15  18 14.8162 113.893   5
  -2  15 -18-22.6414 153.742   3
   2 -15 -18-120.151 137.414   7
  -2  15 -18 246.749 292.675   2
  -2  15  18 67.9604 163.154   4
   2 -15 -19 408.438 188.594   6
   2  15 -19 67.9116 308.289   2
  -2 -15  19-17.1571 142.710   5
   2  15 -19-137.161 230.132   3
  -2 -15  19 138.092 133.204   8
   2 -15  19 252.062 157.234   8
   2 -15  19 15.0928 124.381   5
  -2  15 -19 22.9630 164.263   3
   2 -15 -19 45.9501 141.516   7
  -2  15 -19 212.324 297.730   2
  -2  15  19-157.846 158.969   4
   2 -15 -20 732.227 232.722   6
   2  15 -20 818.510 327.648   2
   2  15 -20 959.805 280.621   3
  -2 -15  20 430.669 150.506   8
   2 -15  20 203.226 185.810   8
   2 -15  20 15.4014 139.248   5
  -2  15 -20-23.0729 200.063   3
   2 -15 -20 109.430 166.417   7
  -2  15 -20 532.865 341.908   2
  -2 -15  20 273.349 165.125   5
  -2  15  20 466.655 191.571   4
   2  15 -21-136.801 268.968   2
  -2 -15  21 16.9196 139.879   5
  -2 -15  21 212.797 134.893   8
   2  15 -21 191.514 215.239   3
   2 -15  21-15.7014 134.448   5
  -2  15 -21 162.949 190.344   3
   2 -15 -21 15.9690 142.453   7
  -2  15  21 73.5747 182.775   4
   2  15 -22-171.392 290.133   2
  -2 -15  22-16.9363 142.503   5
  -2 -15  22 228.318 134.756   8
   2  15 -22 245.440 207.284   3
   2 -15  22 80.3256 129.506   5
  -2  15 -22 23.5547 177.657   3
   2 -15 -22 16.3222 133.376   7
  -2  15 -22-179.153 281.653   2
  -2  15  22-225.799 169.899   4
   2  15 -23 137.314 287.873   2
  -2 -15  23 16.9754 147.378   5
  -2 -15  23-272.903 143.357   8
   2  15 -23 434.377 231.298   3
   2 -15  23-65.1447 128.659   5
  -2  15 -23-23.9079 177.542   3
  -3 -15   1 159.543 213.823   5
  -3 -15   2 652.047 239.904   5
  -3  15  -2 314.312 185.007   3
  -3  15   2 481.360 125.978   4
  -3 -15   3 198.376 216.050   5
  -3  15   4 34.1001 153.127   1
  -3 -15   4 266.588 198.980   5
   3 -15   4 64.2842 120.454   8
  -3  15  -4 168.418 240.093   2
   3  15  -4 48.9499 192.070   2
  -3  15   5-17.8521 164.702   1
  -3 -15   5 355.180 184.811   5
  -3 -15   5-92.6372 100.821   8
   3 -15   5-35.4365 94.6177   5
   3 -15   5 240.538 127.156   8
  -3  15  -5 63.8571 156.723   3
  -3  15  -5 86.9096 255.716   2
   3 -15  -5 71.3605 124.952   7
   3  15  -5-99.3214 194.505   2
   3 -15  -5 56.5393 156.037   6
   3  15  -6 51.7287 220.594   3
  -3 -15   6 115.711 186.846   5
  -3 -15   6 233.198 111.547   8
   3 -15   6 84.1796 100.592   5
   3 -15   6 27.8010 120.088   8
  -3  15   6 185.985 169.691   1
  -3  15  -6 63.5416 160.793   3
  -3  15  -6-149.368 259.353   2
   3 -15  -6-14.2554 132.036   7
  -3  15   6 224.501 111.350   4
   3  15  -6-75.8277 198.317   2
   3 -15  -6-57.4175 158.346   6
   3 -15  -7-117.328 166.014   6
   3  15  -7-129.497 219.877   3
  -3 -15   7 90.5451 183.004   5
  -3 -15   7 11.7587 101.982   8
   3 -15   7-12.1627 101.648   5
   3 -15   7 28.9353 130.595   8
  -3  15  -7 21.4138 166.472   3
  -3  15  -7-122.888 236.162   2
   3 -15  -7-14.2339 125.268   7
  -3  15   7-190.965 170.947   1
  -3  15   7 12.1214 109.118   4
   3  15  -7 232.402 212.306   2
   3 -15  -8 79.2667 154.621   6
   3  15  -8 51.9606 216.410   3
  -3  15   8 79.3363 176.051   1
  -3 -15   8-22.1766 179.897   5
  -3 -15   8-47.4054 100.300   8
   3 -15   8 61.8913 100.754   5
   3 -15   8 105.408 133.279   8
  -3  15  -8-213.728 168.592   3
  -3  15  -8 31.5207 263.406   2
   3 -15  -8-198.901 137.749   7
  -3  15   8 62.1457 110.010   4
   3  15  -8-79.3887 205.718   2
   3 -15  -9-202.105 158.173   6
   3  15  -9-104.313 231.801   3
  -3 -15   9-65.2459 177.450   5
  -3 -15   9-83.8057 103.626   8
   3 -15   9 25.1448 104.772   5
   3 -15   9 30.5058 137.089   8
  -3  15  -9-190.975 165.414   3
  -3  15   9-81.9834 179.219   1
   3 -15  -9-171.947 124.869   7
  -3  15  -9-290.312 269.839   2
  -3  15   9-114.847 122.860   4
   3  15  -9-163.154 217.910   2
   3 -15 -10 40.7561 149.979   6
   3  15 -10 55.9709 214.309   2
   3  15 -10-289.911 230.590   3
  -3 -15  10-21.3631 173.299   5
  -3 -15  10 85.1185 111.258   8
   3 -15  10-38.3466 103.340   5
   3 -15  10 15.8788 146.444   8
  -3  15 -10 85.8618 157.982   3
   3 -15 -10-186.079 126.330   7
  -3  15 -10 32.9517 273.595   2
  -3  15  10 126.063 180.025   1
  -3  15  10 131.065 116.339   4
   3 -15 -11-369.605 172.154   6
   3  15 -11 57.5980 223.889   2
   3  15 -11 159.596 224.418   3
  -3  15  11 43.2082 177.634   1
  -3 -15  11-188.519 183.813   5
  -3 -15  11-49.2207 119.042   8
   3 -15  11 78.0585 109.780   5
   3 -15  11 32.0956 145.264   8
  -3  15 -11-21.3760 158.631   3
   3 -15 -11 14.4421 131.089   7
  -3  15 -11 67.0685 285.579   2
  -3  15  11 40.2369 120.414   4
   3 -15 -12 605.980 189.156   6
   3  15 -12 175.996 269.185   2
   3  15 -12 26.8588 239.422   3
  -3 -15  12 1048.48 201.932   5
  -3 -15  12 698.757 145.900   8
   3 -15  12 53.0557 129.484   5
   3 -15  12 499.851 172.379   8
  -3  15 -12 194.720 174.376   3
   3 -15 -12 231.310 143.587   7
  -3  15  12 731.215 227.023   1
  -3  15 -12 409.006 307.040   2
  -3  15  12 275.575 146.440   4
   3 -15 -13 381.326 189.655   6
   3  15 -13-150.800 245.504   2
   3  15 -13 27.1309 231.770   3
  -3 -15  13 80.8067 174.166   5
  -3 -15  13-12.6375 117.194   8
   3 -15  13 94.8583 107.314   5
   3 -15  13 100.778 150.796   8
  -3  15 -13 64.8401 167.418   3
  -3  15  13-159.336 204.909   1
   3 -15 -13-131.425 138.544   7
  -3  15  13-28.1781 133.672   4
   3 -15 -14 128.730 186.802   6
   3  15 -14 30.9384 233.215   2
   3  15 -14 301.463 251.791   3
  -3 -15  14 696.566 207.290   5
  -3 -15  14 718.312 143.486   8
   3 -15  14 355.460 169.812   8
   3 -15  14 482.976 134.695   5
  -3  15 -14 216.203 177.845   3
  -3  15  14 584.861 220.460   1
   3 -15 -14 219.491 139.674   7
  -3  15  14 159.284 144.384   4
   3 -15 -15-21.7941 178.045   6
   3  15 -15 31.4226 246.114   2
   3  15 -15-27.6691 234.206   3
  -3 -15  15 19.6351 156.056   5
  -3 -15  15 13.0319 118.353   8
   3 -15  15-35.1617 156.553   8
   3 -15  15 42.2183 121.389   5
  -3  15 -15-175.293 163.964   3
   3 -15 -15-14.8107 133.754   7
  -3  15  15-177.867 137.841   4
   3 -15 -16 132.420 168.859   6
   3  15 -16 167.309 231.043   3
  -3 -15  16 132.848 166.092   5
   3 -15  16 318.822 180.836   8
   3 -15  16 388.174 131.145   5
  -3  15 -16 44.0256 167.789   3
   3 -15 -16 45.0330 136.659   7
  -3  15  16 364.951 152.929   4
   3 -15 -17-22.3482 177.573   6
   3  15 -17-28.0472 246.836   3
  -3 -15  17 18.6328 156.232   5
   3 -15  17-17.8550 162.071   8
   3 -15  17 14.6642 120.996   5
  -3  15 -17 177.491 169.922   3
   3 -15 -17-137.059 134.433   7
  -3  15  17-77.7011 143.724   4
   3 -15 -18-113.404 175.153   6
   3  15 -18 328.098 265.342   2
   3  15 -18 197.221 236.305   3
  -3 -15  18 18.2905 150.050   5
  -3 -15  18 54.1316 128.887   8
   3 -15  18 18.0151 164.541   8
   3 -15  18-15.0115 116.917   5
  -3  15 -18 89.7125 163.163   3
   3 -15 -18 185.593 136.686   7
  -3  15  18 15.9550 142.602   4
   3 -15 -19 68.7629 181.020   6
   3  15 -19-33.2864 290.509   2
   3  15 -19-169.760 249.143   3
  -3 -15  19-53.9001 158.813   5
  -3 -15  19 13.6539 126.232   8
   3 -15  19-18.2019 172.883   8
   3 -15  19-106.541 119.953   5
  -3  15 -19 22.8042 180.100   3
   3 -15 -19-109.576 138.436   7
  -3  15  19-229.650 170.608   4
   3 -15 -20-139.112 200.835   6
   3  15 -20-502.406 307.504   2
   3  15 -20-85.1042 238.886   3
  -3 -15  20-214.253 161.616   5
  -3 -15  20-221.695 136.477   8
   3 -15  20 18.4147 181.485   8
   3 -15  20-15.4318 132.782   5
  -3  15 -20-161.948 188.705   3
   3 -15 -20 95.5764 140.709   7
  -3  15  20 33.5475 159.179   4
   3 -15 -21 23.4110 186.064   6
   3  15 -21-235.575 270.245   2
  -3 -15  21-17.7558 145.102   5
   3  15 -21-256.078 230.082   3
  -3 -15  21 13.9629 126.481   8
   3 -15  21 18.6734 172.290   8
   3 -15  21 15.8011 132.143   5
  -3  15 -21-70.6815 174.901   3
   3 -15 -21-48.6525 144.448   7
  -3  15  21-103.657 151.238   4
   3 -15 -22-71.2263 189.311   6
   3  15 -22-33.7792 264.545   2
  -3 -15  22-17.6845 148.280   5
   3  15 -22-28.1302 228.982   3
  -3 -15  22-28.1287 124.512   8
   3 -15  22 16.0934 131.903   5
  -3  15 -22-96.1014 176.840   3
  -3  15  22 35.6195 157.205   4
   3 -15 -23-119.717 183.487   6
   3  15 -23 34.0859 204.100   2
  -3 -15  23-194.415 141.581   5
   3  15 -23 168.641 216.170   3
   3 -15  23-82.4821 140.654   5
  -3  15 -23 294.165 181.293   3
  -3  15  23-147.220 173.830   4
  -4  15   3 147.969 134.667   1
  -4  15   4 31.6754 142.299   1
   4 -15   4 194.888 135.937   8
   4 -15  -4 142.361 147.536   7
  -4  15  -4 171.064 243.330   2
  -4  15   4 32.9058 107.072   4
   4 -15  -4 318.772 172.506   6
  -4 -15   5 275.262 227.805   5
   4 -15   5-11.6434 94.4552   5
   4 -15   5-72.7162 130.912   8
  -4  15   5 115.963 152.782   1
  -4  15  -5-20.0045 147.230   3
   4 -15  -5 31.3136 141.712   7
  -4  15  -5 29.4497 253.866   2
  -4  15   5-33.8584 109.690   4
   4 -15  -5 20.3245 168.754   6
  -4 -15   6 596.347 227.905   5
   4 -15   6 289.291 150.144   8
   4 -15   6 512.845 121.398   5
  -4  15  -6-101.151 161.401   3
  -4  15   6 467.381 163.198   1
   4 -15  -6 154.999 150.160   7
  -4  15  -6 394.852 260.306   2
  -4  15   6 232.092 130.830   4
   4  15  -6 152.099 207.624   2
   4 -15  -6 306.980 174.269   6
  -4 -15   7-25.1531 193.536   5
   4 -15   7 63.7139 139.618   8
   4 -15   7-12.1667 98.7235   5
  -4  15  -7 141.385 151.324   3
   4 -15  -7 215.613 138.887   7
  -4  15   7 36.1841 153.348   1
  -4  15   7 142.269 109.953   4
   4  15  -7-51.2724 198.732   2
   4 -15  -7-41.1936 160.931   6
  -4 -15   8 342.269 202.452   5
  -4 -15   8 36.1526 108.107   8
   4 -15   8-16.6744 161.441   8
   4 -15   8-74.4831 101.293   5
  -4  15  -8 183.956 153.671   3
   4 -15  -8 199.121 136.911   7
  -4  15   8 109.484 113.878   4
   4  15  -8-182.270 202.544   2
  -4  15   8 37.0856 165.674   1
   4 -15  -8-20.9659 177.579   6
   4  15  -9 183.701 225.733   3
  -4  15   9 154.896 169.660   1
  -4 -15   9 95.2066 185.266   5
  -4 -15   9 122.174 107.301   8
   4 -15   9-33.8202 156.232   8
   4 -15   9 38.0367 109.038   5
  -4  15  -9-82.7561 163.466   3
   4 -15  -9 121.924 132.889   7
  -4  15   9 87.3676 113.660   4
   4  15  -9 132.679 208.774   2
   4 -15  -9-63.2799 171.944   6
   4  15 -10-183.831 224.344   3
  -4 -15  10-23.2293 194.139   5
  -4  15  10 262.539 189.188   1
  -4 -15  10 12.3336 111.970   8
   4 -15  10 17.6871 163.571   8
   4 -15  10 51.7467 103.903   5
  -4  15 -10 20.7456 149.520   3
   4 -15 -10-76.7566 143.822   7
  -4  15  10 140.052 117.144   4
   4  15 -10-298.368 216.276   2
   4 -15 -10 21.1818 171.849   6
   4  15 -11 210.590 234.304   3
  -4 -15  11 113.673 176.510   5
  -4 -15  11 374.079 125.095   8
  -4  15  11 414.022 203.183   1
   4 -15  11 286.297 166.445   8
   4 -15  11 198.442 116.707   5
  -4  15 -11 292.204 168.822   3
   4 -15 -11-137.767 154.938   7
  -4  15  11 169.111 133.172   4
   4  15 -11 110.173 227.802   2
   4 -15 -11-43.0530 172.208   6
   4 -15 -12 260.520 208.318   6
   4  15 -12 132.501 232.396   3
  -4 -15  12 22.2938 194.220   5
  -4 -15  12 151.087 112.382   8
   4 -15  12 93.5774 186.828   8
   4 -15  12 216.705 118.809   5
  -4  15  12 107.574 202.415   1
  -4  15 -12 190.430 163.768   3
   4 -15 -12 339.522 155.676   7
  -4  15  12 145.851 129.834   4
   4  15 -12 225.956 253.947   2
   4 -15 -13 415.784 194.733   6
   4  15 -13 214.014 235.852   3
  -4 -15  13 657.526 213.940   5
  -4 -15  13 818.858 145.402   8
   4 -15  13 340.361 193.647   8
   4 -15  13 235.145 129.162   5
  -4  15 -13-42.7026 168.239   3
   4 -15 -13 508.418 165.594   7
  -4  15  13 794.546 242.024   1
  -4  15  13 473.380 157.418   4
   4  15 -13 289.998 252.274   2
   4  15 -14 88.3908 239.994   2
   4 -15 -14 43.9596 172.372   6
   4  15 -14 162.335 221.893   3
  -4 -15  14 20.9443 167.823   5
  -4 -15  14 116.424 123.656   8
   4 -15  14-171.966 178.297   8
   4 -15  14-14.0228 119.030   5
  -4  15 -14-86.6936 157.787   3
   4 -15 -14 155.570 137.211   7
  -4  15  14 179.777 129.529   4
  -4  15  14 275.253 210.625   1
   4 -15 -15 490.691 203.879   6
   4  15 -15-27.3852 236.595   3
  -4  15  15 471.411 220.078   1
  -4 -15  15 370.937 192.605   5
   4 -15  15 270.272 191.821   8
   4 -15  15 430.228 140.670   5
  -4  15 -15 175.581 166.095   3
   4 -15 -15 31.1186 144.167   7
  -4  15  15 622.498 152.780   4
   4 -15 -16 44.8067 192.622   6
   4  15 -16 249.616 239.151   3
  -4 -15  16 20.3362 165.622   5
  -4  15  16 218.203 223.077   1
   4 -15  16 60.6822 193.377   8
   4 -15  16 14.5476 120.525   5
   4 -15 -16-94.4131 133.704   7
  -4  15 -16-44.6123 162.901   3
  -4  15  16 130.541 127.026   4
   4 -15 -17 22.6572 182.759   6
   4  15 -17-62.7855 245.107   2
   4  15 -17 421.558 268.055   3
  -4 -15  17-140.726 164.430   5
  -4 -15  17 40.3638 127.939   8
  -4  15  17 50.3444 207.149   1
   4 -15  17 143.296 184.482   8
   4 -15  17 89.3903 131.413   5
   4 -15 -17 15.9301 150.996   7
  -4  15 -17 90.7053 154.982   3
  -4  15  17 192.423 143.450   4
   4 -15 -18-22.8981 181.997   6
   4  15 -18 190.489 248.683   2
   4  15 -18 28.3642 228.582   3
  -4 -15  18-19.9045 169.064   5
  -4 -15  18-13.5990 123.200   8
   4 -15  18 269.712 207.822   8
   4 -15  18 30.3395 127.690   5
  -4  15  18 51.9229 229.187   1
   4 -15 -18 80.7049 141.733   7
  -4  15 -18-46.1636 164.975   3
  -4  15  18 60.7847 145.315   4
   4 -15 -19 162.592 217.573   6
   4  15 -19 226.577 303.238   2
   4  15 -19 285.934 278.972   3
  -4 -15  19 197.136 191.847   5
  -4 -15  19 137.540 141.198   8
   4 -15  19 126.372 205.120   8
   4 -15  19 233.020 141.355   5
  -4  15  19 563.089 273.260   1
   4 -15 -19 491.100 180.326   7
  -4  15 -19 188.207 191.430   3
  -4  15  19 155.481 167.398   4
   4 -15 -20 93.9347 179.149   6
   4  15 -20-32.6245 254.557   2
   4  15 -20 28.7996 235.208   3
  -4 -15  20-19.3917 157.310   5
  -4 -15  20 83.1913 124.120   8
   4 -15  20-299.825 202.135   8
  -4  15  20 277.247 233.904   1
   4 -15 -20 16.4496 142.657   7
  -4  15 -20-24.0317 168.639   3
  -4  15  20-15.9501 159.366   4
   4 -15 -21 23.7625 184.048   6
   4  15 -21-65.6706 268.170   2
   4  15 -21 28.9961 231.999   3
  -4 -15  21 18.5490 147.897   5
  -4 -15  21 56.0157 128.821   8
   4 -15  21 87.2978 197.539   8
   4 -15 -21 16.7080 140.968   7
  -4  15  21-315.899 247.564   1
  -4  15 -21 24.5080 166.424   3
  -4  15  21 32.6113 151.961   4
   4 -15 -22 288.098 198.270   6
   4  15 -22 266.414 258.099   2
   4  15 -22 145.687 226.711   3
  -4 -15  22-461.487 169.613   5
  -4 -15  22 197.856 142.785   8
  -4  15  22 234.575 161.574   4
  -4 -15  23 55.1409 152.122   5
   4  15 -23-87.8829 245.590   3
   5 -15  -2 112.504 155.977   7
  -5  15   2 255.220 129.593   1
  -5  15   3 492.935 141.714   4
  -5  15   3 836.267 174.000   1
   5 -15  -3 898.299 219.588   6
   5 -15  -4-107.667 151.110   7
  -5  15   4 10.9680 100.913   4
  -5  15   4-44.1950 129.870   1
   5 -15  -4-241.817 203.418   6
   5 -15   5 434.964 189.421   8
   5 -15   5 627.628 146.743   5
   5 -15  -5 281.751 179.829   7
  -5  15  -5 665.152 193.683   3
  -5  15   5 513.193 143.398   4
   5 -15  -5 924.926 216.645   6
  -5  15   5 613.868 164.908   1
  -5  15   6 176.061 139.102   1
   5 -15   6 17.0580 148.158   8
   5 -15   6 220.489 107.157   5
   5 -15  -6-17.3180 151.729   7
  -5  15  -6 203.869 154.360   3
  -5  15   6 45.5216 113.557   4
   5 -15  -6-22.0835 184.489   6
  -5  15   7 701.782 178.370   1
   5 -15   7 323.453 182.826   8
   5 -15   7 488.520 131.371   5
   5 -15  -7 443.678 168.014   7
  -5  15  -7 267.390 173.097   3
  -5  15   7 336.246 140.500   4
   5 -15  -7 201.603 206.405   6
  -5  15   8 314.454 157.734   1
   5 -15   8 170.479 175.196   8
   5 -15   8-25.6220 100.037   5
   5 -15  -8-84.2680 143.133   7
  -5  15  -8-166.589 155.194   3
  -5  15   8-23.7074 109.965   4
   5 -15  -8 336.498 205.286   6
  -5 -15   9 207.808 228.009   5
  -5  15   9 321.563 164.478   1
   5 -15   9-19.2485 168.916   8
   5 -15   9 233.872 108.738   5
   5 -15  -9 33.3382 145.290   7
  -5  15  -9 42.1904 155.058   3
  -5  15   9 132.579 114.095   4
   5 -15  -9 44.9753 184.572   6
  -5 -15  10 50.4455 206.110   5
   5 -15  10-101.239 193.141   8
   5 -15  10 13.2954 110.965   5
  -5  15  10-111.887 178.773   1
   5 -15 -10-230.805 160.373   7
  -5  15 -10-106.866 155.492   3
  -5  15  10 24.6549 126.896   4
   5  15 -10 26.7077 219.690   2
   5 -15 -10-67.5659 192.508   6
   5  15 -11 26.2717 226.900   3
  -5 -15  11 908.956 244.116   5
   5 -15  11 390.331 197.205   8
   5 -15  11 378.531 126.646   5
  -5  15  11 155.588 186.807   1
   5 -15 -11 513.906 175.602   7
  -5  15 -11 43.3607 164.584   3
  -5  15  11 390.890 146.073   4
   5  15 -11 135.474 231.611   2
   5 -15 -11 387.943 213.093   6
   5  15 -12 52.5746 222.402   3
  -5 -15  12 23.3487 202.728   5
  -5 -15  12 421.001 128.623   8
   5 -15  12 124.989 189.586   8
   5 -15  12 193.797 121.061   5
   5 -15 -12-82.3513 150.225   7
  -5  15  12 79.6483 175.894   1
  -5  15 -12-43.9896 154.843   3
  -5  15  12 322.270 128.769   4
   5  15 -12 303.275 221.916   2
   5 -15 -12 365.771 200.895   6
   5  15 -13 184.800 225.176   3
  -5 -15  13 549.442 210.023   5
  -5 -15  13 505.354 138.377   8
   5 -15  13 393.639 210.811   8
   5 -15  13 438.924 133.874   5
   5 -15 -13 16.5861 150.304   7
  -5  15 -13 156.403 174.533   3
  -5  15  13 288.557 136.885   4
  -5  15  13 207.963 189.396   1
   5  15 -13-168.775 238.044   2
   5 -15 -13 137.452 199.257   6
   5  15 -14-239.238 227.918   3
  -5 -15  14 180.073 177.371   5
   5 -15  14 354.925 205.526   8
   5 -15  14 275.815 125.933   5
   5 -15 -14 165.154 148.736   7
  -5  15 -14 22.7418 162.942   3
  -5  15  14 80.5100 116.993   4
  -5  15  14 170.539 183.712   1
   5 -15 -14 206.357 193.225   6
  -5  15  15 757.529 218.179   1
   5  15 -15-26.9801 243.686   3
  -5 -15  15 577.161 203.243   5
   5 -15  15 405.305 219.398   8
   5 -15 -15 149.950 159.650   7
  -5  15 -15-92.5184 170.766   3
  -5  15  15 328.328 141.942   4
   5 -15 -15 185.894 204.318   6
   5 -15 -16-280.491 177.209   6
  -5  15  16 91.5157 194.481   1
   5  15 -16-54.7497 228.241   3
  -5 -15  16 21.8674 177.663   5
  -5 -15  16 201.892 126.781   8
   5 -15  16 91.5099 198.050   8
   5 -15 -16 116.372 138.385   7
  -5  15 -16 23.5168 166.065   3
  -5  15  16 194.957 129.814   4
   5  15 -16-88.6016 240.594   2
   5 -15 -17-141.096 202.589   6
  -5  15  17-47.0197 201.925   1
   5  15 -17 55.6074 233.299   3
  -5 -15  17 273.282 180.253   5
  -5 -15  17 232.298 121.398   8
   5 -15  17 69.8370 220.723   8
   5 -15 -17 335.910 168.753   7
  -5  15  17 256.081 138.234   4
   5  15 -17-181.176 244.189   2
   5 -15 -18 565.924 240.304   6
   5  15 -18-310.879 243.625   3
  -5  15  18 24.6262 230.083   1
  -5 -15  18 229.060 186.924   5
  -5 -15  18-13.7783 126.737   8
   5 -15 -18-33.9648 161.890   7
  -5  15  18 29.0133 150.365   4
   5  15 -18-610.967 283.946   2
   5 -15 -19 236.538 214.671   6
   5  15 -19 28.7349 236.018   3
  -5  15  19 101.448 224.139   1
  -5 -15  19 20.6548 171.071   5
  -5 -15  19 684.297 148.169   8
   5 -15 -19-17.1844 163.237   7
  -5  15  19 252.403 149.385   4
   5  15 -19 280.615 269.019   2
   5 -15 -20 71.7160 173.671   6
   5  15 -20-203.761 241.380   3
  -5  15  20 156.902 225.257   1
  -5 -15  20-143.626 174.311   5
  -5 -15  20 267.526 126.954   8
   5 -15 -20 208.832 156.953   7
  -5  15  20 152.215 144.469   4
   5  15 -20 31.4695 273.329   2
   5  15 -21-285.442 240.532   2
   5 -15 -21 290.726 216.162   6
   5  15 -21-147.262 239.376   3
  -5 -15  21 265.060 172.113   5
  -5 -15  21 99.7249 131.530   8
   5 -15 -21 17.4435 165.714   7
  -5  15  21 234.567 147.597   4
   5  15 -22 32.2793 225.637   2
   5  15 -22 148.782 244.790   3
  -5 -15  22 40.2381 168.339   5
  -6  15   1 321.340 127.264   1
  -6  15   1 537.436 128.701   4
  -6  15   2 563.266 154.308   1
   6 -15  -2 261.134 206.301   7
  -6  15   2 543.764 136.508   4
   6 -15  -2 845.352 245.134   6
  -6  15   3-13.4879 107.569   1
   6 -15  -3 212.067 176.097   7
  -6  15   3-86.4192 106.990   4
   6 -15  -3-72.5435 207.837   6
  -6  15   4 685.214 160.965   1
   6 -15  -4 405.944 213.874   7
  -6  15   4 645.344 153.947   4
   6 -15  -5-19.8101 166.656   7
  -6  15   5 187.966 131.648   1
  -6  15   5-88.8022 105.378   4
  -6  15  -5 43.7558 154.276   3
   6 -15  -5 217.586 211.564   6
   6 -15   6 411.366 201.585   8
   6 -15  -6 426.037 200.977   7
  -6  15   6 573.702 150.557   4
  -6  15   6 1003.45 182.100   1
  -6  15  -6 617.314 207.661   3
   6 -15  -6 977.070 253.536   6
   6 -15   7 207.013 195.687   8
   6 -15  -7 189.717 188.342   7
  -6  15   7 354.811 134.590   4
  -6  15  -7 401.024 190.934   3
  -6  15   7 698.810 162.656   1
   6 -15  -7 926.927 224.016   6
   6 -15   8 262.198 228.130   8
   6 -15  -8-55.8579 166.661   7
  -6  15   8 326.545 127.473   4
  -6  15  -8 270.448 190.215   3
  -6  15   8 725.608 169.200   1
   6 -15  -8-121.730 221.106   6
   6 -15   9-133.623 204.813   8
   6 -15  -9 186.160 187.799   7
  -6  15   9 153.602 118.139   4
   6 -15  -9 218.492 217.185   6
  -6  15   9 50.3166 158.957   1
   6 -15  10 204.200 217.786   8
   6 -15 -10 109.936 169.540   7
  -6  15  10 420.591 135.591   4
   6 -15 -10 290.879 206.971   6
  -6  15  11-196.283 168.924   1
   6 -15  11 23.8806 228.022   8
   6 -15 -11-90.3501 168.035   7
  -6  15  11-12.2136 113.102   4
   6 -15 -11-318.433 204.456   6
  -6  15  12 837.862 194.687   1
   6 -15  12 486.440 243.719   8
   6 -15 -12 308.145 175.730   7
  -6  15  12 473.520 143.135   4
   6 -15 -12 586.886 229.702   6
   6  15 -13 131.523 203.313   3
  -6 -15  13 24.5598 225.616   5
  -6  15  13 95.1962 175.062   1
   6 -15  13 49.5806 223.460   8
   6 -15 -13-71.7501 154.614   7
  -6  15  13 165.425 126.549   4
   6 -15 -13 244.392 205.875   6
   6  15 -14 52.8780 230.564   3
  -6 -15  14 305.126 212.864   5
  -6  15  14 617.410 189.920   1
   6 -15 -14 35.5392 165.699   7
  -6  15  14 555.776 141.783   4
   6 -15 -14 268.595 204.750   6
   6  15 -15-80.0414 240.694   3
  -6 -15  15 23.1401 183.235   5
  -6  15  15 326.242 191.178   1
   6 -15 -15 89.4214 156.836   7
  -6  15  15 66.0625 119.680   4
   6  15 -15 171.202 228.058   2
   6 -15 -15 292.891 180.346   6
   6  15 -16 54.0017 233.797   3
  -6 -15  16 686.190 209.178   5
  -6 -15  16 771.251 145.358   8
  -6  15  16-21.3177 191.686   1
   6 -15 -16 234.223 175.132   7
  -6  15  16 418.660 143.989   4
   6  15 -16-28.8692 243.118   2
   6 -15 -16 414.990 206.843   6
   6  15 -17-27.5377 249.469   3
  -6 -15  17 226.871 199.934   5
  -6  15  17-415.427 225.459   1
   6 -15 -17-125.169 186.032   7
  -6 -15  17-219.928 133.697   8
  -6  15  17 13.8140 133.722   4
   6  15 -17 322.931 259.314   2
   6 -15 -17-73.2066 237.397   6
   6  15 -18 196.528 257.213   3
  -6 -15  18 314.664 190.489   5
  -6 -15  18 376.887 139.201   8
  -6  15  18 426.330 213.623   1
   6 -15 -18 18.0405 179.223   7
  -6  15  18 549.263 152.786   4
   6  15 -18-118.721 264.292   2
   6 -15 -18-148.163 214.479   6
   6 -15 -19 322.604 214.257   6
   6  15 -19 343.957 262.523   3
  -6 -15  19 260.612 183.618   5
  -6 -15  19-70.8649 126.376   8
  -6  15  19 46.9827 205.881   1
   6 -15 -19 54.6477 164.409   7
  -6  15  19 129.079 135.900   4
   6  15 -19-90.5484 234.075   2
   6 -15 -20 74.8209 206.812   6
   6  15 -20-29.2839 233.531   3
  -6 -15  20 345.874 176.229   5
  -6 -15  20 500.547 139.994   8
  -6  15  20 386.480 229.682   1
   6 -15 -20 184.067 167.640   7
  -6  15  20 351.799 154.520   4
   6  15 -20 60.9477 252.820   2
   6  15 -21 239.341 253.788   3
  -6 -15  21 172.376 170.804   5
  -6 -15  21 290.137 138.781   8
  -6  15  21 419.989 158.031   4
  -7  15   1 361.557 126.766   1
  -7  15   1 332.412 116.763   4
  -7  15   2 12.4493 107.833   1
   7 -15  -2-145.325 201.378   7
  -7  15   2-118.921 109.965   4
   7 -15  -2-186.319 242.450   6
  -7  15   3 513.568 136.797   1
   7 -15  -3 71.5145 215.436   7
  -7  15   3 337.939 121.657   4
   7 -15  -3 292.745 243.874   6
  -7  15   4-53.0281 124.329   1
   7 -15  -4-117.001 195.015   7
  -7  15   4-44.0118 99.7770   4
   7 -15  -4 79.7375 241.301   6
  -7  15   5 694.482 155.887   1
   7 -15  -5 205.147 213.538   7
  -7  15   5 520.785 137.964   4
   7 -15  -5 530.247 269.192   6
  -7  15   6 1079.36 183.135   1
   7 -15  -6 378.005 230.181   7
  -7  15   6 615.114 166.879   4
   7 -15  -6 925.284 295.878   6
   7 -15   7 287.492 232.545   8
  -7  15   7 461.878 149.082   1
   7 -15  -7 499.150 210.406   7
  -7  15   7 350.658 134.418   4
   7 -15  -7 452.628 267.379   6
   7 -15   8 588.372 253.979   8
  -7  15   8 661.536 157.051   1
   7 -15  -8 190.839 198.833   7
  -7  15   8 618.815 141.203   4
   7 -15  -8 822.865 252.671   6
   7 -15  -9 186.681 170.797   7
  -7  15   9 282.277 142.444   1
  -7  15   9 46.3948 112.692   4
   7 -15  -9 344.053 247.592   6
   7 -15 -10-40.6393 178.855   7
  -7  15  10-35.2029 105.398   4
  -7  15  10 227.154 150.076   1
   7 -15 -10-52.7150 228.604   6
   7 -15 -11 219.455 191.268   7
  -7  15  11 310.233 130.948   4
  -7  15  11 487.755 168.103   1
   7 -15 -11 656.119 254.629   6
   7 -15 -12 299.369 188.893   7
  -7  15  12-24.3108 110.014   4
  -7  15  12 52.3824 130.847   1
   7 -15 -13-58.9277 173.665   7
  -7  15  13 24.7207 122.687   4
  -7  15  13 213.832 155.433   1
   7 -15 -14 19.6999 165.734   7
  -7  15  14 87.9146 118.298   4
   7 -15 -14 157.596 201.284   6
  -7  15  14 408.219 185.550   1
  -7  15  15 360.276 177.521   1
   7 -15 -15 408.368 194.691   7
  -7  15  15 384.530 130.889   4
   7 -15 -15 523.715 247.354   6
  -7  15  16 276.906 206.152   1
   7 -15 -16 273.596 206.308   7
  -7  15  16 549.968 158.099   4
   7 -15 -16-26.1406 231.820   6
  -7  15  17 566.822 188.884   1
   7 -15 -17-19.3417 182.140   7
  -7  15  17 307.776 128.449   4
   7 -15 -17 52.1541 219.936   6
  -7  15  18 124.418 197.083   1
   7  15 -18 224.844 268.863   3
  -7 -15  18 118.733 183.644   5
   7 -15 -18 58.4084 184.633   7
  -7  15  18 164.129 132.870   4
   7 -15 -18-208.345 213.051   6
   7  15 -19 172.715 251.093   3
  -7  15  19 173.565 192.414   1
  -7 -15  19 23.7220 200.403   5
   7 -15 -19 254.998 187.028   7
  -7  15  19 278.347 142.486   4
   7  15 -19 89.0851 227.322   2
   7 -15 -19-286.283 229.816   6
   7  15 -20 147.736 247.182   3
  -7 -15  20 23.0388 192.033   5
  -7  15  20 242.157 145.714   4
   7 -15 -20 207.903 227.192   6
  -8  15   1 53.4097 106.017   4
   8 -15  -1 228.308 268.193   6
  -8  15   2-10.7425 106.122   4
   8 -15  -2 85.8238 253.205   6
  -8  15   3-50.2349 105.359   1
  -8  15   3-86.5337 105.037   4
   8 -15  -3-86.2709 261.860   6
  -8  15   4 90.2549 110.139   1
   8 -15  -4 25.4751 220.433   7
  -8  15   4 65.4912 95.3323   4
   8 -15  -4-28.8172 246.309   6
  -8  15   5 410.895 129.519   1
   8 -15  -5 50.4173 208.476   7
  -8  15   5 253.182 116.935   4
   8 -15  -5 115.294 255.592   6
  -8  15   6 13.6187 119.338   1
   8 -15  -6 124.017 214.559   7
  -8  15   6 55.5622 107.178   4
   8 -15  -6 86.3222 262.642   6
  -8  15   7 926.078 179.165   1
  -8  15   7 941.811 164.006   4
   8 -15  -7 717.409 280.513   6
  -8  15   8-202.536 134.128   1
   8 -15  -8-213.874 200.490   7
  -8  15   8 237.197 104.997   4
   8 -15  -8-28.5918 231.150   6
  -8  15   9 418.814 145.913   1
   8 -15  -9-46.4319 201.712   7
  -8  15   9 239.582 128.940   4
   8 -15  -9 455.689 263.175   6
  -8  15  10-46.4487 139.790   1
   8 -15 -10 45.3958 192.680   7
  -8  15  10 127.031 109.208   4
  -8  15  11 48.0561 141.783   1
   8 -15 -11 158.435 192.149   7
  -8  15  11-46.8272 107.113   4
   8 -15 -11-28.5392 248.230   6
  -8  15  12 81.6329 141.589   1
   8 -15 -12-110.855 198.465   7
  -8  15  12-83.0187 111.660   4
   8 -15 -12 284.243 239.051   6
   8 -15 -13-21.7490 187.567   7
  -8  15  13 118.064 154.830   1
  -8  15  13 24.1291 118.768   4
   8 -15 -13 28.2874 243.175   6
   8 -15 -14-87.0107 214.394   7
  -8  15  14 52.3690 163.743   1
  -8  15  14-147.554 124.260   4
   8 -15 -14-309.671 254.521   6
   8 -15 -15 21.3944 195.689   7
  -8  15  15-213.793 167.430   1
  -8  15  15-175.064 131.653   4
   8 -15 -15 307.872 251.600   6
   8 -15 -16 278.857 197.027   7
  -8  15  16 18.1871 159.888   1
  -8  15  16 88.7936 117.703   4
   8 -15 -16-167.235 228.607   6
   8 -15 -17 344.466 182.955   7
  -8  15  17 25.8068 118.903   4
  -8  15  17 94.4120 179.877   1
   8 -15 -17 222.021 221.887   6
   8 -15 -18 106.238 178.757   7
  -8  15  18 26.3605 124.179   4
  -8  15  18-19.3044 171.901   1
   8 -15 -18 55.3533 240.061   6
  -8  15  19 229.074 126.500   4
   8 -15 -19 82.7411 239.974   6
   9 -15  -1 29.8350 253.314   6
  -9  15   2-52.4968 93.2127   4
   9 -15  -2-362.106 277.830   6
  -9  15   3-63.6541 95.1075   4
   9 -15  -3-273.035 278.535   6
  -9  15   4 224.424 106.971   4
   9 -15  -4 121.788 261.628   6
  -9  15   5 53.8559 94.7898   4
  -9  15   5-25.8927 109.567   1
  -9  15   6 411.509 138.173   1
  -9  15   6 554.159 132.203   4
  -9  15   7-40.7346 113.924   1
   9 -15  -7 52.6894 225.773   7
  -9  15   7-65.9446 95.1396   4
   9 -15  -7 153.941 250.643   6
  -9  15   8 793.608 153.088   1
   9 -15  -8 286.848 219.210   7
  -9  15   8 188.772 118.139   4
   9 -15  -8 277.302 290.328   6
  -9  15   9 99.9936 122.395   1
   9 -15  -9-231.315 216.151   7
  -9  15   9 11.2223 92.2647   4
   9 -15  -9-184.599 247.017   6
  -9  15  10 88.2391 125.624   1
   9 -15 -10-153.512 216.530   7
  -9  15  10 22.6424 99.6291   4
   9 -15 -10-368.342 273.227   6
  -9  15  11 60.6255 132.218   1
   9 -15 -11 75.5896 215.889   7
  -9  15  11-11.4486 111.530   4
   9 -15 -11-336.416 272.231   6
  -9  15  12-138.979 138.099   1
   9 -15 -12 24.6403 229.882   7
  -9  15  12-150.865 113.713   4
   9 -15 -12-365.665 249.648   6
  -9  15  13-63.8553 142.917   1
   9 -15 -13-122.947 217.650   7
  -9  15  13-11.7533 113.435   4
   9 -15 -13 333.813 282.079   6
  -9  15  14 65.0827 142.361   1
   9 -15 -14 241.216 209.415   7
  -9  15  14 190.914 107.586   4
   9 -15 -14-30.2162 253.211   6
  -9  15  15 101.115 148.523   1
   9 -15 -15-217.116 210.600   7
  -9  15  15-60.5433 115.708   4
   9 -15 -15-270.415 247.974   6
  -9  15  16-206.199 136.222   1
   9 -15 -16 142.239 214.994   7
  -9  15  16-123.333 116.611   4
   9 -15 -16 29.8880 237.839   6
  -9  15  17 17.8103 124.409   1
  -9  15  17-12.5863 122.322   4
   9 -15 -17-29.6983 241.730   6
 -10  15   6-10.5246 90.7289   4
  10 -15  -6 32.0342 271.954   6
 -10  15   7 138.252 104.277   4
  10 -15  -7 32.2047 298.276   6
 -10  15   8-21.5098 95.8888   4
  10 -15  -8 161.746 253.595   6
 -10  15   8 230.068 118.277   1
 -10  15   9 415.180 132.195   1
 -10  15   9 65.4058 106.348   4
  10 -15  -9 32.4642 302.082   6
 -10  15  10 325.005 143.601   1
  10 -15 -10 190.222 250.188   7
 -10  15  10 66.2284 110.350   4
 -10  15  11-100.936 128.022   1
  10 -15 -11-27.0754 228.442   7
 -10  15  11-11.1790 102.322   4
  10 -15 -11 390.126 295.868   6
 -10  15  12 428.225 154.642   1
  10 -15 -12 80.5516 236.369   7
 -10  15  12 124.278 105.004   4
  10 -15 -12 64.9015 265.424   6
 -10  15  13 45.4107 127.298   1
  10 -15 -13 267.934 219.785   7
 -10  15  13 80.1925 106.409   4
  10 -15 -13-129.454 282.504   6
 -10  15  14-138.908 135.487   1
  10 -15 -14-52.9691 212.674   7
 -10  15  14 127.698 109.087   4
  10 -15 -14 354.733 293.495   6
 -10  15  15-31.7732 135.075   1
  10 -15 -15-52.9397 232.385   7
 -10  15  15-82.4757 103.655   4
  10 -15 -15 64.2446 261.566   6
 -10  15  16 95.8659 114.520   4
  10 -15 -16-415.632 277.263   6
 -11  15  10 116.783 96.0151   4
  11 -15 -10 439.818 290.551   6
 -11  15  11-32.3529 103.401   4
  11 -15 -11-34.0049 290.504   6
 -11  15  12-10.9426 97.6848   4
  11 -15 -12 170.539 307.865   6
 -11  15  12 14.2892 118.261   1
 -11  15  13 55.4989 99.2159   4
  11 -15 -13-102.374 309.744   6
 -11  15  14 44.9514 90.5690   4
  11 -15 -14-272.833 299.262   6
   0  16  -1-24.8321 215.380   3
   0 -16   1-134.399 142.231   5
   0 -16   1 148.958 108.759   8
   0  16  -1 24.4725 184.563   2
   0  16  -2 553.941 233.001   2
   0  16  -2 378.183 246.340   3
   0 -16   2 702.358 172.200   5
   0 -16   2 321.557 117.311   8
   0  16  -3-103.665 214.486   2
   0  16  -3-25.5516 216.926   3
   0 -16   3 49.9279 135.931   5
   0 -16   3-23.1734 104.310   8
   0  16  -4 80.1481 209.868   2
   0  16  -4 77.5684 214.013   3
   0 -16   4 397.298 147.531   5
   0 -16   4 198.692 118.826   8
   0  16  -5-111.045 222.890   2
   0  16  -5-260.669 210.735   3
   0 -16   5 269.056 131.210   5
   0 -16   5-23.7151 102.218   8
   0  16   5-42.6927 130.205   4
   0  16  -6-285.844 239.222   2
   0  16  -6 235.725 216.440   3
   0 -16   6-83.4862 136.529   5
   0 -16   6-120.607 107.538   8
   0 -16  -6-195.769 120.750   7
   0  16   6 29.3374 135.905   4
   0  16   7-30.2346 140.524   4
   0  16  -7 58.8886 243.682   2
   0  16  -7-52.5232 215.202   3
   0 -16   7-98.6738 133.870   5
   0 -16   7 24.6003 113.449   8
   0 -16  -7 130.098 123.724   7
   0  16   8-31.1441 145.144   4
   0  16  -8 180.869 255.134   2
   0  16  -8 106.059 230.638   3
   0 -16   8 97.1006 122.057   5
   0 -16   8 37.7387 113.582   8
   0 -16  -8-77.7886 115.114   7
   0  16  -9-558.599 296.972   2
   0  16  -9-132.660 233.336   3
   0 -16   9-31.8378 137.705   5
   0 -16   9-141.997 127.606   8
   0 -16  -9-64.6999 111.974   7
   0  16 -10 255.131 272.095   2
   0  16 -10 105.986 239.746   3
   0 -16  10 64.3548 146.574   5
   0 -16  10 159.266 135.995   8
   0 -16 -10 116.834 118.679   7
   0  16 -11-294.595 294.651   2
   0  16 -11 238.053 203.341   3
   0 -16  11-175.888 137.449   5
   0 -16  11 13.4229 122.183   8
   0 -16 -11 26.0326 114.580   7
   0  16 -12 833.273 318.363   2
   0 -16  12 794.929 185.480   5
   0 -16  12 731.584 173.635   8
   0 -16 -12 982.102 176.384   7
   0  16 -13 68.1627 272.680   2
   0 -16  13-63.3386 126.249   5
   0  16 -13-157.350 225.386   3
   0 -16  13 83.5322 130.408   8
   0 -16 -13 26.4348 113.252   7
   0 -16  14 885.785 207.645   5
   0  16 -14 828.511 350.164   2
   0  16 -14 264.242 254.038   3
   0 -16  15-31.6288 125.238   5
   0  16 -15-455.846 307.703   2
   0  16 -15-210.168 201.205   3
   0 -16  15 157.264 133.957   8
   0 -16  16 680.597 162.006   5
   0  16 -16 282.763 324.273   2
   0 -16  16 598.674 165.518   8
   0  16 -16-26.0888 213.592   3
   0 -16  17-79.8155 144.199   5
   0  16 -17 177.744 308.334   2
   0 -16  17 43.9450 139.066   8
   0  16 -17-232.803 216.927   3
   0 -16  18 14.6812 143.063   8
   0  16 -18-430.356 333.362   2
   0  16 -18 77.0025 214.522   3
   0 -16  19 48.0821 134.994   5
   0 -16  19-309.042 137.120   8
   0  16 -19-359.459 314.948   2
   0  16 -19 101.900 213.553   3
   0 -16  20-16.0681 134.760   5
   0  16 -20 126.834 192.804   3
   0 -16  21-194.403 143.865   5
   0  16 -21-153.611 209.838   3
   1  16   0 49.0990 220.811   3
  -1 -16   0-171.371 161.251   5
   1  16   0-118.247 187.743   2
   1  16  -1 225.145 234.218   3
  -1 -16   1 1109.76 207.190   5
  -1 -16   1 501.264 139.154   8
   1  16  -1 793.382 220.481   2
  -1  16  -2-51.6148 217.066   2
   1  16  -2 203.696 226.064   3
  -1 -16   2 135.697 163.860   5
  -1  16  -2 123.022 207.734   3
   1 -16   2 233.925 121.921   5
  -1 -16   2 35.1771 115.000   8
   1 -16   2 343.569 116.040   8
   1  16  -2 296.476 204.615   2
   1  16  -3 51.7743 235.613   3
  -1  16  -3-160.737 220.968   2
  -1 -16   3 96.0645 162.046   5
  -1  16  -3 223.943 197.080   3
   1 -16   3 202.241 118.918   5
  -1 -16   3 187.614 113.726   8
   1 -16   3 46.5113 111.720   8
   1  16  -3 328.858 198.899   2
   1  16  -4-26.2578 224.297   3
  -1  16  -4 110.446 221.687   2
  -1 -16   4-19.0215 148.964   5
  -1  16  -4 498.917 220.163   3
   1 -16   4-28.5558 120.460   5
  -1 -16   4-58.9802 104.410   8
   1 -16   4-35.5362 112.922   8
   1  16  -4 129.826 205.554   2
   1  16  -5-240.416 214.473   2
   1 -16  -5-18.8921 141.321   6
   1  16  -5 159.323 226.825   3
  -1  16  -5 199.337 237.970   2
  -1 -16   5 37.6073 159.634   5
  -1  16  -5 24.9507 198.227   3
   1 -16   5 43.4915 118.796   5
  -1 -16   5 47.5434 101.220   8
   1 -16   5-12.1022 105.886   8
   1 -16  -5-150.321 128.006   7
  -1  16   5-13.2626 130.716   4
   1  16  -6 55.0364 209.253   2
   1 -16  -6 115.880 156.856   6
   1  16  -6 107.440 221.694   3
  -1 -16   6 186.052 152.140   5
  -1  16  -6 29.3716 257.090   2
  -1  16  -6 100.820 208.734   3
   1 -16   6 202.549 124.198   5
  -1 -16   6-48.0304 111.583   8
   1 -16   6 37.2586 116.584   8
   1 -16  -6-54.6887 118.812   7
  -1 -16  -6 111.827 113.331   7
  -1  16   6-13.7754 127.272   4
   1 -16  -7 39.4669 152.883   6
   1  16  -7-170.225 234.057   2
   1  16  -7 54.2577 232.477   3
  -1 -16   7-36.8190 152.900   5
  -1  16  -7-30.3019 246.672   2
   1 -16   7 14.4452 113.601   5
  -1  16  -7-176.332 206.452   3
  -1 -16   7-109.206 113.141   8
   1 -16   7-63.8932 113.812   8
   1 -16  -7-41.1137 122.393   7
  -1 -16  -7-12.3815 113.347   7
  -1  16   7 127.896 129.028   4
   1 -16  -8 100.329 162.962   6
   1  16  -8 146.151 246.728   2
   1  16  -8-54.6917 226.446   3
  -1 -16   8 111.694 154.261   5
  -1  16  -8-31.2708 260.597   2
   1 -16   8 87.7995 122.926   5
  -1  16  -8 100.467 205.277   3
  -1 -16   8 36.9731 116.877   8
   1 -16   8 92.2638 127.426   8
   1 -16  -8 27.3936 121.482   7
  -1 -16  -8 110.761 104.772   7
  -1  16   8-73.1939 134.521   4
   1 -16  -9 204.723 163.225   6
   1  16  -9 632.231 274.716   2
   1  16  -9-54.9580 238.301   3
  -1 -16   9 128.786 167.430   5
   1 -16   9 87.7197 129.772   5
  -1  16  -9 32.0174 286.604   2
  -1  16  -9-100.175 213.269   3
  -1 -16   9-37.6360 121.929   8
   1 -16   9 13.5384 131.891   8
   1 -16  -9-204.905 123.305   7
  -1  16   9-30.3600 145.421   4
   1 -16 -10 250.437 166.414   6
   1  16 -10-61.9055 277.859   2
   1  16 -10-137.618 258.482   3
  -1 -16  10 18.1728 158.089   5
   1 -16  10 117.211 130.447   5
  -1 -16  10-63.5819 127.368   8
  -1  16 -10-25.2625 182.847   3
  -1  16 -10 32.8870 289.425   2
   1 -16  10-83.5567 136.650   8
   1 -16 -10-27.3735 128.560   7
  -1  16  10 156.102 142.084   4
   1 -16 -11 317.048 170.011   6
   1  16 -11 63.5673 273.255   2
   1  16 -11 82.5616 220.565   3
  -1 -16  11 338.478 155.205   5
   1 -16  11 220.405 133.799   5
  -1 -16  11 259.275 127.392   8
  -1  16 -11 50.2479 202.963   3
   1 -16  11 196.920 132.659   8
  -1  16 -11-67.4425 300.158   2
   1 -16 -11-68.6629 123.608   7
  -1  16  11 240.495 146.059   4
   1 -16 -12 193.597 158.409   6
   1  16 -12 194.275 279.171   2
   1  16 -12 54.9951 224.639   3
  -1 -16  12 69.8197 140.736   5
   1 -16  12-103.983 123.461   5
  -1 -16  12-66.1785 119.595   8
   1 -16  12 100.968 127.054   8
  -1  16 -12-174.788 203.317   3
  -1  16 -12-274.396 275.438   2
   1 -16 -12 82.4696 118.970   7
  -1  16  12 298.702 150.707   4
   1 -16 -13 848.053 229.126   6
   1  16 -13 794.930 312.393   2
   1  16 -13 360.000 260.005   3
  -1 -16  13 1402.76 211.327   5
   1 -16  13 581.315 180.919   5
  -1 -16  13 1136.83 186.517   8
   1 -16  13 828.034 190.782   8
  -1  16 -13 371.614 236.393   3
  -1  16 -13 698.977 332.583   2
   1 -16 -13 539.887 175.923   7
  -1  16  13 986.810 223.034   4
   1 -16 -14-287.154 167.267   6
   1  16 -14-134.415 276.316   2
   1  16 -14 138.054 222.498   3
  -1 -16  14-16.9571 138.566   5
  -1 -16  14 95.6915 128.783   8
   1 -16  14-209.569 123.565   5
   1 -16  14 223.337 149.499   8
  -1  16 -14-174.861 201.309   3
  -1  16 -14 318.208 306.648   2
   1 -16 -14-83.8803 123.114   7
  -1  16  14 52.3385 156.238   4
   1  16 -15 410.462 313.633   2
  -1 -16  15 823.919 180.699   5
   1  16 -15 357.962 248.249   3
  -1 -16  15 908.726 178.219   8
   1 -16  15 991.475 177.455   5
   1 -16  15 702.721 186.799   8
  -1  16 -15 247.920 227.867   3
  -1  16 -15 929.526 349.208   2
   1 -16 -15 651.045 170.376   7
  -1  16  15 982.253 210.273   4
   1  16 -16 172.659 284.850   2
  -1 -16  16-100.278 146.234   5
   1  16 -16-82.1717 214.508   3
  -1 -16  16-14.0646 128.003   8
   1 -16  16 15.0859 128.083   5
   1 -16  16-134.978 132.753   8
  -1  16 -16 320.054 190.685   3
  -1  16 -16 143.998 349.873   2
   1 -16 -16 57.4294 120.758   7
  -1  16  16 145.992 168.308   4
   1  16 -17-349.868 330.234   2
  -1 -16  17 433.283 155.737   5
   1  16 -17 109.067 232.223   3
  -1 -16  17 155.425 146.800   8
   1 -16  17 15.2493 133.464   5
   1 -16  17 30.7205 158.916   8
  -1  16 -17-49.0343 184.891   3
  -1  16 -17-325.611 324.777   2
   1 -16 -17-204.549 139.322   7
   1  16 -18-421.987 341.767   2
  -1 -16  18 49.8918 145.936   5
  -1 -16  18 42.5432 137.175   8
   1  16 -18-352.312 259.618   3
   1 -16  18 30.7937 152.107   8
   1 -16  18 77.0127 138.651   5
  -1  16 -18-97.1776 199.744   3
  -1  16 -18 36.2898 317.508   2
  -1 -16  19-16.6220 143.489   5
   1  16 -19 53.8121 218.393   3
   1 -16  19-246.995 141.067   8
   1 -16  19-15.5723 126.122   5
  -1  16 -19 36.3991 286.187   2
  -1  16 -19 49.0639 185.853   3
  -1 -16  20 16.7381 146.872   5
   1 -16  20 46.4667 145.453   8
   1 -16  20-31.5772 127.641   5
   1  16 -20 53.3679 209.728   3
  -1  16 -20-109.327 294.612   2
  -1  16 -20-24.3939 178.042   3
  -1 -16  21 16.7548 148.718   5
   1 -16  21 16.0559 136.729   5
   1  16 -21-105.919 223.398   3
  -1  16 -21 24.3218 181.936   3
  -2 -16   0 941.465 246.949   5
   2  16  -1 103.658 214.436   3
  -2 -16  -1 90.1190 182.307   5
  -2 -16   1 177.960 184.879   5
   2  16  -2 78.6440 233.361   3
  -2 -16   2 572.871 207.359   5
  -2  16  -2 955.912 256.633   2
   2  16  -2 418.999 209.802   2
   2  16  -3 450.134 242.260   3
  -2 -16   3 21.7964 170.692   5
  -2  16  -3 27.4026 218.476   2
  -2 -16   3-11.9419 103.869   8
   2 -16   3-12.9324 103.108   5
  -2  16  -3-23.5029 200.763   3
   2 -16   3-72.9973 116.262   8
   2  16  -3 25.0828 201.384   2
   2  16  -4 320.453 243.087   3
  -2 -16   4 44.1948 173.148   5
  -2  16  -4 141.568 235.157   2
  -2 -16   4 120.635 111.992   8
   2 -16   4 78.0662 107.837   5
  -2  16  -4 23.7166 191.822   3
   2 -16   4-75.2298 116.690   8
  -2  16   4-75.9741 168.691   1
   2  16  -4-25.5244 191.022   2
   2 -16  -5 94.3406 152.537   6
   2  16  -5 134.860 238.043   3
  -2 -16   5 130.779 177.414   5
  -2 -16   5 12.0752 106.572   8
  -2  16  -5-410.119 266.586   2
   2 -16   5 13.2061 112.463   5
  -2  16  -5 23.5977 193.369   3
   2 -16   5 103.083 116.307   8
  -2  16   5-177.160 178.650   1
   2 -16  -5-115.329 126.131   7
  -2  16   5 101.444 121.475   4
   2  16  -5-104.257 196.525   2
   2 -16  -6 38.6315 149.032   6
   2  16  -6 217.876 219.035   3
  -2 -16   6 21.4935 178.339   5
  -2 -16   6 169.930 111.200   8
   2 -16   6 279.033 122.567   5
  -2  16  -6 30.2537 258.746   2
  -2  16  -6 142.847 194.860   3
   2 -16   6 79.6971 118.929   8
   2 -16  -6 86.3620 132.665   7
  -2  16   6 80.7651 186.164   1
  -2  16   6-65.4904 114.645   4
   2  16  -6 26.6982 200.920   2
   2  16  -7 109.717 221.543   2
   2 -16  -7 315.070 167.910   6
   2  16  -7-164.842 233.765   3
  -2 -16   7 63.3566 168.516   5
  -2 -16   7-12.2300 103.077   8
   2 -16   7 40.4277 123.636   5
  -2  16   7 579.978 200.488   1
   2 -16   7 107.661 128.616   8
  -2  16  -7 62.4955 255.682   2
  -2  16  -7 354.959 200.259   3
   2 -16  -7 43.0797 130.916   7
  -2  16   7 215.757 127.603   4
   2  16  -8-310.573 250.673   2
   2 -16  -8 20.1150 161.600   6
   2  16  -8-55.3900 249.357   3
  -2 -16   8 103.676 174.476   5
  -2 -16   8 49.3633 107.173   8
   2 -16   8-13.5597 113.819   5
   2 -16   8-194.066 146.753   8
  -2  16  -8 93.9530 197.619   3
  -2  16  -8 32.1892 289.000   2
   2 -16  -8-57.7073 138.320   7
  -2  16   8-84.6488 191.623   1
  -2  16   8-111.393 134.158   4
   2 -16  -9 595.290 192.961   6
   2  16  -9 319.897 267.273   2
   2  16  -9 111.561 253.127   3
  -2 -16   9 407.030 191.855   5
  -2 -16   9 424.550 139.045   8
   2 -16   9 273.146 130.420   5
   2 -16   9 214.445 151.315   8
  -2  16  -9 189.496 208.784   3
  -2  16  -9 461.533 314.159   2
   2 -16  -9 157.884 136.868   7
  -2  16   9 128.705 139.393   4
   2 -16 -10-292.261 177.229   6
   2  16 -10 29.9453 247.826   2
   2  16 -10 28.0665 228.451   3
  -2 -16  10 80.0558 169.913   5
  -2 -16  10 101.304 127.937   8
   2 -16  10 138.373 119.289   5
   2 -16  10-59.0024 133.148   8
  -2  16 -10 47.0372 194.641   3
  -2  16 -10-236.273 311.289   2
   2 -16 -10 14.3491 128.810   7
  -2  16  10-58.7014 145.972   4
   2 -16 -11 233.900 166.615   6
   2  16 -11 123.153 251.509   2
   2  16 -11-253.876 239.541   3
  -2 -16  11-98.4456 161.437   5
  -2 -16  11 64.0146 112.809   8
   2 -16  11 41.7714 112.706   5
   2 -16  11-14.8839 131.480   8
  -2  16 -11 163.472 190.166   3
  -2  16 -11 206.622 289.670   2
   2 -16 -11 28.8123 120.903   7
  -2  16  11 75.5675 153.124   4
   2 -16 -12 194.041 168.216   6
   2  16 -12 250.903 272.473   2
   2  16 -12 84.8122 251.742   3
  -2 -16  12 484.755 175.160   5
  -2 -16  12 494.164 148.026   8
   2 -16  12 672.600 149.744   5
   2 -16  12 720.688 186.270   8
  -2  16 -12 47.1195 184.980   3
  -2  16 -12 735.258 324.849   2
   2 -16 -12 130.365 144.069   7
  -2  16  12 433.483 163.818   4
   2 -16 -13 43.8274 170.803   6
   2  16 -13 321.556 268.536   2
   2  16 -13 28.4479 243.760   3
  -2 -16  13 57.2817 156.596   5
  -2 -16  13 184.302 126.647   8
   2 -16  13 113.570 122.038   5
   2 -16  13 77.1507 147.618   8
  -2  16 -13 23.4727 162.826   3
  -2  16 -13 496.626 308.224   2
   2 -16 -13 145.212 133.887   7
  -2  16  13 334.446 152.283   4
   2 -16 -14 621.407 201.984   6
   2  16 -14 653.099 289.620   2
   2  16 -14 227.650 254.514   3
  -2 -16  14 709.560 191.143   5
  -2 -16  14 427.786 165.604   8
   2 -16  14 890.394 165.113   5
   2 -16  14 872.742 190.091   8
  -2  16 -14 325.493 191.158   3
  -2  16 -14 968.464 343.634   2
   2 -16 -14 527.284 164.315   7
  -2  16  14 901.440 206.732   4
   2 -16 -15-201.873 166.800   6
   2  16 -15 99.9498 266.786   2
   2  16 -15-56.8641 242.369   3
  -2 -16  15-36.5205 153.960   5
  -2 -16  15 188.989 123.994   8
   2 -16  15 43.6363 120.875   5
   2 -16  15 207.193 148.930   8
  -2  16 -15 516.525 200.238   3
  -2  16 -15 36.1857 335.650   2
   2 -16 -15 14.7972 133.645   7
  -2  16  15 100.513 149.520   4
   2 -16 -16 45.5076 182.131   6
   2  16 -16 438.077 274.177   2
   2  16 -16 141.979 226.912   3
  -2 -16  16 17.8644 152.456   5
  -2 -16  16 328.784 140.922   8
   2 -16  16 879.764 174.005   8
   2 -16  16 324.944 127.245   5
  -2  16 -16-163.406 181.417   3
  -2  16 -16 218.394 318.099   2
   2 -16 -16 44.9307 130.084   7
  -2  16  16 258.609 175.389   4
   2 -16 -17-91.8147 195.756   6
   2  16 -17 34.2207 309.063   2
   2  16 -17-283.093 255.744   3
  -2 -16  17-159.205 174.668   5
  -2 -16  17 13.7924 143.054   8
   2 -16  17 16.0522 155.997   8
   2 -16  17-164.834 133.806   5
  -2  16 -17 46.5329 180.509   3
  -2  16 -17 219.465 353.110   2
   2 -16 -17-15.1535 133.004   7
  -2  16  17-281.784 185.491   4
   2 -16 -18 139.603 191.942   6
  -2 -16  18 17.5285 154.274   5
   2  16 -18-112.950 256.980   3
  -2 -16  18 13.9978 146.614   8
   2 -16  18-214.689 152.325   8
   2 -16  18-30.5229 144.426   5
  -2  16 -18-23.2265 179.233   3
  -2  16 -18-256.996 312.656   2
   2 -16 -18 30.7963 142.404   7
  -2  16  18 90.6786 165.948   4
   2 -16 -19 140.621 172.488   6
  -2 -16  19-17.4009 151.350   5
   2  16 -19-84.3364 221.752   3
   2 -16  19 16.5904 158.928   8
   2 -16  19 15.5179 132.960   5
  -2  16 -19 23.5051 175.121   3
  -2  16 -19 36.8229 285.192   2
   2 -16 -19-141.036 146.411   7
  -2  16  19 74.1707 174.130   4
   2  16 -20 104.819 302.101   2
  -2 -16  20 104.072 153.971   5
  -2 -16  20-127.033 136.212   8
   2  16 -20-336.015 227.925   3
   2 -16  20 150.168 158.675   8
   2 -16  20 31.6012 135.808   5
  -2  16 -20-141.388 176.283   3
  -2  16 -20 332.285 312.467   2
   2 -16 -20 143.758 146.156   7
  -2  16  20 18.9394 170.961   4
  -2 -16  21-17.3070 144.202   5
   2  16 -21-27.8512 214.926   3
   2 -16  21-64.3176 127.335   5
  -2  16 -21-118.613 184.445   3
  -2  16  21 115.939 173.002   4
  -3 -16   1 533.382 245.388   5
  -3 -16   2-209.662 217.302   5
  -3 -16   3 642.822 228.633   5
  -3  16  -3 140.654 230.543   2
  -3 -16   4-226.644 204.352   5
   3 -16   4 12.2510 102.846   5
   3 -16   4-118.907 125.439   8
  -3  16  -4 29.1201 250.324   2
  -3  16  -4 89.2405 174.159   3
  -3  16   4-17.6854 160.597   1
  -3  16   4-59.8208 112.197   4
   3  16  -4 51.2405 198.501   2
   3 -16  -5-156.133 161.019   6
  -3  16   5 277.940 177.530   1
   3  16  -5 166.876 236.136   3
  -3 -16   5-147.767 214.231   5
   3 -16   5 12.4502 99.6624   5
   3 -16   5 13.6555 123.636   8
  -3  16  -5 22.1322 170.158   3
  -3  16  -5-331.332 262.007   2
   3 -16  -5 61.8251 136.054   7
  -3  16   5 74.0114 124.385   4
   3  16  -5 181.350 219.960   2
   3 -16  -6 59.8572 168.873   6
   3  16  -6-111.266 231.715   3
  -3  16   6 135.532 171.871   1
  -3 -16   6-24.0867 197.387   5
  -3 -16   6 123.405 111.104   8
   3 -16   6 75.3797 112.168   5
   3 -16   6-84.8130 136.417   8
  -3  16  -6 200.845 176.679   3
  -3  16  -6 217.505 257.998   2
   3 -16  -6-138.546 137.431   7
  -3  16   6 12.6687 117.471   4
   3  16  -6-236.809 198.405   2
   3 -16  -7 20.1590 160.161   6
   3  16  -7 305.958 247.587   3
  -3 -16   7-164.957 206.179   5
  -3 -16   7 86.9067 105.077   8
  -3  16   7-178.564 190.990   1
   3 -16   7 89.3182 101.018   5
   3 -16   7-190.429 143.376   8
  -3  16  -7-222.083 175.815   3
  -3  16  -7 159.922 292.636   2
   3 -16  -7 107.329 144.355   7
  -3  16   7-39.1222 121.531   4
   3  16  -7-80.4085 220.365   2
   3 -16  -8-205.704 180.227   6
   3  16  -8-251.037 253.761   3
  -3 -16   8 368.976 196.244   5
  -3 -16   8 175.221 121.467   8
   3 -16   8 90.5689 115.431   5
   3 -16   8 311.479 153.642   8
  -3  16  -8 224.000 192.475   3
  -3  16   8 555.852 204.060   1
   3 -16  -8 366.160 154.582   7
  -3  16   8 40.1089 124.991   4
   3  16  -8 137.004 242.496   2
  -3  16   9 21.3112 176.676   1
   3 -16  -9 62.2509 173.159   6
   3  16  -9-28.0012 245.923   3
  -3 -16   9-180.651 190.794   5
  -3 -16   9-101.452 116.495   8
   3 -16   9-118.255 109.239   5
   3 -16   9-107.484 151.347   8
  -3  16  -9-110.889 173.358   3
  -3  16  -9 336.123 280.177   2
   3 -16  -9-30.6794 136.941   7
  -3  16   9-109.994 130.513   4
   3  16  -9-196.653 241.666   2
   3 -16 -10 84.2698 180.525   6
   3  16 -10 168.836 244.036   3
  -3 -16  10-154.439 178.377   5
  -3 -16  10 38.3369 108.848   8
  -3  16  10 21.7762 186.597   1
   3 -16  10 66.6540 107.055   5
   3 -16  10-95.3980 154.542   8
  -3  16 -10 22.3850 157.097   3
  -3  16 -10 34.3160 258.752   2
   3 -16 -10-15.2543 131.517   7
  -3  16  10-56.2712 135.766   4
   3  16 -10 432.822 258.303   2
   3  16 -11-88.0518 239.012   2
   3 -16 -11 428.743 200.805   6
   3  16 -11 395.869 217.610   3
  -3 -16  11 323.547 189.247   5
  -3 -16  11 51.5852 118.018   8
   3 -16  11 324.889 120.857   5
   3 -16  11 160.436 164.258   8
  -3  16 -11 289.091 171.411   3
  -3  16  11 44.8480 198.283   1
  -3  16 -11 314.213 305.019   2
   3 -16 -11 30.3656 138.539   7
  -3  16  11 506.190 158.944   4
   3  16 -12 120.735 246.543   2
   3 -16 -12 108.580 178.587   6
   3  16 -12-56.8067 249.264   3
  -3 -16  12-21.1060 186.316   5
  -3 -16  12 130.292 126.392   8
   3 -16  12 232.224 167.258   8
   3 -16  12 13.7713 114.041   5
  -3  16 -12-66.4568 159.682   3
  -3  16 -12 35.4820 306.811   2
   3 -16 -12-45.7979 128.856   7
  -3  16  12-68.7600 197.023   1
  -3  16  12-14.7777 138.481   4
   3 -16 -13 132.358 186.176   6
   3  16 -13 465.194 266.677   2
  -3  16  13 752.247 227.224   1
   3  16 -13 285.481 251.236   3
  -3 -16  13 455.587 178.420   5
  -3 -16  13 884.834 157.103   8
   3 -16  13 534.464 180.565   8
   3 -16  13 449.335 146.344   5
  -3  16 -13 67.1294 181.857   3
   3 -16 -13 430.279 155.062   7
  -3  16 -13 503.584 332.226   2
  -3  16  13 649.871 177.131   4
   3 -16 -14-22.3330 185.589   6
   3  16 -14-188.968 245.861   2
   3  16 -14-57.3417 242.007   3
  -3 -16  14-61.0221 171.780   5
  -3 -16  14 26.7075 123.720   8
   3 -16  14-100.820 154.343   8
  -3  16  14-144.463 214.458   1
   3 -16  14-42.8177 119.521   5
  -3  16 -14-245.652 170.535   3
   3 -16 -14-76.7573 141.043   7
  -3  16 -14 72.6641 303.711   2
  -3  16  14 61.7044 147.256   4
   3 -16 -15 339.072 192.239   6
   3  16 -15-64.5215 260.079   2
   3  16 -15 143.716 258.394   3
  -3 -16  15 540.266 190.505   5
  -3 -16  15 689.172 147.613   8
   3 -16  15 956.201 201.425   8
   3 -16  15 377.696 137.309   5
  -3  16 -15 225.910 172.056   3
   3 -16 -15-108.443 144.180   7
  -3  16 -15 36.6648 312.245   2
  -3  16  15 489.907 170.695   4
  -3  16  15 419.695 222.750   1
   3 -16 -16 366.827 177.184   6
   3  16 -16 97.9952 252.241   2
   3  16 -16 28.7631 235.905   3
  -3 -16  16-118.197 164.396   5
  -3 -16  16 27.2400 133.057   8
   3 -16  16-17.4814 155.047   8
   3 -16  16 14.8120 124.180   5
  -3  16  16 279.253 232.484   1
  -3  16 -16 90.5359 167.564   3
   3 -16 -16 93.8979 141.608   7
  -3  16 -16 221.721 317.745   2
  -3  16  16 145.729 149.664   4
   3 -16 -17 578.922 215.257   6
   3  16 -17 948.884 286.393   3
  -3 -16  17 134.838 188.894   5
  -3  16  17 365.907 241.141   1
  -3 -16  17 192.501 142.051   8
   3 -16  17 263.741 178.404   8
   3 -16  17 15.0789 135.917   5
  -3  16 -17 386.941 195.123   3
   3 -16 -17 205.857 159.841   7
  -3  16 -17 260.317 350.606   2
  -3  16  17 49.5537 170.822   4
   3 -16 -18-23.4008 187.946   6
  -3  16  18 107.818 237.257   1
   3  16 -18-258.790 237.241   3
  -3 -16  18 18.8419 157.028   5
   3 -16  18 17.7000 163.313   8
   3 -16  18 15.4064 116.726   5
  -3  16 -18 68.8805 175.222   3
   3 -16 -18 15.8963 133.781   7
  -3  16 -18 37.3474 312.137   2
  -3  16  18 271.109 162.790   4
   3 -16 -19-142.231 171.651   6
   3  16 -19 204.499 282.572   2
   3  16 -19 114.793 208.374   3
  -3 -16  19-368.961 156.550   5
  -3 -16  19-13.9867 136.335   8
   3 -16  19-53.5153 181.003   8
   3 -16  19-436.390 136.604   5
  -3  16  19-139.374 258.300   1
  -3  16 -19 209.563 168.637   3
   3 -16 -19-64.5249 141.317   7
  -3  16 -19 75.0849 309.119   2
  -3  16  19-104.354 165.428   4
   3 -16 -20 454.359 195.641   6
   3  16 -20 34.2483 279.002   2
   3  16 -20 28.6723 245.191   3
  -3 -16  20 18.2790 150.723   5
  -3 -16  20 14.0662 133.922   8
   3 -16  20 71.9925 184.957   8
   3 -16  20 15.9134 127.396   5
  -3  16 -20-117.896 182.302   3
   3 -16 -20 376.896 160.050   7
  -3  16 -20 113.217 306.355   2
  -3  16  20 35.4948 155.247   4
   3  16 -21-142.980 231.976   3
  -4  16   4-48.8310 142.835   1
  -4  16  -4-416.517 272.935   2
   4 -16  -4-16.8572 144.446   7
  -4  16   4 47.3909 106.953   4
   4 -16  -4 81.3769 178.003   6
  -4 -16   5-475.010 248.964   5
  -4  16   5-221.934 172.068   1
   4 -16   5 58.8804 137.974   8
   4 -16   5-12.2261 91.0265   5
  -4  16  -5-126.450 162.380   3
  -4  16  -5-92.0772 262.409   2
   4 -16  -5 50.0479 156.656   7
  -4  16   5-146.182 114.931   4
   4 -16  -5-41.5162 186.662   6
  -4 -16   6 54.1543 222.894   5
   4 -16   6 107.182 145.666   8
   4 -16   6 124.924 118.134   5
  -4  16   6 357.034 177.907   1
  -4  16  -6-21.2503 170.975   3
   4 -16  -6 82.5130 164.146   7
  -4  16  -6 410.924 303.008   2
  -4  16   6-12.5137 123.551   4
   4 -16  -6-188.303 195.794   6
  -4 -16   7-26.2435 220.233   5
   4 -16   7 15.9302 156.597   8
   4 -16   7-12.7126 107.036   5
  -4  16  -7 105.779 168.964   3
  -4  16   7-74.5282 171.214   1
   4 -16  -7 132.617 156.383   7
  -4  16  -7 259.853 291.738   2
  -4  16   7 115.080 134.549   4
   4  16  -7 427.788 227.198   2
   4 -16  -7 189.434 201.385   6
   4  16  -8-84.9013 253.350   3
  -4 -16   8-152.758 211.412   5
   4 -16   8 16.1435 146.546   8
   4 -16   8 77.6607 106.463   5
  -4  16  -8 170.766 156.480   3
   4 -16  -8-148.035 152.124   7
  -4  16  -8-333.113 289.753   2
  -4  16   8-97.2468 177.976   1
  -4  16   8 39.2021 119.599   4
   4  16  -8-135.425 222.703   2
   4 -16  -8-107.083 194.394   6
   4  16  -9-112.633 224.592   3
  -4 -16   9-98.9887 199.482   5
  -4 -16   9 102.297 112.062   8
   4 -16   9 134.561 152.789   8
   4 -16   9-145.079 112.154   5
  -4  16  -9-85.3907 149.940   3
   4 -16  -9-97.9425 141.707   7
  -4  16  -9 102.418 285.361   2
  -4  16   9-53.3306 128.504   4
   4  16  -9 27.5382 209.365   2
  -4  16   9-119.376 174.192   1
   4 -16  -9-194.630 177.913   6
   4 -16 -10 153.830 180.097   6
  -4  16  10-165.799 177.596   1
   4  16 -10-56.1253 218.171   3
  -4 -16  10-168.672 203.945   5
  -4 -16  10 51.8077 121.660   8
   4 -16  10 85.0479 146.653   8
   4 -16  10-67.1334 109.321   5
  -4  16 -10-86.2485 145.726   3
   4 -16 -10 16.2099 145.128   7
  -4  16 -10 34.8595 277.941   2
  -4  16  10-27.1651 125.294   4
   4  16 -10-84.2224 218.260   2
   4 -16 -11-354.462 188.658   6
   4  16 -11-168.433 233.834   3
  -4  16  11-107.810 184.747   1
  -4 -16  11 23.5103 196.466   5
  -4 -16  11 143.728 112.973   8
   4 -16  11 123.740 153.297   8
   4 -16  11 54.8005 118.099   5
  -4  16 -11-43.5709 151.477   3
   4 -16 -11 16.2880 151.003   7
  -4  16  11-69.3744 126.946   4
   4  16 -11 199.318 222.170   2
   4 -16 -12 378.279 187.056   6
   4  16 -12 281.572 249.065   3
  -4 -16  12 275.821 189.401   5
  -4  16  12 176.364 196.742   1
  -4 -16  12 356.258 129.489   8
   4 -16  12 17.8437 165.190   8
   4 -16  12-27.9134 117.480   5
  -4  16 -12 153.100 158.260   3
   4 -16 -12 145.792 147.576   7
  -4  16  12 296.886 138.401   4
   4  16 -12 116.508 249.315   2
   4 -16 -13 45.1582 188.081   6
   4  16 -13 56.5876 237.952   3
  -4 -16  13 112.177 177.612   5
  -4 -16  13 13.3807 124.054   8
  -4  16  13-388.706 210.317   1
   4 -16  13 92.7660 160.417   8
   4 -16  13 42.7810 115.289   5
  -4  16 -13-66.0812 161.444   3
   4 -16 -13-162.962 147.095   7
  -4  16  13 158.919 134.289   4
   4  16 -13 59.6848 229.399   2
   4 -16 -14 430.616 197.866   6
   4  16 -14-85.3590 243.229   3
  -4 -16  14 384.630 183.256   5
  -4 -16  14 553.021 144.771   8
   4 -16  14 467.801 206.147   8
   4 -16  14 187.595 125.660   5
  -4  16  14 538.387 230.576   1
  -4  16 -14 156.097 187.860   3
   4 -16 -14 311.614 160.444   7
  -4  16  14 251.284 148.819   4
   4  16 -14 302.747 256.724   2
   4 -16 -15-137.436 194.182   6
   4  16 -15 143.221 232.634   3
  -4 -16  15 41.9454 166.412   5
  -4 -16  15-191.371 135.504   8
   4 -16  15-169.811 169.741   8
   4 -16  15-235.555 122.755   5
  -4  16 -15 180.229 167.548   3
   4 -16 -15 228.959 141.851   7
  -4  16  15-311.721 208.866   1
  -4  16  15-150.532 136.711   4
   4  16 -15-124.083 250.176   2
   4 -16 -16-116.115 186.949   6
   4  16 -16-115.391 235.991   3
  -4 -16  16 309.397 200.925   5
  -4 -16  16 13.7740 139.210   8
   4 -16  16 190.309 187.197   8
   4 -16  16 119.210 131.462   5
   4 -16 -16 181.466 166.488   7
  -4  16 -16-22.8513 170.109   3
  -4  16  16 149.453 250.908   1
  -4  16  16 231.241 150.442   4
   4 -16 -17 281.337 205.324   6
   4  16 -17 203.296 253.516   3
  -4 -16  17-20.3248 172.252   5
   4 -16  17-238.080 199.323   8
   4 -16  17-106.603 130.407   5
   4 -16 -17-333.180 182.014   7
  -4  16 -17 23.1721 168.660   3
  -4  16  17-110.104 143.815   4
  -4  16  17 179.136 225.389   1
   4  16 -18 32.4462 261.408   2
   4 -16 -18 47.3512 180.613   6
  -4  16  18 342.348 234.414   1
   4  16 -18-29.2066 240.921   3
  -4 -16  18 20.0499 172.840   5
  -4 -16  18 14.0236 133.358   8
   4 -16  18 20.0463 179.948   8
   4 -16  18-139.281 133.810   5
   4 -16 -18 50.0029 155.329   7
  -4  16 -18-94.1501 173.233   3
  -4  16  18-64.1129 149.755   4
   4  16 -19-165.238 295.036   2
   4 -16 -19 167.473 199.347   6
   4  16 -19 263.829 245.016   3
  -4  16  19-27.1446 246.401   1
  -4 -16  19 58.9473 169.450   5
  -4 -16  19 169.847 126.081   8
   4 -16  19 20.2924 193.978   8
   4 -16  19 31.6296 126.181   5
   4 -16 -19-134.931 155.214   7
  -4  16 -19 23.9203 168.684   3
  -4  16  19-16.4061 148.974   4
   4 -16 -20 218.058 203.130   6
   4  16 -20-88.2159 247.309   3
  -4 -16  20 115.590 164.072   5
   4 -16 -20 17.0943 111.499   7
  -4  16 -20-146.333 171.932   3
  -4  16  20-16.8005 140.413   4
  -5  16   3 14.5354 138.233   1
   5 -16  -4 246.848 184.780   7
  -5  16   4 363.580 136.402   4
  -5  16   4 181.305 150.731   1
   5 -16  -4 22.2894 207.044   6
   5 -16  -5 74.5769 186.509   7
  -5  16  -5 186.762 271.981   2
  -5  16   5 95.9785 113.730   4
  -5  16   5 94.3996 149.306   1
   5 -16  -5 268.250 231.741   6
  -5  16   6 131.196 147.898   1
   5 -16   6-118.373 152.908   8
   5 -16   6 140.307 104.221   5
   5 -16  -6 183.368 175.037   7
  -5  16  -6 85.2929 162.920   3
  -5  16   6 48.8013 115.511   4
   5 -16  -6-112.171 199.902   6
  -5  16   7 239.486 157.590   1
   5 -16   7 17.1778 165.982   8
   5 -16   7 273.176 115.949   5
   5 -16  -7-90.3012 159.997   7
  -5  16  -7-85.8219 157.021   3
  -5  16   7 212.170 119.228   4
   5 -16  -7 250.385 205.717   6
  -5  16   8 356.987 169.410   1
   5 -16   8 215.707 178.068   8
   5 -16   8 132.760 107.412   5
   5 -16  -8 213.841 157.380   7
  -5  16  -8 21.6537 166.978   3
  -5  16   8-38.2794 116.247   4
   5 -16  -8-182.503 186.158   6
  -5  16   9-18.6491 162.686   1
   5 -16   9-150.633 164.257   8
   5 -16   9 67.1333 113.275   5
   5 -16  -9 107.168 160.331   7
  -5  16  -9-43.7483 164.930   3
  -5  16   9 25.9341 116.074   4
   5 -16  -9-91.4354 195.859   6
   5  16 -10 112.790 248.395   3
  -5 -16  10 203.659 215.066   5
  -5  16  10 116.616 187.429   1
   5 -16  10 114.478 177.698   8
   5 -16  10 13.7048 110.222   5
   5 -16 -10 52.9397 169.418   7
  -5  16 -10 66.3214 159.699   3
  -5  16  10 172.070 119.342   4
   5 -16 -10-69.4765 185.629   6
   5  16 -11-168.042 243.636   3
  -5 -16  11 172.951 198.412   5
   5 -16  11-159.849 191.921   8
   5 -16  11-69.9760 115.519   5
  -5  16  11 19.8607 170.739   1
   5 -16 -11 17.4308 148.495   7
  -5  16 -11-111.824 153.387   3
  -5  16  11-13.5190 120.749   4
   5  16 -11 253.412 231.532   2
   5 -16 -11-139.250 185.734   6
   5  16 -12 27.9093 243.468   3
  -5 -16  12 144.377 198.490   5
   5 -16  12-20.2243 176.429   8
   5 -16  12 56.8138 115.220   5
  -5  16  12 186.119 183.558   1
   5 -16 -12-175.002 158.826   7
  -5  16 -12-181.093 165.217   3
  -5  16  12-109.885 130.293   4
   5  16 -12-142.853 240.280   2
   5 -16 -12 325.089 207.278   6
   5  16 -13 83.6567 239.936   3
  -5 -16  13 164.461 197.302   5
  -5 -16  13 107.710 129.183   8
   5 -16  13 20.4578 171.350   8
   5 -16  13 101.622 113.450   5
   5 -16 -13 156.268 150.572   7
  -5  16  13 21.1397 178.162   1
  -5  16 -13 45.8499 159.083   3
  -5  16  13 83.8572 123.184   4
   5  16 -13 232.588 246.324   2
   5 -16 -13-94.0693 198.120   6
   5 -16 -14 212.802 176.989   6
   5  16 -14-84.2643 234.057   3
  -5 -16  14-23.0122 189.933   5
  -5 -16  14 177.546 121.397   8
   5 -16  14-269.117 194.508   8
   5 -16  14-14.8206 116.665   5
   5 -16 -14 157.125 147.431   7
  -5  16 -14 92.9681 169.044   3
  -5  16  14 22.0465 198.005   1
  -5  16  14 28.3907 132.444   4
   5  16 -14 117.783 225.581   2
   5 -16 -15-47.5274 202.599   6
   5  16 -15 311.070 254.734   3
  -5 -16  15-45.0403 187.839   5
  -5 -16  15 179.103 146.939   8
   5 -16  15-21.7183 209.792   8
   5 -16 -15-34.7049 170.511   7
  -5  16 -15-118.094 189.219   3
  -5  16  15 101.035 143.888   4
  -5  16  15 428.808 225.700   1
   5 -16 -16-357.037 230.604   6
   5  16 -16-370.877 259.251   3
  -5 -16  16 44.1872 185.683   5
   5 -16  16-264.083 194.667   8
   5 -16 -16 69.9264 159.199   7
  -5  16 -16 23.9893 172.621   3
  -5  16  16-161.806 144.903   4
  -5  16  16 92.4942 211.406   1
   5 -16 -17-313.252 195.533   6
  -5  16  17 96.6479 214.524   1
   5  16 -17 28.8057 254.276   3
  -5 -16  17 21.7110 175.592   5
  -5 -16  17 98.6286 131.061   8
   5 -16  17-468.800 214.952   8
   5 -16 -17-52.8668 155.161   7
  -5  16 -17 146.089 178.525   3
  -5  16  17-15.0082 128.301   4
   5  16 -17-30.9771 234.539   2
   5 -16 -18-48.2875 189.382   6
  -5  16  18-248.096 227.853   1
   5  16 -18 145.585 252.735   3
  -5 -16  18 192.643 178.049   5
  -5 -16  18 199.733 138.745   8
   5 -16  18 204.075 206.073   8
   5 -16 -18-17.7844 154.147   7
  -5  16  18 76.7222 158.085   4
   5  16 -18 156.417 262.482   2
   5 -16 -19-219.340 192.257   6
   5  16 -19 147.135 253.679   3
  -5 -16  19-20.6883 168.977   5
   5 -16 -19 17.7494 158.010   7
  -5  16  19 15.7121 146.816   4
  -6  16   3 265.627 130.713   1
  -6  16   3 149.386 117.172   4
  -6  16   4-29.0148 121.976   1
   6 -16  -4 304.050 185.686   7
  -6  16   4 128.592 107.668   4
   6 -16  -4 342.049 209.357   6
   6 -16  -5-106.054 189.058   7
  -6  16   5 390.451 146.963   1
  -6  16   5 142.858 121.546   4
   6 -16  -5 122.001 214.025   6
   6 -16  -6 145.208 180.619   7
  -6  16   6 357.831 148.460   1
  -6  16   6 433.805 131.665   4
   6 -16  -6 219.113 215.187   6
   6 -16   7 272.059 190.129   8
   6 -16  -7-40.6155 168.941   7
  -6  16   7 354.885 125.824   4
  -6  16  -7-115.615 181.084   3
  -6  16   7 274.417 147.340   1
   6 -16  -7-147.625 226.175   6
   6 -16   8 307.263 199.044   8
   6 -16  -8 19.9190 177.351   7
  -6  16   8 173.858 125.721   4
  -6  16  -8 512.402 177.170   3
  -6  16   8 100.571 145.518   1
   6 -16  -8-24.5737 200.713   6
   6 -16   9 20.8293 190.625   8
   6 -16  -9 156.471 171.247   7
  -6  16   9 176.019 120.741   4
  -6  16  -9-117.594 167.909   3
  -6  16   9 153.918 148.589   1
   6 -16  -9 171.623 215.005   6
   6 -16  10-21.9289 189.788   8
   6 -16 -10-19.2345 171.564   7
  -6  16  10 64.0314 120.229   4
   6 -16 -10 396.423 226.106   6
  -6  16  10 337.982 158.797   1
  -6  16  11 92.5742 157.903   1
   6 -16  11 312.018 207.704   8
   6 -16 -11 153.990 161.046   7
  -6  16  11-13.0546 123.825   4
   6 -16 -11 247.565 201.390   6
  -6  16  12 377.916 178.503   1
   6 -16  12-22.6344 192.896   8
   6 -16 -12-75.8901 158.724   7
  -6  16  12-13.3077 123.603   4
   6 -16 -12 98.8511 190.833   6
  -6  16  13 216.728 178.954   1
   6 -16  13 23.8090 214.430   8
   6 -16 -13-93.6840 166.934   7
  -6  16  13 13.4922 122.324   4
   6 -16 -13 172.827 187.025   6
   6  16 -14-166.573 255.363   3
  -6  16  14 20.1278 209.499   1
   6 -16 -14 18.8036 181.013   7
  -6  16  14 68.7619 145.782   4
   6 -16 -14-148.067 233.505   6
   6  16 -15 27.8614 262.020   3
  -6 -16  15-23.4629 203.604   5
  -6  16  15 21.0378 195.930   1
   6 -16 -15-453.292 214.610   7
  -6  16  15-168.344 151.696   4
   6 -16 -15-324.170 238.272   6
   6  16 -16-393.560 254.486   3
  -6 -16  16 69.2934 190.598   5
  -6  16  16 43.0436 187.264   1
   6 -16 -16 37.4308 156.482   7
  -6  16  16-14.2653 133.380   4
   6  16 -16-179.753 229.477   2
   6 -16 -16-24.9060 204.153   6
   6 -16 -17 124.998 196.103   6
   6  16 -17-142.693 234.906   3
  -6 -16  17 90.9666 182.938   5
  -6  16  17 22.4781 189.380   1
   6 -16 -17-37.6611 164.659   7
  -6  16  17 101.426 141.937   4
   6  16 -17 666.084 259.663   2
   6 -16 -18-50.1870 190.764   6
   6  16 -18 86.8082 253.223   3
  -6 -16  18-22.4247 191.627   5
  -6  16  18 138.207 198.038   1
   6 -16 -18-94.8351 168.917   7
  -6  16  18 309.117 148.806   4
   6  16 -18-338.020 253.534   2
  -7  16   3-66.2353 112.604   1
   7 -16  -3 74.5010 202.213   7
  -7  16   3 195.507 114.269   4
   7 -16  -3-159.486 227.822   6
  -7  16   4 218.977 122.144   1
   7 -16  -4-146.403 198.095   7
  -7  16   4 185.774 116.647   4
   7 -16  -4-26.7700 247.550   6
  -7  16   5 664.680 147.046   1
   7 -16  -5-95.1273 213.105   7
  -7  16   5 328.872 125.351   4
   7 -16  -5 186.884 237.939   6
  -7  16   6 282.544 136.098   1
   7 -16  -6 348.227 209.969   7
  -7  16   6 154.094 121.146   4
   7 -16  -6 159.660 223.681   6
  -7  16   7 728.000 159.535   1
   7 -16  -7 340.029 216.837   7
  -7  16   7 215.614 129.619   4
   7 -16  -7 662.211 254.702   6
   7 -16   8 22.8004 195.446   8
  -7  16   8 109.925 133.945   1
   7 -16  -8 243.681 198.452   7
  -7  16   8 133.643 117.673   4
   7 -16  -8 613.889 239.299   6
   7 -16   9 216.719 215.760   8
   7 -16  -9-64.9961 193.084   7
  -7  16   9 16.2202 137.601   1
  -7  16   9 98.7592 115.728   4
   7 -16  -9 132.847 227.155   6
   7 -16 -10-21.6083 190.157   7
  -7  16  10 16.7750 141.078   1
  -7  16  10 112.287 118.052   4
   7 -16 -10-369.994 218.000   6
   7 -16 -11 127.062 187.475   7
  -7  16  11-63.2821 116.172   4
  -7  16  11-69.5053 143.386   1
   7 -16 -11-26.3258 218.614   6
   7 -16 -12-103.997 179.836   7
  -7  16  12 89.8241 123.224   4
  -7  16  12-17.7164 166.370   1
   7 -16 -12-79.6425 254.932   6
   7 -16 -13 540.947 234.713   7
  -7  16  13 404.760 142.581   4
  -7  16  13 349.419 194.496   1
   7 -16 -13 449.437 278.610   6
   7 -16 -14 40.9440 182.363   7
  -7  16  14-66.5122 117.274   4
  -7  16  14-56.2844 166.204   1
   7 -16 -14-131.882 221.937   6
   7 -16 -15-102.613 185.756   7
  -7  16  15-26.9626 119.334   4
  -7  16  15 292.841 163.675   1
   7 -16 -15-157.776 214.766   6
  -7  16  16 99.7031 164.057   1
   7 -16 -16-222.766 184.892   7
  -7  16  16 96.2702 130.598   4
   7 -16 -16 209.786 209.897   6
  -7  16  17 124.771 172.775   1
   7 -16 -17 81.3472 178.561   7
  -7  16  17 14.0264 128.143   4
   7 -16 -17-26.1887 205.932   6
  -8  16   3 77.5500 110.071   1
  -8  16   3 34.2853 102.099   4
   8 -16  -3 202.684 268.576   6
  -8  16   4 344.805 126.431   1
   8 -16  -4-158.448 219.991   7
  -8  16   4 218.790 120.509   4
   8 -16  -4-173.211 254.558   6
  -8  16   5 81.7968 116.487   1
   8 -16  -5-130.683 208.401   7
  -8  16   5-92.5428 108.943   4
   8 -16  -5 116.031 238.506   6
  -8  16   6 700.650 155.303   1
   8 -16  -6 205.798 216.131   7
  -8  16   6 314.651 132.080   4
   8 -16  -6 491.162 262.401   6
  -8  16   7 101.086 128.909   1
   8 -16  -7 126.403 205.078   7
  -8  16   7-94.0943 109.894   4
   8 -16  -7-86.2867 248.686   6
  -8  16   8 357.404 146.910   1
   8 -16  -8 197.283 226.981   7
  -8  16   8 284.758 129.397   4
   8 -16  -8 114.523 251.151   6
  -8  16   9 138.544 138.353   1
   8 -16  -9-120.450 207.152   7
  -8  16   9-84.0016 102.109   4
   8 -16  -9-284.880 234.318   6
  -8  16  10-15.9337 151.937   1
   8 -16 -10-599.634 242.047   7
  -8  16  10 48.5222 111.264   4
   8 -16 -10-171.993 253.242   6
  -8  16  11 64.9171 154.911   1
   8 -16 -11 93.8724 240.029   7
  -8  16  11 110.780 116.508   4
  -8  16  12-117.525 159.338   1
   8 -16 -12-68.9334 200.511   7
  -8  16  12 50.0505 113.981   4
   8 -16 -12-226.829 264.956   6
  -8  16  13 52.0055 156.476   1
   8 -16 -13-91.7503 197.137   7
  -8  16  13 12.6516 121.500   4
   8 -16 -13 56.3637 235.509   6
   8 -16 -14-180.048 197.222   7
  -8  16  14-52.9935 153.590   1
  -8  16  14-51.3849 123.861   4
   8 -16 -14-112.183 215.056   6
   8 -16 -15 157.617 207.797   7
  -8  16  15 128.003 161.564   1
  -8  16  15-52.1344 122.321   4
   8 -16 -15 223.246 235.551   6
  -8  16  16 18.6520 143.444   1
  -8  16  16-106.232 122.222   4
   8 -16 -16 139.040 247.566   6
  -9  16   2 88.6512 102.889   4
  -9  16   3 44.5692 99.4611   4
   9 -16  -3-339.009 275.875   6
  -9  16   4 33.6945 110.738   4
   9 -16  -4 277.714 289.884   6
  -9  16   5 260.265 117.698   4
   9 -16  -5 339.235 274.673   6
  -9  16   5 478.193 135.969   1
  -9  16   6-13.6147 120.120   1
  -9  16   6-91.2736 110.954   4
   9 -16  -6-184.581 272.420   6
  -9  16   7 584.750 146.980   1
  -9  16   7 149.470 121.975   4
   9 -16  -7 613.309 302.439   6
  -9  16   8 28.5480 135.559   1
   9 -16  -8 430.372 248.807   7
  -9  16   8 11.5692 113.692   4
   9 -16  -8-122.131 269.549   6
  -9  16   9 366.079 139.237   1
   9 -16  -9 80.3193 240.454   7
  -9  16   9 128.391 122.549   4
  -9  16  10 226.098 146.752   1
   9 -16 -10-422.128 213.467   7
  -9  16  10 153.412 113.109   4
   9 -16 -10-91.6830 261.998   6
  -9  16  11-107.484 135.825   1
   9 -16 -11-207.753 228.716   7
  -9  16  11 35.8510 112.879   4
   9 -16 -11-243.349 242.695   6
  -9  16  12-63.2849 133.999   1
   9 -16 -12-25.3843 196.670   7
  -9  16  12 12.0793 113.267   4
   9 -16 -12-242.191 255.461   6
  -9  16  13 130.794 142.728   1
   9 -16 -13-25.3143 200.475   7
  -9  16  13-12.2287 118.692   4
   9 -16 -13 120.420 239.237   6
  -9  16  14 16.6496 143.524   1
   9 -16 -14-173.732 196.478   7
  -9  16  14 37.2934 106.187   4
   9 -16 -14 29.9368 256.504   6
  -9  16  15-113.915 122.432   4
   9 -16 -15 624.524 263.972   6
 -10  16   5 10.8769 105.583   4
  10 -16  -5 257.141 297.255   6
 -10  16   6 54.9369 98.8653   4
  10 -16  -6 580.104 296.789   6
 -10  16   7-77.7119 94.6432   4
  10 -16  -7-161.218 279.849   6
 -10  16   8 246.634 108.021   4
 -10  16   8 235.283 122.546   1
 -10  16   9 169.816 125.721   1
 -10  16   9 90.5770 102.682   4
  10 -16  -9 485.907 290.638   6
 -10  16  10 72.2169 120.830   1
  10 -16 -10-139.315 221.435   7
 -10  16  10 68.5003 103.487   4
  10 -16 -10 32.3257 277.874   6
 -10  16  11 14.7301 122.313   1
  10 -16 -11 443.954 225.089   7
 -10  16  11-92.3332 106.173   4
  10 -16 -11 193.357 270.168   6
 -10  16  12-15.0760 126.656   1
  10 -16 -12-302.517 228.713   7
 -10  16  12 291.910 123.221   4
  10 -16 -12 256.840 294.027   6
 -10  16  13 11.8293 107.070   4
  10 -16 -13-31.9787 256.751   6
 -11  16  10 32.9524 99.9767   4
  11 -16 -10-438.464 315.125   6
 -11  16  11-66.7141 97.2555   4
  11 -16 -11-168.728 292.823   6
   0  17  -2 107.217 242.828   3
   0  17  -2 52.2555 226.822   2
   0  17  -3 376.087 234.349   2
   0  17  -3 270.424 246.693   3
   0 -17   3 360.924 157.065   5
   0 -17   3 420.623 138.445   8
   0  17  -4 331.828 232.668   2
   0  17  -4-328.161 260.788   3
   0 -17   4 85.4703 137.434   5
   0 -17   4-161.362 120.849   8
   0  17  -5-142.397 234.162   2
   0  17  -5 109.855 223.557   3
   0 -17   5 17.3551 145.519   5
   0 -17   5-50.0364 117.799   8
   0  17  -6 29.3447 231.494   2
   0  17  -6 192.557 259.648   3
   0 -17   6-17.0906 136.292   5
   0 -17   6 12.6729 122.908   8
   0  17  -7 83.2306 224.408   3
   0 -17   7-168.144 144.694   5
   0 -17   7 90.1147 121.115   8
   0  17  -8-435.406 271.485   2
   0  17  -8 332.617 236.248   3
   0 -17   8-16.5390 122.122   5
   0 -17   8-169.292 119.872   8
   0 -17  -8-41.0488 125.244   7
   0  17  -9 127.943 255.917   2
   0  17  -9-110.517 220.287   3
   0 -17   9-16.7046 135.513   5
   0 -17   9 13.2593 116.015   8
   0 -17  -9-27.1203 117.602   7
   0  17 -10 65.3333 268.623   2
   0  17 -10-165.111 201.758   3
   0 -17  10 16.5839 135.088   5
   0 -17  10 13.5287 123.228   8
   0 -17 -10-107.785 126.632   7
   0  17 -11 201.046 285.379   2
   0 -17  11 461.086 151.302   5
   0  17 -11 82.0197 226.679   3
   0 -17  11 249.156 138.860   8
   0 -17 -11 281.910 135.900   7
   0  17 -12-68.5846 271.944   2
   0 -17  12-261.973 139.057   5
   0  17 -12-54.9808 223.573   3
   0 -17  12-55.8616 126.720   8
   0 -17 -12-80.4834 129.800   7
   0  17 -13 452.601 301.338   2
   0 -17  13 946.965 189.803   5
   0 -17  13 999.812 183.345   8
   0 -17  14-98.6384 149.078   5
   0 -17  14 14.3699 135.598   8
   0  17 -14 162.430 246.530   3
   0  17 -15 716.941 399.149   2
   0 -17  15 1131.80 216.766   5
   0 -17  15 1249.12 222.113   8
   0  17 -16 108.382 305.874   2
   0 -17  16-98.2904 133.628   5
   0 -17  16-132.660 133.335   8
   0  17 -16 159.055 206.264   3
   0  17 -17 146.256 290.349   2
   0 -17  17 196.516 147.535   5
   0 -17  17 221.456 153.760   8
   0  17 -17 26.6357 197.346   3
   0  17 -18-36.6779 290.517   2
   0 -17  18 65.4801 143.124   5
   0 -17  18 14.9987 133.850   8
   0  17 -18 289.930 209.618   3
   0 -17  19 114.595 142.158   5
   0  17 -19 156.554 199.018   3
   1  17  -1 53.5293 274.156   3
   1  17  -1 100.587 196.527   2
   1  17  -2 353.279 260.961   3
  -1 -17   2 329.538 173.953   5
  -1 -17   2 249.969 124.925   8
   1  17  -2-25.5630 201.927   2
  -1  17  -3 248.598 234.838   2
   1  17  -3-82.8082 259.520   3
  -1 -17   3-19.7548 160.750   5
  -1  17  -3-26.2033 228.936   3
   1 -17   3 311.485 138.805   5
  -1 -17   3 125.442 114.242   8
   1  17  -3-210.091 222.612   2
  -1  17  -4 370.000 248.391   2
   1  17  -4 223.761 249.127   3
  -1 -17   4 411.025 176.927   5
  -1  17  -4 52.3327 211.928   3
   1 -17   4 361.379 135.413   5
  -1 -17   4 50.4235 112.190   8
   1 -17   4 212.530 122.112   8
   1  17  -4 80.6499 213.129   2
  -1  17  -5-29.3106 223.087   2
   1  17  -5-28.2794 232.840   3
  -1 -17   5 19.3906 158.859   5
  -1  17  -5-26.1256 217.981   3
   1 -17   5 180.222 130.844   5
  -1 -17   5 201.368 118.553   8
   1 -17   5 88.9909 122.724   8
   1  17  -5-55.1935 212.506   2
   1  17  -6-283.957 230.347   2
  -1  17  -6-181.235 260.383   2
   1  17  -6-114.177 244.574   3
  -1 -17   6 57.6016 159.938   5
   1 -17   6 14.9893 122.830   5
  -1  17  -6-157.982 206.200   3
  -1 -17   6-37.9985 107.866   8
   1 -17   6 181.582 125.456   8
   1  17  -7 233.879 228.114   2
   1 -17  -7 184.543 158.225   6
   1  17  -7-57.4902 241.753   3
  -1  17  -7 31.1157 234.618   2
  -1 -17   7-56.9914 160.784   5
   1 -17   7 212.415 134.302   5
  -1  17  -7-104.856 227.337   3
  -1 -17   7-25.5655 114.757   8
   1 -17   7 66.4627 118.334   8
   1 -17  -7-263.351 136.002   7
  -1  17   7 76.5358 143.391   4
   1  17  -8-30.1129 238.493   2
   1 -17  -8-20.9074 157.179   6
   1  17  -8-144.218 242.678   3
  -1  17  -8 128.187 252.887   2
  -1 -17   8-115.150 156.371   5
   1 -17   8-166.592 129.561   5
  -1 -17   8-38.8028 117.918   8
  -1  17  -8 104.354 209.579   3
   1 -17   8-13.4425 121.873   8
   1 -17  -8 58.0494 124.924   7
  -1 -17  -8-77.2110 107.770   7
  -1  17   8-111.315 147.212   4
   1 -17  -9 191.791 178.438   6
   1  17  -9-123.988 244.770   2
   1  17  -9 374.868 239.688   3
  -1  17  -9 32.9737 287.868   2
  -1 -17   9 94.7253 157.193   5
   1 -17   9 106.127 139.542   5
  -1 -17   9 78.3299 118.054   8
  -1  17  -9-26.2641 209.703   3
   1 -17   9 55.1999 130.411   8
   1 -17  -9 14.4487 137.520   7
  -1  17   9 147.206 158.609   4
   1 -17 -10 129.501 155.983   6
   1  17 -10 126.450 246.943   2
   1  17 -10 201.433 233.732   3
  -1 -17  10-74.1969 147.845   5
  -1  17 -10 606.272 302.575   2
   1 -17  10-91.9039 126.490   5
  -1 -17  10 251.591 132.239   8
  -1  17 -10-130.384 203.063   3
   1 -17  10 14.1893 122.155   8
   1 -17 -10 201.030 131.562   7
  -1  17  10 151.306 150.117   4
   1 -17 -11 417.259 178.060   6
   1  17 -11 292.387 266.560   2
   1  17 -11 86.7480 229.316   3
  -1 -17  11 127.062 153.741   5
  -1  17 -11-380.220 302.723   2
  -1 -17  11-13.4479 132.323   8
   1 -17  11 61.3432 133.686   5
   1 -17  11 143.162 133.760   8
  -1  17 -11 25.8513 210.145   3
   1 -17 -11 14.3248 127.514   7
  -1  17  11 293.663 170.012   4
   1  17 -12 133.144 273.495   2
   1  17 -12 374.427 260.279   3
  -1 -17  12 159.808 156.224   5
  -1  17 -12 597.608 306.947   2
  -1 -17  12 557.087 144.283   8
   1 -17  12 583.674 154.018   5
   1 -17  12 512.044 159.619   8
  -1  17 -12-26.0107 204.352   3
   1 -17 -12 114.529 142.725   7
  -1  17  12 478.348 185.535   4
   1  17 -13 33.8235 287.777   2
   1  17 -13 114.501 227.412   3
  -1 -17  13 87.8188 135.847   5
  -1 -17  13 96.6130 126.706   8
  -1  17 -13 358.501 302.102   2
   1 -17  13 200.254 138.055   5
   1 -17  13 235.535 150.263   8
  -1  17 -13 51.4909 204.705   3
   1 -17 -13 185.803 130.761   7
  -1  17  13 72.6134 160.429   4
   1  17 -14-34.5120 352.021   2
   1  17 -14 142.228 253.816   3
  -1 -17  14 546.959 184.026   5
  -1 -17  14 945.577 168.750   8
   1 -17  14 730.402 172.871   5
  -1  17 -14 471.600 374.852   2
   1 -17  14 887.418 189.491   8
  -1  17 -14-152.933 232.117   3
   1 -17 -14 201.065 156.824   7
  -1  17  14 575.280 207.968   4
   1  17 -15-34.9192 337.877   2
  -1 -17  15-122.202 158.693   5
   1  17 -15-451.409 269.097   3
  -1 -17  15 353.093 148.184   8
   1 -17  15-108.980 141.963   5
   1 -17  15-271.629 152.051   8
  -1  17 -15-552.170 359.563   2
  -1  17 -15-328.128 222.944   3
   1 -17 -15 144.756 126.598   7
   1  17 -16 460.818 329.906   2
  -1 -17  16 294.114 160.760   5
   1  17 -16 27.9894 238.509   3
  -1 -17  16 510.801 156.011   8
   1 -17  16 405.598 156.985   5
   1 -17  16 399.868 159.706   8
  -1  17 -16 333.617 323.475   2
  -1  17 -16 279.309 209.977   3
   1 -17 -16 409.602 146.945   7
   1  17 -17-249.804 316.756   2
  -1 -17  17 240.893 146.529   5
  -1 -17  17-273.881 135.023   8
   1  17 -17-221.789 213.916   3
   1 -17  17 307.948 145.326   8
   1 -17  17-62.8843 131.796   5
  -1  17 -17 260.653 317.096   2
  -1  17 -17 25.2345 200.481   3
   1  17 -18 250.942 306.243   2
  -1 -17  18-17.1288 139.936   5
  -1 -17  18-14.4472 135.027   8
   1  17 -18-137.146 218.717   3
   1 -17  18-61.6701 136.894   8
   1 -17  18-111.079 128.773   5
  -1  17 -18 562.384 336.565   2
  -1  17 -18-24.9373 191.725   3
   1  17 -19-275.595 219.763   3
   1 -17  19 160.140 137.687   5
  -1  17 -19 24.7226 194.354   3
   2  17   0-27.0826 246.485   3
   2  17  -1 495.589 273.021   3
  -2 -17   1 729.053 226.421   5
   2  17  -2-27.9017 247.899   3
  -2 -17   2 362.274 195.509   5
   2  17  -3 537.411 268.542   3
  -2 -17   3 583.962 215.874   5
   2  17  -3 522.887 235.973   2
   2  17  -4-28.5394 246.154   3
  -2 -17   4 244.665 188.967   5
  -2  17  -4 554.647 256.182   2
  -2 -17   4 330.657 126.217   8
   2 -17   4 150.827 124.709   5
  -2  17  -4 371.277 224.780   3
   2  17  -4 238.854 215.785   2
   2  17  -5-144.256 256.999   3
  -2 -17   5 219.281 182.327   5
  -2  17  -5 210.816 249.431   2
  -2 -17   5 76.9910 119.361   8
   2 -17   5 192.846 119.498   5
   2 -17   5-66.2516 124.497   8
  -2  17  -5 99.6573 203.708   3
   2  17  -5-81.0653 211.064   2
   2  17  -6 291.109 260.234   3
  -2 -17   6 86.3166 183.162   5
  -2  17   6 169.131 186.037   1
  -2  17  -6-31.0774 274.633   2
  -2 -17   6 166.788 116.015   8
   2 -17   6 83.7575 118.601   5
   2 -17   6-13.6456 122.949   8
  -2  17  -6 49.4142 212.801   3
  -2  17   6 154.587 132.380   4
   2  17  -6 138.000 228.097   2
   2 -17  -7 61.7439 162.931   6
   2  17  -7 146.646 251.297   3
  -2 -17   7 43.5478 176.027   5
  -2 -17   7 25.7789 116.980   8
  -2  17  -7-32.0913 278.297   2
   2 -17   7 84.1467 111.814   5
   2 -17   7-14.0015 133.472   8
  -2  17  -7-24.8712 202.439   3
  -2  17   7 130.429 191.299   1
   2 -17  -7-154.154 134.080   7
  -2  17   7-87.1863 138.520   4
   2  17  -7-56.5728 212.437   2
  -2  17   8 665.441 208.366   1
   2 -17  -8 209.338 172.967   6
   2  17  -8-117.959 261.582   3
  -2 -17   8 256.464 184.989   5
  -2 -17   8 378.077 126.418   8
  -2  17  -8 231.356 280.939   2
   2 -17   8 170.392 119.653   5
   2 -17   8 113.246 141.012   8
  -2  17  -8-197.053 206.847   3
   2 -17  -8 246.698 142.745   7
  -2  17   8 74.6851 142.702   4
   2  17  -8-29.0526 232.300   2
   2  17  -9 149.457 244.950   2
   2 -17  -9 85.3625 168.957   6
   2  17  -9-29.6105 256.028   3
  -2 -17   9 20.9949 172.053   5
  -2 -17   9-39.3899 125.491   8
   2 -17   9 42.8345 122.358   5
  -2  17  -9-101.482 273.479   2
   2 -17   9 72.7385 125.047   8
  -2  17  -9-195.205 195.237   3
  -2  17   9-45.0754 197.774   1
   2 -17  -9-122.247 136.804   7
  -2  17   9-61.3514 138.460   4
   2  17 -10 61.5066 247.403   2
   2 -17 -10 65.2228 180.013   6
   2  17 -10 207.747 248.556   3
  -2 -17  10 226.813 183.799   5
  -2 -17  10 331.020 127.609   8
   2 -17  10 186.489 128.136   5
   2 -17  10 283.720 159.440   8
  -2  17 -10 451.532 302.313   2
  -2  17 -10-24.5546 200.851   3
   2 -17 -10 15.2661 132.541   7
  -2  17  10 320.431 198.392   1
  -2  17  10 205.592 157.992   4
   2  17 -11-281.798 261.760   2
   2 -17 -11 220.620 181.549   6
   2  17 -11-237.211 262.635   3
  -2 -17  11 60.7872 162.510   5
  -2 -17  11 280.849 135.757   8
   2 -17  11 319.185 133.541   5
   2 -17  11 346.169 146.235   8
  -2  17 -11 391.152 307.338   2
  -2  17 -11-97.3117 184.777   3
   2 -17 -11 151.198 139.016   7
  -2  17  11 97.2306 148.351   4
   2 -17 -12 179.432 180.427   6
   2  17 -12-32.1688 275.425   2
   2  17 -12-59.4600 231.874   3
  -2 -17  12 39.8028 167.889   5
  -2 -17  12 108.230 130.947   8
   2 -17  12 247.795 136.775   5
   2 -17  12 138.994 143.656   8
  -2  17 -12-180.744 289.827   2
  -2  17 -12 169.280 183.298   3
   2 -17 -12 302.469 143.252   7
  -2  17  12 116.826 150.979   4
   2 -17 -13 226.829 180.582   6
   2  17 -13 230.850 292.728   2
   2  17 -13-29.6305 233.059   3
  -2 -17  13 446.349 177.774   5
  -2 -17  13 600.171 145.239   8
   2 -17  13 527.888 161.128   8
   2 -17  13 485.750 149.403   5
  -2  17 -13 881.359 341.374   2
  -2  17 -13 170.447 189.420   3
   2 -17 -13 15.0876 140.211   7
  -2  17  13 494.878 184.702   4
   2 -17 -14 92.1028 194.975   6
   2  17 -14 468.439 331.277   2
   2  17 -14 353.721 282.751   3
  -2 -17  14 113.521 177.308   5
  -2 -17  14 124.214 139.623   8
   2 -17  14 270.683 163.218   8
   2 -17  14 29.7797 131.407   5
  -2  17 -14 505.351 214.702   3
   2 -17 -14 363.405 161.986   7
  -2  17  14 263.461 180.215   4
   2 -17 -15 325.253 203.738   6
   2  17 -15-34.1601 288.462   2
   2  17 -15 87.9600 260.808   3
  -2 -17  15 184.557 167.696   5
  -2 -17  15 375.772 153.235   8
   2 -17  15 175.701 157.762   8
   2 -17  15 105.383 135.764   5
  -2  17 -15 449.675 320.170   2
  -2  17 -15-23.8621 201.728   3
   2 -17 -15 91.3997 142.512   7
  -2  17  15 412.465 175.400   4
   2 -17 -16 70.6206 191.342   6
   2  17 -16 241.669 268.659   2
   2  17 -16 29.1091 248.183   3
  -2 -17  16 18.2098 148.714   5
  -2 -17  16 14.0701 141.727   8
   2 -17  16 256.164 159.705   8
   2 -17  16 45.7815 128.913   5
  -2  17 -16 264.326 308.630   2
  -2  17 -16 96.1893 198.079   3
   2 -17 -16 15.3621 141.449   7
  -2  17  16 203.010 156.660   4
   2 -17 -17 94.8528 182.971   6
   2  17 -17 34.8046 296.389   2
   2  17 -17-144.576 244.711   3
  -2 -17  17 53.9555 155.503   5
  -2 -17  17 70.7224 141.638   8
   2 -17  17 16.4040 162.791   8
   2 -17  17 30.8995 129.521   5
  -2  17 -17-113.865 325.207   2
  -2  17 -17-167.419 173.088   3
   2 -17 -17-77.6133 131.779   7
  -2  17  17 37.6544 158.337   4
  -2 -17  18 18.0419 160.459   5
   2  17 -18-172.022 240.867   3
  -2 -17  18 596.470 157.208   8
   2 -17  18 16.4401 168.635   8
   2 -17  18 15.7071 127.519   5
  -2  17 -18 495.088 350.651   2
  -2  17 -18-142.937 190.585   3
   2 -17 -18 141.021 138.387   7
  -2  17  18 153.700 190.443   4
  -2  17  19 19.5870 180.182   4
  -3 -17   2-26.1594 190.960   5
   3  17  -3 118.652 257.322   3
  -3 -17   3 180.238 206.347   5
   3  17  -4 118.964 255.242   3
  -3 -17   4 101.231 205.810   5
   3  17  -5 268.056 261.916   3
  -3 -17   5 149.043 203.522   5
  -3  17  -5 557.809 291.414   2
   3 -17   5 298.976 123.134   5
  -3  17  -5 256.655 189.582   3
   3  17  -5-26.9867 207.722   2
   3 -17  -6-81.7977 162.569   6
  -3  17   6 320.389 188.134   1
   3  17  -6 29.7884 250.588   3
  -3 -17   6-74.9333 205.440   5
   3 -17   6-57.6288 132.297   8
   3 -17   6 13.1823 109.607   5
  -3  17  -6-160.065 262.389   2
  -3  17  -6 208.507 186.097   3
   3 -17  -6 116.384 150.597   7
   3  17  -6 81.9474 210.850   2
  -3  17   6 95.4252 130.083   4
   3 -17  -7 249.800 181.649   6
   3  17  -7 179.034 260.711   3
  -3  17   7 20.4819 181.355   1
  -3 -17   7 97.7854 202.842   5
  -3 -17   7 182.959 121.407   8
   3 -17   7 160.302 150.181   8
   3 -17   7 40.0188 111.718   5
  -3  17  -7 33.0187 272.756   2
  -3  17  -7-69.9156 177.016   3
   3 -17  -7 131.987 145.505   7
  -3  17   7 97.8817 131.792   4
   3  17  -7 166.565 217.098   2
   3 -17  -8-106.122 176.795   6
   3  17  -8 29.8999 251.458   3
  -3 -17   8-23.9188 201.157   5
  -3  17   8 191.621 188.983   1
  -3 -17   8-26.4248 117.275   8
   3 -17   8 75.0807 133.663   8
   3 -17   8-108.205 117.644   5
  -3  17  -8 169.607 295.043   2
  -3  17  -8 253.199 176.939   3
   3 -17  -8-212.837 142.401   7
  -3  17   8 129.663 139.018   4
   3  17  -8 56.6076 221.652   2
   3 -17  -9 129.239 175.762   6
   3  17  -9-179.700 244.915   3
  -3 -17   9 116.668 192.241   5
  -3 -17   9 132.946 126.090   8
   3 -17   9 185.925 136.911   8
   3 -17   9 95.8790 115.495   5
  -3  17   9 418.176 202.288   1
  -3  17  -9 104.226 296.115   2
  -3  17  -9-115.827 171.643   3
   3 -17  -9-180.377 151.736   7
  -3  17   9 265.523 140.474   4
   3  17  -9 28.9355 219.381   2
   3 -17 -10 21.9223 180.877   6
   3  17 -10 299.861 251.416   3
  -3 -17  10 273.045 188.350   5
  -3 -17  10 13.3977 129.031   8
   3 -17  10 46.9132 135.671   8
   3 -17  10 13.8862 111.562   5
  -3  17 -10-45.9042 179.130   3
  -3  17 -10-426.339 336.192   2
   3 -17 -10-113.678 147.039   7
  -3  17  10 22.4108 191.476   1
  -3  17  10 120.886 145.163   4
   3  17 -10 148.314 230.629   2
   3 -17 -11 88.9093 179.023   6
  -3  17  11 138.500 196.435   1
   3  17 -11 180.041 272.368   3
  -3 -17  11 88.7753 184.821   5
  -3 -17  11 444.948 138.350   8
   3 -17  11 64.4634 146.515   8
   3 -17  11 239.714 136.310   5
  -3  17 -11-184.987 179.603   3
  -3  17 -11 289.655 311.851   2
   3 -17 -11 16.0815 142.601   7
  -3  17  11 200.715 146.441   4
   3  17 -11 180.814 242.825   2
   3 -17 -12 474.139 192.781   6
   3  17 -12 240.088 258.171   3
  -3 -17  12 151.827 190.515   5
  -3 -17  12 421.034 138.171   8
  -3  17  12 493.467 216.376   1
   3 -17  12 178.446 148.961   8
   3 -17  12 200.159 133.104   5
  -3  17 -12 229.835 186.224   3
  -3  17 -12 183.965 310.609   2
   3 -17 -12 322.019 156.676   7
  -3  17  12 268.990 160.531   4
   3  17 -12-61.8519 245.806   2
   3  17 -13 63.5130 276.389   2
   3 -17 -13 22.8673 192.567   6
   3  17 -13 150.012 261.142   3
  -3 -17  13 106.140 181.599   5
  -3 -17  13 178.712 124.476   8
   3 -17  13 66.7803 161.399   8
   3 -17  13 43.6428 128.032   5
  -3  17  13 265.395 220.965   1
  -3  17 -13-46.3357 171.496   3
  -3  17 -13 223.867 341.515   2
   3 -17 -13 48.4205 145.618   7
  -3  17  13-64.5627 159.021   4
   3  17 -14-161.067 303.756   2
   3 -17 -14 510.294 211.122   6
   3  17 -14-149.615 263.362   3
  -3 -17  14 124.773 185.791   5
  -3 -17  14 720.036 158.913   8
   3 -17  14 503.198 180.152   8
   3 -17  14 354.260 140.891   5
  -3  17 -14 69.1942 177.384   3
  -3  17 -14 188.569 383.438   2
   3 -17 -14 32.0788 154.995   7
  -3  17  14 344.431 230.156   1
  -3  17  14 16.5283 168.433   4
   3  17 -15 296.795 288.361   2
   3 -17 -15 46.8544 182.525   6
   3  17 -15-89.3747 245.737   3
  -3 -17  15 163.088 175.795   5
  -3 -17  15 279.779 136.757   8
   3 -17  15 172.626 154.936   8
   3 -17  15 194.962 135.334   5
  -3  17 -15 46.1080 178.323   3
  -3  17 -15 495.004 330.804   2
   3 -17 -15 16.1171 139.096   7
  -3  17  15 25.1292 225.191   1
  -3  17  15 202.104 167.934   4
   3  17 -16 300.196 279.923   2
   3 -17 -16-23.7334 186.982   6
  -3  17  16-154.745 222.696   1
   3  17 -16 237.037 240.699   3
  -3 -17  16 39.6983 160.434   5
  -3 -17  16 126.748 143.478   8
   3 -17  16-190.708 155.726   8
   3 -17  16 274.767 131.821   5
  -3  17 -16 23.2798 178.056   3
  -3  17 -16 191.816 336.871   2
   3 -17 -16 113.588 155.978   7
  -3  17  16 241.508 157.934   4
   3 -17 -17 167.751 201.099   6
   3  17 -17 680.006 287.884   2
  -3  17  17 105.838 235.693   1
   3  17 -17 29.4817 240.941   3
  -3 -17  17 58.0290 155.016   5
  -3 -17  17 42.5648 126.608   8
   3 -17  17 34.8183 155.656   8
   3 -17  17-155.123 119.123   5
  -3  17 -17 186.884 176.362   3
  -3  17 -17 231.582 371.646   2
   3 -17 -17 16.3624 137.460   7
  -3  17  17 229.821 157.169   4
   3 -17 -18-144.884 182.071   6
   3  17 -18 118.378 237.608   3
  -3 -17  18-113.185 154.065   5
   3 -17  18 34.9664 148.885   8
   3 -17  18-15.8151 133.007   5
  -3  17 -18 23.5052 173.706   3
  -3  17 -18-116.197 346.710   2
   3 -17 -18-16.3982 145.554   7
  -3  17  18 161.988 169.878   4
   4 -17  -6-21.4181 175.114   6
   4  17  -6-92.8760 264.578   3
  -4 -17   6 301.319 220.845   5
  -4  17   6 36.7013 166.747   1
   4 -17   6 156.951 110.996   5
  -4  17  -6 130.768 275.931   2
  -4  17  -6 44.6136 176.152   3
   4 -17  -6-71.3528 160.335   7
  -4  17   6 40.0762 128.546   4
   4 -17  -7-109.052 176.482   6
   4  17  -7 91.9967 258.821   3
  -4 -17   7-79.7508 206.792   5
   4 -17   7 203.546 157.315   8
   4 -17   7 79.6835 109.083   5
  -4  17   7 19.1660 159.309   1
  -4  17  -7 33.6036 294.956   2
  -4  17  -7 265.789 165.853   3
   4 -17  -7 17.6225 151.179   7
  -4  17   7-13.6348 124.974   4
   4 -17  -8 88.1111 180.587   6
   4  17  -8-30.4121 279.047   3
  -4 -17   8 77.3977 210.773   5
   4 -17   8-16.2049 142.712   8
   4 -17   8-13.5092 116.583   5
  -4  17  -8 44.5949 159.380   3
  -4  17   8-179.652 171.121   1
  -4  17  -8-413.806 310.449   2
   4 -17  -8-194.360 148.699   7
  -4  17   8 69.6042 130.179   4
   4  17  -8-140.571 225.789   2
   4 -17  -9 425.427 194.792   6
   4  17  -9-60.3454 246.451   3
  -4 -17   9 200.491 223.114   5
   4 -17   9-16.7914 151.614   8
   4 -17   9-82.3278 121.510   5
  -4  17  -9-22.2392 164.396   3
  -4  17  -9 35.2962 290.217   2
   4 -17  -9-69.9281 157.411   7
  -4  17   9 326.080 180.424   1
  -4  17   9-56.9083 138.978   4
   4  17  -9 57.0001 219.114   2
   4 -17 -10 225.038 178.886   6
   4  17 -10-150.233 254.356   3
  -4 -17  10 24.3805 192.410   5
  -4 -17  10-134.835 124.167   8
   4 -17  10 135.652 158.131   8
   4 -17  10 125.715 116.882   5
  -4  17 -10-134.416 158.739   3
   4 -17 -10 121.095 159.653   7
  -4  17 -10-36.0165 294.207   2
  -4  17  10 145.426 136.351   4
   4  17 -10 202.896 225.405   2
  -4  17  10 21.1915 198.589   1
   4 -17 -11-384.346 190.149   6
  -4  17  11-44.0197 209.823   1
   4  17 -11 209.801 249.665   3
  -4 -17  11 23.6665 199.046   5
  -4 -17  11 13.6475 122.182   8
   4 -17  11 122.844 163.131   8
   4 -17  11 170.357 120.163   5
  -4  17 -11-89.7172 161.640   3
   4 -17 -11 17.3254 155.966   7
  -4  17 -11-293.794 326.900   2
  -4  17  11 74.0547 146.661   4
   4  17 -11 88.1123 225.781   2
   4 -17 -12-229.371 199.782   6
  -4  17  12-67.3018 218.800   1
   4  17 -12-269.453 262.920   3
  -4 -17  12 23.0007 190.021   5
  -4 -17  12 13.7478 125.217   8
   4 -17  12-17.6907 163.921   8
   4 -17  12-72.3495 111.730   5
  -4  17 -12 22.6352 174.973   3
   4 -17 -12 85.7516 155.585   7
  -4  17 -12-149.436 357.164   2
  -4  17  12-136.313 149.307   4
   4  17 -12-779.139 284.450   2
   4 -17 -13 486.945 201.848   6
   4  17 -13 329.257 280.063   3
  -4  17  13 419.005 220.939   1
  -4 -17  13 111.887 194.398   5
  -4 -17  13 194.854 139.950   8
   4 -17  13 35.6325 168.678   8
   4 -17  13 206.117 135.278   5
  -4  17 -13 45.4749 178.350   3
   4 -17 -13 257.809 168.919   7
  -4  17 -13 189.342 339.548   2
  -4  17  13 523.769 166.093   4
   4  17 -13 91.8812 264.372   2
   4 -17 -14 46.9885 191.907   6
   4  17 -14-269.405 254.933   3
  -4 -17  14 43.7012 177.886   5
  -4  17  14 475.040 226.446   1
  -4 -17  14 28.0607 130.117   8
   4 -17  14 55.3726 170.704   8
   4 -17  14-104.055 121.042   5
  -4  17 -14-45.9404 169.785   3
   4 -17 -14-153.577 159.056   7
  -4  17 -14 230.092 323.548   2
  -4  17  14-110.317 151.741   4
   4  17 -14-93.1039 265.932   2
   4 -17 -15-355.598 184.486   6
   4  17 -15-209.690 253.659   3
  -4 -17  15 106.860 184.982   5
  -4 -17  15-42.5816 126.630   8
  -4  17  15-72.7625 198.928   1
   4 -17  15 148.637 173.351   8
   4 -17  15-121.135 113.586   5
   4 -17 -15-188.499 153.202   7
  -4  17 -15-162.086 178.195   3
  -4  17 -15 155.124 342.369   2
  -4  17  15 112.374 148.683   4
   4  17 -15 31.7321 261.889   2
   4 -17 -16 95.7284 193.847   6
   4  17 -16 89.9447 241.014   3
  -4 -17  16-20.9466 180.964   5
  -4 -17  16 327.968 134.105   8
   4 -17  16 18.7072 172.034   8
  -4  17  16 276.721 215.879   1
   4 -17  16-15.2915 107.487   5
   4 -17 -16-17.2295 167.482   7
  -4  17 -16 70.2839 172.840   3
  -4  17 -16-234.626 362.727   2
  -4  17  16 97.9468 149.839   4
   4  17 -16 353.086 236.542   2
   4 -17 -17 121.124 194.625   6
   4  17 -17 179.756 242.306   3
  -4 -17  17-41.0984 163.412   5
  -4 -17  17-129.550 112.950   8
   4 -17  17-301.444 170.204   8
   4 -17  17 15.5984 118.287   5
  -4  17  17 25.7649 212.648   1
   4 -17 -17 17.3514 162.684   7
  -4  17 -17-165.934 172.432   3
  -4  17 -17 354.935 359.927   2
  -4  17  17 33.3385 149.799   4
   4  17 -17-327.492 251.842   2
   4 -17 -18-366.795 199.204   6
   4 -17  18 15.8227 131.794   5
  -4  17 -18 24.0296 186.314   3
  -4  17  18-272.371 154.320   4
  -5  17   5 38.7174 117.513   4
  -5  17   5 16.4090 136.299   1
   5 -17  -6 79.0093 173.152   7
  -5  17   6 433.318 141.468   4
  -5  17   6 119.785 150.539   1
   5 -17  -6-91.0832 197.915   6
  -5  17   7 17.8497 150.862   1
   5 -17   7 13.5342 104.822   5
   5 -17  -7 58.3181 168.320   7
  -5  17  -7 111.935 158.066   3
  -5  17  -7 340.169 281.664   2
  -5  17   7 160.988 126.627   4
   5 -17  -7-69.3427 195.826   6
  -5  17   8 54.7018 161.145   1
   5 -17   8 17.8084 159.634   8
   5 -17   8-27.5461 111.284   5
   5 -17  -8-19.1388 160.157   7
  -5  17  -8-67.6322 170.190   3
  -5  17  -8 349.022 296.421   2
  -5  17   8 81.8199 126.704   4
   5 -17  -8 556.274 199.377   6
  -5  17   9 114.020 175.724   1
   5 -17   9-234.289 167.087   8
   5 -17   9-125.139 120.230   5
   5 -17  -9-18.8601 172.564   7
  -5  17  -9-22.7197 167.907   3
  -5  17  -9 178.690 304.340   2
  -5  17   9 111.352 128.037   4
   5 -17  -9 258.486 196.375   6
  -5  17  10 158.545 172.893   1
   5 -17  10-112.547 168.388   8
   5 -17  10 113.284 117.204   5
   5 -17 -10-150.962 159.211   7
  -5  17 -10 251.794 169.862   3
  -5  17 -10-36.5710 315.257   2
  -5  17  10-42.4501 130.510   4
   5 -17 -10-141.096 186.172   6
   5  17 -11-119.762 265.272   3
  -5 -17  11 25.5913 200.040   5
  -5  17  11-181.923 186.316   1
   5 -17  11-37.9352 172.096   8
   5 -17  11-72.1219 119.590   5
   5 -17 -11-316.454 171.645   7
  -5  17 -11-69.2980 184.559   3
  -5  17  11-86.2087 149.721   4
   5 -17 -11 118.261 202.396   6
   5 -17 -12 646.572 243.338   6
   5  17 -12 148.775 264.168   3
  -5 -17  12 173.815 226.909   5
   5 -17  12 79.0121 189.890   8
  -5  17  12 126.158 203.455   1
   5 -17  12 233.719 134.528   5
   5 -17 -12 311.904 186.100   7
  -5  17 -12-139.936 179.792   3
  -5  17  12 14.5754 149.330   4
   5  17 -12 88.6833 251.029   2
   5 -17 -13-192.481 197.812   6
   5  17 -13-29.6672 248.711   3
  -5 -17  13-24.1561 198.602   5
   5 -17  13 19.9480 184.452   8
   5 -17  13 104.309 125.320   5
  -5  17  13 240.399 191.766   1
   5 -17 -13-440.997 181.102   7
  -5  17 -13 188.488 177.649   3
  -5  17  13 133.407 142.688   4
   5  17 -13 59.9855 243.300   2
   5 -17 -14-192.672 201.355   6
   5  17 -14-29.6536 239.809   3
  -5 -17  14 23.4775 200.640   5
  -5 -17  14 70.5460 121.416   8
   5 -17  14 40.2834 176.845   8
   5 -17  14 15.1802 121.187   5
  -5  17  14 22.2900 200.180   1
   5 -17 -14 218.334 182.704   7
  -5  17 -14 190.708 172.630   3
  -5  17  14 15.0441 139.608   4
   5  17 -14 91.5076 255.788   2
   5 -17 -15 194.962 178.194   6
   5  17 -15 118.725 256.855   3
  -5 -17  15-22.8772 183.352   5
  -5 -17  15 14.2876 129.056   8
   5 -17  15 122.089 181.955   8
   5 -17 -15 146.031 161.459   7
  -5  17  15-45.5189 217.225   1
  -5  17 -15 120.804 168.336   3
  -5  17  15 61.2648 135.988   4
   5  17 -15 246.785 240.934   2
   5 -17 -16 73.1848 201.910   6
   5  17 -16 29.7501 255.696   3
  -5 -17  16 335.014 193.128   5
   5 -17  16-21.2420 186.955   8
   5 -17 -16-91.6898 162.332   7
  -5  17 -16-97.9356 190.355   3
  -5  17  16 260.806 218.103   1
  -5  17  16-78.1253 130.604   4
   5 -17 -17-196.784 189.163   6
   5 -17  17-21.4967 202.967   8
   5 -17 -17 109.322 165.451   7
  -5  17 -17-24.8033 177.271   3
  -5  17  17-95.2052 143.328   4
  -6  17   5 230.495 134.645   1
   6 -17  -5 66.9403 180.215   7
  -6  17   5 114.181 117.378   4
   6 -17  -5-270.578 205.945   6
   6 -17  -6-43.6704 177.821   7
  -6  17   6-47.7193 135.578   1
  -6  17   6 77.0721 124.677   4
   6 -17  -6-368.556 200.748   6
   6 -17  -7 21.3880 191.221   7
  -6  17   7 148.397 145.234   1
  -6  17   7 300.670 132.319   4
   6 -17  -7 49.6936 202.173   6
   6 -17  -8 41.9471 181.600   7
  -6  17  -8 313.702 180.045   3
  -6  17   8 39.9290 120.196   4
  -6  17   8-68.3957 142.759   1
   6 -17  -8 248.305 210.366   6
   6 -17   9 242.681 182.556   8
   6 -17  -9-308.686 194.230   7
  -6  17  -9 194.395 172.606   3
  -6  17   9 40.4233 128.235   4
  -6  17   9 283.991 171.412   1
   6 -17  -9 247.921 198.141   6
   6 -17  10 61.5157 186.661   8
   6 -17 -10 143.854 208.570   7
  -6  17  10 178.301 147.387   4
  -6  17  10 332.079 180.506   1
   6 -17 -10 150.276 241.148   6
  -6  17  11 18.8080 170.778   1
   6 -17  11 21.5080 198.427   8
   6 -17 -11 20.1967 196.824   7
  -6  17  11 125.597 130.493   4
   6 -17 -11-125.064 225.833   6
  -6  17  12-39.1050 167.590   1
   6 -17  12-65.3997 202.679   8
   6 -17 -12 60.5654 173.038   7
  -6  17  12 14.1276 127.948   4
   6 -17 -12-274.855 210.852   6
  -6  17  13-19.9303 165.063   1
   6 -17  13-22.0995 199.918   8
   6 -17 -13-39.7468 176.017   7
  -6  17  13-359.412 130.575   4
   6 -17 -13 25.2417 209.161   6
  -6  17  14 20.7484 189.851   1
   6 -17  14-246.550 216.292   8
   6 -17 -14 19.9004 166.851   7
  -6  17  14 14.5833 130.201   4
   6 -17 -14 352.646 218.455   6
   6 -17 -15-126.290 209.876   6
  -6  17  15-84.6809 187.021   1
   6 -17 -15-137.482 176.980   7
  -6  17  15 29.5500 138.288   4
   6 -17 -16 253.344 208.440   6
  -6  17  16 164.643 134.488   4
  -7  17   5 14.5762 125.121   1
   7 -17  -5-24.8301 203.607   7
  -7  17   5-112.369 114.179   4
   7 -17  -5-107.360 237.678   6
  -7  17   6 90.6362 127.550   1
   7 -17  -6-121.326 224.433   7
  -7  17   6 38.0043 112.564   4
   7 -17  -6 53.4434 216.828   6
  -7  17   7 15.6623 142.307   1
   7 -17  -7-403.099 237.999   7
  -7  17   7-102.251 134.570   4
   7 -17  -7-185.998 248.152   6
  -7  17   8 194.685 153.857   1
   7 -17  -8 857.679 251.399   7
  -7  17   8 232.866 133.339   4
   7 -17  -8 803.383 247.819   6
  -7  17   9-83.7793 143.869   1
   7 -17  -9 184.747 215.408   7
  -7  17   9 78.5051 128.400   4
   7 -17  -9 319.985 232.802   6
   7 -17 -10-90.3613 191.544   7
  -7  17  10 85.3646 149.834   1
  -7  17  10 118.900 121.442   4
   7 -17 -10 212.327 206.657   6
   7 -17 -11-22.1239 200.888   7
  -7  17  11 141.236 164.220   1
  -7  17  11 53.6767 126.495   4
   7 -17 -11-79.3583 226.741   6
   7 -17 -12 198.786 195.331   7
  -7  17  12 40.9167 118.931   4
  -7  17  12 237.619 157.582   1
   7 -17 -12-160.040 211.525   6
   7 -17 -13 65.0364 188.633   7
  -7  17  13 55.4933 121.652   4
  -7  17  13 297.892 174.189   1
   7 -17 -13 79.7059 217.534   6
   7 -17 -14 86.6953 189.144   7
  -7  17  14-70.1363 123.909   4
  -7  17  14 154.453 174.343   1
   7 -17 -14 132.408 214.881   6
   7 -17 -15 127.846 176.411   7
  -7  17  15-242.549 145.246   4
   7 -17 -15-105.676 211.176   6
  -8  17   4 299.251 131.709   1
  -8  17   4 133.427 118.687   4
  -8  17   5 139.907 131.863   1
   8 -17  -5 27.1052 231.995   7
  -8  17   5 73.2286 120.347   4
   8 -17  -5 259.358 256.931   6
  -8  17   6 215.850 127.305   1
   8 -17  -6 26.7115 223.391   7
  -8  17   6-24.6364 120.323   4
   8 -17  -6-86.9101 255.093   6
  -8  17   7 296.769 129.103   1
   8 -17  -7 26.2647 214.266   7
  -8  17   7-37.2516 113.914   4
   8 -17  -7 201.720 248.829   6
  -8  17   8-122.438 140.088   1
   8 -17  -8 52.2683 214.903   7
  -8  17   8-25.1329 109.700   4
   8 -17  -8 171.784 239.291   6
  -8  17   9-95.0049 138.021   1
   8 -17  -9-178.549 229.775   7
  -8  17   9-114.008 117.788   4
  -8  17  10-32.2599 137.917   1
   8 -17 -10-174.548 222.041   7
  -8  17  10 205.563 127.932   4
   8 -17 -10-28.6267 237.761   6
  -8  17  11-183.556 153.268   1
   8 -17 -11-121.940 224.451   7
  -8  17  11 26.0065 109.620   4
   8 -17 -11-28.4302 231.531   6
  -8  17  12 172.561 149.260   1
   8 -17 -12-291.731 222.467   7
  -8  17  12 118.343 124.489   4
   8 -17 -12-141.343 212.346   6
  -8  17  13 158.099 162.327   1
   8 -17 -13 237.986 221.754   7
  -8  17  13 66.4149 135.093   4
   8 -17 -13 28.1130 238.430   6
  -8  17  14 94.4755 129.919   4
   8 -17 -14-335.898 246.329   6
  -9  17   4 82.8250 109.687   4
  -9  17   5 11.8697 106.252   4
   9 -17  -5-123.811 264.400   6
  -9  17   5 13.5884 115.000   1
  -9  17   6 320.382 125.877   1
  -9  17   6 143.225 113.551   4
   9 -17  -6 246.268 258.178   6
  -9  17   7 142.451 121.832   1
   9 -17  -7 28.0688 223.510   7
  -9  17   7 252.642 121.800   4
   9 -17  -7 183.704 258.618   6
  -9  17   8 292.251 139.275   1
   9 -17  -8 139.735 226.202   7
  -9  17   8 12.1178 120.303   4
   9 -17  -8 487.108 273.384   6
  -9  17   9 134.946 136.132   1
   9 -17  -9-138.321 222.912   7
  -9  17   9 48.9498 110.218   4
   9 -17  -9-244.736 262.943   6
  -9  17  10 76.4093 127.042   1
   9 -17 -10 109.040 213.573   7
  -9  17  10 12.3524 105.706   4
  -9  17  11 47.1559 130.510   1
   9 -17 -11-53.6566 224.911   7
  -9  17  11 12.5157 112.970   4
   9 -17 -11-211.562 247.659   6
  -9  17  12-37.9033 105.358   4
   9 -17 -12-30.0351 253.441   6
  10 -17  -4 483.926 277.327   6
 -10  17   5 125.700 102.881   4
  10 -17  -5 32.3905 290.352   6
 -10  17   6 11.5023 104.783   4
  10 -17  -6 226.140 294.822   6
 -10  17   7 173.895 112.266   4
  10 -17  -7 128.765 287.435   6
 -10  17   8 139.847 110.647   4
  10 -17  -8 64.0858 280.713   6
 -10  17   8 70.6207 126.183   1
 -10  17   9 144.364 120.776   1
 -10  17   9-46.9866 100.812   4
  10 -17  -9 193.258 287.574   6
 -10  17  10-11.8642 107.678   4
  10 -17 -10-737.266 277.610   6
   0  18  -4 253.590 251.566   2
   0  18  -4 401.633 245.105   3
   0 -18   4-17.4103 146.967   5
   0 -18   4-39.5418 110.258   8
   0  18  -5-175.841 241.784   2
   0  18  -5 201.192 239.481   3
   0 -18   5 247.401 146.668   5
   0 -18   5 145.589 120.490   8
   0  18  -6-179.209 251.998   2
   0  18  -6 114.915 248.408   3
   0 -18   6 87.0002 144.493   5
   0 -18   6-79.9861 124.578   8
   0  18  -7-369.418 241.972   2
   0  18  -7 28.9451 237.987   3
   0 -18   7-17.1159 135.519   5
   0 -18   7 80.5372 130.475   8
   0  18  -8-126.784 275.889   2
   0  18  -8-28.8222 241.859   3
   0 -18   8-119.144 143.536   5
   0 -18   8-54.3412 118.638   8
   0  18  -9-326.085 277.728   2
   0  18  -9 200.763 242.771   3
   0 -18   9-154.569 144.057   5
   0 -18   9 27.5665 125.521   8
   0 -18  -9 214.034 123.094   7
   0 -18  10-85.2352 156.815   5
   0  18 -10-227.634 260.345   3
   0 -18  10 83.4964 143.956   8
   0 -18 -10-14.0250 124.153   7
   0  18 -11-307.168 313.350   2
   0 -18  11-237.162 174.202   5
   0  18 -11-85.7046 260.282   3
   0 -18  11 42.3866 145.151   8
   0 -18 -11-83.2682 126.919   7
   0  18 -12 419.216 293.607   2
   0 -18  12 357.955 163.259   5
   0  18 -12 226.605 230.376   3
   0 -18  12 344.927 155.765   8
   0  18 -13 107.046 312.204   2
   0 -18  13 16.9690 140.473   5
   0 -18  13 14.4622 136.196   8
   0  18 -13-308.171 222.600   3
   0  18 -14 252.940 295.580   2
   0 -18  14 507.124 158.352   5
   0 -18  14 559.582 154.526   8
   0  18 -14-27.6737 216.195   3
   0  18 -15-36.5045 312.833   2
   0 -18  15 134.813 144.947   5
   0 -18  15-147.713 139.540   8
   0  18 -15-110.933 218.054   3
   0 -18  16 33.6393 141.965   5
   0  18 -16 27.3554 211.910   3
   1  18  -3 29.2134 256.378   3
  -1 -18   3 39.3759 164.164   5
  -1 -18   3 159.632 120.755   8
   1  18  -3 405.308 219.361   2
  -1  18  -4-145.484 229.244   2
   1  18  -4 29.5918 248.586   3
  -1 -18   4 40.0817 163.345   5
  -1 -18   4 266.538 131.098   8
   1  18  -4 111.032 210.716   2
  -1  18  -5-29.9806 235.754   2
   1  18  -5 238.990 246.531   3
  -1 -18   5-59.6506 157.579   5
  -1 -18   5-26.7471 114.474   8
   1 -18   5-77.4687 131.739   5
  -1  18  -5-27.1684 213.663   3
   1 -18   5-92.9423 121.052   8
   1  18  -5-227.340 225.889   2
  -1  18  -6-30.8803 246.281   2
   1  18  -6 120.524 266.759   3
  -1 -18   6 216.894 163.298   5
  -1 -18   6-40.2147 114.673   8
   1 -18   6 15.6815 138.538   5
  -1  18  -6 109.356 230.730   3
   1 -18   6 80.7427 122.289   8
   1  18  -6-29.1703 231.009   2
   1  18  -7-29.9994 236.640   2
  -1  18  -7 158.979 264.851   2
   1  18  -7-120.948 244.445   3
  -1 -18   7 19.5123 158.283   5
  -1 -18   7-13.4643 124.500   8
   1 -18   7 31.3073 122.139   5
  -1  18  -7 217.460 224.958   3
   1 -18   7-68.3744 118.236   8
   1  18  -8 244.436 240.352   2
  -1  18  -8 294.479 269.190   2
   1  18  -8-151.157 239.528   3
  -1 -18   8 19.6960 168.016   5
  -1 -18   8 121.948 122.364   8
   1 -18   8 47.0086 129.630   5
   1 -18   8 27.8768 125.505   8
  -1  18  -8 136.644 216.571   3
   1  18  -9 31.4476 272.080   2
  -1  18  -9-269.158 305.505   2
   1  18  -9 90.3921 259.137   3
  -1 -18   9-115.763 155.216   5
  -1 -18   9-81.9890 129.022   8
   1 -18   9-221.521 138.380   5
   1 -18   9 42.2117 135.473   8
  -1  18  -9-216.804 227.405   3
   1 -18  -9 15.2424 128.967   7
  -1  18   9-17.4317 153.271   4
   1  18 -10-258.901 299.279   2
   1  18 -10 179.938 266.478   3
  -1 -18  10 320.822 179.014   5
  -1 -18  10 206.547 141.616   8
   1 -18  10 395.732 166.965   5
   1 -18  10 301.966 164.496   8
  -1  18 -10 53.6606 239.480   3
   1 -18 -10 165.968 152.562   7
  -1  18  10-17.8858 172.872   4
  -1  18  11-183.574 168.440   4
   1  18 -11 132.962 289.995   2
  -1  18 -11-211.190 316.850   2
   1  18 -11 120.275 269.930   3
  -1 -18  11 147.567 163.298   5
  -1 -18  11 83.4317 130.294   8
   1 -18  11-95.0665 147.312   5
   1 -18  11-14.7147 147.058   8
  -1  18 -11-457.963 275.144   3
   1 -18 -11 14.8963 131.134   7
   1  18 -12-270.448 287.991   2
  -1  18 -12-324.038 312.328   2
   1  18 -12 59.6429 243.676   3
  -1 -18  12-18.2232 152.485   5
  -1 -18  12 56.2508 131.283   8
   1 -18  12 79.8409 141.951   5
   1 -18  12 177.776 140.044   8
  -1  18 -12 79.8353 201.592   3
   1 -18 -12 133.172 135.607   7
   1  18 -13 34.6071 310.472   2
  -1  18 -13 146.116 292.888   2
   1  18 -13-29.5579 251.291   3
  -1 -18  13 365.699 161.576   5
  -1 -18  13 481.735 144.303   8
   1 -18  13 271.758 142.463   5
   1 -18  13 166.790 148.530   8
  -1  18 -13 315.595 222.652   3
   1 -18 -13 14.7388 132.267   7
   1  18 -14-315.693 271.717   2
  -1  18 -14 111.638 295.686   2
  -1 -18  14 90.2510 142.983   5
   1  18 -14 263.095 233.941   3
  -1 -18  14-300.830 140.300   8
   1 -18  14-136.981 137.094   8
   1 -18  14 255.837 137.513   5
  -1  18 -14 105.594 207.547   3
   1 -18 -14-132.242 129.777   7
   1  18 -15-392.678 319.619   2
  -1  18 -15 338.184 304.787   2
  -1 -18  15 214.263 150.783   5
   1  18 -15 86.7358 233.448   3
  -1 -18  15 359.911 137.786   8
   1 -18  15 216.671 157.288   8
   1 -18  15 191.997 140.134   5
  -1  18 -15 52.1577 213.713   3
   1 -18 -15 117.830 134.156   7
  -1 -18  16 35.4297 151.793   5
   1  18 -16-57.8705 217.316   3
   1 -18  16 15.4988 122.707   8
   1 -18  16-64.4700 132.522   5
  -1  18 -16 206.802 195.683   3
   2  18  -2 29.5306 255.571   3
  -2 -18   2 112.663 188.022   5
   2  18  -3 90.0465 273.030   3
  -2 -18   3 160.875 191.703   5
   2  18  -4-213.032 260.309   3
  -2 -18   4 22.7523 186.925   5
   2  18  -4-192.635 220.589   2
   2  18  -5-61.5201 260.926   3
  -2  18  -5 277.520 248.199   2
  -2 -18   5 67.3953 179.276   5
  -2 -18   5 322.966 134.480   8
   2  18  -5 167.696 228.344   2
   2  18  -6-30.9617 250.309   3
  -2  18  -6-158.876 254.232   2
  -2 -18   6 88.5497 180.802   5
  -2 -18   6-108.527 119.046   8
   2 -18   6 86.9563 126.808   5
   2 -18   6 97.5450 129.534   8
  -2  18  -6-102.119 223.368   3
   2  18  -6-227.704 217.135   2
   2  18  -7 155.775 267.950   3
  -2 -18   7 109.045 178.431   5
  -2  18  -7 458.252 269.222   2
  -2 -18   7 245.099 135.282   8
   2 -18   7 305.923 137.037   5
   2 -18   7-42.8579 124.954   8
  -2  18  -7 128.262 217.661   3
   2  18  -7 290.954 248.094   2
   2  18  -8 156.360 267.326   3
  -2 -18   8 21.9690 170.463   5
  -2  18  -8-101.149 281.039   2
  -2 -18   8 13.6879 120.552   8
  -2  18   8 45.9530 201.290   1
   2 -18   8 294.562 135.865   5
   2 -18   8 43.2760 135.516   8
  -2  18  -8 202.852 201.000   3
  -2  18   8 32.1793 154.102   4
   2  18  -8-59.6213 234.531   2
   2 -18  -9 155.171 181.431   6
   2  18  -9 62.6184 270.157   3
  -2 -18   9 215.886 194.690   5
  -2  18  -9 485.916 339.124   2
  -2 -18   9 206.180 130.279   8
   2 -18   9 29.5711 124.916   5
   2 -18   9 44.4541 150.827   8
  -2  18  -9 127.405 201.350   3
  -2  18   9 281.051 227.393   1
   2 -18  -9-64.9671 162.349   7
  -2  18   9-49.5510 150.780   4
   2  18  -9-60.5865 281.825   2
   2  18 -10 311.214 273.337   2
   2 -18 -10 22.4690 200.354   6
   2  18 -10 31.2253 276.626   3
  -2 -18  10-42.4033 188.027   5
  -2 -18  10 27.6504 126.370   8
  -2  18 -10 177.232 300.219   2
   2 -18  10 242.571 159.212   8
   2 -18  10 194.173 139.338   5
  -2  18 -10 277.148 216.203   3
   2 -18 -10-48.4102 143.315   7
  -2  18  10 33.8755 161.500   4
  -2  18  10 23.7261 213.305   1
   2  18 -11-31.9872 275.093   2
   2 -18 -11 251.414 186.284   6
   2  18 -11 341.548 263.840   3
  -2 -18  11 311.961 181.903   5
  -2 -18  11 293.368 137.817   8
  -2  18  11 119.790 210.945   1
  -2  18 -11 254.148 311.036   2
   2 -18  11 137.404 159.679   8
   2 -18  11 149.869 134.369   5
  -2  18 -11 50.6357 190.860   3
   2 -18 -11 47.7245 142.380   7
  -2  18  11 209.752 164.600   4
   2  18 -12 164.276 265.851   2
   2 -18 -12 346.518 203.605   6
   2  18 -12 372.537 280.441   3
  -2 -18  12 182.253 157.242   5
  -2 -18  12 112.442 133.797   8
  -2  18 -12 295.322 337.937   2
   2 -18  12-46.8581 148.587   8
   2 -18  12 75.6811 129.783   5
  -2  18 -12-200.890 182.853   3
   2 -18 -12 110.779 150.164   7
  -2  18  12-125.171 171.250   4
  -2  18  12 193.668 213.950   1
   2  18 -13-300.181 276.932   2
   2 -18 -13 46.9022 184.324   6
   2  18 -13 30.7930 243.775   3
  -2 -18  13 59.0946 176.824   5
  -2 -18  13 226.535 136.954   8
   2 -18  13-109.840 161.970   8
  -2  18 -13 414.079 329.351   2
   2 -18  13-106.848 128.376   5
  -2  18 -13 173.384 191.124   3
   2 -18 -13-31.5401 142.740   7
  -2  18  13 92.1634 183.757   4
  -2  18  13-269.533 211.862   1
   2  18 -14 239.052 279.435   2
   2 -18 -14 214.082 202.709   6
  -2  18  14 422.306 225.430   1
   2  18 -14-366.095 256.543   3
  -2 -18  14 134.106 164.140   5
  -2 -18  14 185.590 131.651   8
   2 -18  14 544.361 163.560   8
   2 -18  14 184.878 130.266   5
  -2  18 -14 38.0897 345.932   2
  -2  18 -14 124.452 208.632   3
   2 -18 -14 109.248 149.691   7
  -2  18  14 395.250 169.494   4
   2 -18 -15 47.9472 204.179   6
   2  18 -15-60.3665 250.327   3
  -2 -18  15 76.6527 157.358   5
  -2 -18  15 415.700 140.270   8
   2 -18  15 417.306 172.929   8
   2 -18  15 108.922 118.001   5
  -2  18 -15 77.2157 322.010   2
  -2  18 -15-147.792 211.043   3
   2 -18 -15 15.6264 133.665   7
  -2  18  15-76.7859 173.566   4
   2 -18  16-15.7565 125.944   5
  -2  18 -16 195.479 204.389   3
   2 -18 -16 78.4088 130.933   7
  -2  18  16 117.542 181.839   4
   3  18  -2 156.024 269.001   3
   3  18  -3-62.9394 258.110   3
  -3 -18   3 342.399 213.526   5
   3  18  -4 63.2967 256.040   3
  -3 -18   4 77.9654 208.156   5
   3  18  -5 63.6435 270.195   3
  -3 -18   5-102.337 212.480   5
   3  18  -6 31.8459 276.372   3
  -3 -18   6 201.114 221.616   5
  -3  18  -6 556.093 288.803   2
   3  18  -6 226.540 236.518   2
   3  18  -7 478.884 292.583   3
  -3 -18   7 147.506 197.416   5
  -3  18  -7 404.562 287.592   2
   3 -18   7 29.7311 147.145   8
   3 -18   7 13.9419 115.859   5
  -3  18  -7 359.271 189.683   3
   3  18  -7 57.3865 230.987   2
   3 -18  -8-87.8624 177.019   6
  -3  18   8 87.5423 206.086   1
   3  18  -8 31.9573 277.168   3
  -3 -18   8-144.011 201.260   5
  -3 -18   8 82.5954 123.984   8
   3 -18   8-61.0743 145.612   8
  -3  18  -8-34.7317 314.382   2
   3 -18   8 56.4463 124.256   5
  -3  18  -8 192.424 202.330   3
   3 -18  -8-122.818 159.724   7
   3  18  -8 350.144 229.375   2
  -3  18   8 153.602 148.987   4
   3 -18  -9 44.7382 188.075   6
   3  18  -9 223.596 280.234   3
  -3  18   9 203.728 219.930   1
  -3 -18   9 384.531 235.589   5
  -3 -18   9 97.3067 139.188   8
   3 -18   9 109.668 162.695   8
   3 -18   9 271.179 129.078   5
  -3  18  -9 35.5448 307.106   2
  -3  18  -9-95.1232 187.381   3
   3 -18  -9 297.588 164.023   7
  -3  18   9-15.7884 152.658   4
   3  18  -9 446.230 256.506   2
   3 -18 -10 272.367 192.600   6
   3  18 -10-63.7777 257.746   3
  -3 -18  10 655.460 214.031   5
  -3 -18  10 27.9487 134.483   8
  -3  18  10 68.9082 195.488   1
   3 -18  10 331.627 161.219   8
   3 -18  10 187.773 131.650   5
  -3  18 -10-255.246 319.695   2
  -3  18 -10-71.7045 194.987   3
   3 -18 -10 172.638 151.133   7
  -3  18  10 16.1411 155.251   4
   3  18 -10 392.167 245.583   2
   3 -18 -11 115.340 180.914   6
   3  18 -11-254.396 268.457   3
  -3 -18  11-45.6707 200.611   5
  -3 -18  11-393.692 134.060   8
   3 -18  11-48.6308 158.218   8
   3 -18  11-73.2281 127.760   5
  -3  18 -11-260.223 318.670   2
  -3  18  11-165.186 217.850   1
  -3  18 -11 71.0985 181.056   3
   3 -18 -11 172.020 163.464   7
  -3  18  11 115.920 152.634   4
   3  18 -11 92.5673 253.872   2
   3 -18 -12 186.654 189.087   6
   3  18 -12-31.6680 260.846   3
  -3 -18  12 534.681 203.384   5
  -3 -18  12 511.758 146.335   8
   3 -18  12 244.603 157.981   8
   3 -18  12 327.364 133.797   5
  -3  18 -12 416.629 332.143   2
  -3  18 -12 47.6555 181.439   3
   3 -18 -12 169.584 150.499   7
  -3  18  12 215.240 208.317   1
  -3  18  12 16.8930 158.238   4
   3  18 -12 221.178 255.942   2
   3 -18 -13 23.6668 191.376   6
   3  18 -13 283.056 260.315   3
  -3 -18  13-87.0369 182.463   5
  -3 -18  13 157.014 123.856   8
   3 -18  13 217.495 165.326   8
   3 -18  13 45.2171 118.539   5
  -3  18 -13 38.4266 325.233   2
  -3  18 -13-118.348 192.053   3
   3 -18 -13-67.6424 154.777   7
  -3  18  13-86.5647 155.896   4
   3  18 -13 96.1666 246.445   2
  -3  18  13-122.707 203.806   1
   3 -18 -14 119.584 182.648   6
  -3  18  14-323.810 223.130   1
   3  18 -14-31.1664 250.373   3
  -3 -18  14 318.764 177.791   5
  -3 -18  14 86.0449 127.577   8
   3 -18  14 83.9961 163.103   8
   3 -18  14 76.4118 136.683   5
  -3  18 -14 233.553 343.645   2
  -3  18 -14-95.2922 176.979   3
   3 -18 -14 83.5649 148.592   7
  -3  18  14 229.241 174.407   4
   3  18 -14-295.367 245.642   2
   3 -18 -15 121.132 200.626   6
   3  18 -15 93.2520 253.113   3
  -3 -18  15 82.4333 182.025   5
  -3  18  15 25.3260 222.347   1
   3 -18  15-51.6917 163.604   8
   3 -18  15 15.4850 138.028   5
  -3  18 -15 39.3171 309.106   2
  -3  18 -15-95.0610 192.920   3
   3 -18 -15 200.685 143.476   7
  -3  18  15 72.2562 168.495   4
   3 -18 -16 73.2558 205.122   6
   3 -18  16 141.579 137.369   5
  -3  18 -16-47.9005 189.423   3
   3 -18 -16 268.316 167.394   7
  -3  18  16 459.495 172.007   4
   4  18  -7 362.433 305.093   3
  -4 -18   7 303.498 239.408   5
  -4  18   7 98.2424 196.018   1
  -4  18  -7 137.775 318.830   2
   4 -18  -8 314.322 220.680   6
   4  18  -8 359.722 287.225   3
  -4 -18   8 160.786 221.035   5
   4 -18   8 293.663 167.455   8
   4 -18   8-112.613 127.122   5
  -4  18   8 286.352 191.784   1
  -4  18  -8 283.156 335.016   2
  -4  18  -8-69.1592 174.282   3
   4 -18  -8 627.627 207.121   7
  -4  18   8 327.569 158.899   4
   4 -18  -9-250.950 202.095   6
   4  18  -9-194.365 266.464   3
  -4 -18   9-416.455 221.811   5
   4 -18   9 82.3544 148.088   8
   4 -18   9 71.3603 119.180   5
  -4  18  -9-145.152 325.844   2
  -4  18   9 169.965 183.886   1
  -4  18  -9-115.812 172.773   3
   4 -18  -9-187.129 171.416   7
   4  18  -9-117.816 232.489   2
  -4  18   9-30.4960 152.578   4
   4 -18 -10-138.564 193.609   6
   4  18 -10 96.5709 263.780   3
  -4 -18  10-25.1989 217.878   5
   4 -18  10-33.9718 156.655   8
   4 -18  10-14.5072 114.852   5
  -4  18 -10 111.253 320.640   2
  -4  18 -10-163.016 181.709   3
   4 -18 -10-110.683 163.277   7
  -4  18  10 432.183 193.437   1
   4  18 -10 209.122 241.519   2
  -4  18  10 62.1284 147.336   4
   4 -18 -11 398.352 193.941   6
   4  18 -11-352.090 279.236   3
  -4 -18  11 97.6132 213.524   5
  -4 -18  11-155.427 122.563   8
   4 -18  11 256.696 164.356   8
   4 -18  11 44.1562 118.612   5
  -4  18 -11-151.259 316.014   2
  -4  18 -11 46.5320 174.753   3
   4 -18 -11 55.2202 166.163   7
  -4  18  11-134.330 184.086   1
   4  18 -11 30.2307 230.630   2
  -4  18  11 15.8974 143.517   4
   4 -18 -12-118.384 197.674   6
   4  18 -12-222.843 262.938   3
  -4 -18  12 70.9500 190.350   5
  -4 -18  12-214.279 134.135   8
   4 -18  12 70.5305 171.076   8
   4 -18  12-179.720 125.467   5
  -4  18 -12-38.4811 339.880   2
  -4  18 -12-117.155 170.097   3
   4 -18 -12 72.5933 163.003   7
  -4  18  12-177.834 153.553   4
   4  18 -12 184.614 237.791   2
  -4  18  12-159.131 205.627   1
   4 -18 -13-191.880 210.229   6
  -4  18  13-70.5887 201.387   1
   4  18 -13-158.282 269.876   3
  -4 -18  13 22.9752 188.691   5
  -4 -18  13 57.7829 129.206   8
   4 -18  13 212.859 181.210   8
   4 -18  13 258.572 135.598   5
  -4  18 -13 273.177 337.657   2
  -4  18 -13-46.9761 180.310   3
   4 -18 -13 18.1140 161.734   7
  -4  18  13 329.306 153.960   4
   4  18 -13 125.467 243.264   2
   4 -18 -14 24.2127 193.113   6
  -4  18  14-95.6362 203.671   1
   4  18 -14-189.030 273.262   3
  -4 -18  14-22.3572 175.798   5
  -4 -18  14 58.0835 103.862   8
   4 -18  14 146.240 176.891   8
   4 -18  14 15.3345 118.879   5
  -4  18 -14-39.5472 344.014   2
  -4  18 -14 260.442 190.823   3
   4 -18 -14 89.4071 164.122   7
  -4  18  14 16.7283 148.995   4
   4 -18 -15 49.0058 190.343   6
   4 -18  15 91.8817 170.997   8
   4 -18  15 140.299 139.537   5
  -4  18 -15 599.839 331.272   2
   4 -18 -15 17.8877 164.319   7
  -4  18 -15 261.999 202.110   3
  -4  18  15 17.0598 154.685   4
  -5  18   7 43.0445 128.668   4
  -5  18   7 437.614 172.147   1
  -5  18   8-75.9383 158.395   1
  -5  18  -8 35.8030 298.367   2
   5 -18  -8-102.858 190.432   7
  -5  18   8-116.633 139.953   4
   5 -18  -8 94.4320 204.929   6
   5 -18  -9-71.7734 196.047   6
  -5  18   9 58.0910 161.298   1
   5 -18   9 35.7953 169.773   8
   5 -18   9 28.8346 111.666   5
   5 -18  -9-101.119 169.546   7
  -5  18  -9-36.6994 313.489   2
  -5  18  -9 47.2231 186.923   3
  -5  18   9 14.7926 135.346   4
   5 -18 -10-96.2437 188.441   6
  -5  18  10-80.5199 186.150   1
   5 -18  10-54.2332 163.638   8
   5 -18  10 190.491 130.086   5
   5 -18 -10-79.5391 181.461   7
  -5  18 -10-299.842 312.211   2
  -5  18 -10-23.7310 170.285   3
  -5  18  10-45.0342 131.359   4
   5 -18 -11 48.7203 194.902   6
  -5  18  11 20.9407 195.147   1
   5 -18  11 224.636 184.074   8
   5 -18  11 44.3998 128.347   5
   5 -18 -11-99.2266 172.612   7
  -5  18 -11-38.2648 338.677   2
  -5  18 -11-71.6942 174.424   3
  -5  18  11-76.3126 136.623   4
   5 -18 -12-73.1677 192.398   6
   5  18 -12 127.139 254.314   3
  -5 -18  12 25.6635 199.515   5
  -5  18  12-127.779 180.247   1
   5 -18  12-18.8826 184.827   8
   5 -18  12-75.3002 117.527   5
   5 -18 -12 19.5190 164.688   7
  -5  18 -12 233.542 329.421   2
  -5  18 -12-96.2645 191.210   3
  -5  18  12 62.1064 134.264   4
   5  18 -13 31.5426 270.277   3
  -5 -18  13 198.271 207.127   5
   5 -18  13-39.1978 171.996   8
  -5  18  13-88.3986 189.950   1
   5 -18  13 61.3224 128.960   5
   5 -18 -13 136.388 182.991   7
  -5  18 -13-194.120 185.837   3
  -5  18 -13 79.1950 342.379   2
  -5  18  13 47.2311 141.741   4
   5 -18 -14-24.6876 196.151   6
   5 -18  14 59.2645 169.797   8
   5 -18  14 140.296 128.610   5
  -5  18  14-202.250 192.563   1
   5 -18 -14 19.1673 164.748   7
  -5  18 -14-48.9880 172.677   3
  -5  18 -14 80.3835 321.577   2
  -5  18  14 32.0588 139.443   4
   5 -18 -15 149.320 199.809   6
  -5  18 -15 24.7796 180.857   3
  -5  18  15-81.2330 141.728   4
   6 -18  -7 91.8326 206.908   7
  -6  18   7 290.636 154.570   1
  -6  18   7 14.0254 117.532   4
   6 -18  -7 276.141 195.302   6
   6 -18  -8-22.4880 195.430   7
  -6  18   8 35.4643 153.382   1
  -6  18   8 185.348 131.063   4
   6 -18  -8 100.322 201.764   6
   6 -18  -9-110.188 199.474   7
  -6  18  -9-221.517 321.128   2
  -6  18   9 57.7111 126.988   4
  -6  18   9-18.0796 147.178   1
   6 -18  -9-25.0669 209.487   6
   6 -18  10-20.0233 166.256   8
   6 -18 -10-108.044 175.295   7
  -6  18  10 58.6576 143.535   4
  -6  18  10 37.4914 176.488   1
   6 -18 -10-75.9634 201.885   6
   6 -18  11 20.2646 176.447   8
   6 -18 -11-21.5500 175.003   7
  -6  18  11 44.4895 128.864   4
  -6  18  11 58.3489 173.807   1
   6 -18 -11 303.233 207.226   6
  -6  18  12 79.1544 167.028   1
   6 -18  12-63.4284 190.384   8
   6 -18 -12 42.2766 173.291   7
  -6  18  12-180.215 136.396   4
   6 -18 -12 25.5234 207.813   6
   6 -18 -13 204.624 217.239   6
  -6  18  13 41.0700 174.450   1
   6 -18  13 42.7690 190.996   8
   6 -18 -13 63.2770 184.112   7
  -6  18  13-15.1823 142.357   4
   6 -18 -14 76.9062 204.424   6
   6 -18  14 129.890 194.365   8
  -6  18  14-46.0835 143.574   4
  -7  18   6 77.8171 140.481   1
  -7  18   7 387.529 148.924   1
   7 -18  -7 354.061 226.345   7
  -7  18   7 298.699 135.068   4
   7 -18  -7 266.995 231.006   6
  -7  18   8-32.9699 146.332   1
   7 -18  -8 173.199 220.525   7
  -7  18   8 82.6217 132.062   4
   7 -18  -8 349.791 239.767   6
  -7  18   9-17.0614 141.912   1
   7 -18  -9-48.3856 211.836   7
  -7  18   9 41.9143 122.175   4
   7 -18  -9-509.517 250.048   6
   7 -18 -10-425.862 220.311   7
  -7  18  10-52.8488 152.894   1
  -7  18  10-28.1876 132.348   4
   7 -18 -10 26.6924 224.166   6
   7 -18 -11 259.253 201.326   7
  -7  18  11-72.8222 152.141   1
  -7  18  11-85.8412 128.786   4
   7 -18 -11 188.338 224.119   6
   7 -18 -12-138.350 191.260   7
  -7  18  12-159.617 133.922   4
   7 -18 -12-133.986 221.229   6
  -7  18  13 102.555 148.104   4
   7 -18 -13 213.683 233.686   6
  -8  18   6 58.9800 130.879   1
  -8  18   6-52.2259 123.541   4
  -8  18   7 76.0919 126.244   1
   8 -18  -7 193.466 211.015   7
  -8  18   7 13.2167 117.302   4
   8 -18  -7 86.4574 250.072   6
  -8  18   8 15.5378 137.136   1
   8 -18  -8-27.2083 221.465   7
  -8  18   8 26.6815 118.757   4
   8 -18  -8-228.802 236.694   6
  -8  18   9 160.263 152.573   1
   8 -18  -9-159.440 220.756   7
  -8  18   9-13.4325 125.392   4
   8 -18  -9 312.580 245.803   6
  -8  18  10-16.5661 140.416   1
   8 -18 -10-259.776 211.587   7
  -8  18  10 13.5559 119.891   4
   8 -18 -10-171.527 232.034   6
   8 -18 -11 25.8555 229.787   7
  -8  18  11-109.842 128.144   4
   8 -18 -11-113.619 239.917   6
  -9  18   6 14.2137 113.597   1
  -9  18   6 75.5375 119.085   4
   9 -18  -6 215.370 260.502   6
  -9  18   7 116.398 133.701   1
   9 -18  -7 29.0411 234.707   7
  -9  18   7 152.039 124.238   4
   9 -18  -7 305.649 272.700   6
  -9  18   8 134.366 135.172   1
   9 -18  -8-173.482 245.486   7
  -9  18   8 12.7407 116.309   4
   9 -18  -8-60.6656 250.232   6
  -9  18   9 15.2408 107.916   1
   9 -18  -9-143.200 222.642   7
  -9  18   9 12.8782 120.936   4
   9 -18  -9 30.0997 250.724   6
 -10  18   6-36.0582 104.872   4
  10 -18  -6 129.009 271.250   6
 -10  18   7-12.0955 114.006   4
  10 -18  -7 384.641 282.129   6
   0  19  -5 388.268 247.592   3
   0  19  -5-118.775 226.105   2
   0  19  -6 244.400 253.677   2
   0  19  -6-148.998 231.684   3
   0 -19   6-158.473 158.973   5
   0 -19   6 153.879 128.380   8
   0  19  -7 440.300 257.787   2
   0  19  -7 59.9745 248.249   3
   0 -19   7-17.5338 128.661   5
   0 -19   7 14.1034 122.101   8
   0  19  -8 32.3667 268.093   2
   0  19  -8 149.237 248.871   3
   0 -19   8 70.8432 152.617   5
   0 -19   8 85.1448 126.805   8
   0  19  -9 263.977 273.158   2
   0 -19   9 17.5963 148.130   5
   0  19  -9 148.013 254.497   3
   0 -19   9-185.616 127.263   8
   0  19 -10 67.8657 263.871   2
   0 -19  10-139.941 151.390   5
   0  19 -10-59.4063 225.814   3
   0 -19  10 14.4286 143.664   8
   0  19 -11 208.893 282.167   2
   0 -19  11 87.2458 132.044   8
   0  19 -11 353.069 254.414   3
   0  19 -12-177.036 280.753   2
   0 -19  12-157.650 137.602   5
   0 -19  12-117.592 147.069   8
   0  19 -12 29.0624 222.275   3
   0 -19  13 191.840 153.381   5
   0 -19  13 29.5575 153.020   8
   0  19 -13 174.569 235.729   3
   1  19  -4-186.221 276.327   3
   1  19  -4 56.8240 211.755   2
   1  19  -5 281.372 271.132   3
  -1 -19   5 364.704 171.494   5
  -1 -19   5-126.643 127.736   8
   1  19  -5-115.824 255.568   2
  -1  19  -6 505.912 263.073   2
   1  19  -6-156.751 254.005   3
  -1 -19   6 482.637 182.792   5
  -1 -19   6 310.275 142.229   8
   1 -19   6-112.749 133.058   5
  -1  19  -6 28.2545 225.898   3
   1  19  -6-88.8113 222.088   2
  -1  19  -7-65.0863 277.162   2
   1  19  -7 31.5692 279.447   3
  -1 -19   7 59.3257 169.490   5
  -1 -19   7-14.1272 121.117   8
   1 -19   7 64.5166 136.566   5
   1 -19   7 170.158 136.890   8
  -1  19  -7-28.0131 215.376   3
   1  19  -7-242.752 232.406   2
  -1  19  -8 166.133 297.426   2
   1  19  -8 220.509 265.763   3
  -1 -19   8 139.783 173.687   5
  -1 -19   8 99.1970 128.261   8
   1 -19   8-48.4548 141.726   5
   1 -19   8-100.493 137.526   8
  -1  19  -8-253.259 232.119   3
   1  19  -8-93.5329 238.752   2
   1  19  -9 64.1235 265.339   2
  -1  19  -9-204.902 309.091   2
   1  19  -9-156.731 269.397   3
  -1 -19   9-215.148 160.272   5
  -1 -19   9 28.5942 126.903   8
   1 -19   9 244.571 149.575   5
   1 -19   9-72.8645 132.258   8
  -1  19  -9 194.846 239.947   3
   1  19 -10 428.717 277.545   2
  -1  19 -10-35.0623 299.687   2
   1  19 -10 31.4142 267.722   3
  -1 -19  10 114.783 157.632   5
  -1 -19  10 172.380 145.821   8
   1 -19  10-81.5664 135.853   5
   1 -19  10 73.4075 137.570   8
  -1  19 -10 111.740 230.668   3
   1  19 -11 33.5395 260.086   2
  -1  19 -11-107.152 300.662   2
   1  19 -11 280.187 252.873   3
  -1 -19  11 18.9054 156.485   5
  -1 -19  11 14.4607 123.068   8
   1 -19  11 149.218 137.502   8
   1 -19  11 180.850 128.465   5
  -1  19 -11-82.6849 223.955   3
   1 -19 -11 186.825 143.412   7
   1  19 -12-172.113 278.297   2
  -1  19 -12 109.635 333.479   2
   1  19 -12-123.290 237.843   3
  -1 -19  12-18.9620 153.320   5
  -1 -19  12 14.5744 133.018   8
   1 -19  12 75.0348 151.303   8
   1 -19  12-82.2639 145.231   5
  -1  19 -12-81.5695 204.220   3
   1 -19 -12-15.2996 130.318   7
  -1  19 -13-333.726 349.991   2
  -1 -19  13-18.7018 145.952   5
   1  19 -13 182.487 255.803   3
   1 -19  13 15.2722 134.818   8
   1 -19  13 230.204 148.448   5
  -1  19 -13 27.2470 220.293   3
   1 -19 -13-90.8542 146.144   7
   1 -19 -14-45.1172 120.057   7
   2  19  -3 31.6916 290.761   3
   2  19  -4-32.1034 261.468   3
  -2 -19   4-89.9122 191.049   5
   2  19  -5-162.342 262.641   3
  -2 -19   5 319.961 187.494   5
   2  19  -5-115.396 211.634   2
   2  19  -6 98.1665 275.220   3
  -2 -19   6-45.2030 196.621   5
  -2 -19   6-70.7895 132.671   8
   2  19  -6 29.2958 228.614   2
  -2  19  -7-33.2812 281.814   2
   2  19  -7 394.904 284.706   3
  -2 -19   7 178.538 196.742   5
  -2 -19   7 128.316 124.885   8
   2 -19   7 288.097 136.358   5
  -2  19  -7 26.3632 208.608   3
   2  19  -7 207.662 239.400   2
   2  19  -8 362.666 264.887   3
  -2  19  -8 102.738 299.782   2
  -2 -19   8-87.9915 176.887   5
  -2 -19   8-42.8880 136.296   8
   2 -19   8 178.735 145.087   8
   2 -19   8 121.681 139.134   5
  -2  19  -8 132.235 214.031   3
   2  19  -8 30.2658 237.219   2
   2  19  -9 164.524 281.909   3
  -2  19  -9 316.709 299.529   2
  -2 -19   9 110.625 181.990   5
  -2 -19   9 57.4406 131.419   8
   2 -19   9 195.144 146.117   8
   2 -19   9 353.390 144.085   5
  -2  19  -9-130.593 207.166   3
   2  19  -9 247.728 252.129   2
   2 -19 -10 208.681 191.645   6
   2  19 -10 32.6998 272.214   3
  -2  19 -10-35.9223 331.002   2
  -2 -19  10 43.4471 177.911   5
  -2 -19  10 202.822 137.804   8
  -2  19  10 389.045 223.929   1
   2 -19  10 214.926 146.226   8
   2 -19  10 107.842 140.063   5
  -2  19 -10 209.642 196.228   3
   2  19 -10-63.4596 263.328   2
  -2  19  10 73.0585 164.675   4
   2 -19 -11-46.8809 198.406   6
   2  19 -11-194.398 277.627   3
  -2 -19  11-126.848 170.945   5
  -2  19 -11 773.349 354.509   2
  -2 -19  11 159.852 132.643   8
   2 -19  11 92.6840 142.125   8
   2 -19  11 31.0930 122.678   5
  -2  19 -11 285.506 204.764   3
  -2  19  11-270.629 206.279   1
   2 -19 -11 84.3147 157.180   7
  -2  19  11-168.324 170.231   4
   2  19 -11-65.1242 262.360   2
   2 -19 -12 119.020 203.966   6
   2  19 -12 96.9671 274.406   3
  -2 -19  12 123.283 170.057   5
  -2  19 -12 262.143 328.609   2
  -2 -19  12-14.5855 125.746   8
   2 -19  12 15.8143 151.136   8
   2 -19  12-78.3275 129.660   5
  -2  19 -12-76.6692 184.170   3
   2 -19 -12-16.5155 141.089   7
  -2  19  12 247.143 218.752   1
  -2  19  12-57.4081 167.435   4
  -2  19  13-149.547 225.015   1
  -2  19 -13-458.972 324.731   2
   2 -19  13 31.7564 159.412   8
   2 -19  13-31.5868 122.396   5
  -2  19 -13 128.164 202.241   3
   2 -19 -13-16.3615 130.519   7
  -2  19  13-58.7126 177.187   4
   2 -19 -14 32.2267 141.009   7
  -2  19  14 179.803 194.483   4
   3  19  -4-402.147 290.652   3
  -3 -19   4 180.825 205.999   5
   3  19  -5 405.507 288.776   3
  -3 -19   5-152.835 222.368   5
   3  19  -6 67.9940 293.794   3
  -3 -19   6 411.592 230.234   5
   3  19  -7-102.269 293.005   3
  -3 -19   7 75.5925 203.745   5
   3  19  -7 59.2234 231.082   2
   3  19  -8 102.110 293.403   3
  -3 -19   8 49.2796 191.474   5
  -3  19  -8 595.596 321.351   2
   3 -19   8 293.517 133.682   5
  -3  19  -8-222.222 181.640   3
   3  19  -8 420.174 254.220   2
   3  19  -9-101.903 296.702   3
  -3 -19   9 48.1627 202.448   5
  -3 -19   9 43.2365 128.092   8
  -3  19  -9 468.748 297.815   2
   3 -19   9 222.330 146.083   8
   3 -19   9 222.576 134.786   5
  -3  19  -9-74.2726 191.628   3
   3  19  -9-60.7253 239.121   2
   3 -19 -10 93.8587 193.815   6
  -3  19  10 210.566 193.884   1
   3  19 -10-372.149 295.302   3
  -3 -19  10 47.0302 185.762   5
  -3 -19  10 14.5407 123.083   8
   3 -19  10 223.943 150.168   8
   3 -19  10 150.299 123.976   5
  -3  19 -10 49.0067 193.546   3
   3 -19 -10-183.307 166.213   7
   3  19 -10 154.550 227.709   2
  -3  19  10-17.3067 162.420   4
   3 -19 -11 23.7642 179.283   6
   3  19 -11-100.826 272.701   3
  -3  19  11 384.499 223.450   1
  -3 -19  11 164.214 183.813   5
  -3 -19  11 176.076 141.033   8
  -3  19 -11-150.943 310.307   2
   3 -19  11 114.597 152.681   8
   3 -19  11 30.3914 131.917   5
  -3  19 -11-49.1833 194.077   3
   3 -19 -11-72.6905 151.982   7
   3  19 -11 126.151 241.584   2
  -3  19  11-141.374 158.745   4
   3 -19 -12-289.418 189.676   6
   3  19 -12 66.5994 255.086   3
  -3 -19  12-22.8663 186.863   5
  -3  19  12 290.739 219.386   1
   3 -19  12-49.3555 146.590   8
  -3  19 -12 501.696 355.034   2
   3 -19  12-15.4192 125.677   5
  -3  19 -12 121.908 176.572   3
   3 -19 -12 231.717 172.532   7
  -3  19  12 108.812 152.177   4
   3 -19 -13 73.3542 194.286   6
  -3  19 -13 39.1737 266.019   2
   3 -19  13-93.6900 139.032   5
  -3  19  13 24.7760 209.706   1
  -3  19 -13 171.392 202.657   3
   3 -19 -13 70.7385 165.682   7
  -3  19  13 18.4766 154.435   4
   3 -19 -14 73.9853 197.323   6
  -3  19  14-75.7900 175.669   4
   4  19  -8 35.1093 320.400   3
   4  19  -9 34.8422 290.559   3
  -4 -19   9 134.365 222.830   5
  -4  19  -9 147.945 296.246   2
  -4  19   9 390.331 194.067   1
   4 -19   9 163.567 122.232   5
  -4  19  -9 96.4468 172.804   3
  -4  19   9-130.250 147.210   4
   4 -19 -10 47.7381 197.136   6
   4  19 -10-103.627 273.630   3
  -4 -19  10-181.968 220.906   5
   4 -19  10 51.1137 155.361   8
   4 -19  10-90.3522 123.787   5
  -4  19 -10-226.758 302.535   2
  -4  19  10-131.993 200.976   1
  -4  19 -10-24.0323 192.530   3
   4 -19 -10-39.3314 169.809   7
   4  19 -10 30.7431 226.473   2
  -4  19  10-182.699 170.996   4
   4 -19 -11 120.716 187.070   6
   4  19 -11 68.3219 293.640   3
  -4 -19  11 25.1399 202.617   5
   4 -19  11 34.3071 157.877   8
   4 -19  11-61.1898 125.056   5
  -4  19 -11-309.057 321.845   2
  -4  19  11-385.869 196.917   1
  -4  19 -11-144.841 170.254   3
   4 -19 -11 97.7033 164.949   7
  -4  19  11 33.7986 150.951   4
   4 -19 -12 562.592 213.416   6
   4 -19  12-123.382 158.232   8
   4 -19  12 139.551 130.247   5
  -4  19 -12 314.592 329.045   2
  -4  19 -12-24.1359 193.837   3
   4 -19 -12-95.8639 183.539   7
  -4  19  12 436.357 216.323   1
  -4  19  12 241.534 166.523   4
   4 -19 -13-123.518 187.088   6
   4 -19  13 156.012 135.824   5
   4 -19 -13-57.1480 179.890   7
  -4  19 -13 48.5318 200.250   3
  -4  19  13 87.6163 165.909   4
   5 -19  -9 219.256 206.381   6
  -5  19   9-20.1043 185.867   1
  -5  19   9 205.177 151.613   4
   5 -19 -10 537.130 202.675   6
  -5  19  10-20.4393 182.112   1
   5 -19  10 75.9199 128.274   5
  -5  19 -10-267.762 311.753   2
   5 -19 -10 233.810 187.181   7
  -5  19 -10-24.6361 180.506   3
  -5  19  10 160.104 147.727   4
   5 -19 -11-123.537 201.933   6
  -5  19  11-105.899 205.987   1
   5 -19  11 74.3162 166.026   8
   5 -19  11-168.404 131.803   5
  -5  19 -11 234.398 349.786   2
   5 -19 -11 105.759 189.499   7
  -5  19 -11-173.243 188.231   3
  -5  19  11-16.3107 157.580   4
   5 -19 -12-149.504 217.371   6
   5 -19  12 299.613 181.994   8
   5 -19  12 15.5469 120.416   5
  -5  19 -12-79.5513 357.045   2
  -5  19 -12-149.262 180.040   3
  -5  19  12-16.5298 148.383   4
  -5  19 -13 150.185 183.037   3
   6 -19  -9 47.2580 217.022   7
  -6  19   9-56.1467 153.724   1
  -6  19   9 184.571 151.261   4
   6 -19  -9 153.556 209.980   6
   6 -19 -10 231.019 206.453   6
   6 -19 -10 208.047 220.158   7
  -6  19  10-19.0432 167.547   1
  -6  19  10 62.1464 144.183   4
   6 -19 -11 25.7257 200.691   6
  -6  19 -11 274.840 335.805   2
  -6  19  11-235.568 138.424   4
   6 -19  12 20.0725 155.484   8
  -7  19   8 135.859 161.321   1
  -7  19   9-158.318 145.617   1
   7 -19  -9 439.465 235.907   7
  -7  19   9 74.5866 126.289   4
   7 -19  -9-80.8885 217.253   6
  -7  19  10 30.0724 132.050   4
   7 -19 -10-214.942 208.936   6
  -8  19   8 56.6299 130.787   4
   0  20  -7-31.6449 261.894   2
   0 -20   7 53.5577 136.721   5
   0  20  -7 61.8135 230.273   3
   0 -20   7-29.5133 130.993   8
   0  20  -8-65.1197 281.708   2
   0 -20   8-108.248 145.216   5
   0 -20   8-29.5891 126.410   8
   0  20  -8-153.396 248.235   3
   0  20  -9 100.495 295.693   2
   0 -20   9 89.8401 158.674   5
   0 -20   9-59.6042 135.715   8
   0  20  -9 273.957 261.665   3
   0 -20  10 161.385 162.019   5
   0 -20  10-14.9755 139.388   8
   0  20 -10 30.5256 252.731   3
   1  20  -6 194.787 269.548   3
  -1 -20   6-141.492 181.946   5
  -1 -20   6 133.565 129.462   8
   1  20  -6-272.686 228.449   2
   1  20  -7-261.746 286.480   3
  -1 -20   7 218.968 185.850   5
  -1 -20   7 44.5574 145.131   8
   1  20  -7 247.703 259.819   2
  -1  20  -8-135.125 267.429   2
   1  20  -8-456.702 284.575   3
  -1 -20   8 19.5593 154.286   5
  -1 -20   8 14.8855 133.247   8
   1 -20   8 89.2532 134.269   8
   1 -20   8-16.7058 141.823   5
  -1  20  -8 28.8093 215.504   3
   1  20  -8 126.892 252.921   2
   1  20  -9 97.2249 251.937   3
  -1 -20   9 39.4479 160.001   5
  -1 -20   9 119.204 146.860   8
   1 -20   9-90.0534 140.588   8
   1 -20   9 167.370 161.890   5
  -1  20  -9-28.4467 220.320   3
   1  20  -9 32.2387 278.743   2
   1  20 -10 96.4332 267.304   3
  -1 -20  10 78.1201 163.358   5
   1 -20  10-166.910 140.725   8
   1 -20  10-234.758 187.650   5
  -1  20 -10-228.084 222.951   3
   2  20  -5-305.860 314.262   3
  -2 -20   5-112.816 201.592   5
   2  20  -6 102.812 271.271   3
  -2 -20   6 137.512 180.240   5
   2  20  -6 270.068 231.767   2
   2  20  -7 34.3736 291.198   3
  -2 -20   7-90.7591 187.617   5
   2  20  -7-182.564 225.238   2
   2  20  -8 34.5064 278.582   3
  -2 -20   8 336.130 209.258   5
  -2 -20   8 208.619 138.004   8
   2  20  -8 216.739 242.468   2
  -2  20  -9 319.918 311.916   2
   2  20  -9 274.831 286.168   3
  -2 -20   9 131.513 183.766   5
  -2 -20   9 15.0083 109.562   8
   2 -20   9-76.6205 134.482   8
   2 -20   9 31.6055 155.407   5
  -2  20  -9-160.577 194.522   3
   2 -20  10 62.2382 153.160   8
   2 -20  10-286.988 184.266   5
  -2  20 -10-53.6657 213.547   3
  -2  20 -11-158.343 213.679   3
  -2  20  12 60.7701 187.973   4
   3  20  -5 107.155 303.313   3
  -3 -20   5 412.405 214.654   5
   3  20  -6-287.441 319.949   3
  -3 -20   6 50.8666 219.423   5
   3  20  -7-144.217 297.972   3
  -3 -20   7 461.952 234.255   5
   3  20  -8-36.0582 291.518   3
  -3 -20   8 50.3789 206.428   5
   3 -20  10 193.861 146.598   8
   3 -20  10-31.2580 137.146   5
  -3  20 -10 101.686 197.903   3
   0   0   0    0.00    0.00   0

TITL GKME_30 in P4/mnc
REM P4/mnc (#128 in standard setting)
CELL 0.68890  18.931995  18.931995  33.137682  90.0000  90.0000  90.0000
ZERR   16.00   0.001167   0.001167   0.002404   0.0000   0.0000   0.0000
LATT  1
SYMM -x,-y, z
SYMM -y, x, z
SYMM  y,-x, z
SYMM -x+1/2, y+1/2,-z+1/2
SYMM  x+1/2,-y+1/2,-z+1/2
SYMM  y+1/2, x+1/2,-z+1/2
SYMM -y+1/2,-x+1/2,-z+1/2
SFAC C H O Hf
UNIT 704.00 576.00 128.00 16.00
TREF
HKLF 4
END
;
_shelx_hkl_checksum              87481
_shelx_shelxl_version_number     2014/7
_olex2_submission_special_instructions 'No special instructions were received'
_oxdiff_exptl_absorpt_empirical_details
;
Empirical correction (ABSPACK) includes:
- Absorption correction using spherical harmonics
- Frame scaling
;
_oxdiff_exptl_absorpt_empirical_full_max 2.029
_oxdiff_exptl_absorpt_empirical_full_min 0.463
loop_
_space_group_symop_operation_xyz
'x, y, z'
'-x, -y, z'
'-y, x, z'
'y, -x, z'
'-x+1/2, y+1/2, -z+1/2'
'x+1/2, -y+1/2, -z+1/2'
'y+1/2, x+1/2, -z+1/2'
'-y+1/2, -x+1/2, -z+1/2'
'-x, -y, -z'
'x, y, -z'
'y, -x, -z'
'-y, x, -z'
'x-1/2, -y-1/2, z-1/2'
'-x-1/2, y-1/2, z-1/2'
'-y-1/2, -x-1/2, z-1/2'
'y-1/2, x-1/2, z-1/2'
loop_
_atom_site_label
_atom_site_type_symbol
_atom_site_fract_x
_atom_site_fract_y
_atom_site_fract_z
_atom_site_U_iso_or_equiv
_atom_site_adp_type
_atom_site_occupancy
_atom_site_site_symmetry_order
_atom_site_calc_flag
_atom_site_refinement_flags_posn
_atom_site_refinement_flags_adp
_atom_site_refinement_flags_occupancy
_atom_site_disorder_assembly
_atom_site_disorder_group
Hf1 Hf -0.04605(9) 0.12322(9) 0.0000 0.0753(9) Uani 1 2 d DS TU P . .
Hf2 Hf 0.0000 0.0000 0.07332(6) 0.0677(10) Uani 1 4 d DS TU P . .
O1 O -0.0308(8) 0.0890(7) 0.1084(5) 0.079(5) Uiso 1 1 d D U . . .
O4 O -0.0824(9) 0.0389(9) 0.0356(5) 0.079(5) Uiso 1 1 d . U . . .
O13 O -0.0647(10) 0.1743(10) 0.0575(4) 0.096(6) Uiso 1 1 d D U . . .
O19 O -0.1499(13) 0.1630(13) 0.0000 0.081(7) Uiso 1 2 d S TU P . .
O20 O 0.0107(16) 0.2231(15) 0.0000 0.106(9) Uiso 1 2 d S TU P . .
C3 C -0.0748(6) 0.3112(10) 0.1915(6) 0.098(9) Uiso 1 1 d D U . . .
C4 C -0.0937(10) 0.3282(10) 0.1490(8) 0.164(14) Uiso 1 1 d D U . . .
H4 H -0.1093 0.3729 0.1416 0.197 Uiso 1 1 calc R . . . .
C5 C -0.0872(10) 0.2743(14) 0.1208(6) 0.149(13) Uiso 1 1 d D U . . .
H5 H -0.0989 0.2848 0.0942 0.179 Uiso 1 1 calc R . . . .
C6 C -0.0647(7) 0.2068(12) 0.1289(7) 0.109(10) Uiso 1 1 d D U . . .
C7 C -0.0459(9) 0.1899(10) 0.1716(8) 0.130(12) Uiso 1 1 d D U . . .
H7 H -0.0304 0.1451 0.1790 0.156 Uiso 1 1 calc R . . . .
C8 C -0.0524(9) 0.2436(14) 0.1997(5) 0.124(11) Uiso 1 1 d D U . . .
H8 H -0.0407 0.2331 0.2263 0.149 Uiso 1 1 calc R . . . .
C9 C -0.0803(7) 0.3636(8) 0.2218(4) 0.087(8) Uiso 1 1 d D U . . .
C16 C -0.0279(9) 0.4150(11) 0.2223(7) 0.032(9) Uiso 0.5 1 d DG U . . .
C15 C -0.029(2) 0.470(2) 0.2503(16) 0.060(9) Uiso 1 2 d DG U . . .
C15D C -0.082(3) 0.469(3) 0.280(2) 0.050 Uiso 0 1 d G . . . .
C9D C -0.135(3) 0.417(3) 0.2799(16) 0.050 Uiso 0 1 d DG . . . .
C10 C -0.1336(10) 0.3662(10) 0.2500(6) 0.090(12) Uiso 1 2 d DGS TU P . .
C11 C -0.1876(6) 0.3124(6) 0.2500 0.115(15) Uiso 1 2 d DS TU P . .
H11A H -0.2241 0.3250 0.2688 0.173 Uiso 0.5 1 calc GR . . A -1
H11B H -0.1672 0.2680 0.2577 0.173 Uiso 0.5 1 calc GR . . A -1
H11C H -0.2075 0.3084 0.2234 0.173 Uiso 0.5 1 calc GR . . A -1
C12 C -0.0595(9) 0.1550(9) 0.0984(5) 0.114(10) Uiso 1 1 d D U . . .
C17 C 0.0273(9) 0.4186(13) 0.1969(7) 0.26(3) Uiso 1 1 d D U . . .
H H 0.0353 0.4669 0.1894 0.384 Uiso 1 1 calc GR . . . .
HA H 0.0173 0.3913 0.1731 0.384 Uiso 1 1 calc GR . . . .
HB H 0.0686 0.4002 0.2099 0.384 Uiso 1 1 calc GR . . . .
loop_
_atom_site_aniso_label
_atom_site_aniso_U_11
_atom_site_aniso_U_22
_atom_site_aniso_U_33
_atom_site_aniso_U_23
_atom_site_aniso_U_13
_atom_site_aniso_U_12
Hf1 0.0973(16) 0.0779(14) 0.0506(13) 0.000 0.000 0.0078(11)
Hf2 0.0799(13) 0.0799(13) 0.0434(16) 0.000 0.000 0.000
loop_
_atom_type_symbol
_atom_type_description
_atom_type_scat_dispersion_real
_atom_type_scat_dispersion_imag
_atom_type_scat_source
C C 0.0030 0.0010 'International Tables Vol C Tables 4.2.6.8 and 6.1.1.4'
H H 0.0000 0.0000 'International Tables Vol C Tables 4.2.6.8 and 6.1.1.4'
Hf Hf -0.2930 6.1080 'International Tables Vol C Tables 4.2.6.8 and 6.1.1.4'
O O 0.0110 0.0060 'International Tables Vol C Tables 4.2.6.8 and 6.1.1.4'
loop_
_geom_angle_atom_site_label_1
_geom_angle_atom_site_label_2
_geom_angle_atom_site_label_3
_geom_angle
_geom_angle_site_symmetry_1
_geom_angle_site_symmetry_3
Hf1 Hf1 Hf1 90.001(1) 3 11
Hf2 Hf1 Hf1 59.594(17) 9 3
Hf2 Hf1 Hf1 59.594(17) . 11
Hf2 Hf1 Hf1 59.594(17) 9 11
Hf2 Hf1 Hf1 59.594(17) . 3
Hf2 Hf1 Hf2 88.59(6) 9 .
O4 Hf1 Hf1 89.0(4) . 11
O4 Hf1 Hf1 34.2(4) . 3
O4 Hf1 Hf1 33.5(4) 4 11
O4 Hf1 Hf1 33.5(4) 11 11
O4 Hf1 Hf1 89.1(4) 4 3
O4 Hf1 Hf1 89.0(4) 10 11
O4 Hf1 Hf1 89.1(4) 11 3
O4 Hf1 Hf1 34.2(4) 10 3
O4 Hf1 Hf2 87.4(4) 11 .
O4 Hf1 Hf2 88.0(4) 10 .
O4 Hf1 Hf2 35.4(4) 11 9
O4 Hf1 Hf2 35.0(4) . .
O4 Hf1 Hf2 87.4(4) 4 9
O4 Hf1 Hf2 35.4(4) 4 .
O4 Hf1 Hf2 35.0(4) 10 9
O4 Hf1 Hf2 88.0(4) . 9
O4 Hf1 O4 68.3(9) . 10
O4 Hf1 O4 66.9(9) 4 11
O4 Hf1 O4 70.3(8) . 4
O4 Hf1 O4 70.3(8) 10 11
O4 Hf1 O4 106.4(9) . 11
O4 Hf1 O4 106.4(9) 10 4
O4 Hf1 O13 78.4(6) 11 10
O4 Hf1 O13 78.0(6) 10 10
O4 Hf1 O13 140.2(7) 11 .
O4 Hf1 O13 141.3(7) . 10
O4 Hf1 O13 78.4(6) 4 .
O4 Hf1 O13 140.2(7) 4 10
O4 Hf1 O13 78.0(6) . .
O4 Hf1 O13 141.3(7) 10 .
O4 Hf1 O20 86.7(8) 11 .
O4 Hf1 O20 145.3(5) . .
O4 Hf1 O20 86.7(8) 4 .
O4 Hf1 O20 145.3(5) 10 .
O13 Hf1 Hf1 109.5(5) 10 11
O13 Hf1 Hf1 109.8(5) . 3
O13 Hf1 Hf1 109.8(5) 10 3
O13 Hf1 Hf1 109.5(5) . 11
O13 Hf1 Hf2 74.1(5) . .
O13 Hf1 Hf2 162.7(5) 10 .
O13 Hf1 Hf2 162.7(5) . 9
O13 Hf1 Hf2 74.1(5) 10 9
O13 Hf1 O13 123.2(10) . 10
O13 Hf1 O20 72.1(6) 10 .
O13 Hf1 O20 72.1(6) . .
O19 Hf1 Hf1 176.4(7) . 11
O19 Hf1 Hf1 86.4(7) . 3
O19 Hf1 Hf2 118.3(4) . 9
O19 Hf1 Hf2 118.3(4) . .
O19 Hf1 O4 146.2(4) . 11
O19 Hf1 O4 88.0(7) . .
O19 Hf1 O4 88.0(7) . 10
O19 Hf1 O4 146.2(4) . 4
O19 Hf1 O13 71.8(6) . 10
O19 Hf1 O13 71.8(6) . .
O19 Hf1 O20 98.6(10) . .
O20 Hf1 Hf1 84.9(8) . 11
O20 Hf1 Hf1 174.9(8) . 3
O20 Hf1 Hf2 117.3(5) . 9
O20 Hf1 Hf2 117.3(5) . .
Hf1 Hf2 Hf1 91.41(6) . 9
Hf1 Hf2 Hf1 91.41(6) 3 11
Hf1 Hf2 Hf1 60.81(3) . 11
Hf1 Hf2 Hf1 60.81(3) . 3
Hf1 Hf2 Hf1 60.81(3) 3 9
Hf1 Hf2 Hf1 60.81(3) 9 11
O1 Hf2 Hf1 113.3(4) . 3
O1 Hf2 Hf1 168.8(4) 3 11
O1 Hf2 Hf1 113.3(4) 3 9
O1 Hf2 Hf1 77.4(4) 4 11
O1 Hf2 Hf1 168.8(4) . 9
O1 Hf2 Hf1 111.5(4) 2 3
O1 Hf2 Hf1 111.5(4) 3 .
O1 Hf2 Hf1 113.3(4) 4 .
O1 Hf2 Hf1 111.5(4) . 11
O1 Hf2 Hf1 113.3(4) 2 11
O1 Hf2 Hf1 168.8(4) 4 3
O1 Hf2 Hf1 111.5(4) 4 9
O1 Hf2 Hf1 77.4(4) 2 9
O1 Hf2 Hf1 77.4(4) 3 3
O1 Hf2 Hf1 168.8(4) 2 .
O1 Hf2 Hf1 77.4(4) . .
O1 Hf2 O1 113.7(9) 4 3
O1 Hf2 O1 72.6(4) 3 2
O1 Hf2 O1 72.6(4) 4 2
O1 Hf2 O1 72.6(4) 3 .
O1 Hf2 O1 72.6(4) 4 .
O1 Hf2 O1 113.7(9) 2 .
O1 Hf2 O4 143.6(7) 3 2
O1 Hf2 O4 142.7(6) 3 4
O1 Hf2 O4 142.7(6) 4 3
O1 Hf2 O4 142.7(6) . 2
O1 Hf2 O4 81.2(6) 4 4
O1 Hf2 O4 80.6(6) 2 3
O1 Hf2 O4 143.6(7) 2 4
O1 Hf2 O4 80.6(6) 3 .
O1 Hf2 O4 81.2(6) . .
O1 Hf2 O4 143.6(7) . 3
O1 Hf2 O4 81.2(6) 2 2
O1 Hf2 O4 142.7(6) 2 .
O1 Hf2 O4 81.2(6) 3 3
O1 Hf2 O4 80.6(6) . 4
O1 Hf2 O4 80.6(6) 4 2
O1 Hf2 O4 143.6(7) 4 .
O4 Hf2 Hf1 90.3(4) 2 .
O4 Hf2 Hf1 89.7(4) 2 3
O4 Hf2 Hf1 89.7(4) 3 .
O4 Hf2 Hf1 90.3(4) 4 3
O4 Hf2 Hf1 90.3(4) . 9
O4 Hf2 Hf1 35.5(4) 2 11
O4 Hf2 Hf1 90.3(4) 3 11
O4 Hf2 Hf1 34.4(4) . .
O4 Hf2 Hf1 34.4(4) 2 9
O4 Hf2 Hf1 35.5(4) 4 .
O4 Hf2 Hf1 89.7(4) . 11
O4 Hf2 Hf1 35.5(4) 3 9
O4 Hf2 Hf1 34.4(4) 3 3
O4 Hf2 Hf1 35.5(4) . 3
O4 Hf2 Hf1 89.7(4) 4 9
O4 Hf2 Hf1 34.4(4) 4 11
O4 Hf2 O4 108.2(9) 2 .
O4 Hf2 O4 69.9(4) 3 2
O4 Hf2 O4 108.2(9) 3 4
O4 Hf2 O4 69.9(4) 4 .
O4 Hf2 O4 69.9(4) 4 2
O4 Hf2 O4 69.9(4) 3 .
C12 O1 Hf2 132.9(13) . .
Hf1 O4 Hf1 112.3(7) . 3
Hf1 O4 Hf2 110.6(7) . .
Hf2 O4 Hf1 109.1(7) . 3
C12 O13 Hf1 136.0(14) . .
C8 C3 C4 117.5(7) . .
C8 C3 C9 122(2) . .
C9 C3 C4 120.2(19) . .
C3 C4 H4 121.4 . .
C5 C4 C3 117.2(15) . .
C5 C4 H4 121.4 . .
C4 C5 H5 117.3 . .
C6 C5 C4 125.3(16) . .
C6 C5 H5 117.4 . .
C5 C6 C7 117.4(7) . .
C5 C6 C12 122(2) . .
C12 C6 C7 121(2) . .
C6 C7 H7 121.3 . .
C8 C7 C6 117.3(15) . .
C8 C7 H7 121.4 . .
C3 C8 C7 125.3(16) . .
C3 C8 H8 117.4 . .
C7 C8 H8 117.3 . .
C16 C9 C3 116.5(5) . .
C16 C9 C10 119.4 . .
C10 C9 C3 124.1(5) . .
C9 C16 C15 121.4 . .
C15 C16 C9 121.3(10) 7_455 .
C15 C16 C15 1(7) 7_455 .
C17 C16 C9 125.7(2) . .
C17 C16 C15 112.9(10) . 7_455
C17 C16 C15 112.8(2) . .
C16 C15 C16 117.4(8) 7_455 .
C16 C15 C15 121(4) . 8
C16 C15 C15 122(4) . 2_565
C16 C15 C15 122(4) 7_455 8
C16 C15 C15 121(4) 7_455 2_565
C15 C15 C16 84(10) 7_455 7_455
C15 C15 C16 95(10) 7_455 .
C15 C15 C15 90(3) 7_455 8
C15 C15 C15 1(8) 2_565 8
C15 C15 C15 89(5) 7_455 2_565
C9 C10 C9 120.9(9) 7_455 .
C9 C10 C11 119.6(2) . .
C9 C10 C11 119.5(9) 7_455 .
C10 C11 H11A 110.3 . .
C10 C11 H11B 110.3 . .
C10 C11 H11C 110.3 . .
H11A C11 H11B 108.6 . .
H11A C11 H11C 108.6 . .
H11B C11 H11C 108.6 . .
O1 C12 O13 119.2(17) . .
O1 C12 C6 118.4(17) . .
O13 C12 C6 120.3(17) . .
C16 C17 H 109.5 . .
C16 C17 HA 109.5 . .
C16 C17 HB 109.6 . .
H C17 HA 109.4 . .
H C17 HB 109.4 . .
HA C17 HB 109.4 . .
loop_
_geom_bond_atom_site_label_1
_geom_bond_atom_site_label_2
_geom_bond_distance
_geom_bond_site_symmetry_2
Hf1 Hf1 3.522(2) 11
Hf1 Hf1 3.522(2) 3
Hf1 Hf2 3.4794(18) .
Hf1 Hf2 3.4793(18) 9
Hf1 O4 2.139(16) 11
Hf1 O4 2.101(16) .
Hf1 O4 2.101(16) 10
Hf1 O4 2.139(16) 4
Hf1 O13 2.166(13) 10
Hf1 O13 2.166(13) .
Hf1 O19 2.11(2) .
Hf1 O20 2.17(3) .
Hf2 Hf1 3.4794(18) 3
Hf2 Hf1 3.4794(18) 9
Hf2 Hf1 3.4794(18) 11
Hf2 O1 2.128(13) 2
Hf2 O1 2.128(13) 4
Hf2 O1 2.128(13) .
Hf2 O1 2.128(13) 3
Hf2 O4 2.131(16) .
Hf2 O4 2.131(16) 3
Hf2 O4 2.131(16) 2
Hf2 O4 2.131(16) 4
O1 C12 1.403(9) .
O4 Hf1 2.139(16) 3
O13 C12 1.407(9) .
C3 C4 1.49(3) .
C3 C8 1.37(2) .
C3 C9 1.416(6) .
C4 H4 0.9300 .
C4 C5 1.389(10) .
C5 H5 0.9300 .
C5 C6 1.37(3) .
C6 C7 1.49(3) .
C6 C12 1.414(6) .
C7 H7 0.9300 .
C7 C8 1.384(10) .
C8 H8 0.9300 .
C9 C16 1.3900 .
C9 C10 1.3773 .
C16 C15 1.3975 .
C16 C15 1.40(4) 7_455
C16 C17 1.343(4) .
C15 C16 1.40(3) 7_455
C15 C15 1.57(3) 8
C15 C15 1.57(3) 2_565
C15 C15 0.03(17) 7_455
C10 C9 1.378(14) 7_455
C10 C11 1.443(4) .
C11 H11A 0.9679 .
C11 H11B 0.9680 .
C11 H11C 0.9679 .
C17 H 0.9604 .
C17 HA 0.9604 .
C17 HB 0.9604 .
loop_
_geom_torsion_atom_site_label_1
_geom_torsion_atom_site_label_2
_geom_torsion_atom_site_label_3
_geom_torsion_atom_site_label_4
_geom_torsion
_geom_torsion_site_symmetry_1
_geom_torsion_site_symmetry_4
Hf1 O13 C12 O1 6(3) . .
Hf1 O13 C12 C6 169.1(11) . .
Hf2 O1 C12 O13 -8(3) . .
Hf2 O1 C12 C6 -171.0(9) . .
C3 C4 C5 C6 0.0(4) . .
C3 C9 C16 C15 179(3) . .
C3 C9 C16 C15 177(5) . 7_455
C3 C9 C16 C17 -1(3) . .
C3 C9 C10 C9 -179(2) . 7_455
C3 C9 C10 C11 1(4) . .
C4 C3 C8 C7 0.0(3) . .
C4 C3 C9 C16 -75.5(16) . .
C4 C3 C9 C10 104(2) . .
C4 C5 C6 C7 0.0(3) . .
C4 C5 C6 C12 180.0(2) . .
C5 C6 C7 C8 0.0(4) . .
C5 C6 C12 O1 174.9(14) . .
C5 C6 C12 O13 11.8(16) . .
C6 C7 C8 C3 0.0(4) . .
C7 C6 C12 O1 -5.1(14) . .
C7 C6 C12 O13 -168.2(16) . .
C8 C3 C4 C5 -0.1(3) . .
C8 C3 C9 C16 104.6(15) . .
C8 C3 C9 C10 -76(2) . .
C9 C3 C4 C5 180.0(2) . .
C9 C3 C8 C7 180.0(2) . .
C9 C16 C15 C16 -1(10) . 7_455
C9 C16 C15 C15 -179(4) . 8
C9 C16 C15 C15 -178(6) . 2_565
C9 C16 C15 C15 -86(55) . 7_455
C16 C9 C10 C9 1(4) . 7_455
C16 C9 C10 C11 -179.2(4) . .
C15 C16 C15 C16 85(51) 7_455 7_455
C15 C16 C15 C15 -92(57) 7_455 2_565
C15 C16 C15 C15 -93(58) 7_455 8
C10 C9 C16 C15 -3(7) . 7_455
C10 C9 C16 C15 -1.2 . .
C10 C9 C16 C17 179.46(14) . .
C12 C6 C7 C8 180.0(2) . .
C17 C16 C15 C16 179(10) . 7_455
C17 C16 C15 C15 93(55) . 7_455
C17 C16 C15 C15 1(6) . 2_565
C17 C16 C15 C15 1(4) . 8
