#------------------------------------------------------------------------------
#$Date: 2019-11-25 22:32:00 +0200 (Mon, 25 Nov 2019) $
#$Revision: 241968 $
#$URL: file:///home/coder/svn-repositories/cod/cif/4/13/18/4131856.cif $
#------------------------------------------------------------------------------
#
# This file is available in the Crystallography Open Database (COD),
# http://www.crystallography.net/
#
# All data on this site have been placed in the public domain by the
# contributors.
#
data_4131856
loop_
_publ_author_name
'Yan, Yong'
'O'Connor, Alice E'
'Kanthasamy, Gopikkaa'
'Atkinson, George'
'Allan, David R.'
'Blake, Alexander J.'
'Schr\"oder, Martin'
_publ_section_title
;
 Unusual and Tunable Negative Linear Compressibility in the Metal-Organic
 Framework MFM-133(M) (M = Zr, Hf).
;
_journal_issue                   11
_journal_name_full               'Journal of the American Chemical Society'
_journal_page_first              3952
_journal_page_last               3958
_journal_paper_doi               10.1021/jacs.7b11747
_journal_volume                  140
_journal_year                    2018
_chemical_formula_moiety         '0.25(C184 H136 O64 Zr12)'
_chemical_formula_sum            'C46 H34 O16 Zr3'
_chemical_formula_weight         1116.39
_space_group_crystal_system      tetragonal
_space_group_IT_number           128
_space_group_name_Hall           '-P 4 2n'
_space_group_name_H-M_alt        'P 4/m n c'
_atom_sites_solution_hydrogens   geom
_atom_sites_solution_primary     direct
_audit_creation_date             2016-08-31
_audit_creation_method
;
Olex2 1.2
(compiled 2016.08.25 svn.r3337 for OlexSys, GUI svn.r5221)
;
_cell_angle_alpha                90
_cell_angle_beta                 90
_cell_angle_gamma                90
_cell_formula_units_Z            4
_cell_length_a                   19.0370(14)
_cell_length_b                   19.0370(14)
_cell_length_c                   33.159(5)
_cell_measurement_reflns_used    1820
_cell_measurement_temperature    293.15
_cell_measurement_theta_max      22.5370
_cell_measurement_theta_min      2.0540
_cell_volume                     12017(2)
_computing_cell_refinement
;
CrysAlisPro, Agilent Technologies,
Version 1.171.37.34 (release 22-05-2014 CrysAlis171 .NET)
(compiled May 22 2014,16:03:01)
;
_computing_data_collection
;
CrysAlisPro, Agilent Technologies,
Version 1.171.37.34 (release 22-05-2014 CrysAlis171 .NET)
(compiled May 22 2014,16:03:01)
;
_computing_data_reduction
;
CrysAlisPro, Agilent Technologies,
Version 1.171.37.34 (release 22-05-2014 CrysAlis171 .NET)
(compiled May 22 2014,16:03:01)
;
_computing_molecular_graphics    'Olex2 (Dolomanov et al., 2009)'
_computing_publication_material  'Olex2 (Dolomanov et al., 2009)'
_computing_structure_refinement  'ShelXL (Sheldrick, 2015)'
_computing_structure_solution    'ShelXS (Sheldrick, 2008)'
_diffrn_ambient_temperature      293.15
_diffrn_detector                 Dectris
_diffrn_detector_area_resol_mean 5.81395
_diffrn_detector_type            'Pilatus 300K detector'
_diffrn_measured_fraction_theta_full 0.756
_diffrn_measured_fraction_theta_max 0.756
_diffrn_measurement_details
;
#__ type_ start__ end____ width___ exp.time_
  1 omega -105.00  -74.00   0.2000    0.9970
omega____ theta____ kappa____ phi______ frames
    -       20.0000   70.0000  155.7700 155

#__ type_ start__ end____ width___ exp.time_
  2 omega -105.00  -74.00   0.2000    0.9970
omega____ theta____ kappa____ phi______ frames
    -       20.0000   70.0000  -24.2300 155

#__ type_ start__ end____ width___ exp.time_
  3 omega -106.00  -66.00   0.2000    0.9970
omega____ theta____ kappa____ phi______ frames
    -      -20.0000  -70.0000 -155.7700 200

#__ type_ start__ end____ width___ exp.time_
  4 omega -106.00  -66.00   0.2000    0.9970
omega____ theta____ kappa____ phi______ frames
    -      -20.0000  -70.0000   24.2300 200

#__ type_ start__ end____ width___ exp.time_
  5 omega -150.00  -94.00   0.2000    0.9970
omega____ theta____ kappa____ phi______ frames
    -      -20.0000   70.0000  -24.2319 280

#__ type_ start__ end____ width___ exp.time_
  6 omega -150.00  -94.00   0.2000    0.9970
omega____ theta____ kappa____ phi______ frames
    -      -20.0000   70.0000  155.7681 280

#__ type_ start__ end____ width___ exp.time_
  7 omega  -96.00  -30.00   0.2000    0.9970
omega____ theta____ kappa____ phi______ frames
    -       20.0000  -70.0000   24.2300 330

#__ type_ start__ end____ width___ exp.time_
  8 omega  -96.00  -30.00   0.2000    0.9970
omega____ theta____ kappa____ phi______ frames
    -       20.0000  -70.0000 -155.7700 330
;
_diffrn_measurement_device       'k-geometry diffractometer'
_diffrn_measurement_device_type
'Newport 4-circle kappa geometry diffractometer'
_diffrn_measurement_method       'oscillation method'
_diffrn_orient_matrix_UB_11      0.0019075000
_diffrn_orient_matrix_UB_12      -0.0322703000
_diffrn_orient_matrix_UB_13      -0.0092949000
_diffrn_orient_matrix_UB_21      -0.0170713000
_diffrn_orient_matrix_UB_22      0.0134513000
_diffrn_orient_matrix_UB_23      -0.0166355000
_diffrn_orient_matrix_UB_31      0.0318442000
_diffrn_orient_matrix_UB_32      0.0091256000
_diffrn_orient_matrix_UB_33      -0.0083527000
_diffrn_radiation_collimation    '0.5 mm pinhole'
_diffrn_radiation_monochromator  'Si 111 double-crystal monochromator'
_diffrn_radiation_probe          x-ray
_diffrn_radiation_wavelength     0.6889
_diffrn_reflns_av_R_equivalents  0.8247
_diffrn_reflns_av_unetI/netI     0.5880
_diffrn_reflns_Laue_measured_fraction_full 0.756
_diffrn_reflns_Laue_measured_fraction_max 0.756
_diffrn_reflns_limit_h_max       20
_diffrn_reflns_limit_h_min       -20
_diffrn_reflns_limit_k_max       13
_diffrn_reflns_limit_k_min       -13
_diffrn_reflns_limit_l_max       35
_diffrn_reflns_limit_l_min       -35
_diffrn_reflns_number            24058
_diffrn_reflns_point_group_measured_fraction_full 0.756
_diffrn_reflns_point_group_measured_fraction_max 0.756
_diffrn_reflns_theta_full        22.751
_diffrn_reflns_theta_max         22.751
_diffrn_reflns_theta_min         1.889
_diffrn_source                   'Synchrotron U21 undulator'
_diffrn_source_type              'Synchrotron Diamond Light Source'
_exptl_absorpt_coefficient_mu    0.261
_exptl_absorpt_correction_T_max  0.4269
_exptl_absorpt_correction_T_min  0.2526
_exptl_absorpt_correction_type   multi-scan
_exptl_absorpt_process_details
;
SADABS-2014/5 (Bruker,2014/5) was used for absorption correction. 
wR2(int) was 0.1796 before and 0.1280 after correction. 
The Ratio of minimum to maximum transmission is 0.5917. 
The \l/2 correction factor is Not present.
;
_exptl_crystal_colour            'clear colourless'
_exptl_crystal_colour_lustre     clear
_exptl_crystal_colour_primary    colourless
_exptl_crystal_density_diffrn    0.617
_exptl_crystal_description       octahedral
_exptl_crystal_F_000             2232
_exptl_crystal_size_max          0.046
_exptl_crystal_size_mid          0.046
_exptl_crystal_size_min          0.033
_refine_diff_density_max         1.050
_refine_diff_density_min         -1.306
_refine_diff_density_rms         0.132
_refine_ls_extinction_method     none
_refine_ls_goodness_of_fit_ref   1.180
_refine_ls_hydrogen_treatment    constr
_refine_ls_matrix_type           full
_refine_ls_number_parameters     74
_refine_ls_number_reflns         3449
_refine_ls_number_restraints     61
_refine_ls_restrained_S_all      1.182
_refine_ls_R_factor_all          0.3506
_refine_ls_R_factor_gt           0.1662
_refine_ls_shift/su_max          0.000
_refine_ls_shift/su_mean         0.000
_refine_ls_structure_factor_coef Fsqd
_refine_ls_weighting_details
'w=1/[\s^2^(Fo^2^)+(0.2000P)^2^] where P=(Fo^2^+2Fc^2^)/3'
_refine_ls_weighting_scheme      calc
_refine_ls_wR_factor_gt          0.3820
_refine_ls_wR_factor_ref         0.4981
_reflns_Friedel_coverage         0.000
_reflns_number_gt                967
_reflns_number_total             3449
_reflns_threshold_expression     'I > 2\s(I)'
_cod_data_source_file            ZrMOF_All.cif
_cod_data_source_block           34.0kbar
_cod_original_cell_volume        12017(3)
_cod_database_code               4131856
_chemical_oxdiff_formula         'C46 H42 O16 Zr3'
_shelx_space_group_comment
;
The symmetry employed for this shelxl refinement is uniquely defined
by the following loop, which should always be used as a source of
symmetry information in preference to the above space-group names.
They are only intended as comments.
;
_reflns_odcompleteness_completeness 74.67
_reflns_odcompleteness_iscentric 1
_reflns_odcompleteness_theta     22.88
_olex2_refinement_description
;
1. Fixed Uiso
 At 1.2 times of:
  All C(H) groups
 At 1.5 times of:
  All C(H,H,H) groups
2. Restrained distances
 C12-C11 = C8-C11 = C9-C8 = C5-C4 = C4-C3 = C3-C2 = C7-C2 = C7-C6 = C6-C5
 1.39 with sigma of 0.01
 C9-C10 = C8-C5 = C13-C11 = C2-C1
 1.5 with sigma of 0.01
 C12-C12_$2
 1.5 with sigma of 0.01
 C8-C5 = C13-C11
 1.5 with sigma of 0.01
3. Restrained planarity
 C1, C2, C3, C4, C5, C6, C7, C8, C11_$1, C13_$1
 with sigma of 0.1
 C1_$1, C2_$1, C7_$1, C6_$1, C5_$1, C4_$1, C3_$1, C8_$1, C11, C13
 with sigma of 0.1
 C1_$2, C2_$2, C3_$2, C4_$2, C5_$2, C6_$2, C7_$2, C8_$2, C11_$3, C13_$3
 with sigma of 0.1
 C1_$3, C2_$3, C7_$3, C6_$3, C5_$3, C4_$3, C3_$3, C8_$3, C11_$2, C13_$2
 with sigma of 0.1
 C10_$2, C9_$2, C12_$2, C12, C9, C10
 with sigma of 0.1
4. Uiso/Uaniso restraints and constraints
All non-hydrogen atoms have similar U: within 2A with sigma of 0.02 and sigma
for terminal atoms of 0.04
5. Others
 Fixed Sof: H10A(0.5) H10B(0.5) H10C(0.5)
6.a Me refined with riding coordinates:
 C13(H13A,H13B,H13C), C10(H10A,H10B,H10C)
6.b Aromatic/amide H refined with riding coordinates:
 C3(H3), C4(H4), C7(H7), C6(H6)
;
_shelx_res_file
;
    34.0kbar.res created by SHELXL-2014/7

TITL g2yy_8xnew in P4/mnc
CELL 0.6889 19.03702 19.03702 33.15855 90 90 90
ZERR 4 0.00135 0.00135 0.00513 0 0 0
LATT 1
SYMM -X,-Y,+Z
SYMM -Y,+X,+Z
SYMM +Y,-X,+Z
SYMM 0.5-X,0.5+Y,0.5-Z
SYMM 0.5+X,0.5-Y,0.5-Z
SYMM 0.5+Y,0.5+X,0.5-Z
SYMM 0.5-Y,0.5-X,0.5-Z
SFAC C H O Zr
DISP C 0.003 0.001 10.848
DISP H -0 0 0.623
DISP O 0.011 0.006 30.192
DISP Zr -11.605 0.551 2275.752
UNIT 184 136 64 12
EQIV $1 -0.5+Y,0.5+X,0.5-Z
EQIV $2 -X,1-Y,+Z
EQIV $3 0.5-Y,0.5-X,0.5-Z
DFIX 1.39 0.01 C12 C11 C8 C11 C9 C8 C5 C4 C4 C3 C3 C2 C7 C2 C7 C6 C6 C5
DFIX 1.5 0.01 C9 C10 C8 C5 C13 C11 C2 C1
DFIX 1.5 0.01 C12 C12_$2
DFIX 1.5 0.01 C8 C5 C13 C11
FLAT C1 C2 C3 C4 C5 C6 C7 C8 C11_$1 C13_$1
FLAT C1_$1 C2_$1 C7_$1 C6_$1 C5_$1 C4_$1 C3_$1 C8_$1 C11 C13
FLAT C1_$2 C2_$2 C3_$2 C4_$2 C5_$2 C6_$2 C7_$2 C8_$2 C11_$3 C13_$3
FLAT C1_$3 C2_$3 C7_$3 C6_$3 C5_$3 C4_$3 C3_$3 C8_$3 C11_$2 C13_$2
FLAT C10_$2 C9_$2 C12_$2 C12 C9 C10
SIMU 0.02 0.04 2

L.S. 5 0 275
PLAN  20
TEMP 20
BOND
MORE -1
BOND $H
CONF
ABIN
fmap 2
acta
REM <olex2.extras>
REM <HklSrc "%.\\34.0kbar.hkl">
REM </olex2.extras>

WGHT    0.200000
FVAR       0.06040
ZR1   4    0.123886    0.045390    0.000000    10.50000    0.04117    0.06435 =
         0.02199    0.00000    0.00000   -0.00529
ZR2   4    0.000000    0.000000    0.073507    10.25000    0.04351    0.04351 =
         0.01016    0.00000    0.00000    0.00000
O5    3   -0.028927    0.093633    0.108868    11.00000    0.08169
O2    3    0.175119    0.061252   -0.060232    11.00000    0.09731
O4    3    0.039634    0.086002    0.035824    11.00000    0.09968
O3    3    0.166170    0.151897    0.000000    10.50000    0.12563
O1    3    0.226350   -0.016535    0.000000    10.50000    0.14935
C11   1   -0.025881    0.416943    0.221942    11.00000    0.11406
C3    1   -0.041331    0.193760    0.170586    11.00000    0.17643
AFIX  43
H3    2   -0.022830    0.149328    0.175393    11.00000   -1.20000
AFIX   0
C12   1   -0.027903    0.472097    0.250000    10.50000    0.09331
C1    1   -0.059035    0.153958    0.099852    11.00000    0.13833
C4    1   -0.045778    0.240880    0.202520    11.00000    0.18072
AFIX  43
H4    2   -0.032243    0.230433    0.228793    11.00000   -1.20000
AFIX   0
C8    1   -0.078054    0.365623    0.220414    11.00000    0.12861
C13   1    0.031420    0.414399    0.190334    11.00000    0.15261
AFIX  33
H13A  2    0.063774    0.452317    0.194724    11.00000   -1.50000
H13B  2    0.055944    0.370457    0.192217    11.00000   -1.50000
H13C  2    0.010889    0.418808    0.164012    11.00000   -1.50000
AFIX   0
C2    1   -0.063447    0.210355    0.131675    11.00000    0.18373
C5    1   -0.073068    0.306010    0.190469    11.00000    0.16941
C7    1   -0.089840    0.274828    0.118119    11.00000    0.22459
AFIX  43
H7    2   -0.101576    0.285649    0.091612    11.00000   -1.20000
AFIX   0
C9    1   -0.130634    0.369366    0.250000    10.50000    0.14314
C6    1   -0.095592    0.320180    0.151088    11.00000    0.20097
AFIX  43
H6    2   -0.116245    0.363713    0.146464    11.00000   -1.20000
AFIX   0
C10   1   -0.186440    0.313560    0.250000    10.50000    0.17708
PART -1
AFIX  33
H10A  2   -0.177769    0.281116    0.228402    10.50000   -1.50000
H10B  2   -0.185568    0.288916    0.275254    10.50000   -1.50000
H10C  2   -0.231642    0.334989    0.246344    10.50000   -1.50000
AFIX   0
HKLF 4

REM  g2yy_8xnew in P4/mnc
REM R1 =  0.1662 for     967 Fo > 4sig(Fo)  and  0.3506 for all    3449 data
REM     74 parameters refined using     61 restraints

END

WGHT      0.2000      0.0000

REM Highest difference peak  1.050,  deepest hole -1.306,  1-sigma level  0.132
Q1    1   0.1203  0.0138  0.0000  10.50000  0.05    1.05
Q2    1   0.0006  0.0366  0.0775  11.00000  0.05    0.75
Q3    1   0.2135  0.1315  0.0000  10.50000  0.05    0.72
Q4    1   0.0000  0.0000  0.0881  10.25000  0.05    0.67
Q5    1   0.1277  0.1380  0.0000  10.50000  0.05    0.62
Q6    1   0.0129  0.0621  0.0279  11.00000  0.05    0.53
Q7    1   0.2193  0.0031  0.0000  10.50000  0.05    0.52
Q8    1   0.2774 -0.0066 -0.0210  11.00000  0.05    0.51
Q9    1   0.0052  0.2209  0.1654  11.00000  0.05    0.49
Q10   1   0.2097 -0.0494  0.0000  10.50000  0.05    0.48
Q11   1   0.1154  0.1889 -0.0168  11.00000  0.05    0.48
Q12   1   0.1706  0.1798 -0.0185  11.00000  0.05    0.47
Q13   1  -0.1431  0.3185  0.1610  11.00000  0.05    0.47
Q14   1   0.2248  0.1543  0.0383  11.00000  0.05    0.46
Q15   1   0.1252  0.0945  0.0000  10.50000  0.05    0.46
Q16   1  -0.0802  0.1783  0.1693  11.00000  0.05    0.46
Q17   1   0.2037  0.0364  0.0000  10.50000  0.05    0.45
Q18   1   0.0055  0.1564  0.1001  11.00000  0.05    0.45
Q19   1   0.1993  0.1957  0.0268  11.00000  0.05    0.44
Q20   1   0.1133  0.1202  0.0404  11.00000  0.05    0.44
;
_shelx_res_checksum              13439
_shelx_hkl_file
;
   2   1   0   33.26    8.17
  -2  -1   0   33.92    9.32
  -2  -1   0   29.85    7.88
   2   1   0   32.00   10.35
   2   0   0  215.53   53.60
   3   2   0    0.86    0.80
  -3  -2   0    1.30    1.19
   3   2   0    0.43    1.72
   3   1   0    5.04    1.29
   3   1   0    3.98    1.15
  -3  -1   0    4.56    1.72
  -3  -1   0    3.04    1.22
   3   1   0    4.44    2.21
   3   1   0    8.36    1.32
   3   0   0    0.21    1.59
   3   0   0    0.09    0.40
   3  -1   0    5.47    1.36
  -3   2   0    0.55    0.37
   4   3   0    0.15    2.57
  -4  -2   0   28.47    6.60
   4   2   0   18.59    5.75
   4   2   0   20.34    7.50
  -4  -1   0  151.89   39.40
   4   1   0  138.65   34.41
   4   1   0  114.28   44.26
   4   1   0  151.48   36.99
  -4  -1   0  127.14   35.82
   4   1   0  154.08   34.17
  -4   0   0    6.58    3.15
   4   0   0    8.05    2.05
  -4   0   0    7.32    3.02
   4   0   0    8.65    2.30
   4   0   0   10.35    2.18
   4   0   0    9.07    3.51
   4  -1   0  152.24   36.67
  -5  -3   0    1.38    2.65
   5   3   0   -0.12    1.85
   5   2   0  169.34   55.22
  -5  -2   0  205.75   48.76
   5   2   0  165.21   45.68
  -5  -1   0    4.52    1.14
   5   1   0    3.58    1.38
   5   1   0    3.52    0.96
  -5  -1   0    2.28    2.41
   5   1   0    3.09    1.19
   5   1   0    2.56    3.83
  -5   0   0    0.49    2.15
   5   0   0    0.08    0.65
  -5   0   0   -0.76    2.54
   5   0   0    0.22    0.39
   5   0   0    0.11    0.87
   5   0   0   -0.36    3.21
   5  -1   0    4.13    1.32
   5  -1   0    4.15    1.32
   5  -2   0  138.46   35.35
   6   4   0   -2.05    4.69
   6   3   0   20.19    5.24
   6   3   0   23.39    7.33
  -6  -3   0   22.91    6.10
   6   2   0   30.67   12.51
  -6  -2   0   36.33    9.09
   6   2   0   37.80    9.40
   6   1   0  189.07   41.94
  -6  -1   0  191.06   44.56
   6   1   0  179.17   44.72
  -6  -1   0  143.16   52.07
  -6   0   0    0.92    3.09
   6   0   0    0.39    0.53
   6   0   0    1.09    0.93
   6   0   0   -0.09    4.59
  -6   0   0   -0.07    0.74
  -6   1   0  177.56   37.31
   6  -1   0  164.88   39.38
   6  -1   0  134.63   50.14
  -6   3   0   -0.11    2.12
   6  -3   0    9.83    2.23
   7   4   0   26.58   10.08
  -7  -4   0   23.78    8.58
   7   4   0   28.36    7.28
  -7  -3   0   78.03   23.38
   7   3   0   71.27   21.89
   7   3   0   90.09   21.08
   7   3   0  109.92   26.72
  -7  -2   0   70.28   16.93
   7   2   0   58.42   16.15
  -7  -2   0   61.76   15.88
   7   2   0   84.18   19.75
   7   2   0   50.52   15.16
  -7  -1   0   21.24    7.08
  -7  -1   0   26.01    5.79
   7   1   0   22.79    5.30
   7   1   0   21.41    5.80
   7   1   0   19.41    5.44
  -7  -1   0   18.62    7.38
   7   1   0   16.86    9.00
   7   0   0    0.82    1.48
  -7   0   0   -0.07    0.87
   7   0   0   -0.08    1.07
  -7   0   0   -0.48    0.93
   7   0   0   -0.08    0.57
   7   0   0    0.41    5.40
  -7   0   0   -2.92    4.40
  -7   0   0    0.51    3.79
   7  -1   0   18.46    5.45
   7  -1   0   16.71    8.52
  -7   1   0   24.05    5.09
   7  -1   0   22.59    5.19
   7  -2   0   48.79   12.64
   7  -2   0   53.71   12.91
   7  -3   0   64.27   16.17
   8   5   0   -0.29    6.96
   8   4   0   26.50   20.99
   8   4   0   70.14   15.37
  -8  -4   0   64.86   18.23
   8   3   0   18.01    9.08
  -8  -3   0    5.27    5.18
   8   3   0    3.30    3.49
   8   3   0    8.59    2.71
  -8  -2   0   52.63   13.79
   8   2   0   52.43   12.03
   8   2   0   47.47   12.87
   8   2   0   55.73   12.07
  -8  -2   0   50.95   12.79
   8   2   0   43.41   16.79
  -8  -1   0    0.44    4.57
   8   1   0    1.19    2.10
  -8  -1   0    1.77    1.27
   8   1   0    4.65    7.11
   8   1   0    2.19    1.36
  -8  -1   0    2.05    3.60
   8   1   0    2.80    0.90
   8   0   0   15.69    3.96
   8   0   0   11.94    4.15
  -8   0   0   14.69    3.93
  -8   0   0   13.31    3.57
   8   0   0   12.24    7.77
   8   0   0   16.04    3.55
  -8   0   0   18.27    6.53
  -8   0   0   14.87    6.54
  -8   1   0    1.24    1.30
   8  -1   0    3.91    1.07
   8  -1   0   -0.83    6.16
   8  -1   0    3.29    1.93
   8  -2   0   26.31   13.30
  -8   2   0   -0.12    8.04
   8  -2   0   56.37    8.70
   8  -2   0   34.17    8.46
   8  -3   0    3.74    2.05
   8  -4   0   59.31   15.42
  -8   4   0   72.01   15.32
   9   5   0   47.65    9.04
  -9  -5   0   18.90   11.35
   9   5   0   15.06   14.13
   9   4   0   16.50    4.40
   9   4   0    5.15    9.99
  -9  -4   0   13.38    6.55
   9   4   0   16.35    5.08
   9   3   0  115.95   26.43
  -9  -3   0  144.88   30.04
   9   3   0   39.82   36.79
  -9  -2   0    0.72    4.09
   9   2   0    0.88    2.80
   9   2   0    3.48    1.70
  -9  -2   0    1.30    4.77
  -9  -2   0    2.42    1.66
   9   2   0    5.44    8.95
   9   1   0    6.30    2.45
  -9  -1   0    7.54    2.43
  -9  -1   0   11.94    5.72
  -9  -1   0    8.47    5.02
   9   1   0    7.76    2.06
   9   1   0   11.40    3.02
   9   1   0    0.15    8.50
  -9   0   0   -0.92    4.99
   9   0   0   -1.46    2.12
  -9   0   0   -0.89    1.17
   9   0   0    1.03    0.74
  -9   0   0    0.55    1.29
   9   0   0    7.85    7.68
  -9   0   0   -3.59    6.18
   9   0   0   -0.48    1.48
  -9   1   0   12.04    2.31
   9  -1   0    9.11    2.81
   9  -1   0    5.07    1.98
   9  -1   0    9.78    7.40
   9  -2   0    2.23    6.95
   9  -2   0    3.80    2.23
  -9   2   0    1.73    1.54
   9  -4   0   13.23    3.84
  10   5   0    2.23    2.45
 -10  -5   0    5.13    6.38
  10   5   0    5.04   10.47
  10   5   0    3.67    4.54
  10   4   0   64.24   16.88
 -10  -4   0   97.56   19.81
  10   4   0   10.96   25.04
  10   3   0   -0.75    3.48
 -10  -3   0    4.65    5.29
  10   3   0   -1.66   10.87
  10   2   0    2.12   14.19
 -10  -2   0   34.65    9.99
  10   2   0   33.39    7.68
  10   1   0   -0.99    9.44
  10   1   0    2.40    2.76
 -10  -1   0    0.98    6.41
  10   0   0    3.06    2.60
 -10   0   0   -0.65    6.92
  10   0   0   -7.79    8.68
 -10   0   0    1.04    1.50
  10  -1   0   -8.84    8.17
 -10   1   0   -1.94    7.81
  10  -1   0    3.27    2.34
 -10   1   0    1.50    1.52
  10  -2   0   22.56   12.62
  10  -2   0   38.85    8.06
 -10   2   0   28.69    7.62
  10  -3   0    0.51    2.38
  10  -4   0   70.12   16.92
  11   6   0    6.41   11.72
 -11  -5   0    7.90    7.80
  11   5   0    8.15    6.03
  11   5   0   34.01   13.06
  11   4   0    2.97   12.48
  11   4   0    0.48    4.33
 -11  -4   0   -2.29    6.45
 -11  -3   0   45.33   12.47
  11   3   0    6.46   18.56
  11   3   0   39.68   10.07
  11   2   0    0.20   11.55
 -11  -2   0   -2.97    6.51
  11   2   0    2.99    3.48
 -11  -1   0   -0.14    1.69
 -11  -1   0    5.83    7.03
  11   1   0    0.16    3.02
  11   1   0  -13.36   10.82
  11   0   0    0.45    2.99
 -11   0   0    0.25    7.75
 -11   0   0    0.45    1.87
  11   0   0   -2.94    9.76
 -11   1   0    2.32    1.88
  11  -1   0    3.48    2.77
  11  -1   0    0.17    9.03
 -11   1   0   -5.98    9.27
 -11   2   0    3.18    2.14
  11  -2   0    7.53    8.72
  11  -2   0    3.42    2.77
  11  -3   0   50.71   10.89
  11  -3   0   33.67   17.31
 -11   3   0   41.82   10.62
  11  -4   0    0.43    2.73
  12   6   0   14.99   14.36
  12   5   0   -2.75    5.87
 -12  -5   0    5.75    7.83
  12   5   0  -18.40   14.39
  12   4   0   23.78    8.34
 -12  -4   0   41.52   10.57
  12   4   0    6.21   16.52
  12   3   0    0.23    4.41
  12   3   0  -19.13   14.10
 -12  -3   0   -1.64    7.35
 -12  -2   0   -2.89    7.67
  12   2   0   -1.26    4.18
  12   1   0   11.81    4.89
 -12  -1   0   10.73    9.44
 -12  -1   0    6.92    3.54
 -12   0   0    6.94    4.11
  12   0   0   24.16    5.33
 -12   0   0   32.45   11.05
 -12   1   0    6.97   10.92
 -12   2   0   -0.37    2.23
 -12   2   0   -9.21   11.66
  12  -2   0    1.46    3.26
  12  -3   0    0.16    3.13
  12  -3   0  -17.04   11.42
 -12   3   0   -2.04    2.47
  12  -4   0   22.87    6.64
  12  -5   0    0.66    3.17
 -13  -4   0    3.92    8.17
  13   4   0   -0.87    5.43
  13   2   0    5.93   15.68
 -13  -2   0    3.80    8.77
  13   2   0    4.68    4.95
  13   1   0    1.06    4.01
  13   1   0   -5.04   13.91
 -13  -1   0   -4.04    9.42
 -13  -1   0   -1.87    2.44
  13   0   0   -0.22   12.72
  13   0   0    0.77    3.94
 -13   0   0   -0.77    2.40
 -13   0   0   10.57   10.57
 -13   1   0  -28.67   11.76
 -13   1   0    2.97    2.38
  13  -1   0   -1.10    3.59
 -13   2   0   15.24   12.44
  13  -2   0    8.08    4.41
  13  -5   0   -0.18    2.62
 -14  -6   0    8.77   10.52
  14   6   0   22.70   18.41
 -14  -5   0  -26.11   10.67
  14   5   0    1.08    6.79
  14   5   0    5.30   18.99
  14   4   0   38.70   10.73
 -14  -4   0   47.55   13.02
  14   3   0  -33.43   17.33
  14   2   0   18.06   17.05
  14   1   0   18.33   15.47
 -14   0   0    4.99    2.79
  14   0   0  -12.11   14.02
  14  -1   0    0.23   12.83
 -14   1   0    5.58    2.75
 -14   2   0    2.38    3.12
  14  -2   0    0.24   13.32
 -14   2   0   46.27   13.34
  14  -2   0    9.03    4.33
  14  -3   0    0.26   13.61
  14  -3   0   -2.20    3.98
 -14   3   0   21.51   14.44
 -14   3   0    0.25    2.82
 -14   4   0    8.93    3.97
  14  -4   0   12.87    4.64
  14  -4   0  -38.09   15.00
  14  -5   0    1.42    4.09
  15   7   0    0.32   19.45
 -15  -6   0   -7.18   10.57
  15   6   0   19.53   20.30
  15   6   0    5.50    7.91
  15   5   0  -12.24    7.23
 -15  -5   0   -0.38   10.75
  15   5   0   16.25   20.28
 -15  -4   0    0.69   10.46
  15   4   0   22.24   20.47
  15   4   0    7.76    7.18
  15   3   0    4.78    6.32
 -15  -3   0   -0.99   10.88
  15   3   0   -7.94   19.89
  15   2   0    2.06   18.75
 -15  -2   0   -2.83    3.18
  15   2   0    3.47    5.65
 -15  -2   0    5.46   10.93
  15   1   0  -15.87   17.60
 -15  -1   0    4.58    3.27
 -15  -1   0    3.29   12.13
  15   1   0    1.39    5.71
  15   0   0   -0.75    5.27
 -15   0   0   11.98   13.17
 -15   0   0   -0.24    3.26
  15   0   0   -2.88   16.04
  15  -1   0   -1.38    4.99
 -15   1   0   16.47   14.43
  15  -1   0    6.42   15.33
 -15   1   0   -3.55    3.10
 -15   2   0  -20.16   14.44
  15  -2   0   -0.27   14.92
  15  -2   0   -6.79    4.63
 -15   2   0    1.86    3.04
 -15   3   0    8.70    3.73
  15  -3   0    0.29   15.41
  15  -3   0    2.70    4.73
 -15   3   0   -7.38   15.76
  15  -4   0    0.22    4.36
  15  -4   0    0.30   14.82
 -15   4   0    5.06    3.54
  15  -5   0   12.38    5.10
  16   7   0  -30.72   23.52
  16   6   0   14.27    8.67
 -16  -6   0   -6.11   12.17
  16   6   0  -41.97   22.68
  16   5   0  -43.86   22.75
  16   5   0  -15.57    8.64
 -16  -5   0   -2.51   12.66
 -16  -4   0   -1.16   11.24
  16   4   0   -2.33    7.52
  16   4   0   24.14   21.65
 -16  -3   0    7.02   11.78
 -16  -3   0    0.26    3.50
  16   3   0   19.09    7.25
  16   3   0  -19.41   21.58
  16   2   0    6.07   19.43
 -16  -2   0    8.06    3.52
  16   2   0   -6.77    7.02
 -16  -2   0    4.21   12.46
 -16  -1   0   -1.89    3.46
  16   1   0    0.92    6.06
 -16  -1   0   -2.45   13.38
  16   1   0   19.73   18.85
 -16   0   0  -15.48   14.56
  16   0   0    8.52    6.17
  16   0   0   13.47   17.58
 -16   0   0    0.28    3.33
  16  -1   0    0.29   16.15
 -16   1   0    0.57    3.77
 -16   1   0  -10.93   15.71
  16  -1   0    0.26    5.34
  16  -2   0   14.75    5.51
  16  -2   0  -21.48   16.84
 -16   2   0   16.31   17.21
 -16   2   0   -6.53    3.76
 -16   3   0    5.61    3.67
  16  -3   0    0.24    4.87
  16  -3   0   -4.78   17.03
 -16   3   0   18.11   17.85
 -16   4   0    1.97    3.80
  16  -4   0   -0.24    4.86
  16  -4   0   -0.33   16.03
 -16   4   0   13.12   19.66
  16  -5   0  -12.32    5.17
  17   7   0  -19.21   24.89
 -17  -6   0    1.44   13.55
  17   6   0   -0.50    9.09
  17   6   0    4.22   24.30
  17   5   0    5.35   23.87
  17   5   0   -3.79    8.67
 -17  -5   0  -21.24   13.36
  17   4   0  -18.10   23.16
 -17  -4   0   -7.31   13.04
  17   4   0    0.86    8.08
 -17  -4   0    0.28    3.65
 -17  -3   0    0.41   12.29
  17   3   0   -5.48    7.53
  17   3   0  -29.45   23.27
 -17  -3   0    1.17    3.89
  17   2   0  -10.86    8.14
 -17  -2   0   -9.38   13.97
 -17  -2   0   -1.21    4.41
  17  -1   0   34.53    8.68
 -17   1   0   23.10   19.69
 -17   1   0    5.42    7.22
  17  -2   0   -8.72    5.85
 -17   2   0   16.81   18.30
 -17   2   0   -1.66    4.19
  17  -2   0  -20.62   19.83
  17  -3   0   -7.71    5.74
 -17   3   0    5.20    3.87
  17  -3   0  -17.98   19.54
 -17   3   0   -6.59   19.26
 -17   4   0    2.90    4.30
 -17   4   0   -5.71   21.22
  17  -4   0   23.00   18.90
  17  -4   0    2.47    5.67
 -17   5   0   13.04   20.53
  17  -5   0    3.30    5.52
 -17   5   0    2.64    4.20
  18   7   0   11.34   27.32
 -18  -6   0   99.50   21.66
  18   6   0   29.29   31.86
  18   6   0   16.98   15.29
  18   5   0    2.08    9.64
  18   5   0    4.94   25.76
 -18  -5   0   -4.62   14.98
 -18  -4   0    0.48   14.38
  18   4   0   -0.95    8.83
 -18  -4   0    7.95    4.26
  18   4   0  -14.62   25.60
 -18  -3   0    1.41   14.73
 -18  -3   0    6.61    4.75
  18   3   0    0.45    8.62
  18   3   0  -70.43   25.57
 -18  -2   0    8.07   15.49
 -18  -2   0   -0.34    4.65
  18   2   0  -19.93    8.26
  18   2   0   41.90   24.47
 -18  -1   0    3.41    4.56
  18   1   0    3.14    7.79
  18   1   0   -0.74   22.06
 -18  -1   0   32.02   17.08
  18   0   0   27.71   21.87
  18   0   0    2.64    7.41
 -18   0   0    6.92   17.91
 -18   0   0  -13.02    4.34
 -18   1   0   -2.90    4.48
 -18   1   0   -1.65   18.67
  18  -1   0   -1.01    6.65
  18  -1   0   -6.19   20.45
 -18   2   0  -33.45   20.32
  18  -2   0  -16.76    6.38
 -18   2   0   -5.21    4.54
  18  -2   0   -1.92   21.15
 -18   3   0   -3.09    4.64
 -18   3   0  -31.13   21.53
  18  -3   0    1.95   20.80
  18  -3   0    0.31    6.17
  18  -4   0   -0.39   20.63
  18  -4   0    0.31    6.15
 -18   4   0    1.60    4.85
 -18   4   0    0.62   21.60
  18  -5   0  -11.41    6.24
 -18   5   0   -2.07    4.39
 -18   5   0  -40.63   22.75
  19   7   0   49.18   33.30
 -19  -6   0    2.90   16.19
  19   6   0   29.71   29.67
  19   6   0   13.17   11.32
  19   5   0    8.64   29.17
  19   5   0    4.59   10.37
 -19  -5   0   10.26   16.33
 -19  -5   0   -4.43    4.31
 -19  -4   0   -8.60   15.99
 -19  -4   0    4.95    4.79
  19   4   0    5.23   10.06
  19   4   0    3.15   28.31
 -19  -3   0  -39.53   17.48
  19   3   0  -11.42    9.87
 -19  -3   0  -17.99    5.30
  19   0   0  259.98   51.13
 -19   0   0  200.05   58.63
 -19   2   0  -72.74   24.27
 -19   2   0  -12.91    6.56
  19  -2   0  -72.96   29.97
  19  -3   0    3.07    7.09
 -19   3   0   -0.43    5.25
 -19   3   0    5.23   22.90
 -19   4   0    0.45    5.11
  19  -4   0    4.02    6.93
  19  -4   0   -5.67   23.02
 -19   4   0  -25.77   25.11
  19  -5   0    0.33    6.61
 -19   5   0   18.25   25.18
 -19   5   0   -1.38    5.05
 -20  -6   0   -9.63   17.74
  20   5   0  -37.57   30.79
 -20  -5   0    0.63   18.77
  20   5   0   24.67   11.38
  20   4   0  -29.90   11.78
 -20  -4   0   -1.60    5.63
 -20  -4   0   -0.62   18.25
  20   4   0  -24.72   30.87
 -20  -3   0   20.05   18.58
 -20  -3   0    0.41    5.37
  20   3   0  -46.34   30.11
  20   3   0  -22.57   10.49
 -20  -2   0   10.69   18.91
 -20  -2   0    3.76    5.64
  20   2   0    0.52   10.40
  20   2   0  -24.86   28.51
 -20  -1   0   12.30   20.37
  20   1   0   -1.01   10.34
  20   1   0   24.39   27.60
 -20  -1   0    1.29    5.78
  20   0   0  -17.84   25.60
  20   0   0   13.42    9.70
 -20   0   0   12.24   21.68
 -20   0   0    0.90    5.73
  20  -1   0   42.50   27.91
 -20   1   0  -24.77   23.15
  20  -1   0   -0.43    8.88
 -20   1   0    3.67    5.80
  20  -2   0  -23.65    8.51
  20  -2   0   10.60   27.44
 -20   2   0   -2.77   23.57
 -20   2   0    0.47    5.80
 -20   3   0   -6.45   25.33
  20  -3   0    0.96   21.58
  20  -3   0    3.13    7.80
   1   1  -1   -0.03    0.05
   1   1  -1   -0.02    0.03
  -1  -1   1    0.01    0.03
  -1  -1   1   -0.02    0.11
  -2  -1  -1   84.82   25.97
   2   1  -1   76.09   20.95
   2   1  -1   65.71   26.97
   2   1  -1  100.34   21.80
   2   1  -1   92.26   22.49
  -2  -1   1   97.55   21.79
   2   1   1  102.17   22.66
  -2  -1   1   98.56   24.76
   2   0  -1   -0.02    0.16
   2   0  -1    0.09    0.96
  -2   0  -1    0.38    0.63
   2   0   1   -0.18    0.28
  -2   0   1    0.06    0.14
  -2   1  -1   70.76   17.04
   2  -1   1   78.76   18.29
   2  -1   1   58.69   25.37
   3   2  -1   -0.21    1.79
  -3  -2  -1    0.82    1.18
   3   2  -1    0.19    0.77
   3   2  -1    0.30    0.31
  -3  -2   1    0.55    1.16
   3   2   1   -0.28    1.49
  -3  -2   1    0.43    0.47
   3   1  -1   21.42    9.17
   3   1  -1   20.55    7.05
   3   1  -1   35.15    7.20
  -3  -1  -1   29.41    8.56
   3   1  -1   33.65    7.55
  -3  -1   1   26.82    8.28
   3   1   1   30.88    9.65
  -3  -1   1   28.98    7.41
   3   1   1   35.66    7.42
   3   0  -1   14.38    3.90
  -3   0  -1   13.09    4.29
   3   0  -1    8.84    4.84
   3   0  -1   14.45    3.64
   3   0   1   14.37    3.59
  -3   0   1   13.72    5.00
  -3   0   1   19.70    3.38
   3  -1  -1   29.34   10.50
  -3   1  -1   33.48    7.23
   3  -1   1   33.53    7.65
  -3   1   1   29.55    7.28
  -3   2  -1    0.43    0.38
   3  -2   1    0.21    2.12
   4   3  -1    1.50    2.83
  -4  -3   1    1.52    1.78
  -4  -2  -1   28.10   11.57
   4   2  -1   35.21    9.45
   4   2  -1   39.80   12.62
   4   2  -1   40.47   10.11
   4   2   1   43.33   10.17
   4   2   1   42.10   12.57
  -4  -2   1   40.00    9.84
  -4  -2   1   52.19   11.16
  -4  -1  -1    4.94    2.14
   4   1  -1    5.80    1.44
   4   1  -1    4.53    1.41
   4   1  -1    4.46    1.28
   4   1  -1    4.33    2.90
  -4  -1   1    4.98    1.39
   4   1   1    3.71    2.99
   4   1   1    6.23    1.56
  -4  -1   1    6.56    2.15
   4   0  -1    0.19    0.53
   4   0  -1    0.17    2.35
   4   0  -1    0.06    0.43
  -4   0  -1    0.79    1.80
   4   0  -1    0.34    0.61
  -4   0   1    0.13    0.37
   4   0   1   -0.13    0.65
  -4   0   1   -0.53    1.84
   4  -1  -1    3.28    2.83
   4  -1  -1    5.34    1.39
  -4   1   1    5.93    1.27
   4  -1   1    4.05    1.39
  -4   2  -1   23.40    7.41
   4  -2   1   36.64    7.76
   4  -2   1   27.94   11.68
   5   3  -1   76.98   17.08
  -5  -3   1   58.60   19.35
   5   2  -1   38.06    8.30
   5   2  -1   28.30   11.03
   5   2  -1   35.93    8.64
   5   2  -1   27.55    8.06
  -5  -2  -1   39.93    9.62
  -5  -2   1   29.63    9.39
   5   2   1   33.75    8.49
  -5  -2   1   40.64    8.42
  -5  -1  -1  133.72   34.45
   5   1  -1  138.26   29.97
   5   1  -1  119.09   32.16
  -5  -1  -1  100.54   31.43
   5   1  -1   98.78   37.88
   5   1  -1  135.29   30.06
   5   1   1  134.56   33.09
  -5  -1   1  125.56   37.67
   5   1   1  137.40   39.18
  -5  -1   1  128.01   34.35
  -5  -1   1  116.81   31.94
   5   0  -1    4.90    1.21
   5   0  -1    4.18    3.33
   5   0  -1    4.87    1.46
  -5   0  -1    3.49    2.27
  -5   0  -1    3.81    1.26
  -5   0  -1    3.95    2.76
   5   0  -1    5.06    1.45
   5   0   1    4.76    1.48
   5   0   1    4.82    1.33
  -5   0   1    2.01    2.94
   5   0   1    5.58    1.17
  -5   0   1    4.27    1.19
   5  -1  -1  127.01   30.28
   5  -1  -1   93.50   39.44
   5  -1  -1  147.33   30.54
   5  -1   1  129.10   30.40
   5  -2  -1   -0.06    5.15
   5  -2   1   31.41    5.27
   6   4  -1   -2.34    5.25
  -6  -4   1   -1.25    3.12
   6   3  -1   -0.61    5.06
   6   3  -1    0.63    1.33
  -6  -3  -1    1.91    3.38
   6   3   1    1.55    2.26
   6   3   1   -0.21    5.03
  -6  -3   1    0.47    1.22
   6   2  -1  156.57   44.29
   6   2  -1  132.32   41.47
  -6  -2  -1  173.44   46.92
  -6  -2   1  189.98   43.59
   6   2   1  174.18   54.10
   6   2   1  176.47   44.90
   6   2   1  204.68   41.93
   6   1  -1   10.91    3.35
   6   1  -1   12.70    3.72
  -6  -1  -1   13.34    3.59
  -6  -1   1   10.75    4.99
   6   1   1   16.50    3.37
   6   1   1    7.72    6.60
  -6  -1   1   17.29    3.63
   6   1   1   16.70    3.68
  -6   0  -1   -0.17    2.63
  -6   0  -1   -0.05    0.60
   6   0  -1   -0.16    0.66
   6   0  -1    0.57    1.09
   6   0   1   -0.17    0.77
   6   0   1   -0.14    0.42
   6   0   1    0.64    4.87
  -6   0   1   -0.06    3.54
   6  -1  -1    7.78    5.89
   6  -1  -1   11.06    3.08
  -6   1   1   13.98    2.81
   6  -1   1    8.06    2.84
  -6   2  -1  174.84   39.47
   6  -2  -1  127.76   54.75
  -6   2   1  195.12   39.73
   6  -2   1  182.48   40.93
  -6   3  -1    1.07    1.00
   6  -3   1    0.82    1.25
   6  -3   1    0.51    5.46
   7   5  -1   -2.02    6.53
  -7  -4  -1   19.94    9.87
   7   4  -1   16.45   11.59
   7   4  -1   36.56    8.17
  -7  -4   1   29.11    9.80
   7   4   1   37.13   11.13
   7   3  -1    1.90    2.21
   7   3  -1    0.06    1.56
   7   3  -1   -4.32    6.35
  -7  -3  -1   -0.44    3.65
  -7  -3   1    3.49    3.54
   7   3   1    0.46    2.57
   7   3   1    2.49    6.11
  -7  -3   1    1.91    1.33
   7   2  -1   39.72   11.36
  -7  -2  -1   45.78   12.23
   7   2  -1   46.89   10.63
   7   2  -1   36.12   10.61
   7   2  -1   52.94   14.66
  -7  -2   1   40.96   11.27
   7   2   1   52.37   10.78
  -7  -2   1   41.77   12.24
   7   2   1   42.16   11.58
   7   2   1   44.48   14.95
  -7  -1  -1    6.98    3.66
  -7  -1  -1    5.83    4.32
   7   1  -1    9.53    2.58
   7   1  -1    8.68    6.23
  -7  -1  -1    7.75    2.42
   7   1  -1    7.63    2.18
   7   1  -1    9.81    2.69
   7   1   1    8.61    2.20
   7   1   1    9.19    2.47
  -7  -1   1    7.35    4.58
  -7  -1   1   12.30    2.48
   7   1   1    8.63    2.69
   7   1   1    8.05    6.67
  -7  -1   1    5.00    4.26
  -7   0  -1    2.99    4.10
   7   0  -1    2.40    1.56
   7   0  -1    1.47    1.36
  -7   0  -1    2.38    0.93
   7   0  -1    2.28    5.39
  -7   0  -1    2.32    3.37
   7   0  -1    2.45    0.89
   7   0   1    0.84    1.56
   7   0   1   -0.21    5.78
   7   0   1    4.37    1.11
  -7   0   1    2.34    0.99
  -7   0   1   -2.28    4.54
  -7   0   1    1.84    4.18
   7   0   1    1.16    0.70
   7  -1  -1    7.88    2.33
   7  -1  -1    7.78    5.90
   7  -1  -1    7.67    2.54
   7  -1   1    7.83    2.54
  -7   1   1   11.77    2.24
   7  -1   1    7.15    2.08
   7  -2  -1   23.90   14.35
   7  -2  -1   39.71    9.86
  -7   2   1   45.90    9.58
   7  -2   1   37.87   10.05
   7  -2   1   49.44    9.94
   7  -3  -1    0.62    1.51
  -7   3  -1    0.48    1.17
   7  -3   1   -2.11    6.27
   7  -3   1    1.88    1.51
  -7   4  -1   30.95    7.86
   7  -4   1   35.51    7.98
   8   5  -1   39.44    8.35
   8   5  -1   10.10   12.98
   8   4  -1   11.29    3.86
   8   4  -1    8.40    2.99
   8   4  -1   -1.13    7.97
  -8  -4  -1    9.77    5.26
  -8  -4   1    8.96    5.15
   8   4   1    2.76    7.76
   8   4   1   15.18    4.02
   8   3  -1   78.21   18.43
  -8  -3  -1  100.24   20.89
   8   3   1   67.39   19.67
   8   3   1   54.35   18.65
  -8  -3   1   89.61   20.47
   8   3   1   74.91   24.48
   8   2  -1    4.77    2.19
   8   2  -1  -17.65    8.60
  -8  -2  -1    5.43    4.56
   8   2  -1    7.15    1.69
   8   2  -1    5.26    2.70
  -8  -2   1    5.19    4.56
   8   2   1   -5.59    8.44
  -8  -2   1    5.10    2.15
   8   2   1    6.40    2.09
  -8  -2   1    3.94    4.81
   8   2   1    9.84    2.89
   8   1  -1    1.23    0.78
  -8  -1  -1    1.02    4.27
  -8  -1  -1   -0.92    3.17
   8   1  -1    2.74    7.02
  -8  -1  -1    0.68    1.06
   8   1  -1    1.42    1.90
   8   1  -1    1.30    1.40
   8   1   1    1.06    0.71
  -8  -1   1    1.26    1.21
   8   1   1    1.51    2.07
   8   1   1    1.32    7.48
  -8  -1   1   -0.29    4.70
  -8  -1   1    0.88    3.98
   8   1   1    1.41    1.16
  -8   0  -1    0.83    3.85
   8   0  -1   -0.05    1.47
   8   0  -1   -1.86    6.29
   8   0  -1   -0.10    1.82
   8   0  -1    0.04    0.75
  -8   0  -1    0.07    0.90
  -8   0  -1   -0.86    1.02
  -8   0  -1   -0.16    4.88
   8   0   1    1.95    6.86
   8   0   1    0.19    1.80
   8   0   1    0.27    1.10
  -8   0   1   -1.32    4.85
  -8   0   1   -0.38    1.07
  -8   0   1   -2.00    5.25
   8   0   1    0.32    0.58
   8  -1  -1    0.35    1.13
   8  -1  -1    0.97    1.81
  -8   1  -1    4.59    5.56
   8  -1  -1    4.99    5.90
  -8   1   1    0.74    1.17
   8  -1   1    0.81    0.62
   8  -1   1    0.98    1.79
   8  -2  -1    8.07    2.60
   8  -2  -1    2.04    7.22
   8  -2  -1    9.73    2.68
  -8   2   1    8.34    2.37
   8  -2   1    9.15    2.31
   8  -2   1    8.69    2.71
  -8   3  -1   70.08   14.74
   8  -3  -1   55.04   22.25
  -8   3   1   62.54   14.83
   8  -3   1   56.89   15.07
  -8   4  -1    6.55    2.37
   8  -4   1   12.75    8.33
   8  -4   1    6.74    2.60
   9   5  -1    8.58    4.56
   9   5  -1    1.96    9.47
   9   5  -1   12.16    3.36
   9   5   1    5.43    8.79
  -9  -5   1    5.59    5.88
   9   4  -1   32.33   32.39
   9   4  -1  102.20   24.88
  -9  -4  -1   89.41   27.55
   9   4  -1  123.31   23.52
   9   4   1   34.42   31.55
   9   4   1  106.56   23.73
  -9  -4   1  120.73   27.06
  -9  -3  -1   -2.25    4.64
   9   3  -1   -2.06    8.97
   9   3  -1    2.14    2.85
   9   3   1   -0.73    1.78
  -9  -3   1    4.21    4.77
   9   3   1    0.90    3.16
   9   3   1   -0.50    8.82
   9   2  -1    3.28   14.68
   9   2  -1   36.30   10.20
   9   2  -1   44.85    9.38
   9   2  -1   37.85    9.39
  -9  -2  -1   49.49   11.33
  -9  -2   1   35.23   10.26
  -9  -2   1   49.03   11.47
   9   2   1   38.49   15.22
  -9  -2   1   44.33   12.62
   9   2   1   29.28    9.45
  -9  -1  -1   -1.57    3.90
   9   1  -1   -2.09    7.92
   9   1  -1   -0.66    0.82
   9   1  -1    0.37    1.51
  -9  -1  -1   -0.53    1.20
   9   1  -1   -1.75    2.20
  -9  -1  -1   -2.71    5.01
   9   1   1    0.28    1.27
   9   1   1   -0.47    0.79
   9   1   1  -12.19    8.63
  -9  -1   1   -1.37    5.39
   9   1   1    1.85    2.42
  -9  -1   1   -2.63    4.64
  -9  -1   1    0.66    1.39
  -9   0  -1    1.15    1.10
   9   0  -1    0.11    0.85
  -9   0  -1   -1.00    1.29
  -9   0  -1    1.63    4.38
  -9   0  -1   -4.27    5.87
   9   0  -1   -0.44    2.02
   9   0  -1   -0.91    7.21
   9   0  -1    1.36    1.66
  -9   0   1    0.05    1.28
  -9   0   1    3.46    6.32
  -9   0   1    0.35    5.20
  -9   0   1    0.90    1.40
   9   0   1    1.28    2.17
   9   0   1    3.67    7.98
   9  -1  -1    0.22    2.11
   9  -1  -1  -12.32    6.99
  -9   1  -1   -0.83    1.29
   9  -1  -1    0.23    1.08
  -9   1  -1    0.84    6.82
   9  -1   1   -2.78    2.18
  -9   1   1    1.56    1.33
   9  -1   1   -1.08    7.37
   9  -2  -1   38.80    8.80
   9  -2  -1   15.61   13.28
   9  -2  -1   31.82    8.86
  -9   2   1   36.59    8.50
   9  -2   1   44.12    8.89
   9  -3  -1    0.18    8.13
   9  -3  -1    0.11    1.98
  -9   3  -1   -0.15    1.51
  -9   3   1    0.47    1.56
   9  -3   1    1.48    2.07
   9  -4  -1   94.85   22.81
  -9   4  -1  113.13   22.74
   9  -4   1   99.63   22.87
   9  -4   1   70.67   32.01
  10   6  -1    0.18   10.07
  10   5  -1   16.11    5.91
  10   5  -1   12.09    4.82
 -10  -5  -1   17.63    7.80
  10   5  -1    2.61   11.94
 -10  -5   1   22.48    7.75
  10   5   1    2.43   11.33
  10   5   1   25.45    6.04
  10   4  -1    5.75   10.93
 -10  -4  -1   -1.56    5.73
  10   4  -1    9.63    4.08
  10   4  -1    3.92    2.51
  10   4   1   -3.05   10.77
 -10  -4   1    0.20    5.85
  10   4   1    1.63    4.16
  10   3  -1    8.23   23.29
  10   3  -1   78.40   15.19
 -10  -3  -1   98.84   17.97
  10   3   1   64.74   15.38
 -10  -3   1   63.99   17.74
  10   3   1    2.26   23.47
  10   2  -1   -0.31    2.92
  10   2  -1   -0.17   10.15
 -10  -2  -1   -4.49    5.54
 -10  -2   1   -0.56    5.49
  10   2   1    1.51    3.06
  10   2   1    3.85   10.38
  10   1  -1    0.93    2.58
 -10  -1  -1   -1.18    5.85
  10   1  -1   -4.21    9.33
 -10  -1   1    2.34    1.66
 -10  -1   1    3.36    6.33
  10   1   1   18.04   10.13
  10   1   1    5.42    2.94
 -10   0  -1   -0.39    1.55
  10   0  -1    0.13    2.51
 -10   0  -1   -0.43    6.61
  10   0  -1   -0.15    8.36
  10   0   1    0.16    8.89
 -10   0   1   -2.41    7.12
  10   0   1   -0.79    2.64
 -10   0   1   -0.78    1.55
 -10   1  -1    1.76    1.66
  10  -1  -1    1.45    7.81
  10  -1  -1    3.05    2.39
 -10   1  -1   13.10    7.74
  10  -1   1    0.31    8.64
 -10   1   1    2.62    1.66
 -10   1   1   -6.88    8.12
  10  -1   1    2.46    2.38
  10  -2  -1    1.13    2.27
  10  -2  -1  -15.16    8.22
  10  -2   1    0.51    2.40
 -10   2   1    0.77    1.62
  10  -3  -1   65.92   15.00
  10  -3  -1   49.35   22.27
 -10   3   1   61.13   14.85
  10  -3   1   61.79   15.12
 -10   4  -1    5.00    2.04
  10  -4  -1    2.71    2.51
  10  -4   1    4.03    9.54
  10  -4   1    2.84    2.49
 -10   5  -1   15.16    4.36
  10  -5   1   18.34    4.67
  11   6  -1    0.21   11.73
 -11  -5  -1    5.76    7.07
  11   5  -1    0.84   12.88
  11   5  -1    4.67    5.11
  11   5   1    1.75    5.16
  11   5   1    9.11   12.14
 -11  -5   1    5.38    7.11
 -11  -4  -1   41.53   12.09
  11   4  -1    2.70   16.89
  11   4  -1   37.51    9.75
  11   4   1   48.67   17.19
  11   4   1   32.30    9.92
 -11  -4   1   38.25   11.60
  11   3  -1   -0.20   12.12
 -11  -3  -1    1.06    6.25
  11   3  -1   -0.20    3.82
  11   3   1   -0.43    3.82
  11   3   1   -3.84   12.20
 -11  -3   1    4.10    6.20
  11   2  -1    0.37   10.93
 -11  -2  -1    4.88    6.40
  11   2  -1    2.46    3.22
  11   2   1    1.51    3.61
 -11  -2   1    0.21    6.70
  11   2   1  -13.42   12.31
 -11  -1  -1    5.60    7.14
  11   1  -1    6.70    3.38
  11   1  -1   -0.87   10.37
 -11  -1   1    4.83    2.12
 -11  -1   1   10.62    7.80
  11   1   1    5.03   11.43
  11   1   1    2.21    3.31
  11   0  -1    3.01    2.87
  11   0  -1    9.11    9.80
 -11   0  -1    3.65    7.87
 -11   0  -1    0.59    1.87
 -11   0   1    0.25    8.13
  11   0   1    0.94    3.06
  11   0   1    2.53   10.61
 -11   0   1    3.54    1.93
 -11   1  -1    4.96    2.16
  11  -1  -1    5.09    2.96
 -11   1  -1   10.72    9.07
  11  -1  -1    0.16    9.16
  11  -1   1    2.43    9.63
  11  -1   1    6.56    3.09
 -11   1   1    1.40    2.03
 -11   1   1    2.75    9.37
  11  -2  -1    3.97    2.80
  11  -2  -1    0.36    9.38
 -11   2  -1    0.59    9.92
 -11   2   1    6.35    2.13
  11  -2   1    0.17    9.48
  11  -2   1   -1.17    2.93
  11  -3  -1    0.41   10.06
  11  -3  -1    3.26    2.80
 -11   3   1    2.09    2.17
  11  -3   1    1.90    2.91
  11  -4  -1   13.24   14.93
 -11   4  -1   41.59    8.07
  11  -4  -1   34.68    8.21
  11  -4   1   28.96    8.23
 -11   4   1   29.34    8.02
 -11   5  -1   -0.66    2.25
  11  -5   1    2.04    2.95
  12   6  -1  -23.35   14.34
  12   6   1   49.19   13.39
 -12  -6   1   -2.71    7.64
  12   5  -1   17.64   15.26
 -12  -5  -1    6.48    8.92
  12   5  -1   19.11    6.65
  12   5   1   13.83   14.96
  12   5   1   17.15    6.81
 -12  -5   1   10.36    8.62
  12   4  -1    3.26   14.32
  12   4  -1   -0.52    4.73
 -12  -4  -1    1.81    7.38
  12   4   1   -3.36   14.61
  12   4   1   -4.04    4.62
 -12  -4   1   -2.41    7.03
  12   3  -1   13.18   14.50
 -12  -3  -1   13.51    8.02
  12   3  -1   11.36    5.38
  12   3   1   23.97   15.03
 -12  -3   1   19.37    8.09
  12   3   1   11.14    5.74
  12   2  -1    0.59    4.11
 -12  -2  -1    0.24    7.47
 -12  -2   1   -2.90    7.78
  12   2   1   -7.39    4.55
 -12  -1  -1    3.32    2.39
 -12  -1  -1   -0.51    8.65
  12   1  -1    0.36    3.87
 -12  -1   1    2.43    2.16
 -12  -1   1   -1.79    9.20
  12   1   1    6.87    4.22
 -12   0  -1   -8.52   10.60
 -12   0  -1    6.17    2.94
  12   0  -1    2.34    3.69
 -12   0   1   12.00    9.82
  12   0   1    7.31    4.30
 -12   0   1    6.02    2.62
  12  -1  -1   17.83   10.74
 -12   1  -1  -12.61   10.47
  12  -1  -1    2.59    3.45
  12  -1   1    6.60    3.77
 -12   1   1   -7.04   10.96
 -12   2  -1  -20.87   11.54
  12  -2  -1    4.74    3.25
  12  -2  -1   -0.20   10.62
 -12   2  -1    2.43    2.14
 -12   2   1    0.19    2.20
  12  -2   1    0.48    3.34
  12  -3  -1   11.31    4.44
  12  -3  -1    0.22   12.23
 -12   3   1   16.30    3.95
  12  -3   1   14.27    4.62
  12  -4  -1   -1.44   11.63
  12  -4  -1   -2.44    3.19
 -12   4   1   -2.73    2.46
  12  -4   1   -3.08    3.39
 -12   5  -1   20.92    4.72
  12  -5   1   12.76    5.02
  13   5  -1    3.78    5.71
 -13  -5   1   -3.00    8.77
  13   4  -1    9.97    7.59
 -13  -4  -1   10.30   10.75
  13   4   1   12.40    7.80
 -13  -4   1   35.81   10.74
  13   3  -1  -21.63   15.83
 -13  -3  -1   -2.66    8.24
  13   3  -1   -5.46    4.87
  13   3   1    1.84    5.08
 -13  -3   1    5.70    8.39
  13   2  -1    5.61   14.33
  13   2  -1   -0.66    4.30
 -13  -2  -1   -0.27    8.48
 -13  -2   1    2.45    8.61
  13   2   1    0.24    4.46
 -13  -2   1   -1.27    2.48
  13   1  -1   -0.60    4.25
 -13  -1  -1  -10.35    9.55
 -13  -1  -1    7.77    2.75
  13   1  -1    0.87   13.16
  13   1   1    2.98    4.51
 -13  -1   1   16.13    9.86
 -13  -1   1    2.62    2.80
  13   0  -1    3.51    4.06
 -13   0  -1   -3.09   10.62
 -13   0  -1    5.45    2.65
  13   0  -1   -0.20   12.14
  13   0   1    1.64    4.35
 -13   0   1    0.63   10.64
 -13   0   1    5.90    2.58
 -13   1  -1   -2.00   11.79
  13  -1  -1    3.32    4.34
  13  -1  -1   45.08   12.00
  13  -1   1    6.10    4.48
 -13   1   1    1.70   11.86
  13  -2  -1   -0.36    3.65
 -13   2  -1    6.84   12.42
 -13   2   1   13.17   13.10
  13  -2   1   -1.46    3.88
 -13   5  -1    1.31    2.90
  13  -5   1   -0.18    2.54
  14   7  -1  -17.75   17.65
 -14  -6  -1   -6.71    9.69
  14   6  -1   -7.69    7.06
  14   6  -1   -7.79   17.85
  14   6   1    5.22   17.38
 -14  -6   1   -2.51   10.22
  14   5  -1   12.25   19.43
 -14  -5  -1   -5.62   10.71
  14   5  -1   34.01    7.44
  14   5   1   -0.74    7.72
  14   5   1   -4.46   18.95
 -14  -5   1   28.99   10.35
 -14  -4  -1   -6.97    9.73
  14   4  -1  -18.76   18.08
  14   4   1   -3.57    6.13
  14   4   1  -44.07   18.44
  14   3  -1   11.00   17.32
  14   3   1  -31.07   18.50
 -14  -2  -1    0.21    2.54
 -14  -2   1   -0.21    2.62
  14   2   1    4.41   16.72
 -14  -1  -1    0.21    2.82
  14   1   1    0.26   15.73
 -14   0  -1    1.53    2.64
  14   0  -1   -0.23   12.88
 -14   0   1   -1.50    2.73
  14   0   1  -10.14   14.67
 -14   1  -1   -2.70    2.84
  14  -1  -1  -22.57   12.81
 -14   1   1    0.67    2.67
  14  -1   1    0.47   13.40
  14  -1   1   24.29    4.34
  14  -2  -1   19.01    4.23
 -14   2  -1    4.36   13.75
  14  -2  -1   12.38   13.83
 -14   2  -1   -0.47    3.36
  14  -2   1    3.29   12.81
  14  -2   1    2.68    4.53
  14  -3  -1  -14.74   14.13
 -14   3  -1   -2.10   14.60
  14  -3  -1   11.74    4.10
 -14   3  -1    3.26    3.01
  14  -3   1    0.99    4.09
  14  -3   1  -31.64   14.43
 -14   3   1    0.76    2.99
  14  -4  -1    2.02    4.11
 -14   4   1    0.27    2.79
  14  -4   1    4.98    3.97
 -14   5  -1   12.30    4.22
  14  -5   1   11.18    4.82
  15   7  -1  -10.01   19.69
  15   6  -1   -9.89   20.42
 -15  -6  -1    5.69   10.78
  15   6  -1   -8.36    7.84
 -15  -6   1   17.99   10.99
  15   6   1   13.23   19.91
 -15  -5  -1    5.41   10.68
  15   5  -1    0.75    6.68
  15   5  -1  -16.38   20.39
  15   5   1    4.01    7.35
 -15  -5   1    8.33   10.66
  15   5   1  -18.46   20.45
  15   4  -1    2.36    6.16
  15   4  -1   23.15   19.76
 -15  -4  -1   -0.70   10.41
 -15  -4   1   -2.65   10.20
  15   4   1    3.93    6.75
  15   4   1   -9.77   19.37
  15   3  -1    6.28    6.32
  15   3  -1   12.54   19.10
 -15  -3  -1    1.67   10.17
 -15  -3   1    2.06    3.13
  15   3   1    5.43   19.57
 -15  -3   1   -1.96   10.32
  15   3   1    7.10    6.47
  15   2  -1   10.62   18.91
  15   2  -1    0.29    5.85
 -15  -2  -1    4.80   10.55
 -15  -2  -1    4.30    3.24
 -15  -2   1   -5.11   11.18
  15   2   1   18.52   19.36
  15   2   1    4.61    6.23
 -15  -2   1    4.01    3.04
 -15  -1  -1    0.37   11.81
  15   1  -1  -32.99   17.06
 -15  -1  -1   -0.25    3.22
  15   1  -1    4.18    5.50
 -15  -1   1  -10.51   12.07
 -15  -1   1    0.24    2.95
  15   1   1   -3.32    5.72
  15   1   1   13.85   17.76
  15   0  -1    1.79   15.37
 -15   0  -1    8.47   12.84
 -15   0  -1    1.73    3.26
  15   0  -1   -2.01    5.00
 -15   0   1   -5.43   12.96
  15   0   1   -6.39   17.02
  15   0   1    7.99    4.89
 -15   0   1    0.49    3.06
 -15   1  -1   -2.28    3.23
  15  -1  -1    0.25   14.15
 -15   1  -1   -4.11   14.30
  15  -1  -1    3.94    4.76
  15  -1   1    0.26   15.43
 -15   1   1    0.25    3.06
 -15   1   1    3.72   14.00
  15  -1   1   -2.17    5.13
 -15   2  -1    8.00    3.39
  15  -2  -1   -0.28   15.08
  15  -2  -1    9.13    4.79
 -15   2  -1  -12.65   14.94
 -15   2   1   -0.44   15.45
  15  -2   1    1.61   15.32
 -15   2   1    2.39    3.20
  15  -2   1    3.38    4.76
  15  -3  -1   -2.42    4.20
 -15   3  -1    2.50    3.25
  15  -3  -1   11.24   14.94
 -15   3  -1   -9.16   16.02
 -15   3   1   20.88   17.04
 -15   3   1    0.28    3.20
  15  -3   1   21.01    5.09
  15  -3   1  -10.11   15.45
 -15   4  -1   35.38   17.10
  15  -4  -1    1.77    4.48
  15  -4  -1    8.68   15.23
  15  -4   1   -6.24    4.70
 -15   4   1    1.79    3.52
  15  -5  -1   11.26    4.41
  15  -5   1  -11.03    4.47
  16   7  -1   -3.80   22.09
 -16  -6  -1  -15.10   12.65
  16   6  -1   -6.82    8.68
 -16  -6   1  -19.68   13.16
  16   6   1  -12.85   22.86
 -16  -5  -1   -2.98   12.03
  16   5  -1    0.41    7.41
  16   5  -1  -13.30   22.47
 -16  -5   1   -4.81   12.61
  16   5   1  -12.33   22.81
  16   5   1   10.09    8.46
  16   4  -1   -3.79   22.33
  16   4  -1    4.60    7.23
 -16  -4  -1   -8.63   11.48
  16   4   1   -3.15    7.53
 -16  -4   1   -1.89   11.28
  16   4   1   -7.41   21.26
 -16  -3  -1    9.50   11.44
 -16  -3  -1    4.20    3.49
  16   3  -1   -8.09   20.63
  16   3  -1    3.14    6.92
 -16  -3   1    4.39   11.78
  16   3   1   -0.74    7.10
 -16  -3   1    0.77    3.51
  16   3   1  -26.29   20.92
 -16  -2  -1   -0.38   12.19
  16   2  -1   -1.88   18.89
 -16  -2  -1   -0.27    3.24
  16   2  -1    5.10    6.17
 -16  -2   1   -5.04    3.67
  16   2   1   -3.75    6.87
  16   2   1   38.57   20.99
 -16  -2   1  -21.65   12.54
 -16  -1  -1   -0.27    3.66
 -16  -1  -1   -0.41   12.61
  16   1  -1    7.95    6.19
  16   1  -1   -6.38   17.46
  16   1   1    4.28    6.20
  16   1   1   14.78   18.63
 -16  -1   1    0.41   13.28
 -16  -1   1    8.57    3.80
  16   0  -1   -4.51   16.14
 -16   0  -1   14.18   13.94
 -16   0  -1   -4.73    3.48
  16   0  -1    6.88    5.83
  16   0   1   16.46   17.50
  16   0   1    2.35    5.95
 -16   0   1    5.19    3.37
 -16   0   1   10.72   14.01
  16  -1  -1    5.59    5.59
  16  -1  -1   -1.12   15.48
 -16   1  -1    0.45   15.24
 -16   1  -1    3.45    3.88
  16  -1   1   -0.29   17.15
 -16   1   1    4.80    3.38
 -16   1   1    3.65   15.54
  16  -1   1    0.26    5.02
 -16   2  -1   -4.78    3.92
  16  -2  -1    0.31   16.90
  16  -2  -1  -14.92    5.21
 -16   2  -1   13.86   16.29
  16  -2   1   -5.91    5.20
 -16   2   1   -0.48   16.97
  16  -2   1  -18.65   16.59
 -16   2   1   -4.74    3.49
  16  -3  -1   11.71   16.69
 -16   3  -1    3.41    3.62
 -16   3  -1    2.00   17.75
  16  -3  -1    0.25    5.09
 -16   3   1    0.31    3.50
  16  -3   1   15.04   17.41
 -16   3   1   -5.06   18.39
  16  -3   1    0.50    5.29
 -16   4  -1   12.51   18.20
  16  -4  -1   10.15    5.08
  16  -4  -1  -21.17   16.93
 -16   4   1  -15.31   19.03
  16  -4   1    0.24    4.69
 -16   4   1   -2.29    3.86
  16  -4   1   -5.92   16.11
  16  -5  -1    0.25    5.06
  16  -5   1    7.01    4.90
  17   7  -1  -17.02   24.35
  17   6  -1   -4.46    9.13
 -17  -6  -1    3.41   13.22
  17   6  -1   12.17   24.90
 -17  -6   1   15.02   12.92
  17   6   1   21.96   24.40
 -17  -5  -1   -0.94   12.85
  17   5  -1    4.07    8.44
  17   5  -1   -3.78   23.89
  17   5   1  -11.08    8.86
  17   5   1  -13.83   24.99
 -17  -5   1  -17.72   13.68
  17   4  -1   21.89   24.16
  17   4  -1    2.96    8.19
 -17  -4  -1   -7.45   12.96
  17   4   1   12.97   25.31
  17   4   1    4.34    8.41
 -17  -4   1   14.77   12.86
 -17  -4   1    0.28    3.71
  17   3  -1  -14.09   23.29
  17   3  -1    2.71    7.75
 -17  -3  -1  -11.19    4.08
 -17  -3  -1   11.08   12.90
 -17  -3   1   -1.76    3.99
 -17  -3   1    2.45   12.60
  17   3   1   -8.59    7.80
  17   3   1  -35.89   23.51
 -17  -2  -1  -17.67    4.56
  17   2  -1  -20.46    8.05
 -17  -2  -1  -11.14   13.30
 -17  -2   1   -7.40    4.25
 -17  -2   1   -7.21   14.69
 -17  -1   1   10.85   15.63
  17   0  -1   46.17   10.00
 -17   0  -1    6.28    8.57
 -17   0  -1   72.89   19.19
  17   0   1   30.05    9.83
 -17   0   1    8.56   18.84
 -17   0   1    2.76    8.53
  17  -1  -1    0.29    6.10
 -17   1  -1  -16.04   17.46
 -17   1  -1   -9.35    4.72
 -17   1   1    5.01   18.22
 -17   1   1   -0.32    4.10
  17  -1   1    3.37    6.56
  17  -2  -1  -39.04   19.55
 -17   2  -1   14.72   18.32
  17  -2  -1   -3.12    5.95
 -17   2  -1    2.01    4.29
  17  -2   1  -30.31   20.31
  17  -2   1   -7.66    6.42
 -17   2   1   -7.92    4.25
 -17   2   1   -8.43   19.34
  17  -3  -1    6.12    5.80
 -17   3  -1    0.35    3.90
  17  -3  -1  -24.07   19.35
 -17   3  -1   23.54   18.95
  17  -3   1    0.27    5.75
  17  -3   1  -14.25   19.40
 -17   3   1    3.82    3.84
 -17   3   1   15.43   20.19
  17  -4  -1    5.63    5.49
  17  -4  -1   -7.12   18.25
 -17   4  -1    1.09    4.30
 -17   4  -1    9.08   20.37
 -17   4   1    0.57   20.64
  17  -4   1    0.27    5.53
 -17   4   1    2.53    4.16
  17  -4   1    6.52   18.45
 -17   5  -1  -11.18   21.32
  17  -5   1    0.27    5.51
  18   7  -1   20.05   26.28
  18   6  -1   52.03   37.73
 -18  -6  -1   89.09   29.05
 -18  -6   1  100.58   28.88
  18   6   1  154.95   39.63
  18   5  -1  -25.57   26.66
  18   5  -1   16.88    9.48
 -18  -5  -1   -4.71   15.04
  18   5   1    1.59    9.25
 -18  -5   1    3.05    4.19
  18   5   1  -19.63   26.59
 -18  -5   1    9.35   14.79
  18   4  -1    1.87    8.74
  18   4  -1   -7.59   25.38
 -18  -4  -1    0.32    4.11
 -18  -4  -1   -8.81   15.01
  18   4   1  -11.84   25.98
 -18  -4   1   -4.41    4.32
 -18  -4   1  -23.54   14.62
  18   4   1  -24.30    9.23
 -18  -3  -1    8.54    4.27
  18   3  -1    1.17   24.19
 -18  -3  -1   -4.78   14.72
  18   3  -1   -2.57    8.38
  18   3   1   16.65   26.15
 -18  -3   1    0.65    4.62
  18   3   1   10.89    8.88
 -18  -3   1   -0.91   14.21
 -18  -2  -1   -0.34    4.43
  18   2  -1    7.40    8.19
 -18  -2  -1    2.89   15.11
  18   2  -1   -3.41   22.90
  18   2   1    6.44    8.56
 -18  -2   1   -6.13   14.82
  18   2   1  -14.99   25.07
 -18  -2   1    0.33    4.45
 -18  -1  -1   18.06   16.62
  18   1  -1   -1.57    7.97
  18   1  -1    9.23   21.35
 -18  -1  -1    2.07    4.72
  18   1   1    6.05   22.94
  18   1   1    6.71    7.73
 -18  -1   1    7.44    4.08
 -18  -1   1   -4.98   16.35
  18   0  -1    0.35    6.49
 -18   0  -1  -13.85   17.80
 -18   0  -1   -4.23    4.49
  18   0  -1  -13.63   20.46
  18   0   1    7.36   21.79
  18   0   1   -0.38    7.71
 -18   0   1    0.69    4.54
 -18   0   1  -13.65   17.80
  18  -1  -1    8.00   20.79
 -18   1  -1    2.17    4.71
  18  -1  -1  -19.57    6.91
 -18   1  -1  -13.84   18.27
 -18   1   1    4.67    4.57
  18  -1   1   -5.02    7.50
  18  -1   1    3.63   20.50
 -18   1   1    0.55   19.00
  18  -2  -1   -4.55    6.83
  18  -2  -1   -9.46   20.87
 -18   2  -1    0.38    4.60
 -18   2  -1   14.97   19.57
  18  -2   1  -13.46    6.66
  18  -2   1    3.89   22.20
 -18   2   1   -1.12    4.37
 -18   2   1    2.31   19.57
 -18   3  -1   -6.57   20.77
  18  -3  -1  -13.61    6.12
  18  -3  -1    1.15   20.14
 -18   3  -1    1.17    3.94
  18  -3   1   13.86   21.46
  18  -3   1  -14.31    6.29
 -18   3   1    3.86    4.14
 -18   3   1  -13.24   21.63
  18  -4  -1  -14.46    6.19
 -18   4  -1   -9.29   21.10
 -18   4  -1   -2.02    5.21
  18  -4  -1  -19.94   20.11
  18  -4   1  -32.78   21.55
  18  -4   1    2.44    6.36
 -18   4   1  -18.75   22.54
 -18   4   1    0.40    4.23
 -18   5  -1   17.92   23.50
  18  -5   1   -4.56    6.15
  19   7  -1  -50.13   31.05
  19   6  -1   35.54   28.49
  19   6  -1    1.77   10.76
 -19  -6  -1   13.03   16.60
 -19  -6   1   -8.55    4.56
 -19  -6   1    2.27   16.17
  19   6   1   11.01   29.68
 -19  -5  -1   -8.92    4.72
  19   5  -1  -12.44   10.69
  19   5  -1  -37.45   28.38
 -19  -5  -1  -13.39   17.10
  19   5   1    4.66   10.09
  19   5   1  -33.88   28.90
 -19  -5   1   -0.34    4.67
 -19  -5   1   11.72   17.02
  19   4  -1  -14.96   10.08
 -19  -4  -1    0.57   16.51
 -19  -4  -1    1.07    4.56
  19   4  -1    9.89   26.50
 -19  -4   1   -3.16   16.38
 -19  -4   1   -1.07    4.70
  19   4   1  -15.33   10.03
  19   4   1  -44.58   29.69
 -19  -3  -1   -4.09    5.12
  19   3  -1   -8.34    9.80
 -19  -3  -1  -20.88   16.97
 -19  -3   1   -5.44    4.85
  19   3   1  -36.21   10.22
 -19  -3   1   -9.33   16.82
  19   1   1  505.81  103.31
 -19   0  -1  261.32   74.75
  19   0   1  325.43   64.08
 -19   0   1  269.00   74.68
 -19   2  -1  -20.20    5.68
 -19   2  -1  -29.08   23.45
 -19   2   1  -15.41    5.95
  19  -2   1  -82.41   29.75
 -19   2   1  -20.20   24.05
  19  -3  -1  -24.47    7.67
 -19   3  -1  -12.62    5.24
 -19   3  -1   -1.31   23.14
 -19   3   1  -18.35   23.22
  19  -3   1    0.36    7.46
 -19   3   1   -9.46    5.04
 -19   4  -1   -6.07   24.04
  19  -4  -1    0.34    6.59
 -19   4  -1  -13.46    5.42
  19  -4   1   -0.35    7.07
  19  -4   1    0.44   23.59
 -19   4   1  -18.40   24.27
 -19   4   1   12.38    5.15
 -19   5  -1   16.04   26.04
 -19   5  -1   -0.46    4.67
  19  -5   1    0.34    6.96
  20   6  -1    4.53   11.77
 -20  -6   1  -15.69   18.18
  20   5  -1   10.73   29.54
  20   5  -1   -5.60   11.21
 -20  -5  -1   -2.59   19.05
 -20  -5   1    2.68    4.79
 -20  -5   1    6.21   18.44
  20   5   1  -27.54   24.18
  20   5   1   14.79   11.38
  20   4  -1   -9.71   28.56
  20   4  -1   11.40   10.62
 -20  -4  -1    0.80    5.52
 -20  -4  -1   15.82   18.84
 -20  -4   1  -15.30   18.16
  20   4   1    3.63   11.01
  20   4   1   39.64   31.67
 -20  -4   1   -0.39    5.16
 -20  -3  -1    2.88    5.47
  20   3  -1  -11.72   28.30
  20   3  -1   -7.61   10.06
 -20  -3  -1   -0.62   19.01
 -20  -3   1   10.51    5.63
  20   3   1  -75.11   30.98
 -20  -3   1   -8.68   18.51
  20   3   1   -0.58   10.56
  20   2  -1   53.60   28.25
  20   2  -1   -8.81   10.23
 -20  -2  -1    1.80   19.30
 -20  -2  -1   -3.38    5.60
  20   2   1    3.29   29.06
  20   2   1    0.53    9.79
 -20  -2   1    0.42    4.92
 -20  -2   1    1.17   18.94
  20   1  -1   18.87   26.77
 -20  -1  -1    3.48    5.83
 -20  -1  -1  -18.58   20.65
  20   1  -1  -23.61   10.15
 -20  -1   1   10.99   20.59
  20   1   1   26.76   28.37
 -20  -1   1    0.43    5.35
  20   1   1   14.72   10.32
 -20   0  -1   14.76    6.36
  20   0  -1   25.10   26.01
 -20   0  -1    5.82   21.86
  20   0  -1    0.45    9.54
  20   0   1   14.14   27.02
  20   0   1    9.59    9.93
 -20   0   1  -18.02   22.10
 -20   0   1   10.62    6.57
 -20   1  -1    0.68   22.33
  20  -1  -1    6.91    8.55
  20  -1  -1   17.79   26.82
 -20   1  -1    4.16    6.08
  20  -1   1   -6.66   28.60
 -20   1   1    5.87    5.55
  20  -1   1    0.46    9.05
 -20   1   1    6.67   22.84
 -20   2  -1   -0.70   24.22
  20  -2  -1    2.87    8.14
  20  -2  -1   25.03   26.11
  20  -2   1   -0.43    8.96
  20  -2   1   13.69   28.35
 -20   2   1   -0.47    5.38
 -20   2   1  -18.69   24.87
 -20   3  -1  -27.18   25.71
  20  -3  -1   -9.08    7.93
  20  -3   1  -20.20    8.34
 -20   3   1   -0.48    4.34
 -20   3   1   28.00   25.68
   0   1  -2   -0.02    0.07
   0   1  -2   -0.06    0.09
   1   0  -2   -0.03    0.12
   1   0  -2    0.02    0.11
   0   1  -2   -0.03    0.10
   0  -1   2   -0.01    0.02
   0  -1   2   -0.02    0.07
  -1   0   2    0.07    0.15
  -1   0   2    0.03    0.33
   1   1  -2   -0.12    0.17
   2   1  -2    6.20    1.47
   2   1  -2    6.14    1.53
   2   1  -2    3.90    2.03
  -2  -1  -2    5.24    1.98
   2   1  -2    6.05    1.40
  -2  -1   2    6.93    1.79
   2   1   2    6.36    1.64
  -2  -1   2    4.71    1.50
  -2   0  -2   50.47   14.73
   2   0  -2   57.89   12.84
   2   0  -2   56.47   13.03
   2   0  -2   59.36   13.74
   2   0  -2   37.71   17.40
   2   0   2   61.19   12.88
   2   0   2   50.58   16.12
  -2   0   2   41.12   16.73
  -2   1  -2    5.39    1.32
   2  -1   2    4.44    2.22
   2  -1   2    6.26    1.44
  -2   2  -2    7.20    1.82
   2   2  -2    9.50    1.90
  -2  -2   2    5.92    2.01
   3   2  -2   51.25   13.74
   3   2  -2   58.96   12.68
   3   2  -2   60.05   13.72
   3   2  -2   53.88   17.49
  -3  -2   2   40.10   15.54
   3   1  -2    1.56    0.63
   3   1  -2    0.12    1.73
   3   1  -2    1.28    0.47
   3   1  -2    2.03    0.58
  -3  -1  -2    2.29    1.23
  -3  -1   2    1.57    1.23
   3   1   2    0.44    0.82
  -3   0  -2    0.21    1.05
   3   0  -2   -0.19    0.47
   3   0  -2    0.06    0.39
   3   0  -2    0.04    1.63
   3   0  -2    0.09    0.50
   3   0   2   -0.30    0.53
  -3   0   2   -0.04    1.58
  -3   0   2   -0.24    0.29
   3   0   2    0.05    1.68
   3  -1  -2    2.32    1.94
  -3   1  -2    1.77    0.49
   3  -1   2    1.29    1.95
   3  -1   2    1.35    0.62
  -3   1   2    1.77    0.53
  -3   2  -2   53.94   11.83
   3  -2   2   45.17   17.43
  -3  -3   2    0.12    0.70
   4   3  -2   43.57   14.31
   4   3  -2   62.08   13.28
   4   3  -2   54.73   18.30
  -4  -3   2   39.37   16.32
  -4  -3   2   68.99   13.96
   4   2  -2   24.34    4.89
   4   2  -2   21.80    6.59
   4   2  -2   19.27    4.99
   4   2  -2   16.07    4.58
  -4  -2  -2   17.36    6.11
  -4  -2   2   14.38    4.87
  -4  -2   2   22.29    5.63
   4   2   2   22.21    5.19
   4   2   2   16.30    6.52
   4   1  -2    1.01    2.50
   4   1  -2    0.48    0.66
   4   1  -2    0.57    0.68
  -4  -1  -2   -0.15    1.64
   4   1  -2    0.56    0.41
  -4  -1   2    0.71    1.70
   4   1   2    0.29    0.96
  -4  -1   2    0.47    0.56
  -4  -1   2    0.59    1.67
  -4   0  -2    2.69    1.90
   4   0  -2    3.65    1.08
   4   0  -2    3.21    0.95
   4   0  -2    0.80    2.62
   4   0  -2    3.59    0.98
   4   0   2    2.40    1.05
  -4   0   2    2.66    2.41
  -4   0   2    2.96    0.84
   4  -1  -2    1.44    2.77
  -4   1  -2    0.29    0.41
   4  -1  -2    0.28    0.63
   4  -1   2   -0.06    2.63
  -4   1   2    0.42    0.49
   4  -1   2    0.52    0.69
  -4   2  -2   20.74    4.55
   4  -2   2   18.60    4.77
   4  -2   2   19.40    6.70
  -4   3  -2   55.87   12.96
   5   3  -2   15.36    6.76
   5   3  -2   18.12    4.59
   5   3  -2   14.35    4.33
   5   3  -2   17.10    3.97
  -5  -3   2   14.61    5.41
  -5  -3   2   16.47    4.27
   5   2  -2   80.30   19.75
   5   2  -2   74.65   18.51
   5   2  -2   76.61   23.63
   5   2  -2   89.28   18.93
  -5  -2   2   75.74   21.14
  -5  -2   2   84.64   19.52
  -5  -1  -2    5.55    2.75
   5   1  -2    4.94    3.94
   5   1  -2    4.17    1.64
   5   1  -2    5.37    1.43
   5   1  -2    7.07    1.70
   5   1   2    5.59    1.81
  -5  -1   2    5.67    2.88
  -5  -1   2    4.98    2.90
  -5  -1   2    5.76    1.61
   5   0  -2   -0.37    0.67
   5   0  -2   -0.07    3.31
  -5   0  -2    0.90    2.38
   5   0  -2   -0.17    0.93
   5   0  -2   -0.93    0.91
  -5   0   2    0.35    2.88
   5   0   2   -0.12    0.98
  -5   0   2   -0.29    0.58
   5  -1  -2    6.25    2.03
   5  -1  -2    9.17    4.01
   5  -1  -2    5.64    1.82
  -5   1   2    9.88    1.67
   5  -1   2   -0.08    3.22
   5  -1   2    7.34    1.84
   5  -2   2   -0.06    9.93
   6   4  -2    1.16    5.53
   6   4  -2    6.02    2.70
  -6  -4   2    8.76    3.40
  -6  -3  -2   67.49   27.92
   6   3  -2   97.84   22.40
   6   3  -2  123.03   30.19
   6   3  -2   78.38   24.02
   6   3   2   88.26   29.20
   6   2  -2    5.98    2.11
   6   2  -2    5.20    1.71
  -6  -2  -2    7.75    3.49
  -6  -2   2    6.91    2.03
   6   2   2    3.15    5.50
   6   2   2   10.93    2.58
   6   1  -2    8.05    2.28
  -6  -1  -2   -0.11    3.37
   6   1  -2    6.37    1.90
   6   1   2   -0.09    2.37
  -6  -1   2    6.18    3.94
   6   1   2   10.41    2.18
  -6  -1   2   11.83    2.16
   6   1   2   10.51    5.80
   6   0  -2    5.73    1.48
   6   0  -2    4.30    1.85
  -6   0   2    5.39    4.41
   6  -1  -2    5.14    2.22
  -6   1  -2   11.29    1.86
   6  -1  -2    6.65    5.05
   6  -1   2   -0.07    2.07
  -6   1   2    8.95    1.87
   6  -2  -2    2.44    5.80
  -6   2  -2    7.33    1.82
   6  -2  -2    6.27    2.06
   6  -2   2    6.94    2.15
  -6   2   2    7.80    1.86
   6  -2   2    3.80    5.26
  -6   3  -2   98.81   22.23
   6  -3   2   93.96   22.77
  -6   4  -2    1.44    1.19
   7   5  -2   -5.36    6.77
  -7  -4  -2   -2.37    4.00
   7   4  -2   -0.08    1.50
   7   4  -2   -7.01    6.55
   7   4  -2   -1.14    2.72
  -7  -4   2   -4.85    4.11
   7   4   2    5.30    5.54
   7   3  -2   18.57    5.49
  -7  -3  -2   22.56    7.08
   7   3  -2   34.07    9.27
   7   3   2   16.42    5.81
   7   3   2   15.10    8.71
  -7  -3   2   17.73    6.70
  -7  -2  -2    4.13    3.52
   7   2  -2    1.67    1.80
   7   2  -2    2.35    2.17
   7   2  -2    4.08    1.17
   7   2  -2   -1.59    6.74
  -7  -2   2    9.54    4.13
   7   2   2    4.40    1.57
   7   2   2    3.60    6.19
  -7  -2   2    2.75    1.63
   7   2   2    1.95    2.35
  -7  -1  -2   -1.75    3.62
   7   1  -2   -0.12    0.74
   7   1  -2    0.34    1.25
   7   1  -2    0.33    1.47
   7   1  -2   -1.48    5.48
   7   1   2    0.03    0.88
   7   1   2    3.06    6.29
  -7  -1   2   -0.13    3.95
   7   1   2   -0.30    1.73
  -7  -1   2    0.76    1.10
  -7  -1   2   -0.29    3.69
  -7   0  -2    0.14    2.46
   7   0  -2   -2.16    5.24
   7   0  -2    0.26    0.87
   7   0  -2    0.55    1.38
  -7   0  -2    0.53    3.89
   7   0  -2   -0.73    1.39
  -7   0  -2   -0.31    0.54
   7   0   2   -0.17    1.64
   7   0   2   -0.07    0.36
  -7   0   2    0.58    0.99
  -7   0   2   -0.95    4.57
   7   0   2   -0.49    0.71
   7  -1  -2    0.08    1.40
   7  -1  -2   -4.79    5.16
   7  -1  -2   -1.28    1.35
  -7   1  -2   -4.62    4.84
   7  -1   2    0.01    0.32
  -7   1   2    0.19    1.01
   7  -1   2   -0.68    1.55
   7  -2  -2    4.01    1.83
  -7   2  -2    4.82    1.46
   7  -2  -2    4.02    6.20
  -7   2   2    4.76    1.61
   7  -2   2   -0.32    5.48
   7  -2   2    3.62    1.91
   7  -2   2    5.52    1.50
  -7   3  -2   25.54    4.58
   7  -3  -2   15.00    4.69
   7  -3   2   14.13    4.75
   7  -3   2   20.07    8.90
  -7   3   2   18.77    4.60
  -7   4  -2    0.27    1.29
   7  -4   2   -0.90    1.54
   7  -4   2   -3.31    6.89
   8   5  -2   39.28    6.68
   8   5  -2    1.28   11.03
  -8  -5   2   13.13    8.49
   8   4  -2   89.83   18.03
  -8  -4  -2   56.75   21.34
   8   4  -2   64.92   18.48
   8   4  -2   20.47   24.23
   8   4   2   79.97   22.89
  -8  -4   2   92.00   20.53
   8   4   2   76.39   18.45
  -8  -3  -2   -4.18    5.16
   8   3  -2   -2.42    3.28
   8   3   2    1.92    3.43
  -8  -3   2  -13.14    5.59
   8   2  -2    5.16    1.43
   8   2  -2    2.80    2.23
  -8  -2  -2    5.54    4.32
   8   2  -2   -0.56    2.70
  -8  -2   2    9.81    2.00
   8   2   2   -3.73    8.58
   8   2   2    3.42    1.80
   8   2   2    7.11    2.82
  -8  -2   2   -8.03    5.62
  -8  -2   2   -1.88    5.40
  -8  -1  -2    0.36    2.76
   8   1  -2  -16.48    7.19
   8   1  -2    0.04    0.85
   8   1  -2    0.72    1.55
   8   1  -2   -2.13    1.94
  -8  -1  -2   -2.63    4.46
   8   1   2    0.78    1.02
   8   1   2   -3.57    7.38
  -8  -1   2   -1.65    4.53
   8   1   2   -1.40    2.07
  -8  -1   2   -0.31    1.20
  -8  -1   2   -1.78    4.94
  -8   0  -2    3.77    5.07
   8   0  -2    7.07    6.43
   8   0  -2    5.69    2.18
   8   0  -2    6.18    1.58
   8   0  -2    6.28    2.23
  -8   0  -2    4.71    1.59
  -8   0  -2    5.49    3.59
  -8   0   2    2.89    5.63
   8   0   2    5.79    1.74
  -8   0   2    4.85    1.68
  -8   0   2    3.56    5.56
   8   0   2    2.43    2.28
   8   0   2    6.58    1.44
   8  -1  -2    1.43    1.91
  -8   1  -2   -0.05    0.57
   8  -1  -2    0.72    1.33
  -8   1  -2   -0.36    5.45
   8  -1  -2   -0.23    5.99
   8  -1   2   -0.97    1.80
   8  -1   2    0.05    0.40
  -8   1   2   -0.76    1.14
   8  -2  -2   -0.73    7.69
   8  -2  -2    6.01    2.17
  -8   2  -2    4.29    1.79
   8  -2  -2    7.42    2.49
  -8   2   2    6.06    1.92
   8  -2   2   -0.24    7.22
   8  -2   2    7.64    2.42
   8  -2   2    6.31    1.62
   8  -3  -2    5.15    2.16
  -8   3  -2    7.56    1.71
   8  -3  -2   -2.68    8.05
   8  -3   2    3.55    2.03
  -8   3   2    4.60    1.71
   8  -3   2   -3.05    7.82
  -8   4  -2   69.30   16.49
   8  -4   2   59.30   23.57
   8  -4   2   76.73   16.66
   9   6  -2   17.40    4.54
   9   6  -2    1.78    9.84
   9   5  -2   27.59    5.66
   9   5  -2   27.36    6.44
   9   5  -2    2.42   11.19
  -9  -5   2    8.33    7.84
   9   5   2    5.12   10.39
   9   4  -2    1.32    3.31
  -9  -4  -2    0.22    5.44
   9   4  -2    1.24    2.29
   9   4  -2    1.12    9.04
   9   4   2    2.66    8.57
  -9  -4   2    3.90    4.98
   9   4   2    0.23    3.90
   9   3  -2   21.98   20.03
  -9  -3  -2   78.16   16.27
   9   3  -2   57.19   14.09
   9   3  -2   57.60   14.05
   9   3   2   52.04   14.39
  -9  -3   2   67.83   16.02
   9   3   2   48.06   15.40
   9   3   2   78.15   20.10
   9   2  -2   -0.71    8.33
  -9  -2  -2    1.66    4.68
   9   2  -2    2.44    2.40
   9   2   2    2.08    2.79
  -9  -2   2    4.18    4.94
   9   2   2    0.16    8.77
   9   1  -2    0.84    1.62
   9   1  -2    4.90    7.66
  -9  -1  -2    1.85    3.36
  -9  -1  -2   -0.85    5.06
   9   1  -2    0.55    0.94
   9   1  -2    3.90    2.15
  -9  -1   2    1.15    1.30
   9   1   2    0.79    8.85
  -9  -1   2    2.93    5.48
   9   1   2   -1.33    2.33
  -9  -1   2    0.14    1.41
  -9  -1   2   -0.88    5.26
   9   0  -2   -0.33    2.06
   9   0  -2    0.77    1.77
   9   0  -2   -0.22    0.97
   9   0  -2   -0.76    7.24
  -9   0  -2    1.47    5.54
  -9   0   2   -0.59    6.32
   9   0   2    0.15    8.46
  -9   0   2    0.45    1.28
  -9   0   2   -0.79    5.73
   9   0   2   -0.61    2.41
   9  -1  -2   -9.04    6.83
   9  -1  -2    1.02    1.30
   9  -1  -2    1.98    2.20
  -9   1  -2    4.94    6.66
  -9   1   2    2.59    1.32
   9  -1   2    1.14    2.21
   9  -2  -2   -2.68    7.79
   9  -2  -2    2.44    1.93
  -9   2  -2   -0.90    1.45
   9  -2  -2    1.12    2.11
   9  -2   2   -0.46    2.20
  -9   2   2    0.28    1.49
   9  -3  -2   48.66   12.02
   9  -3  -2   50.56   18.49
  -9   3  -2   53.44   11.78
   9  -3   2   52.88   12.15
   9  -3   2   31.91   17.48
  -9   3   2   50.90   11.95
  -9   4  -2    1.99    1.91
   9  -4   2   -0.18    8.79
   9  -4   2    2.38    2.22
  -9   5  -2   20.13    5.77
   9  -5   2   26.68    5.95
  10   6  -2    0.92   10.36
  10   6  -2   -1.56    2.84
  10   5  -2   20.57    4.86
  10   5  -2    1.66   11.67
 -10  -5  -2   14.27    7.46
  10   5  -2   14.25    5.62
 -10  -5   2   15.22    7.37
  10   5   2   -0.37   10.68
  10   4  -2   48.81   10.15
  10   4  -2   37.61   10.37
  10   4  -2    1.99   16.23
 -10  -4  -2   39.37   12.27
 -10  -4   2   44.38   11.96
  10   4   2   30.17   10.30
  10   4   2   48.59   15.85
  10   3  -2    4.22    1.75
 -10  -3  -2    2.57    5.55
  10   3  -2    4.96    2.58
  10   3  -2    5.26    3.45
  10   3  -2   -1.21   10.80
  10   3   2    6.75    3.78
 -10  -3   2    8.08    5.64
 -10  -3   2    7.60    5.64
  10   3   2    5.31   10.47
 -10  -3   2    4.14    2.48
  10   2  -2    3.07    2.83
 -10  -2  -2    3.96    5.52
  10   2  -2   -5.38    9.84
  10   2   2    7.01    3.41
  10   2   2    4.67   10.73
 -10  -2   2    1.11    5.79
 -10  -1  -2    8.59    6.18
  10   1  -2   -0.27    2.61
  10   1  -2   -1.78    8.62
  10   1   2   -0.15    2.88
 -10  -1   2    2.19    6.35
  10   1   2    6.74    9.57
 -10  -1   2    0.61    1.44
 -10  -1   2   -0.64    5.84
  10   0  -2    1.88    7.99
 -10   0  -2    2.73    1.62
 -10   0  -2    0.21    6.70
  10   0  -2    1.99    2.44
  10   0   2    1.80    2.45
  10   0   2   15.74    9.46
 -10   0   2    1.54    1.55
 -10   0   2    1.78    7.41
  10  -1  -2    3.22    7.83
  10  -1  -2    1.12    2.30
 -10   1  -2   -1.40    7.44
 -10   1   2   -0.98    1.62
  10  -1   2    1.06    2.52
  10  -2  -2    4.20    2.67
  10  -2  -2    3.27    8.75
 -10   2   2    4.72    2.08
  10  -2   2    3.29    2.62
  10  -3  -2    6.02    2.80
  10  -3  -2    5.80    9.26
 -10   3  -2    7.80    2.21
 -10   3   2    4.59    2.34
  10  -3   2    4.75    2.64
  10  -3   2   -0.17    8.84
 -10   4  -2   42.53    8.47
  10  -4  -2   31.20    8.63
 -10   4   2   30.59    8.52
  10  -4   2   10.14   14.84
  10  -4   2   43.54    8.69
 -10   5  -2   19.63    4.50
  10  -5   2   14.83    4.70
  11   6  -2   -2.48   12.56
 -11  -6   2   11.25    7.07
  11   5  -2   32.17    7.72
  11   5  -2   -0.21   15.12
 -11  -5  -2   20.26    9.91
 -11  -5   2   22.17    9.40
  11   5   2   28.92    7.98
  11   5   2   26.16   13.63
  11   4  -2    0.82   12.37
  11   4  -2    2.01    3.95
 -11  -4  -2   -0.25    6.87
 -11  -4   2   -0.64    6.28
  11   4   2   -1.30    4.78
  11   4   2    0.22   11.87
  11   3  -2   -2.73   12.19
  11   3  -2    6.88    4.32
 -11  -3  -2   10.77    6.74
  11   3   2   14.19   12.66
 -11  -3   2   15.43    6.58
  11   3   2    5.63    4.70
 -11  -2  -2    8.54    6.32
  11   2  -2   -3.64   11.03
  11   2  -2    1.76    3.32
  11   2   2  -13.47   12.42
 -11  -2   2    2.34    6.64
  11   2   2    0.40    3.93
  11   1  -2    2.56    3.02
  11   1  -2    0.51    9.91
 -11  -1  -2   -0.22    6.88
  11   1   2    0.17    3.42
 -11  -1   2   -2.27    7.38
 -11  -1   2    2.53    1.75
  11   1   2    0.20   11.62
  11   0  -2   -1.88    2.92
 -11   0  -2   -1.05    1.88
  11   0  -2   -3.94    9.41
 -11   0  -2   -3.84    7.82
  11   0   2  -23.16   10.77
  11   0   2    3.11    3.13
 -11   0   2   -0.73    1.69
 -11   0   2  -14.06    8.52
  11  -1  -2    4.14    3.00
  11  -1  -2   -5.21    8.91
 -11   1  -2   20.37    8.91
 -11   1   2   -5.29    9.70
  11  -1   2    4.59    3.11
 -11   1   2    2.86    1.92
  11  -2  -2    2.60    2.94
 -11   2  -2    0.87    9.73
  11  -2  -2  -18.97    9.93
  11  -2   2    0.58    2.88
 -11   2   2    2.80    1.88
 -11   3  -2   10.50    2.98
  11  -3  -2    0.21   10.22
  11  -3  -2    6.77    3.41
  11  -3   2    8.80    3.68
 -11   3   2   10.47    3.11
 -11   4  -2    0.20    2.03
  11  -4  -2    1.31    2.71
  11  -4   2  -12.03   10.80
  11  -4   2    1.18    2.88
 -11   4   2    0.63    2.00
 -11   5  -2   18.18    5.26
  11  -5   2   20.05    5.62
  12   7  -2    8.21   13.94
  12   6  -2    2.54   14.29
 -12  -6   2   -4.41    7.66
  12   5  -2   -3.92   15.07
 -12  -5  -2    1.53    8.44
  12   5  -2    4.82    5.56
  12   5   2   10.00   13.73
  12   5   2    4.85    6.26
 -12  -5   2    8.28    8.03
  12   4  -2    5.43    4.74
 -12  -4  -2    8.76    8.11
  12   4  -2   15.74   14.25
 -12  -4   2    5.66    7.64
  12   4   2    1.69   14.36
  12   4   2    5.39    5.37
  12   3  -2   -2.38   13.39
 -12  -3  -2   -5.40    7.60
  12   3  -2   -3.51    4.40
 -12  -3   2    0.69    7.17
  12   3   2    0.48   14.21
  12   3   2    2.24    4.68
  12   2  -2   -5.12    3.89
 -12  -2  -2   -1.21    7.37
  12   2  -2  -38.12   13.33
 -12  -2   2    1.26    2.04
  12   2   2   -5.17    4.39
 -12  -2   2   -1.69    7.64
  12   1  -2    2.33    3.67
 -12  -1  -2   -8.44    8.81
  12   1  -2   -6.76   11.57
  12   1   2  -31.40   14.67
 -12  -1   2    0.49    2.02
 -12  -1   2   -1.29    8.82
  12   1   2   -2.84    4.61
 -12   0  -2  -17.72   10.50
 -12   0  -2    3.08    2.50
  12   0  -2    5.39    3.64
  12   0   2   11.45    4.41
 -12   0   2   11.25    9.71
 -12   0   2    3.51    2.46
 -12   1  -2  -32.89   11.19
 -12   1  -2   -1.41    2.25
  12  -1  -2    7.04   10.23
  12  -1  -2   -2.45    3.32
  12  -1   2  -22.07   13.30
 -12   1   2    0.53    2.26
  12  -1   2   -2.24    3.94
 -12   1   2   14.54   11.20
  12  -2  -2    0.64    3.10
  12  -2  -2  -19.95   11.22
 -12   2  -2    2.26   11.28
  12  -2   2    0.33    3.27
 -12   2   2   -2.13    2.16
  12  -3  -2   -1.78    3.23
  12  -3  -2   13.07   11.48
 -12   3  -2   -0.20    2.20
 -12   3   2    3.20    2.27
  12  -3   2    0.96    3.27
  12  -4  -2    1.45    3.11
 -12   4  -2    5.50    2.49
  12  -4   2    1.82    3.33
 -12   4   2    0.46    2.63
  12  -4   2   24.69   12.54
  13   6  -2    5.93    6.15
  13   6   2   -5.75   15.07
 -13  -6   2    0.64    8.49
  13   4  -2    5.72    5.29
  13   4  -2    4.05   15.92
 -13  -4   2    1.58    8.25
  13   3  -2    2.45    5.04
  13   3  -2   -0.71   15.04
 -13  -3  -2    0.82    8.38
  13   3   2   -2.75    5.20
 -13  -3   2    9.51    8.03
  13   2  -2    6.80    4.39
 -13  -2  -2    0.82    8.46
  13   2  -2   -5.29   14.10
 -13  -2   2  -19.31    8.85
 -13  -2   2    2.16    2.37
  13   2   2   -4.76    4.59
  13   1  -2    0.85   12.83
 -13  -1  -2   17.34    9.64
  13   1  -2    5.18    4.13
 -13  -1  -2   -0.19    2.45
  13   1   2    4.97    4.72
 -13  -1   2    6.36    9.68
 -13  -1   2    3.87    2.59
  13   0  -2   -7.59   11.82
 -13   0  -2   -3.37   10.04
  13   0   2    1.02    4.31
 -13   0   2    0.31   10.68
 -13   1  -2   -6.95   11.57
  13  -1  -2   15.62   11.11
  13  -1  -2    2.87    3.69
 -13   1   2   -2.74   12.23
  13  -1   2    3.23    4.07
 -13   1   2    0.60    2.61
  13  -2  -2    2.35    3.82
 -13   2  -2    1.43   12.16
  13  -2  -2   -0.23   11.30
 -13   2   2   -0.22    1.89
 -13   2   2   -0.37   13.03
  13  -2   2    1.50    3.77
 -13   5  -2    5.74    3.40
  13  -5   2   -2.96   13.59
  13  -5   2   -0.18    3.37
  14   7  -2   -4.78   17.42
  14   6  -2    9.15   18.39
  14   6  -2   11.38    7.28
  14   6   2   12.67   17.12
 -14  -6   2   -0.70   10.21
 -14  -5  -2    3.59   10.20
  14   5  -2  -15.63   18.61
  14   5   2    4.74   17.73
  14   5   2  -12.37    6.69
 -14  -4  -2   -4.85    9.70
  14   4  -2  -31.41   18.50
  14   4   2   -1.98    6.11
  14   4   2    8.75   18.21
 -14  -3  -2   -0.31    9.09
  14   3   2    3.96    5.94
  14   3   2  -19.53   17.58
 -14  -2  -2   71.27   13.00
  14   2   2   12.97   20.10
  14   2   2   32.05   10.03
 -14  -1  -2   -1.52    2.75
  14   1   2    0.27   16.18
  14   1   2   -0.25    4.65
  14   0   2   23.32    6.09
  14   0   2    0.26   16.40
 -14   1  -2    1.35    2.97
 -14   1  -2   58.34   12.37
  14  -1  -2   -6.68   12.83
  14  -1   2   10.32    4.30
 -14   1   2   -4.70    2.83
  14  -1   2    0.24   14.01
  14  -2  -2    1.74   13.83
 -14   2  -2  -14.97   13.82
  14  -2  -2   23.27    4.76
  14  -2   2    0.21    5.06
  14  -2   2   36.92   14.57
 -14   2   2    6.22    3.99
  14  -3  -2   -0.99    4.04
 -14   3  -2    3.33   14.26
  14  -3  -2   -0.79   13.34
 -14   3   2    0.26    2.87
  14  -3   2    1.84    4.01
 -14   4  -2    6.95    3.23
  14  -4  -2    8.01    4.00
 -14   4   2    3.29    2.96
  14  -4   2    0.39    4.01
 -14   5  -2   -1.71    3.34
  14  -5   2   15.34    4.37
  14  -5   2    1.45   15.31
  15   7  -2   13.08   20.04
  15   6  -2   20.31   19.64
  15   6  -2    1.65    7.80
 -15  -6  -2    9.51   10.55
 -15  -6   2   -3.07   10.66
  15   6   2   -1.60   19.69
 -15  -5  -2    0.79   10.95
  15   5  -2  -11.47    6.81
  15   5  -2   12.08   19.57
 -15  -5   2   -1.42   10.36
  15   5   2   19.73   19.86
  15   5   2    9.80    7.28
  15   4  -2    1.99    6.34
 -15  -4  -2  -14.71   10.62
  15   4  -2   -9.68   19.25
 -15  -4   2    6.18   10.10
  15   4   2    0.33   20.21
  15   4   2    0.36    6.60
  15   3  -2  -15.53   17.78
  15   3  -2    5.15    5.98
 -15  -3  -2  -10.99   10.64
  15   3   2    0.67    6.44
 -15  -3   2  -18.66   10.60
  15   3   2   12.23   19.78
 -15  -3   2    0.23    2.81
 -15  -2  -2    1.03   10.77
 -15  -2  -2    2.40    2.99
  15   2  -2   15.75   17.30
  15   2  -2    6.59    6.09
  15   2   2    0.31   18.86
 -15  -2   2   -1.86    3.09
 -15  -2   2    3.39   11.06
  15   2   2    8.37    5.92
  15   1  -2    1.04    5.18
 -15  -1  -2    2.72    3.32
  15   1  -2  -12.54   15.85
 -15  -1  -2   -5.47   11.54
  15   1   2   11.19   18.36
 -15  -1   2  -10.85   12.06
  15   1   2   -2.95    5.70
 -15  -1   2    4.23    3.14
 -15   0  -2  -13.87   12.75
  15   0  -2  -16.27   14.79
 -15   0  -2   -1.50    3.28
  15   0  -2    6.40    4.75
 -15   0   2    9.69   13.06
 -15   0   2   -6.50    3.13
  15   0   2  -18.14   17.30
  15   0   2    4.54    5.64
  15  -1  -2    3.55   14.43
 -15   1  -2    1.53    3.36
 -15   1  -2  -14.32   14.09
  15  -1  -2    2.80    4.96
  15  -1   2   -4.33    5.17
  15  -1   2    0.27   15.53
 -15   1   2   -0.42   14.98
 -15   1   2   -3.30    2.99
  15  -2  -2   10.14   15.21
  15  -2  -2   -3.79    4.50
 -15   2  -2   -1.06    3.10
 -15   2  -2   29.89   14.85
 -15   2   2  -10.62    3.23
 -15   2   2    0.44   15.79
  15  -2   2    0.27   15.36
  15  -2   2    0.23    4.72
 -15   3  -2   10.48   15.59
  15  -3  -2    2.29   14.61
  15  -3  -2    5.35    4.58
 -15   3   2    0.28    3.33
 -15   3   2  -22.86   15.99
  15  -3   2   -0.22    4.46
 -15   4  -2  -12.84   16.92
  15  -4  -2   12.65   14.83
  15  -4  -2   13.94    4.65
 -15   4   2    2.99    3.38
  15  -4   2   -6.84    4.39
 -15   5  -2    5.01    3.40
  15  -5   2    0.22    4.45
  15  -5   2  -16.03   15.49
  16   7  -2   -9.25   22.11
  16   6  -2  -51.95   22.86
  16   6  -2   -1.34    8.85
 -16  -6  -2   -0.45   12.41
  16   6   2  -59.05   23.48
 -16  -6   2  -12.99   13.41
 -16  -5  -2  -12.15   12.97
  16   5  -2   -6.49    8.07
  16   5   2   -2.68    8.40
  16   5   2  -35.58   24.01
 -16  -5   2    2.35   12.20
  16   4  -2    0.33   20.56
  16   4  -2  -12.09    6.81
 -16  -4  -2   -9.05   12.24
 -16  -4   2    9.72    3.32
  16   4   2    4.54    7.59
 -16  -4   2   -1.81   11.54
  16   4   2   -3.28   22.17
  16   3  -2   -0.34    6.82
  16   3  -2   40.41   20.55
 -16  -3  -2   -1.54   11.77
  16   3   2    2.52   22.22
 -16  -3   2    2.80    3.50
 -16  -3   2   -3.62   11.61
  16   3   2   -0.37    6.87
  16   2  -2   18.32   18.05
  16   2  -2    1.27    6.35
 -16  -2  -2    1.92   11.40
 -16  -2  -2    2.70    3.46
  16   2   2    1.70   20.83
  16   2   2    3.44    6.97
 -16  -2   2    5.29   12.35
 -16  -2   2    0.26    3.19
  16   1  -2   10.09    6.03
 -16  -1  -2    0.28    3.40
 -16  -1  -2    7.71   13.06
  16   1  -2   -1.97   17.50
  16   1   2    6.83    6.64
 -16  -1   2   -8.43    3.64
  16   1   2   -0.33   19.84
 -16  -1   2    4.43   13.18
 -16   0  -2   -7.29   14.22
 -16   0  -2    0.28    3.54
  16   0  -2   10.51    5.85
  16   0  -2    4.68   15.99
  16   0   2   13.78   18.42
 -16   0   2    5.19    3.49
  16   0   2    0.29    5.53
 -16   0   2   -3.00   15.05
 -16   1  -2  -27.19   15.48
 -16   1  -2    2.59    3.43
  16  -1  -2    0.25    4.90
  16  -1  -2   -3.98   16.10
  16  -1   2    0.28    5.46
 -16   1   2   -3.13    3.60
  16  -1   2    2.38   17.47
 -16   1   2    0.46   15.27
  16  -2  -2    2.51    5.03
 -16   2  -2   13.33   16.27
  16  -2  -2    5.76   16.33
 -16   2  -2    2.11    3.97
  16  -2   2    6.74    5.67
 -16   2   2    1.45   16.45
  16  -2   2    8.27   16.49
 -16   2   2    6.19    3.79
 -16   3  -2   -5.49   17.32
  16  -3  -2   -1.88   16.08
  16  -3  -2    0.25    5.16
 -16   3   2    1.53   17.80
 -16   3   2   -6.58    3.75
  16  -3   2   -4.00    5.03
 -16   4  -2   -6.73   18.33
  16  -4  -2    2.91    4.85
 -16   4   2    0.98    3.57
  16  -4   2    0.25    4.87
 -16   5  -2   -8.26    4.08
 -16   5  -2  -19.33   19.42
  16  -5   2  -24.30   17.55
  16  -5   2   -4.45    5.14
  17   7  -2   10.10   24.35
  17   6  -2    0.49    8.46
 -17  -6  -2    7.44   12.60
  17   6  -2   -3.01   24.72
  17   6   2   19.98   24.34
 -17  -6   2    0.92   13.06
  17   5  -2  -10.24    8.50
 -17  -5  -2   -8.65   13.51
  17   5  -2  -13.35   23.34
  17   5   2    1.47    8.82
 -17  -5   2   12.58   13.01
  17   5   2   -4.35   24.22
 -17  -5   2    7.91    3.91
  17   4  -2    6.69   22.51
  17   4  -2   -0.81    7.74
 -17  -4  -2    4.59   13.81
 -17  -4   2   -1.40    3.78
  17   4   2    0.45    8.39
 -17  -4   2    3.63   12.63
  17   4   2  -24.48   24.88
 -17  -3  -2   13.80   13.38
  17   3  -2  -22.94   21.88
  17   3  -2   -4.21    7.52
 -17  -3  -2    0.29    3.80
  17   3   2    4.28   24.55
  17   3   2    0.41    7.45
 -17  -3   2   -2.60    3.96
 -17  -3   2   10.88   12.72
  17   2  -2   -7.71    7.68
 -17  -2  -2    4.34   13.65
 -17  -2  -2   -3.98    4.03
 -17  -2   2   -1.16    4.02
  17   2   2  -37.17    8.31
 -17  -2   2  -15.54   14.22
 -17  -1  -2  -17.41    4.29
 -17  -1  -2  -30.29   15.57
  17   1  -2   42.71   21.06
  17   1  -2   -9.08    6.95
 -17  -1   2   -9.01   15.80
  17   1   2    0.36    7.51
 -17  -1   2    2.38    3.86
  17   0  -2   13.32    6.69
 -17   0  -2   -4.33   16.04
 -17   0   2  -20.33   16.78
  17   0   2    3.77    7.70
 -17   1  -2  -16.00   16.55
  17  -1  -2   -0.29    6.14
  17  -1  -2   52.97   19.69
 -17   1  -2    8.15    4.32
  17  -1   2    9.98   20.59
 -17   1   2    0.32    4.35
 -17   1   2   -7.53   18.11
  17  -1   2    2.45    6.46
  17  -2  -2   -1.15    5.80
 -17   2  -2  -28.83   18.35
 -17   2  -2    1.35    4.15
  17  -2  -2  -48.82   19.79
  17  -2   2  -18.18    6.01
 -17   2   2  -11.09   19.45
 -17   2   2  -13.59    4.45
  17  -2   2  -42.75   19.66
 -17   3  -2   20.15   18.53
  17  -3  -2  -35.70   19.09
  17  -3  -2  -10.60    5.43
 -17   3  -2    1.39    4.24
 -17   3   2    2.08    4.18
  17  -3   2    0.28    5.42
  17  -3   2  -26.55   19.87
  17  -4  -2   -1.63    5.55
 -17   4  -2    3.95   20.22
 -17   4   2   -0.36    3.79
  17  -4   2    5.84    5.78
 -17   5  -2   -6.45    4.25
 -17   5  -2  -48.52   20.60
  17  -5   2   -0.28    5.56
  18   7  -2   -8.10   26.04
  18   6  -2   30.90   22.25
  18   6  -2  170.22   39.56
 -18  -6  -2   71.55   28.43
 -18  -6   2   56.05   28.08
  18   5  -2  -35.07   26.35
  18   5  -2   -4.89    9.56
 -18  -5  -2   -5.33   15.40
  18   5   2  -20.93   26.99
 -18  -5   2    9.61   14.29
 -18  -5   2   -1.83    4.19
  18   5   2    3.76    9.03
 -18  -4  -2    0.32    3.96
  18   4  -2   -8.32    8.74
 -18  -4  -2    4.63   15.38
  18   4  -2  -18.20   24.05
 -18  -4   2    2.52    4.27
  18   4   2  -16.07    9.26
 -18  -4   2   11.55   14.40
  18   4   2  -22.53   26.31
 -18  -3  -2   -1.94   14.74
  18   3  -2    0.85    8.22
  18   3  -2  -17.76   23.14
 -18  -3  -2   -6.27    4.43
  18   3   2   21.83   26.03
 -18  -3   2   -0.32    4.32
  18   3   2    2.75    8.35
 -18  -3   2   21.99   14.54
 -18  -2  -2    8.74   15.28
  18   2  -2  -34.72   21.95
  18   2  -2    2.45    8.13
 -18  -2  -2    6.18    4.62
 -18  -2   2   -3.27   15.24
  18   2   2   -5.22    8.63
  18   2   2   46.19   25.75
 -18  -2   2    3.27    4.48
 -18  -1  -2    0.35    4.13
  18   1  -2   -7.25   20.80
 -18  -1  -2   13.63   16.28
  18   1  -2  -11.43    7.41
 -18  -1   2   -6.34    4.07
  18   1   2    8.38    7.88
  18   1   2   25.18   24.48
 -18  -1   2   -3.98   16.90
  18   0  -2    0.68   19.35
 -18   0  -2   15.67    5.29
 -18   0  -2    0.53   17.33
  18   0  -2   14.19    7.90
  18   0   2   -9.39   22.44
 -18   0   2   17.49    5.16
  18   0   2    3.00    7.94
 -18   0   2    4.71   17.88
 -18   1  -2    7.75   17.99
  18  -1  -2   -1.02    6.99
  18  -1  -2   42.51   21.68
 -18   1  -2    2.93    4.70
 -18   1   2    0.36    4.37
  18  -1   2    1.43    7.28
 -18   1   2  -10.48   18.77
  18  -1   2    5.18   21.22
  18  -2  -2   -1.49   20.13
  18  -2  -2    8.72    6.39
 -18   2  -2    0.38    4.70
 -18   2  -2   10.94   19.63
  18  -2   2    0.34    6.96
 -18   2   2   -5.18    4.38
 -18   2   2   -9.80   20.52
  18  -2   2  -41.57   22.34
 -18   3  -2  -18.04    5.14
  18  -3  -2  -19.55    6.41
  18  -3  -2    8.32   20.01
 -18   3  -2   19.05   20.55
 -18   3   2    3.62   21.72
 -18   3   2    7.68    4.60
  18  -3   2    0.33    6.81
  18  -3   2   47.32   22.46
 -18   4  -2  -49.32   22.60
  18  -4  -2    0.31    6.04
  18  -4   2    0.30    6.19
 -18   4   2   -5.03   23.56
 -18   4   2   -2.38    4.46
 -18   5  -2   31.78   24.31
  19   7  -2  -23.90   28.86
 -19  -6  -2    1.81   15.97
  19   6  -2   21.54   10.94
  19   6  -2    5.62   28.27
 -19  -6   2   -2.78   16.36
  19   6   2  -31.23   29.25
 -19  -6   2    0.65    4.19
  19   5  -2  -47.47   28.15
 -19  -5  -2   12.46   16.68
  19   5  -2   18.28    9.95
 -19  -5  -2    3.79    4.85
 -19  -5   2    0.67    4.66
 -19  -5   2   -6.93   15.92
  19   5   2    5.98   29.05
  19   5   2  -11.24   10.90
  19   4  -2   -0.51    9.82
 -19  -4  -2    0.36    4.45
 -19  -4  -2   -2.88   17.15
  19   4  -2  -41.78   28.18
  19   4   2    3.33   10.09
 -19  -4   2    2.81    4.50
 -19  -4   2   12.35   16.38
  19   4   2   -4.58   29.24
 -19  -3  -2  -13.40   17.04
 -19  -3  -2   -3.73    4.94
  19   3  -2   -2.43    9.45
  19   3   2  -48.46   28.96
  19   3   2    0.53    9.97
 -19  -3   2   -7.64   16.37
 -19  -3   2    0.36    4.48
 -19  -2  -2  -17.54    6.05
 -19  -2   2  -24.56    6.60
  19   0   2  274.66   58.49
 -19   2  -2  -15.79   22.92
 -19   2  -2  -14.47    6.21
 -19   2   2  -11.37   22.55
 -19   2   2  -20.63    5.85
  19  -3  -2   -0.35    6.97
 -19   3  -2  -48.31   23.02
  19  -3  -2  -22.16   22.65
 -19   3  -2    0.44    5.19
  19  -3   2    2.83    7.34
 -19   3   2   -7.23   23.21
 -19   3   2   -8.10    5.07
  19  -4  -2    9.95    7.35
 -19   4  -2  -16.79   24.17
  19  -4   2    6.73   23.77
 -19   4   2    3.95    5.33
 -19   4   2   -9.58   24.72
  19  -4   2   19.27    7.48
 -19   5  -2  -11.80   24.99
  19  -5   2    0.34    6.99
  20   6  -2  -20.38   11.84
  20   6  -2  -25.86   30.25
 -20  -6   2   -6.74   17.18
  20   5  -2   13.48   10.87
  20   5  -2  -29.85   29.67
 -20  -5   2   20.59   18.30
  20   5   2    3.31   11.97
 -20  -5   2    0.38    5.10
  20   4  -2  -15.84   28.74
  20   4  -2   15.18   10.63
 -20  -4  -2   -1.94   19.31
  20   4   2   -4.57   30.00
 -20  -4   2    6.21    5.08
 -20  -4   2    3.44   18.18
  20   4   2    2.45   11.18
 -20  -3  -2  -14.43   19.44
  20   3  -2   -3.50   27.58
  20   3  -2    9.13    9.83
 -20  -3  -2    0.41    5.54
  20   3   2  -32.61   11.55
  20   3   2  -56.54   31.89
 -20  -3   2    0.40    4.99
 -20  -3   2   -3.41   18.27
 -20  -2  -2   21.07   19.58
  20   2  -2  -15.92   26.49
 -20  -2  -2   -9.38    5.64
  20   2  -2   -0.51   10.38
 -20  -2   2    0.41    4.95
  20   2   2    0.55   10.47
 -20  -2   2   10.98   18.98
  20   2   2    2.47   30.56
 -20  -1  -2   26.20   20.63
  20   1  -2   -6.16    9.61
 -20  -1  -2    0.44    5.82
  20   1  -2   34.06   25.27
 -20  -1   2    1.26    5.42
 -20  -1   2   19.90   20.57
  20   1   2  -36.88   10.55
  20   1   2  -56.80   28.89
  20   0  -2   36.94   26.31
 -20   0  -2    9.74   21.70
  20   0  -2  -12.66    9.52
 -20   0  -2    4.52    5.63
  20   0   2  -28.84   27.46
 -20   0   2    4.36    5.18
 -20   0   2   15.99   21.60
  20   0   2   -0.48    9.71
  20  -1  -2  -14.21   26.04
 -20   1  -2    1.40    6.11
 -20   1  -2  -23.79   22.64
  20  -1  -2    0.87    8.75
  20  -1   2  -20.99   27.83
  20  -1   2   -5.02    9.30
 -20   1   2   -8.11    5.72
 -20   1   2    2.66   22.90
  20  -2  -2    0.41    8.08
 -20   2  -2   18.80   23.79
 -20   2  -2   -0.48    5.75
  20  -2  -2  -63.37   26.28
  20  -2   2  -19.93    8.77
 -20   2   2   -6.92   24.62
 -20   2   2  -11.58    5.90
  20  -3  -2   -3.99    8.07
 -20   3   2   -2.88   25.81
 -20   3   2  -12.34    4.82
  20  -3   2   -0.41    8.38
   0   0  -3   -0.15    0.23
   0   0  -3   -0.27    0.33
   0   0   3    0.31    0.43
   0   1  -3  204.99   38.89
   0   1  -3  204.89   38.67
   1   0  -3  192.42   39.04
  -1   0   3  161.22   40.04
   1   0   3  200.81   39.07
   1   0   3  182.03   40.13
   1   1  -3    0.28    0.32
  -1   1  -3    0.09    0.26
  -1   1  -3    0.05    0.15
   1  -1   3    0.10    0.19
   1  -1   3    0.17    0.12
  -1   2  -3   43.34   11.13
   2   1  -3   53.97   11.83
   2   1  -3   53.73   11.36
   2   1  -3   31.68   14.04
   2   1  -3   45.50   11.05
  -2  -1   3   41.93   13.85
  -2  -1   3   49.50   13.04
  -2   0  -3    0.12    0.76
   0   2  -3    0.07    0.22
   2   0  -3   -0.17    0.43
   2   0  -3    0.05    0.51
   2   0  -3    0.40    1.18
   2   0   3   -0.18    1.27
   2   0   3   -0.11    0.44
  -2   0   3    0.09    1.48
  -2   0   3    0.32    0.19
   0  -2   3   -0.20    0.32
   2  -1   3   41.22   13.99
   2  -1   3   45.11   11.08
   2   2  -3   -0.22    0.56
   2   2  -3   -0.06    1.22
   2   2  -3    0.26    0.30
  -2   2  -3   -0.08    0.28
  -2  -2   3    0.51    0.47
   2  -2   3    0.05    1.95
  -2  -2   3    0.34    0.68
   3   2  -3    5.37    1.59
   3   2  -3    5.81    1.39
   3   2  -3    4.40    1.59
   3   2  -3    6.14    2.63
  -3  -2   3    5.90    1.97
  -3  -2   3    5.74    1.53
   3   1  -3   18.50    5.05
   3   1  -3   15.74    6.61
   3   1  -3   24.36    5.18
   3   1  -3   23.22    5.46
  -3  -1  -3   27.84    6.71
  -3  -1   3   16.02    6.05
   3   1   3   23.01    5.68
   3   1   3   21.47    7.14
  -3  -1   3   20.18    6.52
   3   0  -3    7.60    3.25
   3   0  -3    9.49    2.26
   3   0  -3    8.79    2.06
   3   0  -3    6.84    2.15
  -3   0  -3   11.18    2.61
  -3   0   3    7.07    3.30
   3   0   3    6.46    3.24
  -3   0   3    7.14    1.94
   3   0   3    7.73    2.10
   3  -1   3   19.63    6.62
   3  -1   3   19.61    5.03
   2   3  -3    5.46    1.35
  -3   2  -3    5.70    1.31
  -2  -3   3    3.68    1.50
   3  -2   3    5.38    1.44
   3  -2   3    5.67    2.90
   3   3  -3    0.75    0.86
   3   3  -3    0.09    0.47
   3   3  -3    0.05    2.06
  -3  -3   3   -0.31    0.77
   4   3  -3    0.85    3.20
   4   3  -3    0.55    1.07
   4   3  -3    0.50    1.22
   4   3  -3    0.37    0.62
  -4  -3   3    0.07    0.92
  -4  -3   3    0.23    1.81
   4   2  -3   73.26   14.50
   4   2  -3   57.74   15.65
  -4  -2  -3   44.57   19.30
   4   2  -3   42.96   19.26
   4   2  -3   65.42   15.15
  -4  -2   3   62.23   15.38
   4   2   3   62.95   16.30
  -4  -2   3   64.45   17.39
   4   1  -3   10.73    2.31
   4   1  -3    9.91    2.48
   4   1  -3    8.63    2.21
  -4  -1  -3    8.77    3.17
   4   1  -3    5.18    3.74
  -4  -1   3    4.27    3.42
  -4  -1   3    9.88    3.15
   4   1   3   11.54    2.57
   4   0  -3    0.74    2.46
  -4   0  -3    0.36    1.69
   4   0  -3   -0.17    0.76
   4   0  -3   -0.08    0.61
   4   0  -3   -0.13    0.81
   4   0   3   -0.06    2.73
  -4   0   3    1.04    2.56
  -4   0   3   -0.10    0.44
   4   0   3   -0.11    0.77
   4  -1  -3    9.37    2.49
   4  -1  -3    6.44    4.33
   4  -1   3   11.47    2.34
   4  -1   3    7.19    3.99
  -4   1   3    7.51    2.18
  -4   2  -3   62.92   14.98
   4  -2   3   67.17   15.85
  -4   3  -3   -1.00    0.67
   4  -3   3   -1.23    3.73
   5   3  -3   92.12   21.31
   5   3  -3   87.26   21.40
   5   3  -3   65.91   19.94
  -5  -3   3   89.65   23.85
  -5  -3   3   89.26   21.11
   5   2  -3  248.28   65.44
   5   2  -3  273.74   61.31
   5   2  -3  229.55   76.10
   5   2  -3  293.92   62.74
  -5  -2   3  286.36   64.63
  -5  -2   3  264.18   69.93
   5   1  -3   10.29    4.44
  -5  -1  -3   12.12    3.47
   5   1  -3    8.86    2.25
   5   1  -3    9.17    2.39
   5   1  -3    8.00    2.60
   5   1   3    6.38    2.65
  -5  -1   3    8.34    3.65
  -5  -1   3    7.15    3.91
   5   0  -3    3.15    1.19
   5   0  -3    3.05    3.66
   5   0  -3    3.18    1.24
  -5   0  -3    3.77    2.57
   5   0  -3    2.64    1.37
  -5   0   3    3.20    3.64
  -5   0   3    3.10    0.98
   5   0   3    4.08    1.33
  -5   1  -3   13.23    4.15
   5  -1  -3   12.34    2.60
   5  -1  -3    9.37    5.29
   5  -1  -3    5.13    2.77
  -5   1   3   10.16    2.46
   5  -1   3    9.51    2.62
   5  -2   3   -0.06   33.94
   6   5  -3    2.12    5.23
   6   4  -3   27.61    7.93
   6   4  -3   18.20    4.58
  -6  -4   3   14.53    5.00
   6   3  -3    3.82    1.82
  -6  -3  -3    3.46    3.70
   6   3   3    3.80    4.75
   6   3   3    5.72    2.94
   6   2  -3    0.57    1.38
  -6  -2  -3    2.82    3.18
   6   2  -3    0.57    0.78
  -6  -2   3    0.95    1.16
   6   2   3    0.38    2.10
   6   1  -3    0.45    1.35
   6   1  -3    0.58    0.79
  -6  -1  -3    5.53    3.09
  -6  -1   3    1.43    3.50
   6   1   3    2.47    1.78
  -6   0  -3    8.03    3.37
   6   0  -3    0.11    1.10
   6   0  -3    0.75    1.47
   6   0   3    3.86    1.46
   6   0   3    0.10    5.03
  -6   0   3    1.54    4.53
   6  -1  -3    0.86    1.68
   6  -1  -3    0.61    5.17
  -6   1  -3    1.44    0.97
  -6   1  -3    6.04    3.79
   6  -1   3    2.14    5.10
  -6   1   3    1.84    1.05
   6  -1   3    3.21    1.41
  -6   2  -3    1.58    0.96
   6  -2  -3   -1.13    5.43
   6  -2   3    1.19    1.39
   6  -2   3    0.28    4.91
  -6   2   3    2.04    1.09
  -6   3  -3    5.25    1.62
   6  -3   3    5.96    1.87
   6  -3   3    4.25    6.15
  -6   4  -3   15.21    3.94
   6  -4   3   19.85    8.40
   6  -4   3   14.40    4.08
   7   5  -3    0.81    2.06
   7   4  -3    2.49    1.20
   7   4  -3  -11.78    6.94
   7   4  -3    2.72    2.77
   7   4  -3    1.47    1.96
  -7  -4   3    3.66    1.90
  -7  -4   3   -4.24    4.60
   7   3  -3   12.51    3.96
   7   3  -3   18.77    7.99
  -7  -3  -3   14.30    5.64
   7   3   3    8.96    6.97
   7   3   3   10.48    4.41
  -7  -3   3   15.17    5.14
  -7  -2  -3    1.34    3.70
   7   2  -3    1.14    1.83
   7   2  -3    2.91    0.87
   7   2  -3   -2.62    6.08
   7   2  -3   -0.06    1.61
   7   2   3   -0.88    6.31
   7   2   3    2.45    2.44
  -7  -2   3   -1.98    3.66
  -7  -2   3    3.23    1.26
  -7  -2   3   -3.02    4.05
   7   1  -3    2.57    1.52
   7   1  -3    3.58    1.62
   7   1  -3    1.71    5.49
   7   1  -3    1.95    0.95
  -7  -1  -3    2.80    3.51
  -7  -1   3    4.19    4.15
   7   1   3    2.56    0.99
  -7  -1   3    1.35    1.01
   7   1   3    0.65    1.96
  -7  -1   3    1.87    4.20
   7   0  -3   24.57    8.11
   7   0  -3   31.01    7.30
   7   0  -3   40.13   10.37
   7   0  -3   29.72    7.07
  -7   0  -3   32.15    9.00
  -7   0   3   17.98    6.98
   7   0   3   32.45    7.29
  -7   0   3   35.63   10.90
   7  -1  -3    1.70    1.64
  -7   1  -3    2.26    1.07
   7  -1  -3    1.05    1.44
  -7   1  -3    2.24    4.49
   7  -1  -3    0.45    5.41
  -7   1   3    2.01    1.12
   7  -1   3    1.39    5.85
   7  -1   3    0.78    1.67
   7  -2  -3   -0.56    6.11
  -7   2  -3   -0.10    1.04
   7  -2  -3    0.60    1.42
   7  -2   3   -0.11    5.51
  -7   2   3    1.64    1.21
   7  -2   3    0.18    1.61
  -7   3  -3   13.44    3.07
   7  -3   3   10.18    3.34
   7  -3   3    9.81    7.23
  -7   4  -3    2.00    1.45
   7  -4   3   -2.46    7.67
   7  -4   3    3.47    1.77
   8   6  -3    6.38    9.58
   8   6  -3   21.99    5.32
   8   5  -3    8.18    3.08
   8   5  -3    0.14    8.13
  -8  -5   3   11.24    5.11
  -8  -4  -3    5.67    4.83
   8   4  -3    4.79    1.78
   8   4  -3    1.63    7.97
   8   4  -3    9.24    3.29
   8   4  -3    4.24    2.49
  -8  -4   3    5.54    2.42
   8   4   3   12.91    7.08
  -8  -4   3    4.31    4.60
   8   3  -3   27.13    5.53
   8   3  -3   -0.07    6.22
  -8  -3  -3   38.00    8.10
   8   3  -3   38.99    6.07
   8   3  -3   -2.41   11.14
  -8  -3   3   26.37    7.68
   8   3   3   18.35   10.36
   8   3   3   15.39    6.53
  -8  -3   3   22.34    6.27
  -8  -2  -3   20.85    5.72
   8   2   3    9.53    4.24
   8   2   3   11.09    3.56
   8   2   3   14.61    9.07
  -8  -1  -3    7.56    4.50
   8   1  -3    1.98    1.97
   8   1  -3  -15.26    8.07
   8   1  -3    5.36    1.28
   8   1  -3    1.02    2.27
   8   1   3    2.99    2.60
   8   1   3    4.67    1.32
  -8  -1   3    3.32    1.43
  -8  -1   3    5.49    1.65
  -8  -1   3  -11.09    6.23
  -8  -1   3   -4.07    5.78
   8   0  -3   -0.56    1.09
  -8   0  -3   -2.63    2.31
  -8   0  -3   -3.57    4.60
   8   0  -3   -2.09    1.84
   8   0  -3    0.09    1.76
   8   0  -3   -2.58    6.63
   8   0   3    0.27    0.63
  -8   0   3   -4.92    5.93
   8   0   3   -0.11    2.08
  -8   0   3    0.39    1.15
   8  -1  -3    4.51    1.76
  -8   1  -3    5.94    5.64
   8  -1  -3    2.46    1.88
   8  -1  -3   -9.75    6.70
  -8   1  -3    7.74    1.45
   8  -1   3   -1.87    7.56
   8  -1   3    1.30    2.12
  -8   1   3    1.35    1.44
  -8   2  -3   12.69    2.90
   8  -2  -3    5.94    8.96
   8  -2  -3   10.97    3.17
   8  -2  -3    4.38    3.64
  -8   2   3   10.65    2.93
   8  -2   3    8.33    7.87
   8  -2   3   14.43    3.36
  -8   3  -3   32.60    6.79
   8  -3  -3   29.23    6.97
   8  -3   3   27.24    7.03
  -8   3   3   36.21    6.85
   8  -3   3   19.24   10.65
  -8   4  -3    3.54    1.78
   8  -4   3   -2.84    8.18
   8  -4   3    4.24    2.16
  -8   5  -3   10.57    2.48
   8  -5   3    5.72    2.79
   9   6  -3    0.11    2.63
   9   6  -3    0.16    9.65
   9   5  -3   11.15   16.10
   9   5  -3   47.08   10.96
   9   5  -3   46.82   10.70
  -9  -5   3   39.80   12.81
   9   4  -3   39.67    9.37
  -9  -4  -3   21.89   11.48
   9   4  -3   35.94    8.72
   9   4  -3   40.91    9.52
   9   4  -3   12.72   14.32
  -9  -4   3   40.14   10.91
   9   4   3   39.81    9.87
   9   4   3   43.98   13.58
  -9  -4   3   36.76    9.68
   9   3  -3    9.09    2.83
  -9  -3  -3    6.28    5.28
   9   3  -3    0.73    9.17
   9   3  -3    6.64    2.11
   9   3  -3    7.66    3.35
   9   3   3    6.94    3.92
   9   3   3    0.17    8.87
  -9  -3   3    8.91    5.66
  -9  -3   3    6.24    5.17
  -9  -3   3    8.19    2.74
   9   2  -3   -0.05    1.18
   9   2  -3   -0.53    7.90
  -9  -2  -3    4.03    4.73
   9   2  -3    3.32    2.49
   9   2   3    4.71    3.11
  -9  -2   3    1.76    1.70
   9   2   3    1.67    8.79
  -9  -2   3    4.80    5.00
   9   1  -3   -0.13    7.29
   9   1  -3    3.14    2.27
  -9  -1  -3    3.08    4.96
   9   1   3   -4.06    9.07
   9   1   3    0.71    2.70
  -9  -1   3    0.63    1.32
  -9  -1   3   -1.22    5.58
   9   0  -3   -0.86    6.73
  -9   0  -3    1.26    5.40
   9   0  -3    0.65    2.07
   9   0  -3   -0.08    1.90
  -9   0   3   -2.87    6.05
  -9   0   3    0.99    6.65
   9   0   3   -0.49    2.39
  -9   0   3   -0.34    1.23
  -9   1  -3   -3.02    6.32
   9  -1  -3    0.27    6.77
  -9   1  -3    1.77    1.35
   9  -1  -3    1.31    2.08
   9  -1  -3    3.11    1.54
  -9   1   3    1.15    1.51
   9  -1   3    0.23    2.28
  -9   2  -3    2.16    1.61
   9  -2  -3    8.39    2.31
   9  -2  -3    1.55    2.08
   9  -2  -3   15.98    8.19
  -9   2   3    3.22    1.74
   9  -2   3    0.14    7.55
   9  -2   3    0.90    2.27
   9  -3  -3    6.88    2.65
   9  -3  -3    2.23    8.41
  -9   3  -3    5.47    2.36
   9  -3   3   11.29    2.89
  -9   3   3    8.32    2.36
   9  -3   3    3.25    7.86
  -9   4  -3   24.42    7.04
   9  -4   3   21.12   13.00
   9  -4   3   32.56    7.30
  -9   5  -3   37.26    9.87
   9  -5   3   43.30    9.97
  10   6  -3   10.81    3.86
  10   6  -3    2.90   11.26
  10   5  -3    3.61   11.59
  10   5  -3   11.49    5.31
  10   5  -3   15.84    4.28
 -10  -5   3    9.69    7.17
  10   5   3    2.05   10.43
  10   4  -3   10.91    2.51
  10   4  -3   -0.17   10.43
  10   4  -3    3.44    3.23
 -10  -4  -3    9.74    6.66
  10   4  -3    6.33    4.20
 -10  -4   3   11.38    6.12
  10   4   3    9.80   10.13
 -10  -4   3    6.41    3.28
  10   4   3   14.55    4.96
 -10  -3  -3    6.26    5.69
  10   3  -3    4.43    1.84
  10   3  -3   -1.16    9.82
  10   3  -3    4.33    3.58
  10   3  -3    5.21    2.74
 -10  -3   3    5.53    2.66
  10   3   3    5.87    4.25
 -10  -3   3    5.69    5.75
 -10  -3   3    7.33    6.29
  10   3   3   12.09   10.80
  10   2  -3    8.75    2.94
  10   2  -3    9.32    3.35
 -10  -2  -3   15.55    5.96
  10   2  -3    1.39    9.60
  10   2  -3    6.20    2.16
  10   2   3    5.52   11.11
 -10  -2   3    5.68    2.84
 -10  -2   3   20.25    6.46
  10   2   3    6.96    3.90
 -10  -2   3    3.13    6.25
  10   1  -3    5.81    8.93
 -10  -1  -3   14.92    6.44
  10   1  -3    9.82    3.47
 -10  -1   3   16.98    7.12
  10   1   3    8.38    3.89
 -10  -1   3    9.23    2.79
  10   1   3    0.92   11.21
 -10   0  -3   -1.25    6.49
  10   0  -3   -0.50    2.37
  10   0  -3   -0.42    7.96
 -10   0   3    6.08    7.60
  10   0   3   -0.73    2.89
 -10   0   3   -1.43    1.60
  10  -1  -3    6.96    3.31
 -10   1  -3   10.59    7.82
  10  -1  -3    3.54    8.36
 -10   1   3   12.91    2.84
  10  -1   3    7.53    3.46
  10  -2  -3    9.21    2.90
 -10   2  -3    6.51    2.42
  10  -2  -3   -1.78    9.02
 -10   2  -3    9.98    8.81
 -10   2   3   10.29    2.60
  10  -2   3    7.04    3.18
  10  -2   3    5.00    8.85
  10  -3  -3    3.06    2.70
 -10   3  -3    5.24    2.32
  10  -3  -3    7.34    9.36
 -10   3   3    9.89    2.30
  10  -3   3    6.40    2.93
  10  -3   3    0.33    8.71
 -10   4  -3   10.41    2.73
  10  -4   3    4.28    3.13
  10  -4   3    8.60   10.18
 -10   5  -3   12.54    4.33
  10  -5   3   18.96    4.59
  10  -5   3   18.52   11.19
  11   7  -3    0.20   11.65
  11   7  -3   -1.30    3.36
  11   6  -3   -0.82   12.33
 -11  -6   3    1.57    6.60
  11   5  -3   -1.27    4.86
 -11  -5  -3    4.05    7.38
  11   5  -3    2.43   12.81
  11   5   3  -10.63   11.32
 -11  -5   3    3.32    6.83
  11   4  -3   -0.20   12.41
 -11  -4  -3   -2.33    7.22
  11   4  -3    5.91    4.27
  11   4   3   -0.27    4.81
  11   4   3    0.22   11.83
 -11  -4   3   10.81    6.34
  11   3  -3    0.55   12.04
  11   3  -3    5.70    3.93
 -11  -3  -3    4.71    6.38
  11   3   3   12.57   12.16
  11   3   3    2.54    4.39
 -11  -3   3   17.67    6.70
  11   2  -3    4.45    3.30
  11   2  -3   -0.51   10.59
 -11  -2  -3    2.57    6.33
  11   2   3   -1.43    4.03
 -11  -2   3   -1.89    6.86
  11   2   3   -7.75   12.15
 -11  -2   3    2.31    1.72
  11   1  -3    0.81    9.85
  11   1  -3   -0.76    3.00
 -11  -1  -3    3.14    6.75
 -11  -1   3  -11.18    7.89
  11   1   3    0.73    3.39
  11   1   3   -5.16   12.09
 -11  -1   3    0.28    1.64
 -11   0  -3   26.41    9.26
  11   0  -3   18.01    5.14
  11   0  -3    2.04   10.39
 -11   0   3   26.33   10.24
  11   0   3   14.33    5.43
 -11   0   3   20.36    4.68
 -11   1  -3   -2.86    8.62
  11  -1  -3   -3.26    8.64
  11  -1  -3    0.84    2.71
  11  -1   3    0.15    3.03
 -11   1   3   -1.77    1.84
  11  -2  -3    0.39    9.81
 -11   2  -3    2.13    2.08
  11  -2  -3    0.57    2.71
 -11   2  -3    9.45    9.37
  11  -2   3    2.99    2.92
  11  -2   3   -4.92   10.09
 -11   2   3   -0.53    1.81
 -11   3  -3    2.70    2.37
  11  -3  -3   -0.21   10.15
  11  -3  -3    1.57    2.65
  11  -3   3    4.66    3.10
  11  -3   3    4.34    9.76
 -11   3   3    4.16    2.16
 -11   4  -3    1.58    2.59
  11  -4  -3    6.39    3.01
  11  -4   3   -2.63    3.20
 -11   5  -3    7.17    2.68
  11  -5   3    3.12    3.23
  12   7  -3   -1.82   13.45
  12   6  -3   -4.72    5.58
  12   6  -3   -2.49   14.63
 -12  -6   3   -8.04    7.91
  12   5  -3    1.95    5.07
  12   5  -3   -5.88   14.46
 -12  -5  -3    0.31    8.07
 -12  -5   3   -2.08    7.59
  12   5   3   28.87   13.06
  12   5   3    2.31    5.62
  12   4  -3   -2.63   13.49
 -12  -4  -3   -0.28    7.83
  12   4  -3   -2.67    4.65
  12   4   3   -1.44   13.60
 -12  -4   3   -2.55    7.19
  12   4   3   -0.29    5.31
 -12  -3  -3    4.24    7.30
  12   3  -3   -0.82   13.09
  12   3  -3    5.88    4.39
 -12  -3   3    5.91    7.45
  12   3   3  -16.86   14.87
  12   3   3    7.62    4.84
  12   2  -3   -2.04    3.85
  12   2  -3   -0.38   11.93
 -12  -2  -3    5.07    7.28
 -12  -2   3    9.78    8.11
 -12  -2   3    3.90    2.16
  12   2   3    8.20    4.71
  12   2   3   -6.99   14.60
  12   1  -3    6.62   11.45
 -12  -1  -3    8.14    8.96
  12   1  -3   13.69    4.32
 -12  -1   3    7.98    9.73
  12   1   3    4.46    5.55
 -12  -1   3   13.01    3.37
  12   0  -3   -5.63   10.51
 -12   0  -3   -4.33    2.60
  12   0  -3    0.97    3.45
 -12   0   3    8.80   10.02
 -12   0   3   -0.34    1.95
  12   0   3  -12.50    4.81
  12  -1  -3   17.36    4.37
  12  -1  -3   -1.08   10.39
  12  -1   3    8.92    5.25
 -12   1   3   16.00    3.80
 -12   1   3    9.68   11.62
 -12   2  -3    2.79    2.40
  12  -2  -3    0.84   10.82
 -12   2  -3    6.06   11.01
  12  -2  -3    3.36    3.32
  12  -2   3    4.26    3.62
 -12   2   3    6.69    2.50
 -12   3  -3    4.03    2.28
  12  -3  -3    1.12    3.09
 -12   3  -3   15.75   11.81
  12  -3  -3  -27.36   11.46
  12  -3   3    0.16    3.39
  12  -3   3  -18.87   11.44
 -12   3   3    2.38    2.44
  12  -4  -3   -1.82    3.29
 -12   4  -3   -1.31    2.61
  12  -4   3    8.08   12.43
  12  -4   3   -0.16    3.32
 -12   4   3   -0.23    2.43
 -12   5  -3    8.33    2.53
  12  -5   3   -5.96    3.50
  12  -5   3   -0.25   10.40
  13   6  -3    3.78    6.05
 -13  -6   3   -9.11    9.17
  13   5  -3   12.17    5.88
  13   5  -3  -19.61   16.69
 -13  -5   3    2.29    8.43
  13   5   3    3.97   15.27
  13   4  -3    8.19   15.90
  13   4  -3    6.96    5.48
 -13  -4   3    3.87    8.11
  13   3  -3  -34.05   14.85
  13   3  -3   -0.24    4.81
 -13  -3   3    0.88    2.42
 -13  -3   3   -1.79    8.22
  13   2  -3   -0.22    4.37
 -13  -2  -3   -7.35    8.62
  13   2  -3   18.65   13.49
  13   2   3   -0.25    5.17
 -13  -2   3    1.36    9.08
 -13  -2   3   -0.18    2.54
  13   1  -3   10.93   12.34
  13   1  -3    0.60    4.03
 -13  -1  -3   -0.58    9.26
 -13  -1   3    3.46    2.33
  13   1   3   -0.23    4.65
 -13  -1   3   -7.82    9.94
  13   0  -3    2.13   11.37
 -13   0  -3   -2.75    9.97
  13   0  -3    4.69    3.85
  13   0   3    8.53    4.59
 -13   0   3    4.10   11.39
 -13   0   3    2.46    2.47
  13  -1  -3   -3.81    3.73
  13  -1  -3   -4.91   11.09
 -13   1  -3   16.77   11.18
  13  -1   3    0.80    4.11
 -13   1   3   -0.20    2.53
 -13   1   3    6.89   11.77
 -13   5  -3   -3.64    3.01
  13  -5   3   -0.19    3.40
  13  -5   3   -0.27   13.20
 -13   6  -3   -1.95    3.06
  13  -6   3   -0.18    3.58
  14   7  -3    1.94   17.50
  14   6  -3   17.88   19.91
  14   6   3   10.39   18.21
 -14  -6   3   56.98   12.37
  14   5  -3   -4.16   18.07
 -14  -5  -3  -12.60   10.51
  14   5   3   -5.42    7.24
  14   5   3  -10.66   17.38
 -14  -4  -3   18.00   10.72
  14   4   3   18.04   18.68
  14   4   3    3.47    6.72
 -14  -3  -3  -13.66    9.72
  14   3   3   -4.02    5.65
  14   3   3  -15.46   18.01
 -14  -2  -3    7.35    9.48
  14   2   3   -7.34    5.66
  14   2   3  -32.57   17.58
 -14  -1  -3   46.76   10.31
 -14  -1  -3    2.39    3.56
  14   1   3   -0.28   17.21
  14   1   3    9.60    5.51
 -14   0  -3   74.43   13.47
  14   0   3    0.26   17.02
  14   0   3   27.87    8.34
  14  -1  -3   -0.23   12.49
 -14   1  -3    3.66   12.35
  14  -1   3    9.64    4.91
 -14   1   3    3.18    2.91
  14  -2  -3   10.73   13.36
 -14   2  -3  -29.69   13.79
 -14   2   3    2.19    2.93
 -14   2   3   -0.41   11.87
  14  -2   3    0.21    4.29
 -14   3  -3  -16.54   14.28
  14  -3  -3    1.99    4.07
  14  -3  -3  -14.28   13.30
 -14   3  -3   -2.76    3.18
 -14   3   3   -1.82    3.19
  14  -3   3    0.41    4.33
 -14   4  -3   -8.66   15.49
  14  -4  -3    4.69    4.43
 -14   4  -3    2.67    3.54
  14  -4   3    5.54   16.06
 -14   4   3    9.12    3.15
  14  -4   3    1.01    4.22
 -14   5  -3    2.85    3.22
  14  -5   3    0.29   15.06
  14  -5   3    0.20    4.26
 -14   6  -3    4.24    4.21
  14  -6   3    1.63    4.65
  15   7  -3   -0.31   19.54
  15   6  -3    7.67   20.00
  15   6  -3   -5.28    7.74
  15   6   3   -2.25   19.40
 -15  -6   3   -2.96   10.56
  15   5  -3   -9.08   19.76
  15   5  -3    9.13    6.85
 -15  -5  -3    0.40   10.93
  15   5   3   13.41   20.16
 -15  -5   3    6.23   10.70
  15   5   3  -22.81    7.53
  15   4  -3   13.75    6.31
  15   4  -3  -12.83   18.73
 -15  -4  -3   10.17   11.06
 -15  -4   3   -3.19   10.06
 -15  -4   3   -2.86    2.82
  15   4   3    2.66    6.97
  15   4   3    5.66   19.65
  15   3  -3    8.39    5.98
  15   3  -3   -3.56   17.13
 -15  -3  -3   -4.87   10.68
  15   3   3   -0.33   20.57
 -15  -3   3   -2.45    2.95
  15   3   3    1.37    6.53
 -15  -3   3   -8.60   10.22
 -15  -2  -3   -3.12   10.88
 -15  -2  -3   -0.24    2.99
  15   2  -3   24.34   16.36
  15   2  -3    9.43    5.59
  15   2   3    4.50    6.46
 -15  -2   3   15.61   11.11
  15   2   3  -24.39   19.73
 -15  -2   3    0.23    3.08
  15   1  -3   -2.35    5.33
  15   1  -3  -11.26   15.46
 -15  -1  -3   -7.60   11.16
 -15  -1  -3   -1.23    3.25
  15   1   3   -5.91    5.68
 -15  -1   3    1.44   12.04
  15   1   3    0.61   18.62
 -15  -1   3    0.46    3.00
 -15   0  -3   -0.25    3.16
 -15   0  -3   -5.76   12.36
  15   0  -3  -11.80   14.20
  15   0  -3   -8.10    5.05
  15   0   3    0.54    5.57
 -15   0   3  -17.08   14.04
 -15   0   3   -0.24    3.00
  15   0   3    2.01   17.05
  15  -1  -3    5.84    4.74
  15  -1  -3    2.80   14.10
 -15   1  -3  -13.05   13.95
 -15   1  -3    0.51    3.28
 -15   1   3  -19.60   14.49
  15  -1   3   -4.35    5.37
  15  -1   3    0.27   17.07
 -15   1   3   -0.25    2.96
 -15   2  -3   54.71   15.06
  15  -2  -3   -0.27   15.01
  15  -2  -3   -0.23    4.72
  15  -2   3    0.23    5.13
 -15   2   3    0.27    3.26
 -15   2   3    8.00   15.90
  15  -3  -3   27.23   14.57
 -15   3  -3    7.26   15.82
 -15   3  -3   -3.64    3.48
  15  -3  -3   -8.31    4.49
  15  -3   3   -5.49    4.79
 -15   3   3   -0.29    3.13
 -15   4  -3    2.37    3.52
  15  -4  -3    9.06    4.71
 -15   4  -3    0.47   16.19
 -15   4   3   -0.60    3.19
  15  -4   3   -9.98    4.74
  15  -4   3  -28.30   15.73
 -15   5  -3   -1.57    3.79
  15  -5   3   13.56   16.50
  15  -5   3   14.41    4.70
 -15   6  -3   -2.97    3.54
  15  -6   3    3.82    4.77
  16   8  -3    6.61   21.47
  16   7  -3  -24.08   22.27
  16   6  -3  -14.36    8.72
  16   6  -3  -59.92   22.64
  16   6   3  -21.77   23.46
 -16  -6   3   -5.27   12.52
 -16  -5  -3   -1.77   12.41
  16   5  -3  -18.40    7.68
  16   5   3  -37.95   22.72
  16   5   3    0.45    8.37
 -16  -5   3  -11.87   12.29
 -16  -4  -3  -12.14   12.34
  16   4  -3   -8.31    6.99
  16   4  -3  -11.43   20.51
  16   4   3  -10.18   22.10
 -16  -4   3    8.18   11.37
  16   4   3    1.67    7.50
 -16  -4   3    1.48    3.21
 -16  -3  -3    0.39   11.74
  16   3  -3    6.98    6.71
  16   3  -3   23.21   18.65
  16   3   3    9.87    7.26
  16   3   3    1.81   21.79
 -16  -3   3    0.76    3.49
 -16  -3   3   10.30   11.99
  16   2  -3  -18.97   18.00
  16   2  -3    1.58    6.10
 -16  -2  -3  -11.67   11.93
 -16  -2  -3   -4.05    3.63
 -16  -2   3   -1.50   12.18
  16   2   3    1.06   21.66
  16   2   3   -0.36    6.77
 -16  -2   3    2.04    3.21
  16   1  -3    2.88    6.06
 -16  -1  -3  -14.04    3.88
  16   1  -3   17.79   16.33
 -16  -1  -3    0.40   12.64
  16   1   3   -9.49    6.53
 -16  -1   3    3.61   13.56
  16   1   3    2.33   20.18
 -16  -1   3    7.06    3.43
  16   0  -3    2.09    5.17
  16   0  -3   10.44   15.73
 -16   0  -3   -0.28    3.67
 -16   0  -3    0.43   13.66
  16   0   3    6.25    6.30
 -16   0   3    2.97    3.57
  16   0   3    4.52   19.83
 -16   0   3   -2.99   15.01
  16  -1  -3   18.83   16.05
 -16   1  -3    0.29    3.63
 -16   1  -3  -11.73   14.68
  16  -1  -3   -7.71    5.15
  16  -1   3  -19.09   17.79
 -16   1   3   -0.91   16.10
  16  -1   3    0.28    5.58
 -16   1   3   -4.52    3.42
 -16   2  -3   -8.09   16.54
  16  -2  -3    7.10    4.74
  16  -2  -3    1.21   16.46
 -16   2   3   -0.89    3.61
  16  -2   3    0.27    5.59
 -16   2   3    7.76   17.12
  16  -3  -3    2.18   16.08
  16  -3  -3    0.49    4.77
 -16   3  -3   29.77   17.38
 -16   3   3    6.14   18.55
  16  -3   3    1.04    5.68
 -16   3   3    3.14    3.57
 -16   4  -3    0.33    3.79
 -16   4  -3  -17.01   17.93
  16  -4  -3    0.50    4.96
  16  -4   3    0.74    5.10
  16  -4   3    0.34   18.22
 -16   4   3    1.64    3.59
 -16   5  -3    2.07    3.60
 -16   5  -3   -0.53   19.12
  16  -5   3    0.34   17.82
  16  -5   3    0.73    4.87
 -16   6  -3   -4.70    4.23
  16  -6   3   -0.25    4.76
  17   8  -3  -28.52   25.13
  17   7  -3   19.87   24.56
  17   6  -3   -5.21    8.66
 -17  -6  -3    6.56   13.29
  17   6  -3  -27.25   23.59
 -17  -6   3   -0.44   12.49
  17   6   3  -20.11   25.18
 -17  -5  -3   -5.87   13.85
  17   5  -3    0.44    8.34
  17   5  -3   15.13   23.12
  17   5   3  -18.87   25.08
  17   5   3   -1.49    9.38
 -17  -5   3   -1.88    3.47
 -17  -5   3   -8.04   12.85
  17   4  -3    7.89   21.78
  17   4  -3   -5.98    7.24
 -17  -4  -3  -12.18   13.21
 -17  -4   3   -2.48    3.72
  17   4   3    8.30    8.35
  17   4   3  -25.22   24.70
 -17  -4   3  -14.63   12.71
 -17  -3  -3    5.61    3.88
 -17  -3  -3   15.30   13.16
  17   3  -3   -4.66   20.73
  17   3  -3   -0.38    7.43
  17   3   3  -16.01   23.80
 -17  -3   3    1.19   13.12
  17   3   3    0.42    7.76
 -17  -3   3    1.13    3.64
  17   2  -3  -10.45    7.07
 -17  -2  -3   -9.61   13.80
 -17  -2  -3   -1.22    4.12
  17   2   3    0.40    7.49
 -17  -2   3   -5.01   14.42
 -17  -2   3   -0.29    3.79
  17   2   3  -71.26   25.18
  17   1  -3  -18.53    7.30
 -17  -1  -3    5.99    4.02
 -17  -1  -3  -25.86   15.14
 -17  -1   3   -5.83   15.60
 -17  -1   3   -7.63    4.09
 -17   0  -3    0.32    4.00
 -17   0  -3   -5.77   16.00
  17   0  -3   -8.51    6.59
  17   0  -3  -47.34   18.55
 -17   0   3    0.30    3.74
  17   0   3    0.34    6.83
 -17   0   3  -30.67   17.17
 -17   1  -3   -9.12    4.42
  17  -1  -3   -4.42    6.17
 -17   1  -3  -27.57   16.93
 -17   1   3   -3.16    4.06
  17  -1   3   -9.83    6.91
 -17   1   3  -21.07   18.93
  17  -2  -3  -16.32   18.94
 -17   2  -3    3.67   17.46
  17  -2  -3   24.26    6.08
 -17   2   3    1.65    3.93
  17  -2   3   -9.66    6.37
  17  -2   3  -16.05   19.16
 -17   2   3   -9.54   19.89
  17  -3  -3   -9.09    5.53
 -17   3  -3   13.57   18.78
  17  -3  -3   -9.55   18.28
 -17   3   3   -3.89   22.13
 -17   3   3    2.08    4.03
  17  -3   3  -11.05    5.91
 -17   4  -3  -10.13   19.70
  17  -4  -3    0.28    5.77
 -17   4  -3   -4.39    4.52
  17  -4   3    0.55    5.76
 -17   4   3   -9.37    4.69
 -17   5  -3   -7.55   20.80
 -17   5  -3    1.53    4.15
  17  -5   3   -0.38   19.19
  17  -5   3    0.27    5.35
 -17   6  -3  -24.59   21.89
 -17   6  -3    0.40    4.44
  17  -6   3   -0.27    5.45
  18   7  -3   -4.27   24.89
 -18  -6  -3    1.67   17.88
  18   6  -3   46.16   12.04
 -18  -6   3   12.34   16.18
  18   5  -3    1.51   23.92
 -18  -5  -3   -0.55   16.16
  18   5  -3   -8.68    9.18
 -18  -5   3   -1.80    3.83
 -18  -5   3   -0.47   14.57
  18   5   3    0.55    9.87
  18   5   3   -7.45   28.41
 -18  -4  -3    0.52   15.32
  18   4  -3   18.96    8.57
  18   4  -3   44.76   23.40
  18   4   3   28.99   10.13
  18   4   3   27.19   27.58
 -18  -4   3   -4.67    4.48
 -18  -4   3   -2.64   13.73
  18   3  -3   -7.95    8.32
  18   3  -3   26.26   22.57
 -18  -3  -3    0.66    4.55
 -18  -3  -3   11.10   15.37
  18   3   3   -0.48    9.19
 -18  -3   3   -9.29   14.77
 -18  -3   3    9.45    4.15
  18   3   3   16.43   26.08
  18   2  -3   -9.94   21.08
 -18  -2  -3   44.53   15.54
  18   2  -3    8.07    7.83
 -18  -2  -3   -7.93    4.78
 -18  -2   3    6.73    4.11
  18   2   3   14.09   25.26
  18   2   3    2.65    8.30
 -18  -2   3   -2.77   15.02
 -18  -1  -3   -5.56   15.70
  18   1  -3   20.66    7.68
  18   1  -3  -11.36   19.89
 -18  -1  -3    2.80    3.98
  18   1   3    6.33    8.15
 -18  -1   3   -9.89   16.29
 -18  -1   3    1.33    3.97
  18   1   3    1.22   24.11
 -18   0  -3    8.49   17.24
 -18   0  -3    0.36    4.48
  18   0  -3   -6.83   19.77
  18   0  -3    7.11    7.24
 -18   0   3    6.25   17.65
  18   0   3    0.80    8.16
  18   0   3    7.36   22.94
 -18   0   3   -5.84    3.91
 -18   1  -3  -17.17   18.50
  18  -1  -3    1.93    6.61
  18  -1  -3   -2.52   19.84
 -18   1  -3    2.22    4.72
  18  -1   3   18.47   21.69
  18  -1   3    3.95    7.36
 -18   1   3   -1.76    4.33
 -18   1   3  -20.86   19.42
 -18   2  -3    5.34    4.75
  18  -2  -3    5.65    6.54
  18  -2  -3   -8.09   19.56
 -18   2  -3    8.05   19.86
 -18   2   3  -10.39   20.66
  18  -2   3   -0.34    6.70
  18  -2   3  -17.69   21.81
 -18   2   3    6.99    4.42
  18  -3  -3    0.31    6.02
 -18   3  -3   18.47   20.40
  18  -3  -3   -5.22   19.86
 -18   3   3    3.44    4.27
  18  -3   3   -3.89    6.55
 -18   3   3   12.71   22.20
 -18   4  -3   17.17   21.37
  18  -4  -3  -10.24    6.17
 -18   4   3    1.58    4.20
  18  -4   3    0.31    6.17
 -18   4   3   23.41   23.10
 -18   5  -3    0.42    4.32
 -18   5  -3   14.54   22.94
  18  -5   3   -0.31    6.52
  18  -5   3    3.32   21.53
  19   7  -3   19.48   27.41
 -19  -7   3    0.31    4.07
  19   6  -3   17.66   27.13
  19   6  -3   -2.86   10.59
 -19  -6   3   -7.12    4.45
  19   6   3   -5.66   29.17
 -19  -6   3   10.30   15.73
  19   5  -3    1.22   26.25
  19   5  -3   -0.53    9.76
 -19  -5  -3   15.90   17.38
 -19  -5   3   -6.76   15.47
  19   5   3  -39.78   30.48
 -19  -5   3    4.38    4.58
  19   5   3  -11.57   11.11
 -19  -4  -3   -0.35    4.24
  19   4  -3   -1.51    9.77
  19   4  -3    3.58   24.82
 -19  -4  -3   -9.40   17.66
 -19  -4   3    3.02   15.49
  19   4   3   25.86   10.77
 -19  -4   3    4.82    4.58
  19   4   3    1.42   29.18
  19   3  -3    6.04    9.02
 -19  -3  -3   -1.70   17.38
 -19  -3  -3    2.58    4.36
  19   3  -3  -27.24   24.34
  19   3   3   -6.91   10.15
 -19  -3   3   -3.44   15.72
 -19  -3   3    0.70    4.59
  19   3   3   11.25   29.88
 -19  -2  -3   -0.38    5.50
 -19  -2  -3  -26.30   18.59
 -19  -2   3   -9.73    5.29
 -19  -2   3  -52.70   19.30
  19   1  -3  -21.83    9.77
  19   1  -3  -40.80   26.02
 -19  -1  -3  -22.00    6.13
 -19  -1   3  -11.50    5.71
 -19   1  -3  -69.17   24.20
  19  -1  -3   -0.80   25.20
 -19   1  -3  -22.36    6.52
 -19   1   3   -9.54    5.96
 -19   1   3  -22.87   23.00
 -19   2  -3   -2.54   22.14
 -19   2  -3  -11.99    5.70
  19  -2  -3  -27.72    8.19
 -19   2   3   -1.23    5.13
 -19   2   3  -32.22   22.39
  19  -3  -3  -29.97    7.00
 -19   3  -3   10.45   23.32
  19  -3  -3   17.67   21.32
 -19   3   3    6.35    5.19
  19  -3   3  -33.05    8.08
 -19   3   3  -27.70   23.46
 -19   4  -3  -13.39   24.53
  19  -4  -3   -0.34    6.51
 -19   4   3   17.87   25.24
  19  -4   3    0.34    7.34
 -19   4   3   -0.44    4.36
 -19   5  -3    5.16    5.40
 -19   5  -3    7.59   25.01
  19  -5   3  -27.09   23.83
  19  -5   3    9.04    7.05
  20   6  -3   -0.63   11.16
  20   6  -3   22.63   29.68
 -20  -6   3   -7.16   17.18
 -20  -6   3    0.73    4.59
  20   5  -3   -0.90   29.12
  20   5  -3  -20.95   11.05
 -20  -5   3    2.24    4.87
 -20  -5   3    5.77   17.54
  20   4  -3   -0.55   10.37
 -20  -4  -3   31.01   19.85
  20   4  -3   -8.36   27.15
 -20  -4   3   -8.05    5.16
  20   4   3    0.62   11.17
 -20  -4   3   -7.85   17.65
  20   3  -3   -5.51   26.54
  20   3  -3    9.55   10.34
 -20  -3  -3   -0.42    4.16
 -20  -3  -3    6.38   18.70
 -20  -3   3    0.39    5.01
 -20  -3   3   15.02   18.25
  20   3   3    0.59   11.00
  20   2  -3   10.81   25.75
  20   2  -3   26.25   10.14
 -20  -2  -3    2.51   20.11
 -20  -2   3   -2.26   19.24
  20   2   3   -2.80   11.05
  20   2   3   12.49   31.23
 -20  -2   3   16.67    6.06
 -20  -1  -3   -0.44    5.33
  20   1  -3    6.13    9.39
 -20  -1  -3   19.61   20.16
  20   1  -3    7.62   25.16
 -20  -1   3  -17.92   20.53
  20   1   3    7.43   10.63
 -20  -1   3    0.42    5.30
  20   1   3  -16.87   29.31
 -20   0  -3    1.80    5.65
  20   0  -3   20.40   25.40
 -20   0  -3  -15.03   21.41
  20   0  -3    2.72    8.69
 -20   0   3    3.88    5.08
 -20   0   3   -9.53   22.12
  20   0   3   -7.67   10.43
  20   0   3   14.22   28.59
  20  -1  -3  -16.61   25.27
  20  -1  -3    4.35    8.70
 -20   1  -3    2.72   22.57
 -20   1   3   18.50   22.78
  20  -1   3  -29.64    9.52
 -20   1   3    0.44    5.43
  20  -2  -3   -4.70    7.88
  20  -2  -3   24.26   24.50
 -20   2  -3  -39.06   25.07
 -20   2   3   11.00    5.55
  20  -2   3   -4.77    9.02
 -20   2   3    4.13   24.56
  20  -3  -3    0.38    7.54
  20  -3  -3  -21.38   23.70
 -20   3   3    0.72   25.92
 -20   3   3   -5.17    5.63
   0   0  -4  152.26   39.55
   0   0  -4  174.50   40.71
   0   0   4  147.55   47.64
   0   1  -4    0.23    0.38
   1   0  -4    0.15    0.49
   0   1  -4   -0.08    0.30
  -1   0   4    0.05    1.46
   0  -1   4   -0.13    0.92
   1   1  -4    1.35    0.56
  -1   1  -4    1.22    0.39
  -1   1  -4    1.30    0.68
  -1   1  -4    1.14    0.49
  -1  -1   4    1.09    1.19
   1  -1   4    1.31    0.42
   1  -1   4    0.68    1.22
   1  -1   4    1.29    0.96
  -1   2  -4    0.66    0.56
   2   1  -4    0.90    0.58
   2   1  -4    1.10    0.35
  -1   2  -4    1.24    0.31
  -1   2  -4    1.04    0.28
   2   1  -4    0.55    1.22
   2   1  -4    0.29    0.46
  -2  -1   4    0.64    1.46
  -2  -1   4    0.63    0.27
   1  -2   4    0.66    0.44
   2   0  -4   33.30    9.62
   2   0  -4   45.99   10.09
   0   2  -4   39.07    9.88
  -2   0  -4   47.04   11.30
   0   2  -4   32.50    9.30
   2   0   4   30.85   11.90
   2   0   4   55.99    9.95
   1   2  -4    0.59    0.58
  -2   1  -4    0.76    0.41
  -2   1  -4    0.92    0.99
  -2   1  -4    0.74    0.28
   2  -1   4    0.42    1.71
   2  -1   4    0.56    0.45
   2  -1   4    0.23    0.91
  -2   2  -4   20.87    4.75
   2   2  -4   23.71    5.08
  -2   2  -4   14.78    4.58
   2   2  -4   23.74    4.72
   2   2  -4   22.00    6.46
  -2  -2   4   20.14    4.99
   2  -2   4   16.42    6.68
   2  -2   4   17.87    4.92
   2  -2   4   18.83    5.01
  -2  -2   4   16.77    5.79
   3   2  -4   24.46    6.50
   3   2  -4   21.97    8.06
   3   2  -4   25.72    6.57
   3   2  -4   22.41    6.10
  -3  -2   4   26.92    7.45
  -3  -2   4   31.40    6.46
   3   1  -4    7.35    1.86
   3   1  -4    3.97    2.98
   3   1  -4    7.91    2.04
   3   1  -4    8.67    1.87
  -3  -1  -4    6.41    2.78
  -3  -1   4    5.39    2.88
   3   1   4    9.11    2.26
   1  -3   4    8.58    1.97
  -3  -1   4    6.94    1.75
   3   1   4    7.30    3.02
   0   3  -4   -0.22    0.35
   3   0  -4    0.35    0.80
   3   0  -4   -0.11    2.10
  -3   0  -4    0.77    1.24
   3   0  -4    0.19    0.72
  -3   0   4    1.38    2.43
   3   0   4    0.52    2.15
   3   0   4    0.16    0.75
  -3   0   4   -0.16    0.31
   0  -3   4   -0.05    0.53
  -3   1  -4    7.09    2.44
   3  -1   4    6.78    1.74
  -1  -3   4    5.78    1.84
   3  -1   4    4.55    3.21
   2   3  -4   22.26    5.93
   2   3  -4   26.11    6.44
   3  -2   4   18.41    8.34
   3  -2   4   25.47    6.21
  -2  -3   4   28.39    6.32
   3   3  -4   53.33   11.03
  -3   3  -4   50.75   10.79
   3   3  -4   39.26   16.04
   3   3  -4   49.78   12.00
   3  -3   4   30.19   16.04
  -3  -3   4   44.17   11.78
   4   3  -4   23.64    5.18
   4   3  -4   19.34    5.26
   4   3  -4   23.77    7.31
  -4  -3   4   12.40    5.07
  -4  -3   4   16.70    6.08
   4   2  -4   14.13    5.48
   4   2  -4   16.94    4.07
   4   2  -4   14.50    3.92
   4   2  -4   13.03    3.69
  -4  -2  -4    8.62    5.31
  -4  -2   4   14.75    4.76
  -4  -2   4   19.28    3.98
   4   1  -4    0.72    0.90
   4   1  -4    0.04    0.63
   4   1  -4    0.36    0.71
  -4  -1  -4    0.17    1.84
   4   1  -4    0.20    2.58
   4   1   4    0.45    1.19
   4   1   4    1.65    2.87
  -4  -1   4    0.99    0.43
  -4  -1   4    0.16    2.42
  -4  -1   4    0.66    2.01
   4   0  -4   69.77   19.06
   4   0  -4   97.50   17.60
  -4   0  -4   67.48   19.86
   4   0  -4   86.01   17.48
   4   0  -4   56.36   23.80
  -4   0   4   57.30   16.86
   4   0   4   71.04   22.37
  -4   0   4   71.42   23.28
   4   0   4   67.51   17.48
   4  -1  -4    1.17    1.34
  -4   1  -4    1.18    2.00
   4  -1   4   -0.13    3.24
  -4   1   4    0.32    0.50
   4  -1   4    0.24    0.81
  -1  -4   4    0.90    0.76
   2   4  -4   19.70    3.93
  -4   2  -4   17.78    3.76
  -4   2  -4   12.88    4.05
   4  -2   4    6.64    6.00
   4  -2   4   16.89    4.06
   4  -2   4   18.04    3.87
   4  -3   4   26.17    5.78
   4  -3   4   21.94    8.46
   4   4  -4   18.23    6.83
   5   4  -4    7.37    5.01
   5   4  -4    8.20    2.04
  -5  -4   4    6.45    2.39
   5   3  -4    2.04    1.62
   5   3  -4    2.40    4.42
   5   3  -4    1.03    1.43
  -5  -3   4    0.58    2.54
   5   2  -4   20.25    4.96
   5   2  -4   21.00    5.23
   5   2  -4   21.87    5.51
   5   2  -4   18.18    7.49
  -5  -2   4   21.80    5.38
  -5  -2   4   21.18    7.10
  -5  -2   4   16.40    6.32
   5   1  -4   34.26    8.87
   5   1  -4   39.94    9.62
   5   1  -4   34.85    8.61
   5   1  -4   25.22   11.90
  -5  -1   4   30.98   12.04
  -5  -1   4   42.32    8.41
  -5  -1   4   36.43   10.75
   5   0  -4   -0.07    1.12
   5   0  -4    0.95    3.72
  -5   0  -4   -0.27    2.43
   5   0  -4    1.20    1.30
   5   0  -4    0.11    0.90
  -5   0   4    0.91    3.86
   5   0   4    0.15    1.29
  -5   0   4    0.58    0.63
  -5   1  -4   39.62   11.35
   5  -1  -4   44.61    9.70
   5  -1  -4   37.20    9.46
   5  -1  -4   38.84   14.16
   5  -1   4   35.82    9.52
  -5   4  -4    6.61    1.92
   5   5  -4    6.14    2.58
  -5  -5   4    9.04    2.62
   6   5  -4    8.13    2.46
   6   5  -4    3.09    5.87
  -6  -5   4    4.62    2.41
   6   4  -4    0.07    1.01
   6   4  -4    0.91    1.63
  -6  -4   4    1.44    1.56
  -6  -3  -4    3.63    3.61
  -6  -2  -4   92.39   22.49
   6   2  -4   76.16   20.28
   6   2   4  102.60   20.26
  -6  -2   4   73.38   23.09
  -6  -1  -4    1.90    3.01
   6   1  -4   -0.57    1.45
   6   1  -4   -0.15    0.88
   6   1   4    0.11    1.82
  -6  -1   4   -0.98    3.94
   6   1   4   -2.54    5.27
   6   0  -4   16.00    4.13
   6   0  -4   12.64    3.65
  -6   0  -4   14.78    5.05
  -6   0   4    8.69    6.73
   6   0   4   17.82    7.05
   6   0   4   13.85    3.76
   6  -1  -4   -1.23    5.29
  -6   1  -4   -0.36    3.84
   6  -1  -4   -0.34    1.88
   6  -1   4    0.19    5.35
  -6   1   4   -0.64    0.95
   6  -1   4    0.08    1.41
  -6   2  -4   85.81   19.16
   6  -2   4   93.28   19.89
   6  -2   4   76.10   23.73
  -6   2   4   95.20   19.35
  -6   3  -4    3.15    1.22
   6  -3   4    2.18    5.63
   6  -3   4    1.89    1.51
  -6   4  -4    0.35    1.11
   6  -4   4   -1.23    6.52
   6  -4   4    1.40    1.46
   7   6  -4    9.07    3.30
   7   6  -4    7.65    7.11
   7   5  -4   10.69    7.15
   7   5  -4    9.54    2.59
   7   5  -4    6.26    3.18
  -7  -5   4   10.23    3.17
   7   4  -4    3.35    2.30
   7   4  -4    1.90    3.30
   7   4  -4    5.38    1.46
  -7  -4   4   -6.33    5.77
  -7  -4   4    0.45    2.45
  -7  -3  -4    2.15    4.28
   7   3  -4    4.51    6.78
   7   3  -4    2.55    0.99
   7   3  -4    2.29    2.25
   7   3  -4   -0.07    1.62
  -7  -3   4    1.44    1.71
   7   3   4    3.17    2.94
  -7  -3   4    1.95    3.52
   7   3   4    0.88    5.86
  -7  -2  -4    0.14    3.67
   7   2  -4   -1.49    1.72
  -7  -2   4    0.23    3.87
   7   2   4    0.15    2.35
   7   1  -4    3.28    1.68
  -7  -1  -4    2.31    3.49
   7   1  -4   -2.24    5.49
   7   1  -4    4.44    1.08
   7   1  -4    2.79    1.55
   7   1   4    2.12    2.18
  -7  -1   4    5.14    4.36
  -7  -1   4    2.97    4.61
  -7  -1   4    0.31    1.06
  -7   0  -4    1.57    3.85
   7   0  -4   -0.28    1.24
   7   0  -4   -1.37    1.47
   7   0  -4    0.29    5.09
   7   0  -4   -0.66    1.67
  -7   0   4    4.38    5.22
  -7   0   4    0.62    0.98
   7   0   4   -0.12    6.34
   7   0   4    1.46    1.79
   7  -1  -4    1.46    1.52
   7  -1  -4    1.72    6.02
  -7   1  -4    3.05    4.35
   7  -1  -4    2.21    1.85
  -7   1  -4    1.66    1.09
  -7   1   4    1.26    1.17
   7  -1   4    1.68    1.70
   7  -1   4    5.66    6.06
   7  -2  -4    0.87    6.21
   7  -2  -4    0.17    1.48
  -7   2  -4    0.10    1.05
   7  -2   4   -3.21    6.06
   7  -2   4    0.09    1.51
  -7   2   4   -0.48    1.17
  -7   3  -4    1.44    1.35
   7  -3   4    1.18    5.91
   7  -3   4    0.89    1.62
  -7   4  -4    4.97    1.85
   7  -4   4    5.55    2.18
   7  -4   4   10.51    8.06
  -7   5  -4   13.77    2.52
   7  -5   4    3.86    2.65
   8   6  -4    6.53    8.14
   8   6  -4    7.74    3.22
   8   5  -4    0.27    8.12
   8   5  -4    9.87    3.87
   8   5  -4    9.38    2.13
   8   5  -4    2.57    2.87
  -8  -5   4    2.92    4.80
  -8  -5   4    6.20    2.94
   8   4  -4   13.64    3.25
  -8  -4  -4   -1.96    5.22
   8   4  -4    5.05    1.97
   8   4  -4    4.17    2.81
   8   4  -4    0.13    8.25
  -8  -4   4   11.85    4.64
  -8  -4   4   10.23    2.70
   8   4   4    3.92    6.90
   8   3  -4    1.29    1.94
   8   3  -4    2.50    2.38
   8   3  -4   -0.49    1.04
  -8  -3  -4    0.76    4.66
   8   3  -4   -0.96    7.73
  -8  -3   4    6.66    4.04
   8   3   4    1.37    3.22
  -8  -3   4   -0.82    5.10
   8   3   4   -0.14    6.98
  -8  -3   4   -0.79    1.80
   8   2  -4    3.91    3.11
   8   2  -4    9.30    2.35
   8   2  -4  -12.94   10.01
  -8  -2  -4   13.05    5.00
   8   2   4   12.99    3.75
  -8  -2   4    9.51    2.97
  -8  -1  -4   -0.59    4.53
   8   1  -4   -5.25    2.34
  -8  -1   4   -3.12    1.50
  -8  -1   4  -15.74    6.64
   8   1   4   -0.70    0.90
   8   1   4   -0.67    2.51
   8   0  -4    7.82    3.15
  -8   0  -4   10.60    5.35
   8   0  -4   11.55    2.72
  -8   0   4   11.30    2.32
  -8   0   4  -11.63    8.65
   8   0   4    6.30    3.01
   8   0   4  -17.22   11.01
   8  -1  -4   -0.58    1.96
  -8   1  -4    0.10    1.17
  -8   1  -4   -0.68    5.60
  -8   1   4   -0.12    1.33
   8  -1   4   -1.43    2.23
   8  -1   4  -21.05    9.54
  -8   2  -4    3.90    6.82
   8  -2  -4    4.61    2.37
  -8   2  -4    3.65    1.90
   8  -2  -4    9.14    9.05
  -8   2   4   10.59    2.11
   8  -2   4    5.78    2.68
   8  -2   4   -2.79    8.08
  -8   3  -4    0.25    1.40
   8  -3   4   -4.74    6.97
   8  -3   4    1.23    1.94
  -8   4  -4    4.35    2.04
   8  -4   4   12.05    8.45
   8  -4   4    6.06    2.36
  -8   5  -4    7.55    2.42
   8  -5   4    9.10    2.69
   9   6  -4    8.18   12.33
   9   6  -4   30.85    7.04
   9   5  -4    8.65    3.75
   9   5  -4    3.93    2.86
   9   5  -4   -0.16    9.36
  -9  -5   4    5.19    5.37
  -9  -5   4    4.15    2.92
   9   4  -4   55.61   12.30
   9   4  -4    3.22   17.54
   9   4  -4   46.68   11.56
  -9  -4  -4   39.24   15.06
   9   4  -4   51.33   12.74
   9   4   4   57.21   16.46
  -9  -4   4   68.65   14.16
   9   4   4   45.05   12.87
   9   3  -4    6.05    2.88
   9   3  -4   11.14    3.26
   9   3  -4    3.88    1.92
   9   3  -4    3.18    8.60
  -9  -3  -4    6.32    5.46
  -9  -3   4    8.26    5.99
  -9  -3   4    6.72    2.77
   9   3   4    5.93    3.95
   9   3   4   12.36    8.98
  -9  -3   4   13.05    5.23
   9   2  -4   16.05    3.71
   9   2  -4    9.73    3.74
  -9  -2  -4   15.17    5.77
   9   2  -4   13.19    2.98
   9   2  -4    2.33    8.56
  -9  -2   4    8.70    3.45
  -9  -2   4   14.00    6.15
   9   2   4    9.57    4.32
  -9  -2   4   15.13    6.61
   9   1  -4   -1.11    7.04
   9   1  -4    0.76    2.11
   9   1  -4   -0.06    1.07
  -9  -1  -4    1.70    4.85
  -9  -1   4   -1.07    1.28
  -9  -1   4   -0.18    5.64
   9   1   4   -0.30    2.74
  -9   0  -4   -1.43    5.28
   9   0  -4    0.21    2.06
   9   0  -4    2.09    6.96
  -9   0   4   -0.35    1.36
   9   0   4  -12.96    9.04
   9   0   4    0.13    2.39
  -9   1  -4   -0.48    1.41
   9  -1  -4    0.78    2.08
  -9   1  -4   -1.38    6.25
   9  -1  -4   -0.72    7.41
  -9   1   4    0.13    1.50
   9  -1   4   -1.47    2.38
   9  -1   4  -11.67    8.36
  -9   2  -4    8.63    2.78
  -9   2  -4   14.68    7.82
   9  -2  -4    2.55    8.70
   9  -2  -4   12.17    3.23
   9  -2   4    7.31    3.29
   9  -2   4    1.59    8.48
  -9   2   4   12.72    2.91
   9  -3  -4    6.69    2.73
  -9   3  -4    8.88    2.28
  -9   3   4    4.97    2.35
   9  -3   4    7.29    2.84
   9  -3   4   14.66    8.03
  -9   4  -4   52.71   10.54
   9  -4   4   34.54   10.88
   9  -4   4   43.52   16.65
  -9   5  -4    3.25    2.28
   9  -5   4    5.85    2.51
   9  -5   4   12.04    9.73
  10   7  -4   12.58    4.28
  10   7  -4    1.24   10.78
  10   6  -4    1.87    3.02
  10   6  -4   -0.36   10.65
  10   5  -4    5.37   12.79
  10   5  -4   22.81    6.84
  10   5  -4   28.23    6.39
 -10  -5   4   20.93    6.65
 -10  -5   4   20.10    8.52
  10   4  -4    2.87    3.06
 -10  -4  -4    1.76    6.41
  10   4  -4    2.83   10.42
  10   4  -4    2.90    3.92
  10   4  -4    5.28    1.87
 -10  -4   4    8.73    5.74
  10   4   4    9.48    9.79
 -10  -4   4    7.10    2.82
  10   4   4    5.01    4.71
 -10  -4   4    1.03    6.63
  10   3  -4    5.94    2.73
  10   3  -4   -0.16    9.82
  10   3  -4    5.01    3.28
 -10  -3  -4    9.05    5.86
  10   3  -4    6.70    1.70
  10   3   4    1.34    4.32
 -10  -3   4    1.81    2.58
 -10  -3   4    6.89    6.40
 -10  -3   4   -0.18    5.63
  10   3   4    0.19   10.23
  10   2  -4    7.33    2.99
  10   2  -4    1.73    2.63
  10   2  -4    3.73    1.66
 -10  -2  -4   12.96    5.65
 -10  -2   4    5.67    2.39
  10   2   4    7.52    3.94
  10   2   4    3.05   11.05
 -10  -2   4    6.04    1.85
 -10  -2   4    5.13    6.08
 -10  -2   4    3.84    6.71
  10   1  -4    0.48    1.23
  10   1  -4    3.34    2.53
  10   1  -4    0.50    2.11
  10   1  -4   -7.78    8.35
 -10  -1  -4    3.51    5.58
 -10  -1   4    0.45    1.75
 -10  -1   4    6.05    6.79
 -10  -1   4    1.81    6.68
  10   1   4    1.20    3.21
 -10  -1   4    1.48    1.44
  10   0  -4   30.90    8.04
  10   0  -4    5.25   13.18
 -10   0  -4   50.41   11.57
  10   0  -4   29.78    8.51
 -10   0   4   39.18   12.76
 -10   0   4   40.65    8.17
  10   0   4   35.37    8.64
 -10   1  -4    1.13    6.96
  10  -1  -4    1.02    2.52
  10  -1  -4    1.88    8.26
 -10   1  -4    1.37    1.53
  10  -1  -4    1.52    1.73
  10  -1   4    3.58    2.80
 -10   1   4    0.89    1.56
  10  -1   4  -12.38    9.25
 -10   2  -4    8.04    8.45
  10  -2  -4    4.75    2.77
  10  -2  -4    0.37    9.17
 -10   2  -4    9.15    2.35
  10  -2   4    5.64    2.94
 -10   2   4    5.51    2.20
  10  -2   4    0.32    8.81
 -10   3  -4    8.23    2.06
  10  -3  -4    3.78    2.66
  10  -3   4   -9.45    9.02
 -10   3   4    3.85    2.14
  10  -3   4    1.58    2.70
 -10   4  -4    3.88    2.21
  10  -4   4    2.38    2.74
  10  -4   4   10.54   10.09
 -10   5  -4   18.38    5.14
  10  -5   4   18.38    5.30
  10  -5   4   24.18   12.33
  10  -6   4   -3.25    2.68
  11   7  -4   -2.79   11.94
  11   7  -4    1.86    3.53
  11   6  -4    0.49    3.24
  11   6  -4    0.80   12.37
 -11  -6   4    2.54    6.98
  11   5  -4   -0.66    3.09
  11   5  -4    0.50    4.63
 -11  -5  -4    2.38    7.04
  11   5  -4    1.17   12.15
  11   5   4    3.32   11.15
 -11  -5   4    3.92    6.73
 -11  -5   4   -1.49    3.03
 -11  -4  -4   19.30    8.57
  11   4  -4   -0.19   12.59
  11   4  -4    8.39    5.36
  11   4   4    0.21   12.18
 -11  -4   4   24.41    7.48
 -11  -4   4   13.25    8.42
  11   4   4    5.11    5.91
 -11  -4   4   21.15    4.73
  11   3  -4   -0.35   10.61
 -11  -3  -4    1.18    6.79
  11   3  -4   -0.55    3.57
  11   3   4    1.22    4.27
  11   3   4    0.22   12.11
 -11  -3   4    9.16    6.63
  11   2  -4    5.91    3.60
 -11  -2  -4   12.39    6.80
  11   2  -4   -2.10   10.44
  11   2   4    0.22   12.78
 -11  -2   4    5.92    2.25
  11   2   4    7.06    4.30
 -11  -2   4    6.29    7.21
  11   1  -4   24.44    6.91
  11   1  -4   -0.94   12.38
 -11  -1  -4   36.42   10.02
  11   1   4   22.61    7.30
 -11  -1   4   32.90   10.98
 -11  -1   4   27.96    6.40
 -11   0  -4    6.61    7.39
  11   0  -4    0.15    8.81
  11   0  -4    0.85    2.89
 -11   0   4   10.22    8.78
  11   0   4   -2.64    3.56
 -11   0   4   -0.15    1.73
  11  -1  -4    2.75   12.73
 -11   1  -4   36.91   11.67
 -11   1  -4   29.75    7.05
  11  -1  -4   39.79    7.41
  11  -1   4   10.00   14.00
 -11   1   4   32.22    7.00
  11  -1   4   26.74    7.52
 -11   2  -4   12.97    9.32
  11  -2  -4    6.23    3.16
 -11   2  -4    0.82    2.38
  11  -2  -4    4.76   10.42
 -11   2   4    4.78    2.39
  11  -2   4    8.17    3.36
  11  -2   4    9.22   10.49
 -11   3  -4    3.91    2.50
  11  -3  -4    5.02   10.48
  11  -3  -4    8.03    3.13
 -11   3  -4    6.13   10.41
 -11   3   4    5.44    2.42
  11  -3   4    2.17    9.88
  11  -3   4    8.55    3.45
 -11   4  -4    9.76    3.33
  11  -4   4    9.08    3.99
 -11   5  -4    1.95    2.39
  11  -5   4    0.29    3.02
  11  -5   4  -26.90   12.00
 -11   6  -4    5.40    2.70
  11  -6   4    2.56    3.03
  12   7  -4   -1.56   13.74
  12   6  -4    0.89   14.36
  12   6  -4   -2.17    5.51
 -12  -6   4   -8.69    7.74
  12   5  -4    1.09   13.97
 -12  -5  -4    1.92    7.85
  12   5  -4   -0.55    5.10
 -12  -5   4   -3.80    7.49
  12   4  -4   -0.62   13.36
  12   4  -4   -0.46    4.51
 -12  -4  -4   -8.25    8.07
 -12  -4   4   -2.68    7.11
  12   4   4   -0.24   13.77
  12   4   4   -1.84    5.60
  12   3  -4   -3.07   12.60
 -12  -3  -4    3.13    7.39
  12   3  -4    0.82    4.10
  12   3   4   -6.08   13.85
 -12  -3   4   -4.95    7.73
 -12  -3   4    0.91    2.07
  12   3   4    3.49    4.96
  12   2  -4    3.50   11.81
  12   2  -4   13.29    4.57
 -12  -2  -4   18.83    7.93
  12   2   4   14.51    5.56
  12   2   4    7.75   15.00
 -12  -2   4    9.35    3.40
 -12  -2   4    9.27    8.50
  12   1  -4    0.88   10.53
  12   1  -4   -3.23    3.46
 -12  -1  -4   -5.29    7.72
 -12  -1   4   -0.77    8.97
 -12  -1   4    1.12    2.04
  12   1   4   -2.38    4.26
 -12   0  -4   43.45   12.40
  12   0  -4   28.10   14.03
  12   0  -4   36.27    8.20
 -12   0   4   35.92   13.61
  12   0   4   11.02    8.65
 -12   0   4   33.41    7.72
 -12   1  -4    0.36    2.31
 -12   1  -4   -4.64    9.42
  12  -1  -4   -2.58    3.25
  12  -1  -4   -3.78   10.15
  12  -1   4  -10.79    3.68
 -12   1   4    0.18    2.16
 -12   1   4    2.52   10.84
  12  -2  -4    7.18    3.88
 -12   2  -4   15.81    3.32
 -12   2  -4   14.82   10.96
  12  -2  -4   -3.85   11.58
  12  -2   4   10.54    4.28
  12  -2   4    0.20   12.16
 -12   2   4    8.92    3.33
 -12   3  -4    2.78    2.60
  12  -3  -4    3.02   11.00
  12  -3  -4    1.63    3.19
 -12   3  -4    0.34   11.28
  12  -3   4   -6.63   11.40
  12  -3   4    0.99    3.53
 -12   3   4    3.75    2.50
 -12   4  -4    1.94    2.51
  12  -4   4   -9.84   12.55
  12  -4   4   -3.46    3.50
 -12   5  -4   -0.24    2.18
  12  -5   4   -0.25    9.79
  12  -5   4   -1.81    3.33
  13   6  -4   20.82   15.85
  13   6  -4   10.47    6.44
 -13  -6   4  -32.86    9.66
  13   5  -4    3.29    5.87
  13   5  -4   18.10   16.01
  13   5   4   -0.26   14.99
 -13  -5   4   -2.23    8.51
  13   4  -4   -4.08   14.91
  13   4  -4    2.04    5.02
 -13  -4   4    5.72    7.90
  13   3  -4    3.89   14.13
  13   3  -4   -0.23    4.60
 -13  -3   4    0.25    8.30
 -13  -3   4    0.34    2.20
  13   2  -4    2.06    4.17
  13   2  -4    1.01   12.90
 -13  -2   4   -0.53    2.53
 -13  -2   4    6.16    9.15
  13   1  -4   14.69   11.96
  13   1  -4    9.06    4.31
 -13  -1  -4    3.13    9.33
 -13  -1   4    8.39    9.91
  13   1   4    8.68    5.21
 -13  -1   4    5.43    2.79
  13   0  -4   11.32   11.36
 -13   0  -4   -6.06   10.07
  13   0  -4   -1.62    3.74
  13   0   4    4.61    4.35
 -13   0   4    5.71   10.96
 -13   0   4    2.30    2.42
 -13   1  -4   -0.33   11.24
  13  -1  -4    4.42    3.64
  13  -1  -4   -9.22   11.75
 -13   1   4    5.35    2.80
 -13   1   4    9.02   12.20
  13  -1   4   -0.20    4.10
 -13   5  -4   -3.12    3.12
  13  -5   4   -0.27   13.55
 -13   6  -4    0.56    2.66
  13  -6   4   -2.79    3.76
  14   8  -4   18.83   17.91
  14   7  -4   -4.63   17.36
  14   6  -4   -8.10   17.87
 -14  -5  -4  -15.87    9.80
  14   5   4    2.76    7.14
  14   5   4   10.25   16.74
 -14  -4  -4   27.82   11.42
  14   4   4   11.99    7.90
  14   4   4    5.42   18.89
 -14  -3  -4   -1.94    9.27
  14   3   4    0.65    6.22
  14   3   4   17.86   18.50
 -14  -2  -4   -3.41    9.90
  14   2   4   26.45   18.26
  14   2   4    2.64    5.71
 -14  -1  -4   11.24   10.11
 -14  -1  -4    1.10    2.87
  14   1   4   -7.24    5.21
  14   1   4   29.84   17.78
 -14   0  -4    6.82   10.88
  14   0   4   -6.32    5.03
 -14   1  -4  -10.20   12.04
 -14   1   4   -0.23    2.44
  14  -1   4   -8.84    4.80
 -14   2  -4    3.56    3.01
  14  -2  -4   -5.80   12.99
 -14   2  -4   -7.37   13.20
  14  -2  -4   -0.20    3.68
 -14   2   4   -2.70    2.73
  14  -2   4   -3.21    4.54
  14  -2   4    4.42   14.74
 -14   3  -4    0.41   13.85
  14  -3  -4   -1.83    4.21
 -14   3  -4    2.02    3.07
  14  -3  -4  -27.96   13.79
  14  -3   4    2.73    4.24
  14  -3   4  -26.16   14.19
 -14   3   4   -1.31    2.84
 -14   4  -4   14.66   15.39
  14  -4  -4   23.12    5.23
 -14   4  -4   -0.80    3.78
  14  -4   4    0.60    4.36
 -14   5  -4    5.43    3.49
  14  -5   4    0.29   14.61
  14  -5   4    8.22    4.23
 -14   6  -4    0.30    3.10
  14  -6   4    2.06    4.21
  15   7  -4  -47.38   23.34
  15   6  -4   14.97   19.33
  15   6  -4    8.66    7.49
 -15  -6   4   -2.54   10.61
 -15  -5  -4   -1.65   11.29
  15   5  -4  -13.16   18.78
  15   5  -4    1.39    6.56
  15   5   4  -16.68   19.44
 -15  -5   4  -14.16   10.34
  15   5   4    3.42    7.61
  15   4  -4   -6.89   17.68
  15   4  -4   10.33    6.48
 -15  -4  -4   -7.30   10.88
  15   4   4  -23.09   20.40
  15   4   4    0.39    7.19
 -15  -4   4    0.21    2.91
 -15  -4   4   -2.51   10.57
  15   3  -4    8.31    6.40
 -15  -3  -4    1.81   10.69
  15   3  -4   16.74   16.21
 -15  -3   4    9.77    3.48
  15   3   4    0.33   20.14
  15   3   4   12.96    7.26
 -15  -3   4   -5.68   10.69
  15   2  -4    7.72   15.73
  15   2  -4    2.42    5.19
 -15  -2  -4    6.62   10.24
 -15  -2   4   -1.79    2.65
 -15  -2   4   -5.06   11.17
  15   2   4  -17.64    6.71
  15   2   4   -0.33   20.41
 -15  -1  -4  -19.12   11.71
  15   1  -4    8.23   14.61
  15   1  -4   -2.94    5.06
 -15  -1  -4    1.74    3.23
 -15  -1   4   -1.79   12.17
 -15  -1   4    0.23    2.94
  15   1   4    9.59   19.02
  15   1   4    0.30    5.60
  15   0  -4    1.65   14.23
  15   0  -4   -0.24    4.68
 -15   0  -4   -2.05    3.27
 -15   0  -4    0.39   12.49
  15   0   4    0.30   18.11
 -15   0   4    0.24    2.97
 -15   0   4   -6.19   13.60
  15   0   4    0.28    5.90
  15  -1  -4   -4.98    4.89
  15  -1  -4   13.55   15.07
 -15   1  -4  -14.18   13.28
  15  -1   4   -0.26    5.16
 -15   1   4  -16.72   15.25
 -15   1   4   -6.11    3.26
  15  -2  -4    4.62    4.65
 -15   2  -4   -0.80    3.51
  15  -2  -4  -10.71   15.10
 -15   2  -4   -2.58   14.41
 -15   2   4    0.45   15.37
  15  -2   4   -7.63    5.06
 -15   2   4    4.06    3.27
  15  -3  -4    4.45    4.58
  15  -3  -4    9.76   14.17
 -15   3  -4   -1.13    3.60
 -15   3  -4    9.49   15.52
  15  -3   4   15.55    5.12
 -15   3   4    2.88    3.48
  15  -3   4    9.91   15.93
 -15   4  -4   -9.41   16.37
 -15   4  -4    3.24    3.45
  15  -4  -4   -4.64    4.67
  15  -4   4    0.45    4.26
  15  -4   4   11.58   16.49
 -15   5  -4    5.36   17.59
 -15   5  -4   -0.31    3.88
  15  -5   4  -36.00   16.49
  15  -5   4   -6.28    4.76
 -15   6  -4    6.94    4.06
  15  -6   4    9.93    4.92
  16   7  -4  -20.63   22.04
  16   6  -4  -51.19   21.54
  16   6  -4   -9.43    8.03
 -16  -6   4   -0.40   11.23
  16   6   4   49.55   22.88
 -16  -5  -4   12.28   12.87
  16   5  -4  -22.09    7.95
 -16  -5   4   16.34   12.44
 -16  -5   4    2.61    3.32
  16   5   4    0.36   22.88
  16   5   4    8.87    8.55
 -16  -4  -4    3.84   12.31
  16   4  -4   11.64   19.32
  16   4  -4  -11.04    6.93
 -16  -4   4    4.36    3.24
  16   4   4    1.11   22.23
 -16  -4   4   10.12   11.19
  16   4   4    3.82    7.77
  16   3  -4    3.18   18.14
  16   3  -4   -7.23    6.46
 -16  -3  -4  -12.18   11.68
  16   3   4  -42.53   22.12
  16   3   4  -12.73    7.74
 -16  -3   4    3.49    3.22
 -16  -3   4   -5.26   11.82
  16   2  -4   -3.75   16.54
 -16  -2  -4    3.80    3.70
  16   2  -4   -2.37    6.11
 -16  -2  -4   -4.70   11.85
  16   2   4   11.36   21.97
 -16  -2   4    9.07    3.54
 -16  -2   4    4.12   12.59
  16   2   4   -0.36    7.02
 -16  -1  -4   -7.30   12.31
  16   1  -4    1.15    5.77
  16   1  -4   15.47   16.03
 -16  -1  -4   -5.57    3.51
  16   1   4    9.39    6.86
 -16  -1   4   -5.98   13.07
 -16  -1   4   -6.20    3.41
  16   1   4   24.60   21.63
  16   0  -4   -3.68    5.58
 -16   0  -4    1.72    4.02
 -16   0  -4   34.47   14.65
  16   0  -4   11.83   15.42
 -16   0   4    8.71    3.64
  16   0   4    9.80   19.87
  16   0   4   11.89    6.72
 -16   0   4   -6.41   14.94
 -16   1  -4    0.45   14.60
  16  -1  -4   18.44   16.17
  16  -1  -4    4.15    5.22
  16  -1   4   15.88    6.28
 -16   1   4  -11.43   15.99
 -16   1   4   -7.07    3.67
  16  -2  -4    0.60   15.67
  16  -2  -4   -1.74    5.08
 -16   2  -4    7.58   15.96
 -16   2   4    1.46   17.36
 -16   2   4    2.09    3.26
  16  -2   4    5.10    5.73
 -16   3  -4    1.26    4.00
  16  -3  -4   -2.99    4.89
  16  -3  -4    3.73   15.87
 -16   3  -4   -9.89   17.07
  16  -3   4   -3.90    5.42
 -16   3   4   -7.57    3.54
  16  -3   4    0.64   17.98
 -16   3   4   21.09   18.86
 -16   4  -4   -4.63    4.05
 -16   4  -4  -10.28   17.71
  16  -4  -4  -11.18    5.07
  16  -4   4    0.25    5.09
  16  -4   4    0.34   17.77
 -16   5  -4    3.72   18.49
 -16   5  -4    2.08    3.72
  16  -5   4    4.53    5.10
  16  -5   4  -29.75   18.08
 -16   6  -4   -1.45    4.25
  16  -6   4  -20.11    5.32
  17   7  -4    1.42   23.39
 -17  -7   4   -8.52   12.07
  17   6  -4  -36.40   22.89
  17   6  -4    0.47    8.26
  17   6   4   -0.39   24.40
 -17  -6   4    2.60   12.39
 -17  -5  -4    9.05   14.05
  17   5  -4  -13.85    8.08
  17   5  -4  -10.28   21.46
 -17  -5   4   11.17   12.65
 -17  -5   4    2.92    3.63
  17   5   4  -14.78   24.81
  17   5   4    4.60    8.79
  17   4  -4   -5.80   20.33
 -17  -4  -4   -1.43   13.84
  17   4  -4    7.09    7.43
  17   4   4  -16.13   25.31
 -17  -4   4    0.27    3.56
 -17  -4   4   19.01   12.77
  17   4   4  -18.23    8.50
  17   3  -4   -0.63   20.02
 -17  -3  -4   -0.46   13.54
  17   3  -4    2.55    7.42
 -17  -3   4   -2.73   13.29
  17   3   4   -4.02   24.94
 -17  -3   4    1.11    3.72
  17   3   4   11.86    8.50
  17   2  -4    3.47    7.02
 -17  -2  -4    7.02    4.15
 -17  -2  -4    0.88   13.35
  17   2  -4  -54.23   19.36
  17   2   4    2.01    7.97
 -17  -2   4    0.41   13.93
 -17  -2   4    1.97    3.62
  17   2   4   -1.92   23.85
 -17  -1  -4   -3.63   14.16
  17   1  -4   -2.22    6.68
 -17  -1  -4   10.45    3.96
  17   1   4  -26.15    8.23
 -17  -1   4    2.20   15.28
 -17  -1   4    0.29    3.73
 -17   0  -4    0.32    4.31
 -17   0  -4    1.91   15.35
  17   0  -4   -8.25    6.16
  17   0   4  -35.42    7.80
 -17   0   4    1.22    3.92
 -17   0   4    2.35   16.54
  17  -1  -4   -9.03    5.99
 -17   1  -4  -22.03   16.52
 -17   1   4    0.94    3.87
  17  -1   4  -12.17    6.84
 -17   1   4  -23.48   18.09
  17  -2  -4  -19.30   18.26
 -17   2  -4   22.46   17.79
  17  -2  -4   -1.95    5.77
 -17   2   4    1.00    3.81
 -17   2   4  -21.76   18.65
 -17   3  -4   -3.80   18.69
  17  -3  -4   10.34    5.80
 -17   3  -4    3.18    4.12
  17  -3  -4  -29.10   18.46
  17  -3   4  -16.66    6.39
 -17   3   4    2.24   20.96
 -17   3   4    1.04    3.90
 -17   4  -4   25.81   20.10
  17  -4  -4    0.27    5.67
 -17   4  -4    2.58    4.26
  17  -4   4   -3.74   20.35
  17  -4   4    0.29    5.91
 -17   5  -4    1.92    4.48
 -17   5  -4   26.56   20.75
  17  -5   4   -5.33   19.94
  17  -5   4    6.53    5.60
 -17   6  -4    1.59    4.48
 -17   6  -4    2.98   21.11
  17  -6   4   -9.77    5.43
 -18  -7   4   -3.90   12.80
  18   6  -4   -4.58    9.49
  18   6  -4  -34.05   25.42
 -18  -6   4    4.00    3.96
  18   6   4  -12.08   27.10
 -18  -6   4  -26.64   14.96
  18   5  -4  -15.67    9.67
  18   5  -4  -33.04   24.75
 -18  -5  -4  -39.63   18.69
  18   5   4  -28.04   10.74
 -18  -5   4   -2.06    4.59
 -18  -4  -4  -12.28   15.41
  18   4  -4   27.65   23.29
  18   4  -4   18.24    8.24
  18   4   4   20.53   26.77
 -18  -4   4   -3.01   14.38
 -18  -4   4   -1.83    3.98
  18   4   4    0.52    9.53
 -18  -3  -4    0.66    4.18
 -18  -3  -4   15.35   14.91
  18   3  -4  -33.78   21.55
  18   3  -4    8.69    8.18
 -18  -3   4    4.03    4.12
 -18  -3   4   -0.87   14.05
  18   3   4   10.41   26.76
  18   3   4    0.49    8.98
 -18  -2  -4   -1.73    4.56
 -18  -2  -4    4.53   15.13
  18   2  -4    1.31   19.75
  18   2  -4   -2.30    7.87
 -18  -2   4   -4.13    4.11
 -18  -2   4  -16.90   15.47
  18   2   4    2.57   26.03
  18   2   4   -2.76    8.64
  18   1  -4  -30.05   19.02
 -18  -1  -4    2.12    4.16
 -18  -1  -4    4.05   16.09
  18   1  -4    0.37    7.44
 -18  -1   4   15.71   16.36
 -18  -1   4    0.98    3.85
  18   1   4  -17.47    8.39
  18   1   4   23.24   24.79
  18   0  -4   -2.00    6.69
 -18   0  -4  -13.79   17.69
 -18   0  -4   -4.68    4.53
  18   0  -4   -8.18   19.51
  18   0   4  -12.55   23.61
 -18   0   4    8.77   17.91
 -18   0   4    0.34    4.21
  18   0   4   -0.40    8.03
  18  -1  -4   22.36   19.77
 -18   1  -4    0.37    4.17
 -18   1  -4   -3.36   17.61
  18  -1  -4    3.88    6.51
 -18   1   4  -30.69   19.87
  18  -1   4    1.15    7.71
 -18   1   4    1.06    4.66
  18  -1   4    2.30   22.24
 -18   2  -4   30.45   19.68
  18  -2  -4  -15.49   19.00
  18  -2  -4    7.95    6.52
 -18   2   4    2.57    4.51
  18  -2   4    3.63    7.57
 -18   2   4    5.19   20.35
  18  -3  -4   -9.69    5.88
 -18   3  -4  -14.86   19.83
 -18   3  -4    0.40    4.54
  18  -3  -4    8.51   18.61
  18  -3   4   -5.82    6.68
 -18   3   4   -3.81    4.40
 -18   3   4    9.11   21.56
 -18   4  -4   -2.46    5.04
 -18   4  -4  -35.45   21.59
  18  -4  -4   -0.30    6.11
  18  -4   4  -19.54   22.71
  18  -4   4    4.69    6.55
 -18   5  -4  -35.90   23.22
 -18   5  -4    0.43    5.06
  18  -5   4  -31.47    6.91
 -18   6  -4   -0.44    5.56
  19   6  -4   11.21   26.46
  19   6  -4    3.88   10.28
 -19  -6   4   11.15    4.79
 -19  -6   4    6.79   15.33
  19   6   4  -24.39   29.28
 -19  -5  -4  -10.57   17.40
  19   5  -4   40.22   26.06
  19   5  -4   -0.52    9.89
  19   5   4   -0.62   11.32
 -19  -5   4   -6.59   15.49
 -19  -5   4    0.66    4.44
  19   5   4  -21.20   29.49
  19   4  -4    2.88    9.09
 -19  -4  -4   -4.27   17.72
  19   4  -4   15.43   24.60
 -19  -4  -4    5.32    4.67
  19   4   4  -32.92   30.24
 -19  -4   4   -5.73    4.52
 -19  -4   4  -18.65   15.75
  19   4   4   10.03   10.76
  19   3  -4   24.42   23.34
 -19  -3  -4  -12.17    5.06
 -19  -3  -4  -35.15   17.26
  19   3  -4    0.46    8.64
 -19  -3   4   -0.96   16.02
 -19  -3   4    1.72    4.58
  19   3   4  -39.82   11.13
  19   3   4  -16.38   29.29
  19   2  -4   -1.78    9.15
 -19  -2  -4   -6.95    5.23
 -19  -2  -4  -29.39   17.89
 -19  -2   4   -5.37    4.82
 -19  -2   4   -6.06   17.42
  19   2   4   13.79   10.14
 -19  -1  -4  -18.87    5.51
 -19  -1   4  -42.10   20.43
 -19  -1   4  -10.73    5.64
  19   0  -4  -34.74    9.40
 -19   0  -4  -17.02    6.71
 -19   0   4  -22.42    5.85
 -19   1  -4  -63.01   21.38
  19  -1  -4   -1.88    7.99
 -19   1  -4  -17.13    6.21
 -19   1   4   -6.69    5.49
 -19   1   4    3.00   21.67
 -19   2  -4   12.05   21.62
  19  -2  -4  -12.78    7.47
 -19   2   4   -8.80   22.43
 -19   2   4   -0.41    5.07
  19  -2   4  -28.16    8.57
  19  -3  -4    0.34    6.78
 -19   3  -4    0.65   23.24
 -19   3   4   -9.92   22.80
 -19   3   4    2.52    4.66
  19  -3   4    0.37    7.75
 -19   4  -4    0.92    5.61
 -19   4  -4   14.74   24.16
  19  -4   4   16.18   25.14
  19  -4   4    0.36    7.08
 -19   5  -4    1.89    5.36
 -19   5  -4   17.83   24.77
  19  -5   4   -0.35    7.17
  19  -5   4  -17.60   24.52
 -19   6  -4   19.77   25.65
 -19   6  -4   -1.95    5.71
  19  -6   4    0.34    6.85
 -20  -6   4   12.77   16.64
 -20  -6   4    7.50    5.11
  20   5  -4   16.89   27.62
  20   5  -4  -19.45   10.34
 -20  -5   4   -5.12    4.68
 -20  -5   4   -7.85   18.13
  20   4  -4    6.56   10.80
  20   4  -4  -41.76   26.18
 -20  -4   4    7.51    4.83
 -20  -4   4    1.09   16.78
  20   3  -4  -10.89   24.84
  20   3  -4   19.80    9.91
 -20  -3  -4  -14.72   20.23
  20   3   4    4.94   12.14
 -20  -3   4    4.82   17.78
 -20  -3   4   -7.72    5.00
  20   2  -4   -6.40   24.11
  20   2  -4    1.47    9.89
 -20  -2  -4    1.27   20.25
  20   2   4   -0.50   24.11
  20   2   4  -16.44   10.50
 -20  -2   4   -5.19    4.94
 -20  -2   4    2.78   18.52
 -20  -1  -4  -21.68   20.66
  20   1  -4   -3.33   24.30
  20   1  -4   23.50    9.32
 -20  -1  -4    0.44    4.75
 -20  -1   4    1.18   19.74
 -20  -1   4  -11.57    5.35
  20   1   4    2.15   10.99
 -20   0  -4    3.63    5.33
 -20   0  -4  -10.48   21.77
  20   0  -4   -5.99    8.60
  20   0  -4   -9.08   24.98
  20   0   4  -28.80   10.41
 -20   0   4    9.74    4.81
  20   0   4  -21.07   28.83
 -20   0   4   -8.10   21.80
  20  -1  -4    9.19   24.85
  20  -1  -4  -14.71    8.40
 -20   1  -4  -17.65   23.07
  20  -1   4   -0.47   21.80
  20  -1   4    0.49   10.11
 -20   1   4  -22.26   23.49
 -20   1   4    5.27    5.31
  20  -2  -4   -6.16   23.40
  20  -2  -4    0.40    8.13
 -20   2  -4    5.64   24.25
  20  -2   4  -13.83    9.47
 -20   2   4    0.91    5.08
 -20   2   4  -11.00   24.09
  20  -3  -4    0.39    7.69
 -20   3   4   21.55   25.51
 -20   3   4   10.22    5.45
   0   0  -5   -0.29    0.67
   0   0  -5    0.09    0.53
   0   0   5    0.29    1.60
   1   0  -5    8.06    2.74
   0   1  -5   13.05    2.63
  -1   0  -5    9.59    2.63
   0   1  -5   10.17    2.48
  -1   0   5    9.41    3.73
   0  -1   5    8.34    3.28
   1   0   5    9.43    3.36
   1   1  -5    0.33    0.58
  -1   1  -5    0.24    0.39
  -1   1  -5    0.09    0.54
  -1   1  -5    0.67    0.67
   1  -1   5   -0.07    1.23
   1  -1   5   -0.10    1.28
   1  -1   5   -0.17    0.41
  -1  -1   5    1.21    1.53
   2   1  -5   13.13    3.47
  -1   2  -5   13.99    3.64
   2   1  -5   17.79    3.69
   2   1  -5   14.62    5.05
  -1   2  -5   16.31    3.28
   2   1  -5   12.76    3.47
  -1   2  -5   17.07    3.41
  -2  -1   5   12.94    4.58
   1  -2   5   14.80    4.89
   1  -2   5   14.45    3.54
   1  -2   5    7.20    3.58
  -2  -1   5   15.28    3.30
   0   2  -5   -0.33    0.36
  -2   0  -5   -0.63    1.13
   2   0  -5   -0.17    0.89
   2   0  -5    0.21    0.69
   0   2  -5   -0.28    0.57
   2   0   5   -0.06    0.77
   0  -2   5   -0.27    0.45
  -2   0   5   -0.07    2.26
   2   0   5   -0.16    1.66
   1   2  -5   11.55    3.24
  -2   1  -5   14.69    3.71
  -2   1  -5   14.47    3.03
   1   2  -5   13.28    2.98
  -2   1  -5   14.33    3.32
   2  -1   5   11.64    4.29
   2  -1   5   10.94    4.09
  -1  -2   5    5.55    3.17
   2  -1   5    9.36    3.10
  -2   2  -5    0.02    0.28
  -2   2  -5    0.05    0.58
  -2   2  -5    0.24    0.31
   2   2  -5    0.35    0.49
   2   2  -5    0.19    0.49
   2   2  -5   -0.55    0.75
   2   2  -5    0.43    1.21
   2  -2   5   -0.22    0.52
   2  -2   5    0.16    2.17
   2  -2   5   -0.22    0.42
  -2  -2   5   -0.05    0.59
  -2  -2   5   -0.28    0.76
   3   2  -5    2.41    2.16
   3   2  -5    2.31    1.07
   3   2  -5    2.07    0.85
   3   2  -5    2.42    0.90
  -3  -2   5    2.66    1.01
  -3  -2   5    2.48    1.49
   2  -3   5    2.03    0.91
   3   1  -5    6.85    4.04
   3   1  -5   11.68    4.40
  -3  -1  -5   10.59    5.64
   3   1  -5   16.35    6.03
   3   1  -5   18.74    4.12
  -3  -1   5   19.40    3.92
   1  -3   5   20.21    4.29
   3   1   5   17.62    5.64
  -3  -1   5   17.56    5.68
   3   1   5   21.21    4.68
   3   0  -5   -0.06    0.87
   3   0  -5    0.17    0.97
   0   3  -5    0.56    0.42
  -3   0  -5    1.60    1.38
   0   3  -5    0.36    0.72
  -3   0   5    0.23    2.80
  -3   0   5    0.29    0.31
   0  -3   5   -0.42    0.60
   3   0   5    0.58    0.94
   3   0   5   -0.33    2.37
   1   3  -5   21.27    4.26
  -3   1  -5   18.40    5.13
  -3   1  -5   22.34    4.68
  -3   1  -5   18.09    4.33
   3  -1   5   16.92    5.60
   3  -1   5   12.23    5.97
   3  -1   5   14.13    4.37
  -1  -3   5   17.91    4.54
   2   3  -5    4.29    1.24
  -3   2  -5    4.11    0.82
  -3   2  -5    2.00    1.00
  -3   2  -5    3.06    0.85
   3  -2   5    1.51    2.90
   3  -2   5    3.13    0.93
   3  -2   5    2.67    1.04
   3   3  -5    0.45    0.59
   3   3  -5    0.39    1.05
  -3   3  -5    0.43    0.52
   3   3  -5    0.60    2.36
   3  -3   5    1.28    3.58
  -3  -3   5   -0.13    0.80
   3  -3   5    0.13    0.75
   4   3  -5   70.11   15.96
   4   3  -5   52.29   19.77
   4   3  -5   60.66   16.15
  -4  -3   5   69.44   18.05
   4   2  -5   22.41    5.42
   4   2  -5   14.81    7.51
   4   2  -5   24.99    5.97
   4   2  -5   22.39    5.68
  -4  -2   5   24.10    7.50
  -4  -2   5   25.08    6.73
  -4  -2   5   20.49    5.86
   4   1  -5   83.17   20.26
  -4  -1  -5   96.22   24.14
   4   1  -5   83.84   18.56
   4   1  -5   41.50   25.47
   4   1  -5   88.45   19.05
  -4  -1   5   60.39   24.40
  -4  -1   5   84.02   18.26
  -4   0  -5   -0.08    1.87
   4   0  -5   -0.13    0.68
   4   0  -5   -0.36    3.12
   4   0  -5   -0.25    1.06
   0   4  -5   -0.05    0.54
   4   0  -5   -0.34    1.11
  -4   0   5    0.22    0.48
   4   0   5    1.82    3.25
   0  -4   5    0.29    0.91
   4   0   5    0.35    1.08
  -4   0   5   -1.98    3.64
  -4   1  -5   59.10   21.21
   1   4  -5   82.26   18.14
   4  -1   5   55.77   23.42
  -1  -4   5   79.36   19.25
   4  -1   5   88.06   18.27
  -4   2  -5   22.78    5.41
  -4   2  -5   27.77    6.17
   2   4  -5   25.61    6.08
   4  -2   5   17.91    5.85
   4  -2   5   19.69    8.06
   4  -3   5   53.86   19.70
   4  -3   5   58.13   14.37
   4   4  -5   -0.77    0.92
   4   4  -5    0.91    3.53
  -4  -4   5   -0.18    1.41
   5   4  -5    1.70    4.47
   5   4  -5    1.63    1.72
   5   4  -5    2.13    1.02
  -5  -4   5    2.94    2.30
  -5  -4   5    0.85    1.49
   5   3  -5   10.48    3.41
   5   3  -5    9.18    5.61
  -5  -3   5   13.87    4.12
   5   2  -5    3.09    1.58
   5   2  -5    2.92    1.35
   5   2  -5    2.33    4.09
  -5  -2   5    1.71    3.61
   5   2   5    1.45    3.91
  -5  -2   5    2.80    2.79
   5   1  -5    5.92    1.84
   5   1  -5    6.55    1.80
   5   1  -5    3.68    2.08
   5   1  -5    5.02    4.38
  -5  -1   5    7.71    1.60
  -5  -1   5    4.66    4.27
   5   0  -5    3.78    1.82
   5   0  -5    3.81    1.75
   5   0  -5    6.55    1.47
   5   0  -5    3.99    4.62
  -5   0   5    3.07    1.26
  -5   0   5    3.60    4.80
   5  -1  -5    3.56    2.48
  -5   1   5    8.01    1.78
   3   5  -5   11.57    3.16
  -3  -5   5   13.61    3.54
   4   5  -5    2.19    1.16
   4   5  -5    2.63    1.80
  -5   4  -5    0.82    1.14
  -4  -5   5    0.68    1.72
   5  -4   5    4.22    5.77
   5   5  -5   -0.95    1.80
   5   5  -5    0.63    1.02
  -5  -5   5    0.47    1.87
   6   5  -5   -0.63    2.04
   6   5  -5   -0.75    1.36
  -6  -5   5   -0.38    2.24
   6   4  -5    6.36    2.06
   6   4  -5    6.50    2.66
  -6  -4   5   10.12    2.58
   6   3  -5   81.35   25.22
   6   3  -5   88.62   22.96
  -6  -3   5  117.35   24.77
  -6  -2  -5    2.95    3.46
   6   2  -5   -0.14    1.27
  -6  -2   5   -0.76    3.22
   6   2   5    0.30    2.52
   6   2   5   -1.40    4.87
  -6  -1  -5   16.50    5.15
   6   1  -5   14.42    4.18
   6   1   5   14.43    4.28
   6   1   5   18.36    7.07
  -6  -1   5   14.09    6.37
  -6   0  -5    0.66    3.15
   6   0  -5   -1.44    1.64
   6   0  -5    1.36    1.45
   6   0   5    2.07    5.75
   6   0   5   -0.54    1.52
  -6   0   5    4.36    5.14
   6  -1  -5   17.93    7.20
   6  -1  -5   12.60    3.81
  -6   1  -5   11.21    5.24
   6  -1   5   11.64    3.50
   6  -1   5    9.90    7.11
  -6   1   5   13.81    3.30
  -6   2  -5   -0.33    0.92
   6  -2   5    0.29    5.40
   6  -2   5    0.07    1.45
  -6   3  -5  106.97   22.62
   6  -3   5  110.67   24.00
   6  -3   5   69.36   30.67
  -6   4  -5    9.43    2.06
   6  -4   5    5.06    2.22
   6  -4   5    2.01    6.83
   5   6  -5    0.90    2.07
   6  -5   5   -0.75    1.49
   6   6  -5   -0.73    2.17
   7   6  -5   -0.36    6.52
   7   6  -5    1.39    2.44
  -7  -6   5    2.93    2.58
   7   5  -5   -0.62    1.38
   7   5  -5    1.37    6.96
   7   5  -5    1.12    2.20
  -7  -5   5    1.26    3.56
  -7  -5   5    0.14    2.34
   7   4  -5   -6.00    3.27
   7   4  -5   -1.52    1.33
   7   4  -5   -2.47    2.31
  -7  -4   5   -9.27    5.14
  -7  -4   5   -2.22    2.14
  -7  -3  -5   -3.81    4.41
   7   3  -5   -1.80    2.15
   7   3  -5    1.12    1.77
   7   3  -5   -0.55    1.09
   7   3  -5  -16.17    6.68
  -7  -3   5   -4.37    3.93
  -7  -3   5   -5.08    5.09
   7   3   5    1.18    3.12
  -7  -3   5   -1.73    1.70
  -7  -2  -5    4.93    4.08
   7   2  -5    1.97    1.96
   7   2  -5    3.33    1.41
   7   2  -5    6.97    6.23
  -7  -2   5    4.21    1.86
  -7  -2   5    2.87    4.20
   7   2   5    4.47    2.95
   7   1  -5    0.08    1.45
   7   1  -5    1.18    5.41
  -7  -1  -5    0.26    3.40
  -7  -1   5    0.40    0.92
  -7  -1   5   -0.65    4.44
   7   1   5    0.51    2.39
   7   1   5   -0.63    6.34
  -7   0  -5   -3.40    4.19
   7   0  -5   -1.28    1.44
   7   0  -5   -0.10    5.33
   7   0   5   -1.67    2.11
   7   0   5   -4.76    7.03
  -7   0   5    0.84    1.00
  -7   1  -5    1.84    4.22
   7  -1  -5   -0.41    1.44
   7  -1  -5   -4.71    6.47
   7  -1   5    1.39    6.40
   7  -1   5   -1.29    1.80
  -7   1   5    0.11    1.08
  -7   2  -5    3.43    5.31
  -7   2  -5    4.71    1.56
   7  -2  -5    5.74    1.93
  -7   2   5    5.10    1.57
   7  -2   5    1.58    6.50
   7  -2   5    4.03    2.05
  -7   3  -5   -0.76    1.22
   7  -3   5   -1.75    6.24
   7  -3   5    0.27    1.73
   7  -4   5   38.65   11.26
  -7   5  -5   -0.15    1.31
   7  -5   5    1.12    1.74
   8   7  -5   17.66    5.54
   8   6  -5   12.61    4.07
   8   6  -5    5.99    8.81
  -8  -6   5   12.95    4.21
   8   5  -5   -2.35    7.96
   8   5  -5    0.65    1.31
   8   5  -5    0.49    2.39
   8   5  -5   -2.03    3.45
  -8  -5   5    0.44    2.40
  -8  -5   5   -0.17    4.41
   8   4  -5   -0.12    7.64
   8   4  -5    0.90    2.77
   8   4  -5    2.34    2.33
   8   4  -5    2.36    1.29
  -8  -4   5    0.24    2.15
  -8  -4   5    1.39    4.03
   8   3  -5    0.38    1.00
   8   3  -5   -1.23    2.27
  -8  -3  -5    0.20    4.81
   8   3  -5    1.64    2.12
   8   3  -5   -1.02    7.13
  -8  -3   5    0.92    4.35
   8   3   5    0.63    3.53
  -8  -3   5    1.42    5.40
  -8  -3   5    1.22    1.81
   8   2  -5    3.08    2.31
   8   2  -5    2.61    1.40
   8   2  -5    2.90    2.16
  -8  -2  -5    7.68    4.35
  -8  -2   5    0.14    4.85
  -8  -2   5    4.56    1.87
  -8  -2   5    2.96    1.31
  -8  -2   5   -7.00    6.17
   8   2   5    5.42    2.94
   8   1  -5  -16.61    8.85
  -8  -1  -5   -3.75    4.38
   8   1  -5   -2.50    1.52
   8   1   5    0.29    2.71
   8   1   5   -8.46    8.40
  -8  -1   5   -2.05    1.46
  -8   0  -5   11.01    5.47
   8   0   5   14.14    3.44
  -8   0   5    4.16    2.38
   8  -1  -5   -2.78    1.99
   8  -1  -5   29.13    8.76
  -8   1  -5   -7.98    6.26
  -8   1   5    0.62    1.45
   8  -1   5   -4.48    9.47
   8  -1   5   -1.92    2.27
   8  -2  -5    4.82    2.01
  -8   2  -5    5.81    1.49
  -8   2  -5    4.17    6.13
   8  -2  -5   -6.54    8.93
  -8   2   5    2.22    1.55
   8  -2   5    0.13    7.94
   8  -2   5    3.60    2.25
  -8   3  -5    1.84    1.51
   8  -3   5    3.53    7.45
   8  -3   5    2.41    2.03
  -8   4  -5    1.85    1.55
   8  -4   5    2.84    2.01
   8  -4   5    3.17    8.22
  -8   5  -5    1.79    1.72
   8  -5   5    2.00    1.99
   8  -5   5   -5.22    8.78
   8  -6   5    8.93    3.06
   9   7  -5    0.47    9.83
   9   7  -5   13.88    4.24
   9   6  -5    3.80    3.11
   9   6  -5   -0.15    9.24
  -9  -6   5    5.64    3.44
   9   5  -5   30.21    6.62
   9   5  -5   14.25    5.23
   9   5  -5    1.48   11.35
   9   5  -5   28.24    6.04
  -9  -5   5   25.63    6.20
  -9  -5   5   15.05    7.90
   9   4  -5    0.56    8.69
   9   4  -5    1.06    1.37
  -9  -4  -5   -0.49    5.62
   9   4  -5    2.37    3.31
   9   4  -5    0.76    2.45
  -9  -4   5    3.00    4.81
  -9  -4   5    0.13    2.34
   9   4   5  -11.76    7.86
   9   3  -5    6.20    3.08
  -9  -3  -5    2.98    5.44
   9   3  -5    3.95    2.85
   9   3  -5    2.86    8.64
   9   3  -5    7.16    1.80
  -9  -3   5    3.11    6.29
  -9  -3   5   11.39    5.12
   9   3   5   -0.88    3.99
  -9  -3   5    6.20    2.48
   9   2  -5    2.02    2.35
  -9  -2  -5   -1.98    4.94
   9   2  -5    0.33    2.22
   9   2  -5    0.24    7.45
   9   2  -5    0.39    1.20
  -9  -2   5    2.04    6.20
  -9  -2   5    2.90    1.27
  -9  -2   5    0.95    5.39
   9   2   5    0.93    3.27
  -9  -2   5    0.48    1.82
   9   1  -5    0.93    2.17
  -9  -1  -5    0.85    4.84
   9   1  -5   -0.12    7.08
   9   1  -5   -0.22    2.12
   9   1  -5    0.66    1.22
  -9  -1   5   -1.83    6.65
  -9  -1   5    0.54    1.26
   9   1   5    2.16    2.88
   9   1   5    1.01    8.89
  -9  -1   5    1.59    6.10
   9   0  -5   -0.76    7.33
  -9   0  -5    4.26    5.54
   9   0  -5    4.83    2.57
   9   0  -5    2.90    1.80
   9   0  -5    6.47    2.29
   9   0   5  -16.23    9.29
  -9   0   5   18.05    6.83
  -9   0   5    4.36    1.74
   9   0   5    2.49    2.83
   9  -1  -5    0.11    2.00
   9  -1  -5    0.11    1.95
  -9   1  -5    0.58    5.92
   9  -1  -5   -0.62    7.88
  -9   1  -5   -0.72    1.36
   9  -1   5    1.28    2.51
  -9   1   5    0.14    1.58
   9  -1   5   -4.11    8.57
   9  -2  -5    1.41    2.77
   9  -2  -5   -0.11    2.07
  -9   2  -5    8.03    7.04
  -9   2  -5   -0.26    1.47
   9  -2  -5    3.52    8.17
   9  -2   5   -0.96    2.37
   9  -2   5    9.11    7.95
  -9   2   5    1.24    1.61
  -9   3  -5    5.00    1.84
   9  -3   5    3.56    2.56
   9  -3   5    1.32    8.22
  -9   4  -5    0.16    1.80
   9  -4   5    4.91    2.34
   9  -4   5   -2.42    8.85
  -9   5  -5   20.24    5.75
   9  -5   5   26.39    5.92
   9  -5   5   22.13   11.97
   9  -6   5   11.01    3.38
  10   7  -5   16.08    4.82
  10   7  -5    2.43   11.50
  10   6  -5    6.91   13.04
  10   6  -5   15.88    5.77
 -10  -6   5   21.46    8.15
  10   5  -5   -0.83   10.25
  10   5  -5    1.05    1.66
  10   5  -5    1.45    2.88
  10   5  -5   -1.77    4.16
 -10  -5   5    1.73    2.96
 -10  -5   5    2.03    5.70
  10   4  -5   53.89   11.19
  10   4  -5   41.60    9.71
  10   4  -5   46.24   10.58
  10   4  -5    6.78   16.37
 -10  -4  -5   36.06   13.47
 -10  -4   5   39.42   12.32
  10   4   5   35.52   11.37
 -10  -4   5   43.64   11.09
  10   4   5   59.80   15.78
 -10  -4   5   19.08   14.53
  10   3  -5    1.76    3.11
 -10  -3  -5    6.20    6.08
  10   3  -5    1.61    9.30
  10   3  -5    0.64    1.37
  10   3  -5    0.48    2.55
 -10  -3   5    1.97    2.35
 -10  -3   5    0.11    6.82
  10   3   5   19.76   10.30
 -10  -3   5   10.78    5.68
  10   3   5   -0.24    4.38
  10   2  -5    2.77    2.44
  10   2  -5    1.67    1.47
  10   2  -5    1.11    8.58
  10   2  -5    7.47    2.82
 -10  -2  -5   10.42    5.58
 -10  -2   5    8.60    6.13
 -10  -2   5    2.55    1.65
  10   2   5    7.79    3.87
 -10  -2   5    2.33    2.17
 -10  -2   5    6.75    7.11
  10   1  -5   20.38    5.38
  10   1  -5   14.05    4.30
 -10  -1  -5   31.33    7.46
  10   1  -5   22.96    4.95
  10   1  -5    1.78    9.63
 -10  -1   5   25.14    8.44
 -10  -1   5   14.47    9.61
  10   1   5   18.27    5.35
 -10  -1   5   10.62    4.41
  10   0  -5    2.24    7.67
  10   0  -5   -0.08    1.50
 -10   0  -5   -6.54    6.21
  10   0  -5    1.50    2.47
  10   0  -5   -0.10    2.47
 -10   0   5   -1.23    1.55
 -10   0   5    1.29    7.47
 -10   0   5   -8.05    8.02
  10   0   5    1.11   10.44
  10   0   5    0.16    2.95
 -10   1  -5   21.56    4.63
  10  -1  -5    8.55   10.63
  10  -1  -5   21.44    4.81
 -10   1  -5   18.01    8.85
  10  -1  -5   14.31    5.07
  10  -1   5    9.15   11.12
  10  -1   5   17.31    5.17
 -10   1   5   21.37    4.65
 -10   2  -5    4.81    1.93
  10  -2  -5    4.96    2.89
 -10   2  -5   12.07    8.14
  10  -2  -5    1.40    2.51
  10  -2  -5    2.08    9.04
  10  -2   5    2.30    9.38
  10  -2   5    5.26    3.05
 -10   2   5    4.65    2.08
  10  -3  -5    2.12    2.47
 -10   3  -5    1.63    8.87
 -10   3  -5    2.66    1.88
  10  -3   5    3.40    2.87
  10  -3   5    5.56    9.24
 -10   4  -5   38.79    9.81
  10  -4   5   38.53   16.22
  10  -4   5   43.61   10.23
 -10   5  -5    1.57    2.08
  10  -5   5   -2.41    2.67
  10  -5   5    9.61   10.23
 -10   6  -5   16.32    6.07
  10  -6   5   31.85    6.38
  11   7  -5    1.37    3.54
  11   7  -5    0.20   11.87
  11   6  -5    2.50   12.16
  11   6  -5   -2.76    5.07
  11   6  -5    0.63    3.38
 -11  -6   5   -7.67    6.82
  11   5  -5    4.88    3.32
  11   5  -5    8.05    4.77
  11   5  -5    6.35    2.35
  11   5  -5   -3.73   12.14
 -11  -5   5    3.85    8.00
 -11  -5   5   10.64    3.63
 -11  -5   5   -6.04    7.05
  11   4  -5    0.18   11.96
  11   4  -5    9.81    4.42
 -11  -4  -5   13.43    7.82
  11   4  -5   10.60    3.71
  11   4  -5    2.83    2.28
 -11  -4   5   19.03    8.33
  11   4   5    4.09    5.71
 -11  -4   5    6.36    3.64
 -11  -4   5    9.79    6.49
  11   3  -5    6.86    3.70
 -11  -3  -5   10.45    7.26
  11   3  -5    9.40    4.26
  11   3  -5    7.67    2.56
  11   3  -5    0.81   10.76
 -11  -3   5   12.24    2.71
 -11  -3   5    9.82    3.45
 -11  -3   5    5.53    7.99
 -11  -3   5   12.05    6.86
  11   3   5    3.44   11.97
  11   3   5   12.76    5.21
 -11  -2  -5   53.42   11.10
  11   2  -5    0.46   14.07
  11   2  -5   36.07    8.51
 -11  -2   5   33.26    8.03
 -11  -2   5   32.80    9.06
 -11  -2   5   43.98   11.66
 -11  -2   5   20.64   13.52
  11   2   5   31.41    9.00
  11   1  -5   -1.19    8.97
  11   1  -5    5.82    3.11
 -11  -1  -5   -3.32    6.67
 -11  -1   5    2.06    8.13
 -11  -1   5    4.66    1.94
  11   1   5    3.51    3.98
  11   0  -5    8.99   20.49
  11   0  -5   60.52   14.65
 -11   0  -5  101.51   18.53
 -11   0   5   62.36   14.31
 -11   0   5   88.41   19.64
  11   0   5   36.05   22.68
  11   0   5   57.23   14.71
 -11   1  -5    5.82    8.22
 -11   1  -5    4.29    2.09
  11  -1  -5    0.73    9.76
  11  -1  -5    1.85    2.88
  11  -1   5    4.04    3.51
  11  -1   5    4.64   11.53
 -11   1   5    5.46    2.18
  11  -2  -5   -1.01   14.64
  11  -2  -5   35.65    8.23
 -11   2  -5   49.48    7.87
 -11   2  -5   27.80   13.23
 -11   2   5   30.53    7.97
  11  -2   5   18.97   14.70
  11  -2   5   33.37    8.36
  11  -3  -5   10.38    3.65
 -11   3  -5   14.43    3.16
 -11   3  -5   -0.30   10.54
 -11   3   5   12.10    3.23
  11  -3   5    9.66   10.78
  11  -3   5    0.90    3.80
 -11   4  -5   10.13    3.01
  11  -4   5    2.27    3.65
 -11   5  -5    3.87    2.58
  11  -5   5    3.31    3.16
  11  -5   5    2.93   11.29
 -11   6  -5    1.64    2.60
  11  -6   5    1.07    2.93
  12   8  -5    6.52   14.12
  12   7  -5    5.81   13.81
  12   6  -5   -3.65   13.97
  12   6  -5   -4.87    5.62
 -12  -6   5   -0.82    7.59
  12   5  -5    0.21   13.07
  12   5  -5    7.53    5.05
 -12  -5  -5   -1.97    8.08
 -12  -5   5    0.24    7.08
  12   4  -5    3.48   13.43
  12   4  -5   -0.91    4.48
 -12  -4  -5  -13.32    8.10
  12   4   5   -0.63    5.78
  12   4   5   39.00   12.71
 -12  -4   5   -6.58    6.89
  12   3  -5    8.50    4.34
 -12  -3  -5    9.61    7.70
  12   3  -5   -0.18   11.82
 -12  -3   5    6.36    2.23
 -12  -3   5   -2.45    7.56
  12   3   5   -0.24   14.61
  12   3   5    4.93    5.35
 -12  -2  -5    4.44    7.28
  12   2  -5    0.70   11.08
  12   2  -5   -2.07    3.46
 -12  -2   5    1.42    7.97
  12   2   5    3.41    4.76
 -12  -2   5   -2.94    2.06
 -12  -1  -5   29.61   10.53
  12   1  -5    3.35   12.70
  12   1  -5   38.00    7.30
 -12  -1   5   23.19    6.59
  12   1   5   27.28    7.79
 -12  -1   5   40.22   11.46
  12   0  -5   -1.20    9.82
 -12   0  -5    0.35    2.37
 -12   0  -5    7.18    8.65
  12   0  -5    0.16    3.07
  12   0   5   -0.20    3.97
 -12   0   5    0.17    2.07
 -12   0   5   -2.58   10.28
 -12   1  -5   28.42   11.60
  12  -1  -5   24.40   13.09
  12  -1  -5   24.20    6.29
 -12   1  -5   17.03    5.86
 -12   1   5   22.48    5.84
  12  -1   5    0.21   14.55
  12  -1   5   26.41    6.75
 -12   2  -5    0.38    2.20
 -12   2  -5   -0.93   10.32
  12  -2  -5   -1.13    3.28
  12  -2  -5   -9.34   11.24
  12  -2   5    0.71    3.75
  12  -2   5  -35.27   12.65
 -12   2   5   -1.04    2.25
 -12   3  -5    0.80    2.47
 -12   3  -5    0.34   11.96
  12  -3  -5    4.39    3.28
 -12   3   5    3.36    2.61
  12  -3   5    4.42    3.83
 -12   4  -5    0.65    2.25
  12  -4   5    0.16    3.42
  12  -4   5    1.37   12.71
  12  -5   5   -3.69    3.55
  13   6  -5    1.96    6.16
  13   6  -5    1.90   15.62
 -13  -6   5   -0.89    9.02
  13   5  -5    4.27    5.72
  13   5  -5   -2.51   15.15
 -13  -5  -5   27.98    9.17
 -13  -5   5    6.88    8.41
  13   5   5  -11.21   14.72
  13   4  -5   -0.50    5.06
  13   4  -5    0.22   14.18
 -13  -4   5   13.21    7.77
  13   4   5   -3.98   14.92
  13   3  -5    4.97    4.61
  13   3  -5   -0.61   12.93
 -13  -3   5   -4.51    8.68
 -13  -3   5    1.02    2.25
  13   2  -5   -0.38   13.25
  13   2  -5    8.02    5.38
 -13  -2   5   14.64   10.02
 -13  -2   5   14.64    4.06
  13   1  -5   -2.47    3.87
  13   1  -5   11.06   11.36
 -13  -1   5    9.54   10.09
 -13  -1   5   -0.54    2.30
  13   0  -5   19.45    5.56
  13   0  -5   12.53   12.04
 -13   0   5   33.39   12.20
 -13   0   5   12.72    4.74
  13  -1  -5   -5.63   11.78
  13  -1  -5   -1.07    3.65
 -13   1   5    0.21    2.41
 -13   1   5   -6.27   12.68
 -13   4  -5   -0.24    2.96
  13  -4   5   -0.25   13.73
 -13   5  -5   -2.60    3.86
  13  -5   5   28.61    4.58
  13  -5   5    6.15   14.37
 -13   6  -5    1.11    3.23
  13  -6   5    0.19    3.69
  14   7  -5  -11.35   17.50
 -14  -5  -5   -4.62   10.30
  14   5   5    0.29   16.43
 -14  -4  -5    3.26   10.14
  14   4   5  -15.18   17.68
  14   4   5    3.72    6.96
 -14  -3  -5   -9.55    9.62
  14   3   5  -31.61   18.13
  14   3   5    4.30    6.02
 -14  -2  -5  -10.27    9.70
  14   2   5  -46.19   18.79
  14   2   5    0.30    5.43
 -14  -1  -5   -8.34   10.04
  14   1   5    1.43    5.93
 -14   0  -5   -6.50   10.69
  14   0   5   -3.87    5.64
 -14   1  -5    0.23    3.13
 -14   1  -5   -9.03   12.00
  14  -1   5   -0.23    4.90
  14  -1   5   -7.87   16.11
 -14   1   5   -0.23    2.73
  14  -2  -5   -0.20    3.33
  14  -2  -5  -21.19   13.12
 -14   2  -5   -1.16   12.79
 -14   2  -5    1.44    3.15
  14  -2   5   -0.23    4.63
  14  -2   5   -5.30   14.54
 -14   2   5    2.50    3.00
  14  -3  -5  -13.91    4.74
 -14   3  -5  -14.73   14.25
 -14   3  -5    0.50    3.20
 -14   3   5   -0.27    2.94
  14  -3   5    0.21    4.38
 -14   4  -5  -12.86   15.48
 -14   4  -5   -0.27    2.96
  14  -4   5  -40.94   16.12
  14  -4   5    0.62    4.31
 -14   5  -5  -12.46   15.66
 -14   5  -5    1.72    3.12
  14  -5   5    1.86    4.36
  14  -5   5    2.89   15.22
 -14   6  -5    7.89    4.21
  14  -6   5    9.36    4.65
  15   7  -5  -51.47   21.76
 -15  -7   5  -16.69   12.81
  15   6  -5    6.97    7.21
  15   6  -5   12.52   18.62
 -15  -6   5   -2.13   10.10
  15   5  -5   -7.53    7.10
  15   5  -5   31.40   18.28
 -15  -5  -5   -0.42   11.80
 -15  -5   5   14.84    3.87
  15   5   5    6.95    8.36
 -15  -5   5   23.77   10.09
  15   5   5   -5.49   19.49
 -15  -4  -5   -9.99   10.81
  15   4  -5   -5.25    6.32
  15   4  -5  -12.12   16.84
 -15  -4   5   -0.21    2.70
  15   4   5  -15.56   19.92
  15   4   5  -23.60    7.68
 -15  -4   5    1.82    9.89
  15   3  -5   19.74   16.20
  15   3  -5   -6.41    5.68
 -15  -3  -5   -0.37   10.62
  15   3   5   15.33    7.19
 -15  -3   5   -1.56   10.26
  15   3   5  -20.84   20.09
 -15  -3   5    5.90    2.85
  15   2  -5   -0.27    5.26
  15   2  -5  -21.38   14.76
 -15  -2  -5    0.35   10.52
 -15  -2   5   21.44   11.23
  15   2   5  -13.94    6.82
  15   2   5   14.73   20.00
 -15  -2   5    0.22    2.67
  15   1  -5  -15.84   14.59
 -15  -1  -5    7.58   11.10
  15   1  -5    0.74    5.14
 -15  -1   5    9.64   12.66
  15   1   5   13.14   20.10
  15   1   5    1.90    6.37
 -15  -1   5   -0.69    2.84
 -15   0  -5   -3.84   12.31
  15   0  -5    0.69    4.82
  15   0  -5    4.07   13.60
 -15   0   5   -3.16    3.13
  15   0   5   -0.28    5.85
 -15   0   5    1.55   13.82
  15  -1  -5   -3.21    4.92
  15  -1  -5  -16.93   14.37
 -15   1  -5    2.87    3.32
 -15   1  -5   -9.71   13.00
 -15   1   5    2.56    2.81
 -15   1   5   -7.11   14.94
  15  -1   5    0.27    5.99
  15  -2  -5    0.22    4.42
 -15   2  -5   -1.35    3.23
  15  -2  -5    3.83   14.05
 -15   2  -5    0.85   14.26
 -15   2   5    1.65    3.25
  15  -2   5    6.16    5.18
  15  -2   5    0.28   16.27
 -15   2   5   11.21   16.44
 -15   3  -5   16.16   15.42
  15  -3  -5   -5.92    4.45
 -15   3  -5    1.14    3.72
  15  -3   5    0.24    4.80
  15  -3   5  -14.44   15.76
 -15   3   5    4.07    3.24
 -15   4  -5   -0.89    3.40
 -15   4  -5   36.07   16.59
  15  -4   5    0.70    4.89
  15  -4   5   -0.31   16.84
 -15   5  -5    6.62    4.50
 -15   5  -5  -12.14   17.55
  15  -5   5    5.70   16.66
  15  -5   5   12.95    5.16
 -15   6  -5    6.31    3.32
  15  -6   5   -5.12    4.40
 -16  -7   5    0.81   10.87
  16   6  -5    2.76   20.35
  16   6  -5   -8.01    8.15
 -16  -6   5   -4.64   11.69
 -16  -4  -5    1.33   12.04
  16   4  -5  -45.54   18.82
  16   4  -5    5.63    6.92
  16   4   5  -50.50   22.64
  16   4   5   13.39    8.29
 -16  -4   5    4.57    3.39
 -16  -4   5   -5.82   11.66
  16   3  -5    2.28    6.52
  16   3  -5    2.71   17.35
 -16  -3  -5   -9.47   12.26
  16   3   5    4.43    7.60
 -16  -3   5   -0.24    3.03
 -16  -3   5    1.04   11.60
  16   3   5    0.37   22.15
  16   2  -5   10.61   15.83
 -16  -2  -5   -2.81   12.10
  16   2  -5    0.30    6.06
 -16  -2  -5    2.18    3.64
 -16  -2   5   11.88   12.27
  16   2   5  -57.52   22.41
  16   2   5  -21.66    7.38
 -16  -2   5   -1.98    3.23
  16   1  -5  -10.93   15.23
 -16  -1  -5    3.07    3.80
 -16  -1  -5   -0.81   12.58
  16   1  -5    1.08    5.43
 -16  -1   5    2.33    3.08
 -16  -1   5    2.37   13.44
  16   1   5    0.35    6.74
  16   1   5    5.91   21.01
  16   0  -5   13.13   15.37
 -16   0  -5   11.54   14.04
  16   0  -5    0.79    5.60
 -16   0   5   -1.28   15.26
  16   0   5    2.00    6.70
 -16   0   5    0.27    3.46
  16  -1  -5  -19.25   15.94
  16  -1  -5    5.49    5.06
 -16   1  -5   -4.95   14.97
 -16   1   5    8.29    3.64
 -16   1   5  -31.11   16.20
  16  -1   5  -11.14    6.36
 -16   2  -5   -8.51   15.71
  16  -2  -5   -9.82   15.17
 -16   2  -5    0.30    3.63
  16  -2  -5    4.02    5.32
  16  -2   5  -35.67   18.93
  16  -2   5    0.29    5.74
 -16   2   5  -14.64   17.83
 -16   2   5    3.92    3.64
  16  -3  -5    0.24    4.96
 -16   3  -5   44.98   17.77
 -16   3  -5   -4.45    3.88
  16  -3   5   18.09    5.75
 -16   3   5   -0.32    3.56
  16  -3   5   -0.32   18.27
 -16   4  -5    2.56   17.82
 -16   4  -5    2.31    4.28
  16  -4   5   -3.80    5.14
  16  -4   5   -0.34   18.87
 -16   5  -5    0.53   20.69
 -16   5  -5    8.72    7.01
  16  -5   5   22.25   20.80
  16  -5   5   16.51    7.50
 -16   6  -5  -14.69   19.82
 -16   6  -5   -3.28    4.05
  16  -6   5   -4.73    4.97
  17   6  -5   -3.21    8.32
  17   6  -5   -2.30   21.87
 -17  -6   5   15.25   12.62
 -17  -6   5    8.87    3.77
 -17  -5  -5   -3.57   14.25
  17   5  -5  -26.93   20.88
  17   5  -5    2.47    7.70
  17   5   5   34.69    9.92
 -17  -5   5    0.78    3.28
  17   5   5   44.78   25.28
 -17  -5   5   -5.47   11.92
  17   4  -5   -9.68   20.36
 -17  -4  -5   10.89   14.01
  17   4  -5  -10.09    7.56
  17   4   5   -0.49    8.88
  17   4   5    1.60   24.61
 -17  -4   5   -0.27    3.24
 -17  -4   5   -5.69   11.92
 -17  -3  -5    4.15   13.21
  17   3  -5    7.20    7.26
  17   3  -5    1.45   17.93
  17   3   5    2.22    8.53
 -17  -3   5    3.27    3.75
 -17  -3   5   -4.22   12.81
  17   3   5    0.40   24.67
  17   2  -5   -4.88    6.39
  17   2  -5    7.10   17.44
 -17  -2  -5   -7.57    3.99
 -17  -2  -5    3.16   13.73
  17   2   5  -15.82   23.92
  17   2   5    0.42    8.01
 -17  -2   5   -1.40    3.70
 -17  -2   5    3.70   14.14
  17   1  -5  -20.59   16.84
 -17  -1  -5    1.59    4.07
 -17  -1  -5   34.50   14.43
  17   1  -5    5.38    6.44
 -17  -1   5  -13.98   14.77
 -17  -1   5   -5.78    3.68
  17   1   5   23.36   22.70
  17   1   5   -0.39    7.53
  17   0  -5    4.33    5.91
  17   0  -5  -27.43   17.89
 -17   0  -5    9.05   15.24
 -17   0   5   -0.47   16.15
  17   0   5   -0.37    7.22
 -17   0   5   -5.75    3.75
  17  -1  -5   -6.01   17.36
  17  -1  -5   -1.99    5.94
 -17   1  -5   -0.50   16.50
 -17   1   5    2.85    3.87
 -17   1   5   -1.50   18.12
 -17   2  -5    6.77   17.35
  17  -2  -5   -4.87   16.77
  17  -2  -5   -6.21    5.91
 -17   2  -5    3.08    4.30
 -17   2   5    1.59   19.16
 -17   2   5   -2.33    4.31
  17  -2   5  -22.04   19.79
  17  -2   5    1.25    6.38
 -17   3  -5    5.68    4.41
 -17   3  -5   31.41   18.47
  17  -3  -5   -0.27    5.73
  17  -3   5    1.78    6.20
 -17   3   5    1.12   21.53
  17  -3   5   -0.36   20.02
 -17   3   5    5.20    3.96
 -17   4  -5    3.71    4.66
 -17   4  -5  -30.16   19.63
  17  -4   5    1.73    5.81
  17  -4   5  -14.35   20.47
 -17   5  -5    1.16    4.64
 -17   5  -5   -1.15   20.49
  17  -5   5   21.06   20.07
  17  -5   5    2.52    5.64
 -17   6  -5    4.42    4.63
 -17   6  -5   17.75   20.73
  17  -6   5  -18.96    5.80
 -18  -6   5    2.54    3.66
 -18  -6   5  -11.59   13.45
 -18  -5  -5   -0.57   16.92
  18   5  -5  -30.82    9.79
 -18  -5   5    5.57    4.12
  18   5   5  -24.42   10.27
 -18  -5   5   -8.89   14.32
 -18  -4  -5    1.11   15.79
  18   4  -5   -8.99    8.39
  18   4  -5    0.67   21.54
  18   4   5    2.71    9.55
 -18  -4   5   -2.08    3.91
 -18  -4   5  -11.37   13.72
  18   4   5   41.16   27.33
 -18  -3  -5   -0.33    4.38
 -18  -3  -5    0.52   15.56
  18   3  -5   -1.59    7.76
  18   3  -5  -20.89   19.93
 -18  -3   5    1.82    3.93
 -18  -3   5   -0.42   13.73
  18   3   5  -17.26   26.58
  18   3   5    6.40    9.54
  18   2  -5  -14.82   19.79
 -18  -2  -5    0.34    4.28
  18   2  -5   14.07    7.81
 -18  -2  -5    6.10   15.53
  18   2   5   41.47   25.94
 -18  -2   5   -7.67   15.59
  18   2   5    0.47    8.71
 -18  -2   5    0.31    4.13
  18   1  -5  -11.57   18.68
 -18  -1  -5   -7.68   15.58
 -18  -1  -5   -7.10    4.74
  18   1  -5    6.96    6.90
 -18  -1   5  -33.67   17.51
  18   1   5    4.87    8.96
 -18  -1   5   -0.33    3.95
  18   1   5   12.23   25.92
  18   0  -5   14.28   19.28
 -18   0  -5   -0.53   16.65
  18   0  -5   -2.68    6.70
 -18   0  -5    1.81    4.64
  18   0   5    0.40   23.94
 -18   0   5   -3.08   18.35
 -18   0   5   -1.35    4.38
  18   0   5    0.40    7.99
 -18   1  -5   26.26   18.16
  18  -1  -5    6.20    6.62
  18  -1  -5    0.35   18.92
  18  -1   5    1.91    8.08
 -18   1   5   -0.35    4.09
 -18   1   5    6.56   20.14
  18  -2  -5    4.62   18.74
 -18   2  -5   -0.58   19.88
  18  -2  -5    4.60    6.50
 -18   2  -5    0.38    4.96
 -18   2   5   10.64    4.29
  18  -2   5    0.36    7.37
 -18   2   5  -26.02   21.39
 -18   3  -5    1.20    4.47
  18  -3  -5    8.93    6.39
 -18   3  -5  -19.62   21.10
 -18   3   5    7.92   21.72
  18  -3   5  -61.68   23.51
 -18   3   5    2.28    4.52
  18  -3   5    0.34    6.39
 -18   4  -5  -15.91   21.40
 -18   4  -5    2.48    4.51
  18  -4   5    0.66    6.55
  18  -4   5   -7.13   22.70
 -18   5  -5  -38.84   23.51
 -18   5  -5   -2.15    5.37
  18  -5   5  -14.35    7.04
 -18   6  -5   -3.86   23.24
 -18   6  -5   -3.55    5.55
  18  -6   5    6.88    6.67
  19   5  -5    0.51    9.95
  19   5  -5    2.59   24.27
 -19  -5  -5   13.89   17.63
 -19  -5   5   19.21   15.25
 -19  -5   5    0.32    4.44
  19   5   5    1.25   10.87
  19   5   5  -11.22   28.86
 -19  -4  -5   16.15   18.18
  19   4  -5    4.25    8.64
 -19  -4  -5    0.35    4.69
  19   4  -5  -35.76   23.50
  19   4   5   19.18   11.48
  19   4   5    0.47   28.72
 -19  -4   5   10.27    4.38
 -19  -4   5   -0.93   14.92
  19   3  -5    1.36    9.07
 -19  -3  -5    1.20   17.64
 -19  -3  -5    1.47    4.72
  19   3  -5  -28.78   22.57
  19   3   5   -0.56   10.51
 -19  -3   5    1.70    3.89
  19   3   5  -11.65   29.40
 -19  -3   5  -24.59   16.34
  19   2  -5   -7.12    8.62
 -19  -2  -5   21.73   17.18
  19   2  -5  -29.23   20.63
 -19  -2  -5    3.86    4.90
  19   2   5  -43.90   28.91
 -19  -2   5   -4.21    4.50
  19   2   5    0.52    9.31
 -19  -2   5    2.48   17.90
 -19  -1  -5   -3.44   18.09
 -19  -1  -5   -0.39    5.16
  19   1  -5    4.04    8.29
  19   1  -5  -56.15   22.34
  19   1   5   -4.91    9.78
 -19  -1   5   16.01   17.71
 -19  -1   5   -0.36    4.38
 -19   0  -5    2.43    5.44
  19   0  -5   -3.13    7.97
 -19   0  -5   19.51   19.75
 -19   0   5  -18.37    5.36
  19   0   5  -40.45   10.29
 -19   0   5   -7.89   19.95
 -19   1  -5    4.30   20.14
  19  -1  -5   -3.90    7.41
 -19   1   5   -1.79   20.72
 -19   1   5    1.18    4.66
  19  -1   5    7.11    9.37
  19  -2  -5   -5.45   20.73
 -19   2  -5   10.16   21.93
  19  -2  -5   -2.09    7.22
 -19   2   5    0.63   22.46
  19  -2   5   12.74    8.46
 -19   2   5   -6.48    4.73
 -19   3  -5   15.64   22.92
 -19   3  -5   -0.45    5.38
  19  -3  -5   -3.46    7.35
 -19   3   5   -4.63   23.83
  19  -3   5  -11.97    8.24
  19  -3   5  -14.75   26.80
 -19   3   5   -3.76    4.60
 -19   4  -5   -3.34   23.91
 -19   4  -5    6.01    5.62
  19  -4   5   -2.34   26.30
  19  -4   5  -12.48    7.40
 -19   5  -5   23.24   24.82
 -19   5  -5   -0.48    5.58
  19  -5   5   -7.98   24.83
  19  -5   5  -19.72    7.11
 -19   6  -5   39.30   24.78
 -19   6  -5    1.97    5.65
  19  -6   5  -15.96    7.06
 -20  -5   5    0.36    4.37
  20   4  -5   -3.77   10.21
  20   4  -5   20.08   25.74
 -20  -4   5   -7.44   17.14
 -20  -4   5   -7.71    4.72
  20   3  -5    9.70   23.27
  20   3  -5   -1.00    9.67
 -20  -3   5    3.82    5.10
 -20  -3   5  -19.34   17.78
  20   2  -5  -14.60    9.61
  20   2  -5   49.71   22.99
 -20  -2   5    1.98    4.59
  20   2   5  -16.63   11.62
 -20  -2   5  -15.34   18.52
 -20  -1  -5   -3.86   20.41
  20   1  -5   -0.42   24.17
  20   1  -5    8.45    9.53
 -20  -1   5   -2.04    4.79
  20   1   5    0.54   10.74
 -20  -1   5   -4.66   19.96
  20   0  -5   12.00    8.91
 -20   0  -5   12.49   22.52
  20   0  -5   44.32   24.13
 -20   0   5    7.58    5.91
  20   0   5    0.52   10.68
 -20   0   5   -3.09   22.43
 -20   1  -5    2.04   23.32
  20  -1  -5    2.47    8.00
  20  -1  -5    9.33   23.16
 -20   1   5   -9.11   22.49
 -20   1   5   -7.84    5.20
  20  -1   5    0.49    9.82
  20  -2  -5  -13.58    8.44
  20  -2  -5   10.32   22.44
 -20   2   5   26.06   24.17
 -20   2   5   -1.79    4.99
  20  -3  -5   14.56    8.31
 -20   3   5   10.06   26.27
   0   0  -6   -0.09    0.90
   0   0  -6   -0.11    0.71
   0   0   6    0.90    2.02
   1   0  -6   -0.09    0.85
   1   0  -6    0.57    0.84
   0   1  -6    0.15    0.59
  -1   0  -6   -0.50    0.93
   0   1  -6    0.70    0.68
  -1   0   6   -0.38    2.36
   1   0   6   -0.73    1.83
   0  -1   6   -0.77    1.78
   1   1  -6   20.97    4.20
   1   1  -6   18.67    4.41
  -1   1  -6   23.24    5.29
  -1   1  -6   16.83    4.20
   1  -1   6    9.97    5.31
  -1  -1   6   14.00    5.48
   1  -1   6   15.47    5.39
   1  -1   6   17.77    4.48
   2   1  -6    3.08    0.85
  -1   2  -6    3.70    0.77
  -1   2  -6    3.27    1.07
  -1   2  -6    3.92    0.86
   2   1  -6    4.67    1.18
   1  -2   6    2.24    0.96
   1  -2   6    2.26    0.87
  -2  -1   6    1.90    2.51
   1  -2   6    2.19    1.95
  -2   0  -6   48.33    9.24
   0   2  -6   37.01    8.71
   0   2  -6   36.10    9.18
  -2   0  -6   27.15   11.37
   2   0  -6   24.07    9.05
   2   0  -6   47.38    9.59
  -2   0   6   41.40   11.51
   2   0   6   33.39    9.64
  -2   1  -6    2.96    1.43
  -2   1  -6    2.75    1.04
  -2   1  -6    2.82    0.88
   1   2  -6    2.33    1.07
   1   2  -6    2.99    0.84
  -1  -2   6    2.85    2.13
   2  -1   6    1.78    2.09
   2  -1   6    2.22    1.04
   2  -1   6    3.33    2.35
   2   2  -6  166.93   43.51
  -2   2  -6  166.99   39.57
  -2   2  -6  181.69   43.93
  -2   2  -6  140.49   41.57
   2  -2   6  199.90   42.29
   2  -2   6  194.54   43.76
  -2  -2   6  159.93   50.67
   2  -2   6  152.48   53.31
   3   2  -6   32.11    7.79
  -2   3  -6   29.85    8.00
   3   2  -6   32.11    7.53
  -2   3  -6   31.40    7.01
   3   2  -6   24.46    9.58
   3   2  -6   35.11    7.17
  -2   3  -6   27.93    7.32
   2  -3   6   29.28    7.59
  -3  -2   6   21.37    9.45
  -3  -2   6   32.63    8.71
   2  -3   6   24.70   10.63
   3   1  -6   16.83    5.88
  -1   3  -6   18.66    3.76
   3   1  -6   11.10    3.87
   3   1  -6   15.50    3.86
  -1   3  -6   18.90    4.10
   3   1  -6   15.48    4.14
   3   1   6   12.17    5.18
  -3  -1   6   16.43    5.49
  -3  -1   6   16.32    3.69
   1  -3   6   15.12    4.01
   3   0  -6    0.27    1.07
   3   0  -6   -0.10    1.18
   0   3  -6   -0.14    0.85
   0   3  -6   -0.26    0.45
  -3   0  -6   -0.51    1.59
  -3   0   6    1.25    3.28
   3   0   6    0.68    2.57
   3   0   6   -0.44    1.09
   0  -3   6    0.05    0.74
  -3   1  -6   15.67    4.34
   1   3  -6   17.63    3.47
  -3   1  -6   12.24    3.87
  -3   1  -6   11.07    3.55
   1   3  -6   16.15    3.81
   3  -1   6   12.23    5.27
   3  -1   6   14.67    3.64
   3  -1   6   10.74    4.94
  -1  -3   6   13.57    3.71
  -3   2  -6   27.82    8.03
  -3   2  -6   37.79    7.55
   2   3  -6   32.71   10.72
   2   3  -6   27.57    7.96
  -3   2  -6   34.18    7.16
   3  -2   6   18.88    9.98
   3  -2   6   30.33    7.68
   3  -2   6   36.02    8.02
  -3   3  -6    0.23    0.49
   3   3  -6    0.60    2.38
   3   3  -6    0.78    1.25
  -3   3  -6    0.76    0.61
  -3   3  -6    0.42    1.00
  -3  -3   6    0.04    1.16
   3  -3   6   -0.07    3.83
   3  -3   6    0.39    0.77
   3  -3   6    0.04    0.82
   4   3  -6   17.48    5.91
   4   3  -6   21.35    7.64
  -4  -3   6   24.16    6.76
   4   2  -6   74.99   15.76
   4   2  -6   47.07   20.31
  -4  -2   6   64.11   20.06
  -4  -2   6   55.99   18.34
   4   1  -6   27.90    5.95
   4   1  -6   23.62    6.35
  -4  -1  -6   19.24    7.86
   4   1  -6   18.88    8.49
   4   1  -6   25.78    5.90
   4   1   6   22.15    6.62
   4   1   6   26.16    7.98
  -4  -1   6   25.77    5.75
   1  -4   6   26.42    6.24
  -4  -1   6   23.87    8.19
   0   4  -6    0.99    0.74
   4   0  -6    1.87    1.37
   0   4  -6    0.35    1.17
   4   0  -6    0.91    1.50
  -4   0  -6    2.53    1.97
   4   0   6    3.14    3.49
  -4   0   6    1.99    0.62
   0  -4   6    1.76    1.06
   4   0   6    2.57    1.39
  -4   0   6    0.58    4.04
   1   4  -6   22.77    6.14
  -4   1  -6   28.36    6.08
  -4   1  -6   18.81    5.82
  -4   1  -6   24.56    6.88
   4  -1   6   20.42    5.85
   4  -1   6   25.31    8.14
   4  -1   6   27.09    7.16
  -4   2  -6   74.45   18.29
  -4   2  -6   73.47   20.30
  -4   2  -6   76.34   16.27
  -4   2  -6   70.73   17.13
   4  -2   6   69.71   18.16
   4  -2   6   57.13   21.63
   4  -2   6   71.54   17.31
   4  -2   6   69.00   20.35
  -4   3  -6   25.69    6.45
   3   4  -6   15.90    8.42
  -4   3  -6   31.57    5.63
   3   4  -6   27.31    5.70
   4  -3   6   23.57    6.05
  -3  -4   6   21.48    6.17
   4  -3   6   16.24    8.69
   4   4  -6    9.45    4.69
   4   4  -6   12.12    2.52
   4   4  -6    8.82    2.93
  -4  -4   6   10.62    2.88
   4  -4   6   10.00    2.67
   5   4  -6   32.07    7.15
   5   4  -6   30.62    6.45
   5   4  -6   15.88    7.23
   5   4  -6   37.53    9.83
  -5  -4   6   22.73    7.04
  -5  -4   6   19.46    8.15
   5   3  -6   95.33   20.73
   5   3  -6   79.54   19.30
   5   3  -6   73.47   24.89
   5   3  -6   76.00   20.97
  -5  -3   6   78.73   23.18
  -5  -3   6   91.31   20.68
  -5  -2  -6   26.99   11.56
   5   2  -6   31.15    8.32
   5   2  -6   25.70   11.19
  -5  -2   6   28.77    9.89
   5   2   6   39.31   11.19
  -5  -2   6   38.20    7.83
   5   1  -6   38.85    8.36
   5   1  -6   31.99    7.77
   5   1  -6   19.12   10.93
  -5  -1   6   31.82   10.75
  -5  -1   6   34.71    7.50
   5   0  -6   -0.33    1.09
   5   0  -6    0.86    1.65
   5   0  -6    2.84    1.51
   5   0  -6    1.82    4.84
  -5   0   6    0.79    0.78
  -5   0   6    1.38    5.07
   1   5  -6   34.25    8.26
  -1  -5   6   36.30    8.75
   2   5  -6   32.97    9.06
  -5   2  -6   41.06    9.34
   5  -2   6   31.01   10.37
   3   5  -6   81.29   19.76
  -5   3  -6   83.60   22.31
  -5   4  -6   37.76    6.69
   4   5  -6   22.41    7.29
   4   5  -6   27.89    6.81
  -4  -5   6   25.16    7.33
   5  -4   6   26.73   10.94
   5   5  -6    1.14    1.83
   5   5  -6    0.78    1.14
   5   5  -6    8.88    4.64
   5  -5   6    0.29    1.43
  -5  -5   6    0.12    1.88
   6   5  -6    5.69    1.85
   6   5  -6    3.48    2.72
  -6  -5   6    5.21    2.79
   6   4  -6   28.70    8.22
   6   4  -6   27.73    7.37
  -6  -4   6   36.60    8.17
   6   3  -6    8.66    3.27
   6   3  -6   12.36    2.73
   6   3  -6   10.62    3.12
  -6  -3   6   10.95    4.24
  -6  -3   6   10.47    3.13
  -6  -3   6    8.17    5.70
   6   2  -6   61.20   14.29
  -6  -2  -6   60.99   19.02
   6   2  -6   64.67   14.75
   6   2   6   38.26   16.13
   6   2   6   72.88   19.08
  -6  -2   6   55.86   17.00
  -6  -1  -6   -1.37    3.16
   6   1  -6   -0.06    1.18
   6   1   6    0.13    2.15
   6   1   6    0.11    5.19
  -6   0  -6    5.98    3.68
   6   0   6    4.98    6.07
   6   0   6    5.81    2.26
  -6   1  -6   -0.58    3.57
   6  -1   6    1.06    1.51
  -6   1   6   -0.58    0.87
   6  -1   6    1.93    5.71
  -6   2  -6   53.24   17.37
  -6   2  -6   58.04   13.25
   6  -2   6   51.55   18.58
   6  -2   6   57.56   14.08
  -6   3  -6   12.63    3.05
  -6   3  -6   12.95    2.66
   6  -3   6   10.75    6.51
   6  -3   6    9.88    3.06
  -3  -6   6    3.78    3.27
   4   6  -6   33.46    8.07
  -6   4  -6   31.02    7.36
  -4  -6   6   28.62    8.24
   6  -4   6   27.32   11.93
   6  -4   6   30.38    7.78
  -6   5  -6   -0.92    1.28
   5   6  -6    2.37    1.35
   5   6  -6    0.81    2.12
   6  -5   6   -1.23    1.60
  -5  -6   6   -1.59    2.33
   6   6  -6    2.79    1.52
   6   6  -6    2.20    2.32
   6   6  -6    0.10    5.73
  -6  -6   6    1.54    2.32
   7   6  -6   -0.10    1.50
   7   6  -6    1.84    2.52
   7   6  -6    2.31    6.71
  -7  -6   6    1.48    2.57
   7   5  -6    2.43    2.33
   7   5  -6    3.45    6.65
   7   5  -6    2.62    1.47
  -7  -5   6    0.82    2.30
  -7  -5   6    0.27    3.48
   7   4  -6    6.35    1.63
   7   4  -6    4.09    2.73
   7   4  -6    6.45    2.49
   7   4  -6  -10.32    7.05
  -7  -4   6    4.68    3.92
  -7  -4   6    3.39    2.37
   7   3  -6   24.83    5.64
   7   3  -6   21.49    5.85
  -7  -3  -6   10.96    7.93
   7   3  -6   20.90    5.04
   7   3   6   21.32    8.58
  -7  -3   6   30.31    7.16
  -7  -3   6    9.05    5.69
  -7  -3   6   26.98    9.40
   7   2  -6   16.81    3.81
   7   2  -6   13.06    3.42
   7   2  -6    8.67    4.15
  -7  -2  -6    5.71    5.72
   7   2  -6   10.68    7.25
   7   2   6    9.94    7.50
  -7  -2   6   15.27    6.93
  -7  -2   6   24.00    5.65
   7   2   6   14.89    4.65
  -7  -2   6   14.84    3.37
   7   1  -6    1.77    1.57
  -7  -1  -6    2.04    3.76
   7   1  -6    3.76    1.81
   7   1  -6    8.28    2.07
   7   1  -6    1.09    5.60
  -7  -1   6    3.72    1.30
   7   1   6    5.21    6.70
   7   1   6    0.69    2.55
  -7  -1   6   -0.26    4.64
  -7   0  -6    0.53    3.69
   7   0  -6    0.48    1.54
   7   0  -6    6.19    6.05
   7   0  -6    2.15    1.76
   7   0   6   -1.13    6.93
   7   0   6    0.79    2.12
  -7   0   6    0.39    1.04
  -7   1  -6    3.05    4.41
   7  -1  -6    4.63    6.74
   7  -1  -6   -0.14    2.47
   7  -1  -6    4.02    1.75
  -7   1   6    3.40    1.45
   7  -1   6    4.23    2.07
   7  -1   6    4.95    6.97
  -7   2  -6   17.72    3.27
  -7   2  -6    9.30    6.35
   7  -2   6   13.13    7.90
   7  -2   6    7.96    3.65
  -7   3  -6   25.02    5.81
  -7   3  -6   25.47    5.05
   7  -3   6    7.60    9.34
   7  -3   6   18.23    5.47
  -7   4  -6    5.67    1.84
   7  -4   6    2.54    7.37
   7  -4   6    5.06    2.21
  -7   5  -6    1.31    1.56
   7  -5   6    2.63    1.84
   7  -5   6    1.14    7.83
   7  -6   6    1.58    1.86
   7   7  -6    8.35    3.52
   8   7  -6   -2.84    8.06
   8   7  -6    3.66    3.06
   8   6  -6    2.49    2.80
   8   6  -6    3.65    1.83
   8   6  -6    1.69    8.14
  -8  -6   6    3.72    2.97
   8   5  -6    5.46    2.75
   8   5  -6    0.12    7.97
   8   5  -6    2.77    1.74
   8   5  -6    4.24    3.37
  -8  -5   6    5.02    2.79
  -8  -5   6    3.31    4.56
   8   4  -6    6.66    7.54
   8   4  -6    0.07    1.25
   8   4  -6    2.05    2.80
   8   4  -6    0.75    2.21
  -8  -4   6    1.84    2.12
  -8  -4   6    2.16    4.17
   8   3  -6    1.39    1.26
   8   3  -6    2.96    2.12
   8   3  -6   -2.26    7.06
  -8  -3  -6   -2.79    5.04
   8   3  -6   -0.36    2.17
   8   3   6   -0.22    3.74
  -8  -3   6   -1.04    4.23
  -8  -3   6   -0.10    5.82
  -8  -3   6    1.14    1.88
  -8  -2  -6   13.34    5.27
   8   2  -6    4.52    7.17
   8   2  -6    7.32    2.55
   8   2  -6   13.23    3.04
   8   2  -6    5.44    3.39
  -8  -2   6   14.79    5.43
   8   2   6    2.55    3.95
  -8  -2   6   10.21    2.48
  -8  -2   6   13.32    6.59
  -8  -2   6    8.97    3.06
   8   2   6   11.03    7.98
  -8  -1  -6    0.15    4.19
   8   1  -6   -3.64    6.62
   8   1  -6   -1.30    2.15
   8   1  -6   -1.42    1.48
   8   1  -6    0.09    1.80
   8   1   6    0.15    8.12
  -8  -1   6    0.87    1.11
   8   1   6    0.30    2.71
  -8  -1   6   -3.41    5.59
  -8  -1   6   -2.30    6.45
   8   0  -6    9.01    3.27
   8   0  -6   12.40    3.30
  -8   0  -6   10.01    5.61
   8   0  -6    9.07    3.97
   8   0   6   14.76    3.75
  -8   0   6   15.65    3.03
  -8   0   6    3.79    8.48
   8   0   6   -2.03    9.93
   8  -1  -6    1.63    1.69
   8  -1  -6   -0.26    2.44
  -8   1  -6    1.14    5.02
   8  -1  -6    2.09    7.51
   8  -1   6   -8.53    8.82
  -8   1   6   -0.13    1.38
   8  -1   6   -2.23    2.25
   8  -2  -6    8.17    2.99
  -8   2  -6    8.75    2.64
  -8   2  -6   12.68    6.55
   8  -2   6   21.13    8.31
   8  -2   6   10.22    3.35
  -8   3  -6   -0.61    1.30
   8  -3   6    0.13    7.22
   8  -3   6    1.69    2.04
  -8   4  -6    1.68    1.53
   8  -4   6    8.08    8.10
   8  -4   6   -0.32    2.04
  -8   5  -6    3.39    1.97
   8  -5   6    3.00    8.87
   8  -5   6    5.26    2.34
   8  -6   6    0.65    2.13
   9   7  -6    1.66   10.77
   9   7  -6   21.97    5.43
   9   6  -6   12.04    4.79
   9   6  -6   19.68    3.99
   9   6  -6    0.89   10.37
  -9  -6   6   13.13    5.00
   9   5  -6    2.92    1.96
   9   5  -6   11.21    3.79
   9   5  -6   -2.10    9.19
   9   5  -6    3.96    3.00
  -9  -5   6   10.39    5.34
  -9  -5   6    5.59    2.94
   9   4  -6    5.17    2.67
   9   4  -6    2.24    3.12
   9   4  -6    2.50    1.44
   9   4  -6    6.03    8.59
  -9  -4   6    2.85    2.44
  -9  -4   6    3.62    4.79
  -9  -4   6    2.97    6.60
  -9  -3  -6    2.27    5.52
   9   3  -6    1.15    2.55
   9   3  -6    1.18    2.56
   9   3  -6    1.96    1.33
   9   3  -6   -1.23    7.84
  -9  -3   6    2.05    1.93
  -9  -3   6    2.98    6.40
  -9  -3   6    1.66    4.81
   9   3   6   -0.24    4.02
  -9  -2  -6    7.63    5.29
   9   2  -6    1.85    7.25
   9   2  -6    4.81    2.56
   9   2  -6    3.01    1.76
   9   2  -6    3.31    2.72
   9   2   6    0.17    9.01
  -9  -2   6    5.72    6.87
  -9  -2   6    7.60    5.57
  -9  -2   6    4.87    2.38
   9   2   6    8.56    3.95
  -9  -2   6    6.83    1.73
   9   1  -6    0.70    1.49
   9   1  -6   -0.21    2.11
   9   1  -6    0.35    6.94
   9   1  -6    3.10    2.33
  -9  -1  -6   -1.03    4.80
   9   1   6    0.17    9.22
  -9  -1   6    1.22    1.16
  -9  -1   6    4.82    6.18
  -9  -1   6    1.14    7.08
   9   1   6    1.50    3.14
  -9   0  -6    3.03    5.22
   9   0  -6   -0.09    1.78
   9   0  -6   -1.80    2.36
   9   0  -6    1.18    2.12
   9   0  -6    1.33    7.51
  -9   0   6    0.25    1.44
   9   0   6   -5.65    9.12
   9   0   6   -1.33    2.82
  -9   0   6   -1.45    7.19
   9  -1  -6   -2.11    8.14
   9  -1  -6   -1.97    1.98
  -9   1  -6    6.83    5.89
   9  -1  -6    1.52    2.44
   9  -1   6   -3.40    8.82
   9  -1   6   -0.13    2.47
  -9   1   6   -0.14    1.49
   9  -2  -6    5.61    2.49
  -9   2  -6    6.57    7.07
  -9   2  -6    6.74    2.07
   9  -2  -6    3.87    3.22
   9  -2   6    2.09    2.80
  -9   2   6    7.77    2.13
   9  -2   6    9.90    9.00
  -9   3  -6    4.51    7.72
  -9   3  -6    2.36    1.63
   9  -3   6    2.34    8.16
   9  -3   6    1.34    2.42
  -9   4  -6    2.04    1.73
   9  -4   6   -9.27    8.91
   9  -4   6    0.99    2.34
  -9   5  -6    3.38    2.12
   9  -5   6    4.26    2.53
   9  -5   6    1.14    9.69
  -9   6  -6   12.16    3.96
   9  -6   6   15.79    4.17
  10   8  -6   20.94    6.72
  10   7  -6    1.87   10.86
  10   7  -6    4.88    3.48
  10   6  -6    7.47    2.97
  10   6  -6    0.16   11.12
  10   6  -6   10.83    3.94
 -10  -6   6    2.79    6.33
 -10  -6   6   15.53    4.23
  10   5  -6   41.42    8.91
  10   5  -6   35.20    9.04
  10   5  -6    1.75   14.36
  10   5  -6   37.47    7.71
 -10  -5   6   21.24    8.99
 -10  -5   6   33.20   10.70
  10   4  -6    4.07    2.91
  10   4  -6    2.69    3.47
  10   4  -6    2.36    9.67
  10   4  -6    0.17    1.44
 -10  -4  -6   -5.71    6.68
 -10  -4   6   -4.37    7.49
 -10  -4   6    5.47    5.47
  10   4   6  -16.67    9.22
 -10  -4   6    0.44    2.76
  10   3  -6   28.20    9.63
  10   3  -6   34.72    8.05
 -10  -3  -6   61.49   11.80
  10   3  -6    4.40   13.75
  10   3  -6   44.44    8.74
  10   3   6   27.51    9.53
 -10  -3   6   33.40    9.25
 -10  -3   6   21.16   13.33
 -10  -3   6   36.70    8.12
 -10  -3   6   29.56   10.97
  10   2  -6    5.74    8.49
  10   2  -6    3.73    2.77
  10   2  -6    6.90    2.70
  10   2  -6    3.43    1.76
 -10  -2  -6   12.30    5.87
  10   2   6    2.53    3.94
 -10  -2   6   -3.10    6.40
 -10  -2   6    2.01    2.38
 -10  -2   6    3.08    7.65
 -10  -2   6    7.79    1.89
  10   1  -6    6.10    1.82
  10   1  -6    3.46    2.68
  10   1  -6    3.98    2.70
 -10  -1  -6   -1.76    5.83
  10   1  -6    0.40    7.92
 -10  -1   6    5.17    8.25
  10   1   6    6.13   11.23
 -10  -1   6    2.85    7.24
  10   1   6    6.17    3.79
 -10  -1   6    4.28    1.82
 -10   0  -6   19.05    7.94
  10   0  -6   19.63    4.66
  10   0  -6   19.19    5.03
  10   0  -6   17.10    5.75
  10   0  -6    4.40    9.94
 -10   0   6   13.01   10.12
 -10   0   6   20.85    4.67
  10   0   6   14.73   12.13
  10   0   6   20.24    5.39
  10  -1  -6    0.18    8.85
  10  -1  -6    1.15    2.68
 -10   1  -6    0.44    7.01
 -10   1  -6    6.16    1.95
  10  -1  -6    1.41    2.33
  10  -1   6    9.19   10.31
  10  -1   6    8.12    3.31
 -10   1   6    3.84    1.93
 -10   2  -6    3.11    1.96
  10  -2  -6    2.96    3.20
  10  -2  -6    4.60    2.58
  10  -2  -6   -3.13    9.48
 -10   2  -6   -1.69    8.32
 -10   2   6    3.53    2.05
  10  -2   6    6.94    3.10
  10  -2   6  -15.23   10.14
 -10   3  -6   36.35   14.44
 -10   3  -6   43.31    9.11
  10  -3   6   31.48   14.79
  10  -3   6   39.32    9.61
 -10   4  -6    0.35    1.98
  10  -4   6  -18.15   10.05
  10  -4   6    2.89    2.74
 -10   5  -6   29.14    7.49
  10  -5   6   30.48    7.75
  10  -5   6   26.76   14.40
 -10   6  -6    6.20    2.80
  10  -6   6    7.06    3.25
  11   8  -6   -0.92    3.82
  11   7  -6   -0.19   12.30
  11   7  -6    7.20    4.08
  11   6  -6    2.39   12.26
  11   6  -6    8.41    5.22
  11   6  -6    2.61    3.51
 -11  -6   6    4.38    3.92
 -11  -6   6    6.50    6.90
  11   5  -6    6.18   11.68
  11   5  -6    2.08    4.38
  11   5  -6    1.98    3.30
  11   5  -6    2.91    1.82
 -11  -5   6    2.46    3.41
 -11  -5   6   -0.42    6.32
 -11  -5   6    3.03    8.35
  11   4  -6   15.02    4.53
  11   4  -6    7.71    3.92
 -11  -4  -6    5.54    7.79
  11   4  -6   -5.41   11.77
  11   4  -6    9.96    2.61
 -11  -4   6   11.01    3.70
 -11  -4   6    2.42    8.64
  11   4   6    3.96    6.09
 -11  -4   6    8.65    6.61
  11   4   6   -0.21   11.70
  11   3  -6    9.29    4.02
  11   3  -6    2.36   11.20
 -11  -3  -6   19.37    7.91
  11   3  -6    8.75    3.98
  11   3  -6    8.58    2.71
 -11  -3   6   11.40    7.04
  11   3   6    7.98    5.45
 -11  -3   6   13.92    3.78
 -11  -3   6   10.17    2.88
 -11  -3   6    5.13    8.67
  11   2  -6    6.15    3.17
  11   2  -6    0.15    9.10
  11   2  -6    3.84    1.66
 -11  -2  -6    5.70    6.45
  11   2  -6    4.26    3.00
  11   2   6   -0.93    4.59
 -11  -2   6    0.12    2.48
 -11  -2   6   -0.13    8.29
 -11  -2   6    5.52    1.82
 -11  -2   6    1.87    7.16
 -11  -1  -6   93.31   19.51
  11   1  -6   60.40   16.32
  11   1  -6    4.99   22.21
 -11  -1   6   70.01   16.00
 -11  -1   6   50.89   24.29
  11   1   6  104.81   16.61
 -11  -1   6   94.61   20.80
  11   1   6   43.01   25.38
  11   0  -6    1.61    9.09
  11   0  -6    0.42    2.84
 -11   0  -6   -1.64    7.22
 -11   0   6   -2.07    9.09
  11   0   6   -1.45   12.38
 -11   0   6   -0.80    1.90
  11   0   6   -2.26    3.83
 -11   1  -6  106.64   20.63
  11  -1  -6   65.36   16.04
 -11   1  -6   53.03   15.68
  11  -1  -6   10.76   23.67
  11  -1   6   91.23   16.07
  11  -1   6   28.33   23.96
 -11   1   6   79.96   15.87
 -11   2  -6    4.52    2.23
  11  -2  -6    3.97    2.91
 -11   2  -6   -9.28    9.44
  11  -2  -6   -1.04   10.27
  11  -2   6    1.29    3.34
 -11   2   6    2.91    2.01
  11  -2   6  -12.01   11.12
 -11   3  -6    5.48    2.92
  11  -3  -6   13.49    3.53
 -11   3  -6   17.01   11.61
  11  -3   6    0.78    3.98
 -11   4  -6    7.57    3.21
  11  -4   6   10.67    3.96
 -11   5  -6    0.85    2.52
  11  -5   6  -15.97   12.36
  11  -5   6    1.39    3.08
 -11   6  -6    5.84    2.98
  11  -6   6    8.04    3.31
  12   7  -6   -1.89   13.82
  12   6  -6    3.83    5.98
  12   6  -6    2.46   14.01
 -12  -6   6   18.16    8.04
  12   5  -6   -3.06    5.23
  12   5  -6    2.14   12.67
 -12  -5   6    4.44    7.06
 -12  -4  -6    5.66    8.68
  12   4  -6    1.68   12.81
  12   4  -6    8.26    5.12
  12   4   6   16.08    6.53
 -12  -4   6   14.86    7.82
 -12  -3  -6  -11.01    8.09
  12   3  -6    0.19    3.69
  12   3  -6   -0.70   11.66
 -12  -3   6    0.29    1.79
 -12  -3   6   -6.43    7.53
  12   3   6    4.93    5.44
  12   2  -6    3.51   15.40
  12   2  -6   33.60    8.94
 -12  -2  -6   61.80   12.11
 -12  -2   6   24.31    8.32
  12   2   6   38.46    9.76
 -12  -2   6   38.03   12.40
 -12  -1  -6   -5.52    7.64
  12   1  -6   -3.43    3.31
  12   1  -6    1.64    9.78
 -12  -1   6    1.29    9.34
 -12  -1   6    0.49    1.88
  12   1   6  -10.49   14.55
  12   1   6    0.47    4.52
  12   0  -6   48.25   10.32
 -12   0  -6   60.70   14.56
  12   0  -6    3.01   15.95
 -12   0   6   50.95   15.85
 -12   0   6   40.37    9.98
  12   0   6    0.23   19.61
  12   0   6   54.37   10.62
  12  -1  -6   -7.75   11.15
 -12   1  -6   -0.18    2.41
 -12   1  -6   -6.79    9.70
  12  -1  -6    4.19    3.21
 -12   1   6    0.20    2.21
  12  -1   6  -27.90   13.98
  12  -1   6   -0.19    3.92
  12  -2  -6   42.65    9.88
 -12   2  -6   45.96    9.52
 -12   2  -6   28.52   15.45
  12  -2  -6   41.03   16.65
 -12   2   6   26.81    9.55
  12  -2   6   46.22   10.18
  12  -2   6   41.93   17.90
 -12   3  -6    3.32   11.27
 -12   3  -6    3.18    2.41
  12  -3  -6   -2.16    3.26
  12  -3   6   -1.59    3.70
  12  -3   6  -15.35   12.30
 -12   4  -6   36.83   13.73
 -12   4  -6   10.15    3.90
  12  -4   6   11.71    4.75
  12  -4   6   18.83   12.95
  12  -5   6   -5.44    3.67
  13   7  -6   14.74   15.40
  13   6  -6   16.73    8.82
  13   6  -6    1.13   17.33
 -13  -6   6   49.43   12.10
  13   5  -6   -2.80    5.41
  13   5  -6    1.28   14.28
 -13  -5   6    3.61    7.74
  13   5   6  -11.12   14.56
  13   4  -6    8.42    5.19
  13   4  -6   -3.67   13.43
  13   4   6   -0.26   15.21
 -13  -4   6    2.28    2.60
  13   4   6   36.72    6.30
 -13  -4   6   -0.24    7.98
  13   3  -6    5.16   12.87
  13   3  -6    8.98    4.97
 -13  -3   6    7.44    2.77
 -13  -3   6   -2.23    8.60
  13   3   6   24.79   15.63
  13   2  -6    1.23    4.41
  13   2  -6    2.44   11.77
 -13  -2   6    8.69    9.04
 -13  -2   6   -0.87    2.30
  13   1  -6   30.59    7.40
  13   1  -6    8.21   13.85
 -13  -1   6   36.82   12.78
 -13  -1   6   27.65    6.77
  13   0  -6   -5.11   11.11
  13   0  -6   -3.37    3.72
 -13   0   6    6.36   11.55
 -13   0   6   -2.57    2.56
  13  -1  -6   30.89    7.20
  13  -1  -6   16.58   14.40
 -13   1   6   18.69    6.61
 -13   1   6   40.57   14.67
 -13   4  -6   -2.64    2.93
  13  -4   6    3.68   13.75
 -13   5  -6   -0.26    3.47
  13  -5   6    1.07   14.26
  13  -5   6   20.01    4.23
  13  -7   6  -11.26    3.91
 -14  -5  -6   -3.14    9.76
  14   5   6    4.89   16.53
 -14  -4  -6  -13.69   10.28
  14   4   6   -0.29   17.49
  14   4   6   -2.28    6.85
 -14  -3  -6   18.12   10.25
  14   3   6  -21.34   18.49
  14   3   6    1.35    6.91
 -14  -2  -6    8.32    9.54
  14   2   6    0.31    6.32
 -14  -1  -6  -12.79   10.10
  14   1   6    0.58    5.73
 -14   0  -6    5.69    3.07
 -14   0  -6   -3.40   10.67
  14   0   6    0.28   17.40
  14   0   6    1.65    6.12
 -14   1  -6   -2.83    3.37
 -14   1  -6   -4.32   11.93
  14  -1   6   -3.25    5.56
  14  -1   6   -4.37   17.18
  14  -2  -6   -0.20    3.31
 -14   2  -6   -2.64    3.24
 -14   2  -6   -8.04   13.57
 -14   2   6   -2.04    2.84
  14  -2   6   -5.19    4.87
 -14   3  -6  -16.23   13.82
 -14   4  -6   -0.43   14.61
 -14   4  -6    6.17    3.43
  14  -4   6  -23.23   16.37
  14  -4   6   -2.80    4.35
 -14   5  -6   20.85   16.08
 -14   5  -6    4.28    3.30
  14  -5   6   -9.93   15.56
  14  -5   6    0.41    4.20
 -14   6  -6    0.30    3.54
  14  -6   6    7.19    4.26
  14  -6   6   18.54   15.74
  14  -7   6   11.21    5.10
  15   6  -6    3.05    7.13
  15   6  -6   27.78   17.44
 -15  -6   6  -11.41   10.58
 -15  -5  -6   12.40   10.83
  15   5  -6   24.98   16.96
  15   5  -6  -15.53    6.45
 -15  -5   6   -1.26    9.70
  15   5   6   12.53   19.22
 -15  -5   6    4.07    2.99
  15   4  -6   12.77   15.99
  15   4  -6   13.98    6.54
 -15  -4  -6  -10.19   11.43
  15   4   6    0.41    7.67
  15   4   6   -0.33   19.92
 -15  -4   6    9.06    3.39
 -15  -4   6    5.65    9.83
  15   3  -6   -8.02    5.56
  15   3  -6   -7.50   15.34
 -15  -3  -6    2.24   10.51
  15   3   6  -12.24    7.27
 -15  -3   6    0.31   10.47
 -15  -3   6    1.71    2.69
  15   3   6    0.67   20.32
 -15  -2  -6    5.75   10.72
  15   2  -6    1.52    5.15
  15   2  -6   -5.41   14.02
 -15  -2   6    1.31   11.08
  15   2   6   -0.35    6.63
 -15  -2   6    0.22    2.75
 -15  -1  -6   -0.72   11.09
  15   1  -6    2.91   13.65
  15   1  -6   -2.71    5.03
 -15  -1   6   -0.23    2.83
 -15  -1   6   12.79   12.22
  15   1   6    0.32    6.45
  15   0  -6    2.77    4.71
 -15   0  -6   -4.94   11.82
  15   0  -6  -18.03   14.31
 -15   0  -6    1.79    3.15
 -15   0   6   -2.45    3.23
  15   0   6  -11.25    6.70
 -15   0   6   -5.01   13.87
  15  -1  -6   -2.88   14.18
  15  -1  -6  -12.31    4.53
 -15   1  -6   -3.17    3.67
 -15   1  -6   -3.22   13.27
 -15   1   6   -1.30    2.98
  15  -1   6    0.28    5.95
 -15   1   6  -13.81   15.37
  15  -1   6  -43.65   19.14
  15  -2  -6   -3.86    4.75
  15  -2  -6  -18.72   14.32
 -15   2  -6    3.26    3.59
 -15   2  -6  -10.64   14.34
  15  -2   6  -16.84   17.10
  15  -2   6    1.58    5.52
 -15   2   6   -0.45   16.40
 -15   2   6    0.56    3.24
 -15   3  -6   13.40   15.39
 -15   3  -6    2.54    3.85
  15  -3  -6   -4.78    4.43
  15  -3   6   -4.80    5.22
  15  -3   6   13.49   15.91
 -15   3   6    0.29    3.23
 -15   4  -6   13.13    4.31
 -15   4  -6    4.21   15.83
  15  -4   6   -6.15   17.89
  15  -4   6    7.01    5.25
 -15   5  -6   -0.32    3.65
 -15   5  -6   14.50   17.20
  15  -5   6    0.46    4.60
  15  -5   6   16.33   17.08
 -15   6  -6  -32.35   18.21
 -15   6  -6    7.34    3.60
  15  -6   6    0.23    4.46
  15  -6   6    8.26   16.76
  15  -7   6    0.23    4.53
 -16  -6   6    1.34    3.09
 -16  -6   6    1.51   11.14
 -16  -5  -6  -15.02   13.99
  16   5  -6  -21.45    8.40
 -16  -5   6   -5.71    3.30
 -16  -4  -6    9.04   12.81
  16   4   6    0.45    8.21
  16   4   6  -11.22   22.30
 -16  -4   6   -7.79    3.64
 -16  -3  -6   -2.09   12.30
  16   3  -6    0.32    6.24
  16   3  -6   21.15   16.04
 -16  -3   6   -0.24    3.11
  16   3   6   -2.04    7.62
  16   3   6  -28.79   22.72
 -16  -3   6   -1.37   11.83
  16   2  -6    5.93   15.21
 -16  -2  -6    1.62   12.35
  16   2  -6  -12.12    5.90
  16   2   6    3.47    7.70
 -16  -2   6   -3.31   12.80
 -16  -2   6   -7.64    3.12
  16   2   6   34.93   22.79
 -16  -1  -6    6.93   12.78
  16   1  -6    0.27    5.53
  16   1  -6    8.67   14.41
 -16  -1   6    2.82    3.25
 -16  -1   6   13.71   13.71
  16   1   6    0.36    7.47
 -16   0  -6   -5.95   13.65
  16   0  -6  -10.92   15.62
 -16   0  -6   -2.33    3.87
  16   0  -6   12.12    5.30
 -16   0   6    3.38   14.90
 -16   0   6    3.53    3.10
  16   0   6    2.01    6.78
  16  -1  -6   24.59   15.80
  16  -1  -6   -0.76    5.26
 -16   1  -6   -1.36   14.78
 -16   1  -6    3.26    3.53
  16  -1   6    0.99   19.67
 -16   1   6    0.29    3.42
 -16   1   6   -1.37   16.84
  16  -1   6   -0.32    6.64
  16  -2  -6    7.11   15.22
 -16   2  -6   -2.44    3.55
 -16   2  -6    2.35   15.72
  16  -2  -6    1.48    4.97
 -16   2   6    3.95    3.65
  16  -2   6    2.87    5.89
 -16   2   6  -10.77   17.54
  16  -2   6    0.31   18.39
 -16   3  -6   -1.26    3.98
 -16   3  -6   -6.40   16.18
  16  -3  -6    0.25    5.06
 -16   3   6    3.20    3.35
  16  -3   6   25.29   18.33
  16  -3   6    2.19    5.76
 -16   4  -6    3.66    3.86
 -16   4  -6   21.42   18.00
  16  -4   6  -50.84   19.87
  16  -4   6    0.80    5.59
 -16   5  -6    3.15    4.40
 -16   5  -6  -10.00   18.27
  16  -5   6   -7.24    5.39
  16  -5   6  -14.44   19.59
 -16   6  -6    0.54   18.91
 -16   6  -6    1.47    4.02
  16  -6   6   28.12   19.10
  16  -6   6  -11.54    5.13
  16  -7   6   -5.13    5.22
  17   5  -6   24.26   19.79
 -17  -5  -6  -19.17   14.19
  17   5  -6    0.81    7.91
 -17  -5   6  -13.71   11.78
  17   5   6   -1.19   25.16
 -17  -5   6    5.16    3.59
  17   4  -6    4.59    7.61
  17   4  -6    5.53   18.64
 -17  -4  -6  -13.08   14.57
 -17  -4   6    2.23   12.28
 -17  -4   6    0.79    3.53
  17   4   6   -4.50    9.32
  17   4   6   17.79   24.54
  17   3  -6    8.37   17.44
 -17  -3  -6   18.82   13.82
  17   3  -6   -1.78    7.18
 -17  -3   6    5.61    3.61
 -17  -3   6   -5.67   12.97
  17   3   6    0.47    8.88
  17   3   6    7.13   24.20
  17   2  -6   14.54   16.95
  17   2  -6   -3.89    6.67
 -17  -2  -6    7.26    4.24
 -17  -2  -6   13.21   14.53
 -17  -2   6    0.28    3.50
 -17  -2   6   -4.46   14.11
  17   2   6    2.56    7.93
  17   2   6   -9.83   23.87
  17   1  -6   -1.41   16.66
  17   1  -6   -7.60    6.43
 -17  -1  -6   10.99   14.11
 -17  -1   6   10.38   15.20
 -17  -1   6   -0.29    3.72
  17   1   6   10.53    8.21
 -17   0  -6    3.80   15.70
  17   0  -6    0.58    6.04
  17   0  -6   25.04   17.50
 -17   0   6   -1.20    3.92
 -17   0   6  -16.72   16.61
  17   0   6  -31.82    7.48
 -17   1  -6    0.33    4.44
  17  -1  -6  -21.91   17.54
  17  -1  -6   -2.59    5.94
 -17   1  -6  -29.68   16.11
  17  -1   6    0.36   21.60
 -17   1   6    5.97   18.25
 -17   1   6    0.32    3.69
  17  -1   6   13.69    7.22
 -17   2  -6    2.09   17.16
 -17   2  -6   -5.46    4.39
  17  -2  -6  -12.23   17.21
  17  -2  -6    2.49    5.96
 -17   2   6    2.66    4.25
  17  -2   6   10.48   20.73
 -17   2   6   10.09   19.53
  17  -2   6   -6.02    6.58
 -17   3  -6    0.54   18.32
  17  -3  -6    2.51    5.51
 -17   3  -6   -0.72    4.48
  17  -3   6    9.20    6.61
 -17   3   6    0.35    3.85
  17  -3   6    9.66   20.21
 -17   3   6    2.82   20.65
 -17   4  -6  -20.06   19.67
 -17   4  -6    0.74    4.38
  17  -4   6    2.27   21.11
  17  -4   6    5.75    5.92
 -17   5  -6    0.39    4.28
 -17   5  -6  -18.37   19.94
  17  -5   6   20.06   20.25
  17  -5   6    0.56    5.72
 -17   6  -6  -16.47   20.99
 -17   6  -6   -4.45    4.59
  17  -6   6   -1.58   19.81
  17  -6   6    4.16    5.62
 -18  -5  -6  166.13   41.56
 -18  -4  -6  -10.12   17.06
  18   4  -6  -10.12    8.16
  18   4  -6    7.78   19.73
  18   4   6    2.75   10.49
 -18  -4   6   -4.38    3.99
  18   4   6    6.61   27.33
 -18  -4   6    9.45   13.34
  18   3  -6   -5.51    7.71
 -18  -3  -6    4.35   15.82
  18   3  -6   18.29   19.62
 -18  -3  -6    4.26    4.33
  18   3   6  -18.08   10.40
  18   3   6   -2.57   26.17
 -18  -3   6    0.42   14.07
 -18  -3   6   -4.49    3.90
 -18  -2  -6    0.51   15.19
  18   2  -6  -29.97   18.05
  18   2  -6    1.13    7.58
 -18  -2  -6    0.68    4.38
 -18  -2   6    0.31    3.98
 -18  -2   6   -0.89   14.85
  18   2   6  -10.63   26.30
  18   2   6   -0.47    8.76
  18   1  -6  -14.64   19.00
 -18  -1  -6  -14.40   16.73
  18   1  -6  -22.25    7.16
  18   1   6    5.84    8.68
 -18  -1   6   -5.49    3.97
 -18  -1   6    0.48   16.37
  18   1   6   -0.42   24.96
  18   0  -6    0.33   19.20
  18   0  -6  -22.56    6.93
 -18   0  -6  -19.13   16.83
  18   0   6  -14.65    8.83
 -18   0   6    4.01    4.46
 -18   0   6   19.84   18.91
 -18   1  -6    6.11   18.47
  18  -1  -6    1.36   18.64
  18  -1  -6   -0.31    6.48
 -18   1  -6    0.37    4.92
 -18   1   6    7.04   18.95
 -18   1   6   -0.35    4.03
  18  -1   6    0.41    7.99
 -18   2  -6    5.76   19.32
  18  -2  -6  -10.86    6.49
 -18   2  -6   12.73    5.12
  18  -2  -6  -12.29   18.07
 -18   2   6    5.85    4.46
  18  -2   6    2.93    7.57
  18  -2   6   -0.39   21.90
 -18   2   6    6.93   20.72
  18  -3  -6    4.38    6.47
 -18   3  -6    4.41    4.93
 -18   3  -6  -28.49   20.81
  18  -3   6    1.03    7.22
  18  -3   6   13.77   22.97
 -18   3   6   -6.11   22.53
 -18   4  -6   -4.27   21.42
 -18   4  -6    0.42    4.95
  18  -4   6   -8.46   23.94
  18  -4   6  -27.23    7.27
 -18   5  -6  146.17   53.22
  18  -5   6  257.28   46.60
 -18   6  -6   46.14   22.14
 -18   6  -6   -6.71    4.99
  18  -6   6    0.31    6.45
 -19  -5  -6   16.01   17.78
  19   5   6  -16.68   29.73
  19   4  -6  -19.52   21.94
 -19  -4  -6  -11.34   18.05
  19   4  -6    9.76    8.72
 -19  -4   6    8.64   15.40
  19   4   6   16.72   30.99
 -19  -4   6  -13.59    4.16
  19   4   6   -0.61   10.92
  19   3  -6   -6.74   21.39
  19   3  -6   -2.68    8.79
 -19  -3  -6    3.67    4.95
 -19  -3  -6   15.93   18.26
  19   3   6   16.65   30.03
 -19  -3   6   -3.33    4.26
  19   3   6   17.15   10.84
 -19  -3   6    8.33   15.54
  19   2  -6   34.84   19.99
 -19  -2  -6   -6.54    5.20
 -19  -2  -6   -7.13   18.13
  19   2  -6   17.47    8.61
  19   2   6   -6.43   28.47
  19   2   6  -16.81   10.49
 -19  -2   6    3.84    4.41
 -19  -2   6   -6.35   16.93
 -19  -1  -6    3.95    5.07
 -19  -1  -6    1.73   18.14
  19   1  -6    0.36   21.91
  19   1  -6   -4.85    8.17
 -19  -1   6   25.82   19.12
  19   1   6  -31.80   27.76
 -19  -1   6    4.32    4.47
  19   1   6   -0.50   10.00
  19   0  -6    5.87    7.54
  19   0  -6  -32.26   21.75
 -19   0  -6  -10.06   20.01
  19   0   6    0.48    9.57
 -19   0   6  -21.12   19.47
 -19   0   6    0.37    4.53
 -19   1  -6  -14.75   21.47
  19  -1  -6   -0.36    6.95
  19  -1  -6    1.50   20.26
 -19   1   6    3.11    4.51
  19  -1   6  -14.76    9.42
 -19   1   6   -4.15   21.69
  19  -2  -6    2.69   19.80
 -19   2  -6    1.73    5.80
 -19   2  -6   21.16   22.20
  19  -2  -6    0.35    7.03
 -19   2   6   -2.82    4.33
  19  -2   6  -28.46   25.29
 -19   2   6    3.76   23.17
  19  -2   6   10.16    8.57
 -19   3  -6  -24.19   21.98
  19  -3  -6    3.16    7.20
 -19   3  -6    1.35    5.46
  19  -3   6    5.21    7.89
  19  -3   6    3.25   26.93
 -19   3   6   21.18   24.20
 -19   4  -6   -8.70   23.62
 -19   4  -6    0.47    5.33
  19  -4   6    0.38    7.73
  19  -4   6  -11.31   26.59
 -19   5  -6    4.34    6.02
 -19   5  -6   -7.52   24.60
  19  -5   6   -9.46   26.02
  19  -5   6   17.05    7.53
 -19   6  -6   -4.18   24.87
 -19   6  -6    1.49    5.71
  19  -6   6    1.06    6.89
 -20  -4   6    0.36    4.71
  20   3  -6   27.80   23.39
  20   3  -6   -8.88    9.70
 -20  -3   6   -5.61    4.70
 -20  -3   6    8.17   17.13
  20   2  -6   -9.59   22.50
  20   2  -6    0.48    9.39
 -20  -2   6   13.45   18.55
 -20  -2   6    0.78    4.94
  20   1  -6  -14.56    8.86
  20   1  -6   -9.67   23.96
 -20  -1   6    7.20    4.93
 -20  -1   6   -5.19   20.04
  20   0  -6    4.51   23.08
  20   0  -6   -3.43    8.56
 -20   0   6    2.91    4.97
 -20   0   6  -10.37   21.05
  20  -1  -6   -4.15    8.22
  20  -1  -6    1.24   21.91
 -20   1   6   12.07    5.20
 -20   1   6   -3.23   22.39
  20  -2  -6  -25.46    8.37
 -20   2   6    4.78   24.01
 -20   2   6   -3.55    4.95
  20  -3  -6   13.34    8.37
 -20   3   6   17.98   25.54
   0   0  -7    0.21    1.11
   0   0  -7   -0.06    0.95
   0   0   7    0.08    2.59
  -1   0  -7   13.25    3.08
   0   1  -7   14.07    2.94
   1   0  -7   10.80    3.15
   1   0  -7   12.12    3.07
   0   1  -7   11.21    3.08
   0  -1   7    7.76    4.18
   1   0   7   10.69    4.07
  -1   0   7    9.21    4.52
  -1   1  -7   -0.18    0.84
   1   1  -7    0.42    0.88
  -1   1  -7   -0.22    0.71
   1   1  -7    0.21    0.87
  -1   1  -7   -0.86    0.87
   1  -1   7    0.38    1.60
  -1  -1   7    0.58    2.59
   1  -1   7    0.83    2.27
  -1   2  -7    5.09    2.17
   2   1  -7    9.22    2.51
  -1   2  -7    9.06    2.66
  -1   2  -7   10.69    2.03
  -1   2  -7    8.75    2.42
  -2  -1   7    5.32    4.01
   1  -2   7   10.63    2.22
   1  -2   7    9.52    3.32
   1  -2   7    6.10    3.28
   2   0  -7   -0.93    1.11
   0   2  -7   -0.27    0.84
  -2   0  -7    0.81    1.13
   0   2  -7    0.17    0.56
   0  -2   7   -0.43    2.12
  -2   0   7    0.94    3.20
   2   0   7   -0.09    1.90
   1   2  -7   10.05    2.43
  -2   1  -7    8.14    2.50
  -2   1  -7    8.18    2.93
   1   2  -7    6.74    2.19
  -2   1  -7   11.12    2.31
  -1  -2   7    7.73    3.52
   2  -1   7    8.14    3.65
   2  -1   7    5.71    3.58
   2  -1   7    9.39    2.47
  -2   2  -7   -0.09    0.33
  -2   2  -7    0.29    0.49
   2   2  -7    0.17    1.03
  -2   2  -7   -0.04    1.49
  -2   2  -7    0.08    0.87
  -2  -2   7   -0.54    2.75
   2  -2   7    0.03    0.66
   2  -2   7    0.66    2.04
   2  -2   7   -0.08    2.59
  -2   3  -7  139.19   32.49
  -2   3  -7  158.94   36.16
   3   2  -7  143.32   35.65
   3   2  -7  158.36   34.46
   3   2  -7  111.97   46.86
  -2   3  -7  131.48   33.62
  -3  -2   7  142.79   39.07
  -3  -2   7  117.97   41.68
   2  -3   7  153.56   35.84
  -3  -2   7  157.98   33.08
   2  -3   7  100.01   46.37
   3   1  -7   15.04    4.08
   3   1  -7   12.46    4.16
  -1   3  -7   16.64    4.00
   3   1  -7   22.58    4.48
  -1   3  -7   17.16    4.34
  -3  -1   7   11.92    6.10
  -3  -1   7   15.82    3.85
   1  -3   7   18.52    4.26
  -3   0  -7   84.54   26.83
   3   0  -7  104.10   21.50
   0   3  -7   85.23   20.83
  -3   0  -7   83.19   22.39
   0   3  -7   89.85   22.08
  -3   0   7   96.39   27.16
   3   0   7   90.26   22.98
   3   0   7   77.40   26.41
   1   3  -7   19.53    4.32
  -3   1  -7   16.65    4.16
  -3   1  -7   12.81    4.43
  -3   1  -7   19.09    4.97
   3  -1   7   19.79    4.22
   3  -1   7   15.29    5.63
   3  -1   7   15.27    5.93
  -1  -3   7   12.02    4.22
  -3   2  -7  164.92   35.65
  -3   2  -7  162.89   37.77
  -3   2  -7  168.69   33.81
  -3   2  -7  133.55   40.27
   3  -2   7  154.02   41.94
   3  -2   7  135.82   37.39
   3  -2   7  115.15   43.48
   3  -2   7  151.32   35.68
   3   3  -7   -0.93    0.97
  -3   3  -7   -0.28    0.63
  -3   3  -7   -0.37    0.55
   3   3  -7    0.18    2.40
  -3   3  -7   -0.04    1.09
   3  -3   7   -0.05    0.82
   3  -3   7    0.22    0.94
  -3  -3   7    0.31    1.30
   3  -3   7    0.19    4.01
   4   3  -7   71.51   15.45
   4   3  -7   78.35   16.68
   4   3  -7   70.08   16.79
   4   3  -7   48.17   19.58
  -3   4  -7   69.17   17.18
   3  -4   7   50.99   16.28
  -4  -3   7   60.88   16.41
  -4  -3   7   77.52   18.62
   4   2  -7    3.65    1.07
  -2   4  -7    1.49    1.46
   4   2  -7    3.09    3.38
  -2   4  -7    2.13    0.89
  -4  -2   7    2.54    0.80
   2  -4   7    1.50    1.30
  -4  -2   7    2.53    2.30
  -1   4  -7   10.33    2.27
   4   1  -7    8.93    4.99
  -4  -1  -7    6.22    3.90
   4   1  -7   -0.07    2.77
  -1   4  -7    7.11    2.63
   4   1  -7   10.49    2.34
   4   1   7    8.76    3.14
   1  -4   7   11.11    2.56
  -4  -1   7   10.37    2.21
   0   4  -7    0.55    1.27
   4   0  -7    0.08    1.54
  -4   0  -7   -0.28    1.24
  -4   0  -7    1.89    2.39
   4   0   7    0.22    3.89
   4   0   7    0.19    1.63
  -4   0   7    0.11    4.74
  -4   1  -7    7.37    3.55
  -4   1  -7   11.98    2.46
  -4   1  -7    9.84    2.67
   4  -1   7    8.76    5.17
   4  -1   7    7.03    3.98
   4  -1   7   10.38    2.70
  -4   2  -7    2.51    1.15
  -4   2  -7    2.10    0.75
  -4   2  -7    2.50    0.85
  -4   2  -7    1.50    2.88
   4  -2   7    0.56    4.62
   4  -2   7    1.04    2.44
   4  -2   7    3.17    0.92
   4  -2   7    1.40    1.31
   3   4  -7   80.58   15.49
  -4   3  -7   51.33   15.96
  -4   3  -7   75.45   17.34
   3   4  -7   67.15   21.96
  -4   3  -7   79.04   15.29
   3   4  -7   68.35   16.63
   4  -3   7   40.36   20.75
   4  -3   7   56.70   16.47
   4  -3   7   71.54   17.13
  -3  -4   7   63.93   16.51
  -4   4  -7    0.54    1.25
   4   4  -7    0.41    3.46
   4   4  -7   -0.67    0.92
  -4   4  -7    1.55    0.89
   4   4  -7    0.77    1.64
   4  -4   7   -0.23    1.10
  -4  -4   7   -0.55    1.51
   5   4  -7   41.27   12.51
   5   4  -7   51.13   15.37
   5   4  -7   54.96   12.31
   5   4  -7   55.04   11.29
  -5  -4   7   49.70   12.18
  -5  -4   7   30.09   13.90
   5   3  -7   49.56   11.46
   5   3  -7   40.55   11.69
   5   3  -7   41.40   10.65
   5   3  -7   41.26   14.20
  -5  -3   7   38.06   14.44
  -5  -3   7   43.84   13.00
  -5  -3   7   56.52   11.46
   5   2  -7   88.42   23.11
   5   2  -7  104.01   30.28
   5   2  -7  112.31   23.75
  -5  -2   7   88.18   23.02
  -5  -2   7  100.76   26.79
   5   1  -7    4.66    1.26
   5   1  -7    2.83    4.39
   5   1   7   -0.45    4.46
  -5  -1   7    1.07    0.94
   5   0  -7  212.13   46.39
   0   5  -7  228.55   46.13
  -5   0  -7  138.99   49.71
  -5   1  -7    2.12    0.78
   1   5  -7    2.97    1.63
   1   5  -7    3.02    1.12
  -1  -5   7    5.09    1.68
   2   5  -7   91.59   24.52
  -5   2  -7  113.74   25.70
  -5   2  -7  102.35   23.73
   5  -2   7   99.47   25.27
   5  -2   7   90.18   28.49
   3   5  -7   45.06   11.12
  -5   3  -7   48.04   12.42
  -5   4  -7   36.26   13.16
   4   5  -7   52.62   12.48
   4   5  -7   53.88   11.69
   4   5  -7   58.83   16.40
  -5   4  -7   48.62   11.57
   5  -4   7   41.94   16.75
  -4  -5   7   51.23   12.50
   5   5  -7   -0.60    1.17
   5   5  -7   -0.81    2.03
   5   5  -7   -1.35    4.76
   5  -5   7    0.14    1.40
  -5  -5   7   -0.12    1.82
   6   5  -7    4.29    2.49
   6   5  -7    5.44    1.68
  -6  -5   7    3.90    2.26
   6   4  -7   30.94    6.86
   6   4  -7   29.69    7.72
   6   4  -7   25.76    7.86
  -6  -4   7   26.81    7.57
  -6  -4   7   26.75    8.96
   6   3  -7   56.10   14.36
   6   3  -7   61.60   13.82
   6   3  -7   53.59   13.11
  -6  -3   7   55.28   14.05
  -6  -3   7   52.98   17.29
  -6  -3   7   60.63   15.59
   6   2  -7   43.66   10.57
   6   2  -7   49.89   11.29
   6   2  -7   56.03   10.30
  -6  -2  -7   29.73   13.67
  -6  -2   7   38.93   13.85
   6   2   7   25.53   13.51
  -6  -2   7   56.97   12.18
   6   2   7   50.59   11.79
   6   1  -7   16.67    4.46
   6   1  -7   12.94    3.99
  -6  -1  -7   11.38    5.64
   6   1  -7   20.13    4.04
   6   1   7   17.61    4.69
   6   1   7   14.81    7.21
  -6   0  -7   -1.03    3.19
   6   0  -7    1.03    1.77
  -6   0  -7   -0.13    0.87
   6   0   7   -2.16    6.10
   6   0   7    1.46    1.97
  -6   1  -7   12.48    5.07
   6  -1  -7   13.88    4.08
   6  -1   7   20.58    7.63
   6  -1   7    8.60    3.64
   2   6  -7   43.39   11.47
  -6   2  -7   39.36   13.20
  -6   2  -7   60.10   10.77
   6  -2   7   49.18   11.22
   6  -2   7   45.54   14.47
  -6   3  -7   40.45   11.99
  -6   3  -7   53.02   13.80
   6  -3   7   65.94   16.87
   6  -3   7   44.97   12.83
  -6   4  -7   31.65    8.40
   4   6  -7   27.31    7.43
  -6   4  -7   36.74    7.28
   4   6  -7   38.61    7.97
  -4  -6   7   29.55    8.11
   6  -4   7   15.61   11.89
   6  -4   7   28.55    7.75
   5   6  -7    4.51    1.66
   5   6  -7    3.89    2.47
  -6   5  -7    1.95    1.53
  -5  -6   7    5.21    2.30
   6  -5   7    1.57    1.80
   6   6  -7   -0.43    2.37
   6   6  -7    0.10    1.42
   6   6  -7   -3.28    5.83
   6  -6   7    0.09    1.67
  -6  -6   7    0.46    2.39
   7   6  -7   10.87    3.19
   7   6  -7    6.62    7.25
   7   6  -7    6.21    2.29
  -7  -6   7    2.79    3.10
   7   5  -7    3.53    6.66
   7   5  -7    1.25    1.35
   7   5  -7   -1.44    2.36
  -7  -5   7   -0.81    2.16
  -7  -5   7   -0.26    3.41
   7   4  -7   26.70    6.02
   7   4  -7   22.72    9.90
   7   4  -7   24.46    6.92
   7   4  -7   27.77    6.93
  -7  -4   7   20.89    6.76
   7   3  -7   34.40    5.94
   7   3  -7   25.06    5.35
   7   3  -7   -2.92   10.20
   7   3  -7   21.35    6.52
  -7  -3   7   -6.22   10.49
  -7  -3   7   22.91    6.17
   7   2  -7   68.02   14.54
  -7  -2  -7   54.18   17.17
   7   2  -7   18.39   18.21
   7   2  -7   57.02   13.30
   7   2  -7   53.94   12.85
   7   2   7   70.58   14.56
   7   2   7   68.60   17.76
  -7  -2   7   34.17   18.63
  -7  -1  -7    4.04    3.97
   7   1  -7    0.26    2.06
   7   1  -7  -12.61    6.17
   7   1  -7   -0.91    1.56
   7   1  -7   -1.65    1.49
  -7  -1   7   -4.42    6.21
  -7  -1   7    0.53    0.97
   7   1   7   -2.24    2.78
   7   1   7    1.78    6.74
  -7   0  -7   -0.53    3.70
   7   0  -7   -5.17    6.55
   7   0  -7    0.57    1.90
   7   0  -7    0.55    1.63
   7   0  -7    0.92    2.16
   7   0   7    0.64    7.12
  -7   0   7    1.23    6.64
   7   0   7   -0.36    2.29
  -7   0   7    1.04    1.16
   7  -1  -7    1.42    2.50
  -7   1  -7    0.14    4.14
   7  -1  -7    1.72    1.61
   7  -1   7   -6.99    7.35
   7  -1   7    0.31    2.01
  -7   1   7    0.46    1.08
  -7   2  -7   71.30   16.31
  -7   2  -7   49.81   12.51
   7  -2   7   51.89   13.20
   7  -2   7   36.83   18.44
  -7   3  -7   40.84    7.12
  -7   3  -7   30.59    7.87
   7  -3   7   35.98    7.59
   7  -3   7    4.63   11.37
  -7   4  -7   28.21    7.69
  -7   4  -7   28.80    6.69
   7  -4   7   27.51   11.14
   7  -4   7   28.55    7.12
   5   7  -7    1.87    2.53
  -7   5  -7   -1.16    1.51
   7  -5   7    2.02    1.92
   7  -5   7   13.58    7.98
  -5  -7   7   -1.89    2.48
   6   7  -7    8.77    3.22
   7  -6   7    5.58    2.38
  -6  -7   7    2.19    3.28
   7   7  -7    0.50    2.76
   7   7  -7   -2.21    6.85
  -7  -7   7    0.39    3.11
   8   7  -7   10.55    9.81
   8   7  -7   24.00    5.38
  -8  -7   7   12.01    5.71
   8   6  -7    0.12    7.91
   8   6  -7    2.18    1.80
   8   6  -7   -0.94    2.79
  -8  -6   7    1.94    2.90
   8   5  -7    1.41    1.41
   8   5  -7   -0.65    2.60
   8   5  -7    1.71    3.26
   8   5  -7   -1.15    7.42
  -8  -5   7   -1.33    2.58
  -8  -5   7   -0.15    4.40
   8   4  -7    9.99    2.59
   8   4  -7   11.41    3.48
   8   4  -7   11.02    3.69
   8   4  -7   -0.32    7.67
  -8  -4   7    6.86    3.28
  -8  -4   7    9.33    7.11
  -8  -4   7   11.67    4.86
   8   3  -7   -0.19    2.30
   8   3  -7   14.53    6.70
   8   3  -7    0.30    1.25
   8   3  -7    0.11    2.28
  -8  -3  -7    3.80    5.13
  -8  -3   7    1.43    1.99
   8   3   7   -7.16    6.73
   8   3   7    0.69    3.75
  -8  -3   7    3.83    6.19
  -8  -3   7   -1.79    4.23
   8   2  -7   23.45    5.66
   8   2  -7   20.82    5.33
   8   2  -7   11.21    9.33
  -8  -2  -7   31.32    8.09
   8   2  -7   22.11    6.32
   8   2   7   10.21    6.55
  -8  -2   7   22.88    9.61
  -8  -2   7   22.01    7.82
  -8  -2   7   19.98    5.29
   8   2   7   33.91   10.12
   8   1  -7    7.13    2.37
  -8  -1  -7    8.32    4.76
   8   1  -7    1.07    6.93
   8   1  -7    7.83    3.06
   8   1  -7   12.58    2.64
  -8  -1   7    5.95    2.15
   8   1   7    3.04    3.47
  -8  -1   7    9.75    7.32
  -8  -1   7    8.29    5.99
   8   1   7   11.38    8.44
  -8   0  -7    1.38    4.40
   8   0  -7    0.22    2.44
   8   0  -7    0.09    1.83
   8   0  -7    1.01    1.96
   8   0  -7    4.04    7.26
   8   0   7    1.25    2.75
   8   0   7    2.79    8.64
  -8   0   7   -3.54    7.17
  -8   0   7    0.71    1.31
  -8   1  -7    6.57    5.24
   8  -1  -7    6.87    2.46
   8  -1  -7    0.16    7.80
   8  -1  -7    6.09    3.08
   8  -1   7   11.88    8.82
   8  -1   7    6.84    2.90
  -8   1   7    6.90    2.12
   8  -2  -7   18.02    5.76
  -8   2  -7   31.35    5.47
  -8   2  -7   17.47    8.68
   8  -2   7   21.48    5.93
   8  -2   7   18.53   10.48
  -8   3  -7   -1.43    6.80
  -8   3  -7   -1.22    1.43
   8  -3   7    1.45    7.37
   8  -3   7    0.54    2.09
  -8   4  -7   10.04    2.56
   8  -4   7    6.43    3.14
   8  -4   7    8.03    8.34
  -8   5  -7   -0.96    1.69
   8  -5   7   -0.77    2.22
   8  -5   7    1.56    9.10
   8  -6   7   -0.22    2.13
   9   8  -7   49.26   13.29
   9   7  -7   -0.29    9.54
   9   7  -7    7.21    3.55
  -9  -7   7    7.31    3.96
   9   6  -7   11.68    3.70
   9   6  -7   14.74    4.68
   9   6  -7    1.12   10.17
  -9  -6   7   17.41    4.88
   9   5  -7   10.52    5.08
   9   5  -7   17.33    4.08
   9   5  -7   19.05    5.56
   9   5  -7    7.26   10.10
  -9  -5   7   17.38    5.09
  -9  -5   7   16.12    6.76
   9   4  -7    0.11    2.75
   9   4  -7    0.47    3.08
   9   4  -7    0.90    1.41
   9   4  -7    1.84    8.29
  -9  -4   7    2.96    2.48
  -9  -4   7    1.89    7.18
  -9  -4   7   -1.18    4.69
   9   3  -7    2.35    2.68
   9   3  -7    1.34    2.58
   9   3  -7    1.63    7.61
  -9  -3  -7    5.43    5.65
   9   3  -7    2.03    1.50
  -9  -3   7    0.38    1.30
   9   3   7    0.16    8.27
  -9  -3   7    1.81    2.30
  -9  -3   7    5.96    5.15
   9   3   7    5.98    4.19
  -9  -3   7   -7.77    7.49
   9   2  -7   -0.67    2.24
   9   2  -7   -1.36    7.12
   9   2  -7   -0.79    1.45
  -9  -2  -7   -0.20    5.36
   9   2  -7    0.30    2.45
   9   2   7    1.24    3.67
   9   2   7    0.17    8.51
  -9  -2   7   -0.93    1.32
  -9  -2   7    2.92    2.12
  -9  -2   7   -0.37    7.13
  -9  -2   7   -0.95    5.42
   9   1  -7    1.08    6.95
   9   1  -7    4.03    2.25
   9   1  -7    2.60    2.56
   9   1  -7    0.43    1.65
  -9  -1  -7    2.81    4.87
  -9  -1   7    2.92    7.73
  -9  -1   7    1.84    1.44
   9   1   7    4.40    9.30
  -9  -1   7   -1.98    6.41
   9   1   7    1.06    3.31
   9   0  -7    1.16    2.58
   9   0  -7   -0.29    7.74
  -9   0  -7   -0.53    5.14
   9   0  -7   -0.22    1.93
   9   0  -7   -0.99    2.19
  -9   0   7    0.13    1.44
   9   0   7   13.05    9.59
  -9   0   7   -6.28    7.65
   9   0   7   -0.32    3.01
   9  -1  -7    3.91    2.23
   9  -1  -7    0.43    2.55
  -9   1  -7    7.83    5.85
   9  -1  -7   -0.34    8.24
  -9   1   7    3.29    1.76
   9  -1   7    0.16    9.07
   9  -1   7    4.45    2.78
  -9   2  -7   -5.98    6.66
  -9   2  -7   -0.52    1.54
   9  -2  -7    1.76    2.15
   9  -2   7   -1.15    2.60
   9  -2   7   17.78    8.84
  -9   3  -7    9.97    7.68
  -9   3  -7    0.42    1.59
   9  -3   7    0.88    2.58
   9  -3   7   -0.45    8.46
  -9   4  -7    1.72    1.88
   9  -4   7    1.13    9.25
   9  -4   7    4.25    2.58
  -9   5  -7   19.32    4.78
   9  -5   7   12.65   11.57
   9  -5   7   20.15    5.13
  -9   6  -7   15.42    4.27
   9  -6   7   16.71    4.58
  10   8  -7    2.42    3.87
  10   7  -7    0.33   12.31
  10   7  -7   26.72    6.24
 -10  -7   7   18.22    6.68
  10   6  -7   -8.48   10.82
  10   6  -7    9.96    3.92
  10   6  -7    8.66    2.70
 -10  -6   7    6.25    6.28
 -10  -6   7    9.37    3.93
  10   5  -7    2.84   10.73
  10   5  -7    3.17    4.09
  10   5  -7    2.82    3.42
  10   5  -7    4.47    1.93
 -10  -5   7    1.33    8.15
 -10  -5   7    5.90    5.85
 -10  -5   7    3.94    3.31
  10   4  -7    9.66    4.75
  10   4  -7   13.11    3.39
  10   4  -7   -0.14   10.65
 -10  -4  -7   -4.48    7.68
  10   4  -7   16.51    4.90
 -10  -4   7   16.99    8.91
 -10  -4   7   12.01    4.36
 -10  -4   7   28.94    6.89
  10   3  -7   -0.65    1.49
  10   3  -7   -1.65    2.80
  10   3  -7    2.22    8.27
  10   3  -7    0.45    3.00
 -10  -3  -7   -3.79    6.37
 -10  -3   7   -0.78    1.41
  10   3   7  -24.46    9.77
 -10  -3   7    0.39    2.39
 -10  -3   7    1.42    7.78
 -10  -3   7   -3.59    5.66
  10   3   7   -2.10    4.73
  10   2  -7    6.52    2.85
  10   2  -7    0.13    8.26
  10   2  -7    4.98    1.87
 -10  -2  -7   11.70    6.02
  10   2  -7    4.55    3.05
  10   2   7    0.38   10.57
 -10  -2   7    4.36    6.36
 -10  -2   7    5.84    8.06
 -10  -2   7    4.62    1.90
 -10  -2   7    4.33    2.67
  10   2   7    4.05    4.37
  10   1  -7   13.09    4.49
  10   1  -7    1.87    9.49
  10   1  -7   19.99    5.66
 -10  -1  -7   35.07    7.64
  10   1  -7   25.70    4.99
  10   1   7   25.12    5.86
 -10  -1   7   14.33    4.53
  10   1   7    0.97   12.10
 -10  -1   7   14.70    8.93
 -10  -1   7   16.28   10.38
 -10   0  -7    0.61    6.05
  10   0  -7    1.97    2.83
  10   0  -7   -0.50    2.55
  10   0  -7   -1.91    9.00
  10   0  -7    0.42    2.03
 -10   0   7    4.84    8.40
  10   0   7  -15.33   11.39
 -10   0   7   -0.30    1.68
  10   0   7   -1.60    3.50
 -10   1  -7   23.07    4.88
 -10   1  -7   38.25    8.66
  10  -1  -7    1.09   10.75
  10  -1  -7   15.99    5.22
  10  -1  -7   13.54    5.25
  10  -1   7   22.14    5.58
 -10   1   7   17.80    4.98
  10  -1   7   28.83   12.61
  10  -2  -7    3.12    3.42
 -10   2  -7    5.98    2.12
 -10   2  -7    8.26    7.87
  10  -2  -7    5.62    2.74
  10  -2   7    4.76    3.18
 -10   2   7    3.96    2.27
  10  -2   7   14.45   10.68
 -10   3  -7    4.97    9.03
 -10   3  -7   -0.16    1.94
  10  -3   7   -8.35    9.95
  10  -3   7    3.09    2.80
 -10   4  -7    8.89    4.55
  10  -4   7   21.36   11.26
  10  -4   7   28.78    5.12
 -10   5  -7    3.09    2.17
  10  -5   7   -3.82    3.02
 -10   6  -7   13.67    2.98
  10  -6   7  -28.36   12.07
  10  -6   7    6.39    3.25
  10  -7   7   22.13    5.99
  11   8  -7    8.61    4.46
  11   7  -7    5.56    4.24
  11   6  -7    0.14    3.78
  11   6  -7    6.04    2.29
  11   6  -7    1.60    5.17
  11   6  -7    3.32   11.97
 -11  -6   7   -4.22    6.85
 -11  -6   7    2.84    4.06
  11   5  -7    2.69   12.69
  11   5  -7    8.72    6.07
  11   5  -7   18.17    6.44
  11   5  -7   17.78    4.65
 -11  -5   7   23.22    8.26
 -11  -5   7   19.46    5.98
 -11  -5   7   38.14   10.79
  11   4  -7   -0.62    1.62
  11   4  -7    3.93    4.03
  11   4  -7    1.24    3.23
  11   4  -7    3.63   10.73
 -11  -4  -7    0.30    7.39
 -11  -4   7   -3.21    6.17
 -11  -4   7    5.00    8.81
 -11  -4   7    4.29    3.02
  11   3  -7    5.21    3.51
 -11  -3  -7  -11.21    8.10
  11   3  -7    2.80    3.22
  11   3  -7   -3.74   10.09
  11   3  -7    3.61    1.80
 -11  -3   7    6.07    1.89
 -11  -3   7    7.76    2.96
 -11  -3   7   -2.39    8.99
 -11  -3   7   10.69    6.60
  11   3   7   -0.55    4.95
  11   2  -7    3.52   11.98
 -11  -2  -7   26.07    9.38
  11   2  -7   25.54    5.73
  11   2  -7   28.61    6.41
  11   2  -7   31.45    6.97
 -11  -2   7   30.98    9.77
 -11  -2   7   17.77   11.73
  11   2   7    7.90    7.78
 -11  -2   7   24.68    5.85
 -11  -2   7   23.95    6.55
  11   1  -7    0.51    1.65
  11   1  -7    1.13    2.86
  11   1  -7    2.02    2.91
 -11  -1  -7   -7.55    7.38
  11   1  -7    0.59    8.81
 -11  -1   7   -4.18    9.02
 -11  -1   7   -1.61    8.17
  11   1   7  -24.41   13.29
  11   1   7   -4.15    4.66
 -11  -1   7    0.89    1.85
  11   0  -7   41.77    9.39
  11   0  -7   29.54   11.33
  11   0  -7    1.04   15.86
 -11   0  -7   37.19   12.97
  11   0  -7   59.65    9.85
  11   0   7   53.89   10.33
 -11   0   7   48.94    9.58
  11   0   7    8.98   17.94
 -11   0   7   24.02   15.97
 -11   1  -7   -2.42    2.16
  11  -1  -7    1.36   10.34
 -11   1  -7  -28.13   10.19
  11  -1  -7    3.30    2.82
 -11   1   7   -0.37    1.94
  11  -2  -7   28.98    5.34
 -11   2  -7   12.26    5.04
 -11   2  -7  -16.41   13.09
 -11   2   7   14.10    5.01
  11  -2   7   14.37    6.12
 -11   3  -7    5.70    2.31
 -11   3  -7  -18.82   10.86
 -11   4  -7   -6.35   10.97
 -11   4  -7    1.94    2.28
  11  -4   7    0.20   10.98
  11  -4   7    1.25    3.12
 -11   5  -7   18.98    5.49
  11  -5   7   36.62   13.89
  11  -5   7   18.17    5.87
 -11   6  -7    1.63    2.89
  11  -6   7   26.85   12.83
  11  -6   7    7.93    3.62
  11  -7   7    6.00    3.43
  12   8  -7    1.62    4.01
  12   7  -7    7.15    4.42
  12   6  -7   -1.44    5.40
  12   6  -7    2.72   13.05
 -12  -6   7    9.46    9.96
 -12  -6   7    0.48    4.16
 -12  -6   7   -2.05    7.50
  12   5  -7    0.19   12.64
  12   5  -7    2.01    4.94
 -12  -5   7    2.62    3.68
 -12  -5   7   -2.74    7.13
  12   4  -7    1.39   11.22
  12   4  -7    3.42    4.37
 -12  -4   7   -0.14    1.91
 -12  -4   7    3.99    6.75
  12   4   7   -0.34    6.30
 -12  -3  -7   25.27   10.66
  12   3  -7    3.63   13.17
  12   3  -7   20.16    7.11
  12   3   7   32.69    8.44
 -12  -3   7   22.28    6.20
 -12  -3   7   33.57   10.21
 -12  -2  -7  -18.61    7.88
  12   2  -7   -1.27   10.09
  12   2  -7    1.55    3.34
 -12  -2   7    2.80    8.09
  12   2   7   -8.99   14.24
 -12  -2   7   -2.00    2.08
  12   2   7   -3.15    4.88
  12   1  -7   70.11   19.55
 -12  -1  -7  103.09   22.90
  12   1   7   99.51   28.95
 -12  -1   7   81.54   23.88
 -12  -1   7   63.94   19.31
  12   1   7   91.77   20.00
 -12   0  -7   12.61    8.66
  12   0  -7   -2.65   10.80
  12   0  -7    0.47    3.34
 -12   0   7    2.01    2.32
  12   0   7    2.91    4.78
 -12   0   7   -7.80   10.59
  12   0   7   48.73   15.33
 -12   1  -7   96.77   24.67
 -12   1  -7   76.89   19.96
 -12   1   7   75.77   20.10
  12  -1   7  106.72   28.98
  12  -1   7   84.99   20.34
 -12   2  -7    0.19    2.37
  12  -2  -7    2.78    3.23
 -12   2  -7    0.30   10.11
 -12   2   7   -1.52    2.41
  12  -2   7    1.50    4.00
  12  -2   7  -12.82   13.46
 -12   3  -7   32.26    7.70
 -12   3  -7   24.29   14.74
  12  -3  -7   45.11    8.14
  12  -3   7   23.11   15.52
  12  -3   7   22.08    8.25
 -12   4  -7    4.56    2.62
 -12   4  -7   -4.56   12.25
  12  -4   7   -1.41    3.65
  12  -5   7    7.79    3.86
  13   6  -7    0.63    6.06
  13   6  -7    0.21   14.24
 -13  -6   7    0.28    8.85
  13   5  -7   -2.49    5.67
  13   5  -7   -4.08   13.76
 -13  -5   7   -4.02    8.07
 -13  -4  -7    1.05    8.86
  13   4  -7   -6.82    4.80
  13   4  -7   -0.38   12.29
 -13  -4   7    2.25    2.18
  13   4   7    0.26   14.60
 -13  -4   7   -5.20    7.75
  13   4   7   -0.36    6.54
  13   3  -7    2.89   11.56
  13   3  -7    2.73    4.36
 -13  -3   7   -2.50    2.24
 -13  -3   7   -3.69    8.14
  13   2  -7   -0.89   11.81
  13   2  -7   13.62    4.91
 -13  -2   7    5.75    9.99
 -13  -2   7    8.64    3.56
  13   1  -7    2.36    3.72
  13   1  -7   -2.53   11.02
 -13  -1   7    1.11    2.30
 -13  -1   7    1.15   10.41
  13   0  -7   59.23    9.98
  13   0  -7    5.16   16.88
 -13   0   7   37.88   15.88
 -13   0   7   33.54    9.45
  13  -1  -7   -4.81    3.63
  13  -1  -7   -5.63   11.88
 -13   1   7   -0.44    2.58
 -13   4  -7   -1.93    2.87
  13  -4   7   10.20   13.68
 -13   5  -7   53.79   14.35
 -13   5  -7    3.37    3.15
  13  -5   7  -29.88   15.17
  13  -5   7    4.95    3.93
 -13   6  -7    1.95    3.00
  13  -6   7  -43.57   16.23
  13  -6   7   -0.19    3.93
  13  -7   7   15.79    5.78
  14   4  -7   16.47    6.06
 -14  -4  -7  -17.34    9.71
  14   4   7    0.58   17.23
 -14  -4   7    2.10    8.89
  14   4   7    6.69    7.07
 -14  -3  -7    3.17   10.04
  14   3  -7   -6.19    5.44
 -14  -3   7   -1.09    9.60
  14   3   7   -0.36    6.68
 -14  -2  -7   28.49   11.61
  14   2  -7   -0.23    6.84
  14   2   7   13.45    7.72
 -14  -2   7   11.99   12.29
 -14  -1  -7    3.54   10.14
  14   1   7    0.30    6.51
 -14   0  -7  -28.20   11.35
 -14   0  -7   -1.14    3.51
  14   0   7  -13.02    6.48
 -14   1  -7   -3.21   12.56
 -14   1  -7  -14.52    4.95
  14  -1   7    9.09    7.12
  14  -3  -7  -13.88    4.89
 -14   3  -7    5.64   13.58
 -14   3  -7   -1.51    3.13
  14  -3   7   -0.93    5.12
  14  -3   7  -37.18   16.65
 -14   4  -7    9.42    3.50
 -14   4  -7   -5.52   15.00
  14  -4   7    1.08    4.51
  14  -4   7  -21.93   16.13
 -14   5  -7   -0.44   15.61
 -14   5  -7    2.01    3.64
  14  -5   7  -21.06   16.13
  14  -5   7   -4.05    4.46
 -14   6  -7    1.22    3.30
  14  -6   7    0.64    4.45
  14  -6   7   17.28   16.26
  14  -7   7    5.64    4.49
 -15  -5  -7    0.43   10.64
  15   5  -7   -0.33    6.13
  15   5  -7    3.12   15.93
 -15  -5   7    8.86    9.73
 -15  -5   7   -1.00    2.51
  15   5   7   -7.93   18.98
  15   4  -7    2.09    5.92
 -15  -4  -7    7.46   11.38
  15   4  -7   21.68   15.52
 -15  -4   7    0.29    9.44
 -15  -4   7   -1.86    2.77
  15   4   7  -21.78   19.47
  15   4   7    0.42    7.43
  15   3  -7   -0.27    5.56
  15   3  -7    0.44   13.70
 -15  -3  -7   -3.91   11.16
 -15  -3   7   -0.61   10.47
 -15  -3   7    0.21    2.60
  15   3   7   -6.64    6.88
  15   2  -7   -4.11   13.14
 -15  -2  -7    5.81   10.63
  15   2  -7    4.28    5.24
 -15  -2   7   -0.66    2.78
 -15  -2   7   -1.30   11.12
  15   2   7   -7.44    6.81
  15   1  -7    0.23    4.82
  15   1  -7   -0.45   13.29
 -15  -1  -7   -1.45   10.88
 -15  -1   7   -1.41   12.80
  15   1   7    0.32   19.93
 -15  -1   7    0.47    2.80
  15   1   7  -16.06    6.94
  15   0  -7   26.22   14.45
 -15   0  -7    8.30   12.08
 -15   0  -7   -3.34    3.58
  15   0  -7   -1.40    4.77
  15   0   7   12.27    6.71
  15   0   7    0.63   19.70
 -15   0   7   -3.94    2.99
 -15   0   7   -2.69   14.06
  15  -1  -7    0.68    4.57
 -15   1  -7    2.93    3.84
  15  -1  -7  -18.00   14.33
 -15   1  -7   -4.44   13.39
  15  -1   7  -17.92   18.98
 -15   1   7    2.51   15.74
  15  -1   7   -9.41    6.79
 -15   1   7    1.59    3.10
 -15   2  -7   -3.54    3.65
  15  -2  -7   -0.45    4.41
  15  -2  -7    9.43   13.93
 -15   2  -7    0.42   13.58
 -15   2   7    0.28    3.15
  15  -2   7   -4.74    5.55
  15  -2   7    0.29   17.50
 -15   3  -7   -0.86    3.50
 -15   3  -7  -16.94   15.23
  15  -3  -7   -4.91    4.66
  15  -3   7    5.68   16.82
  15  -3   7   -1.26    5.30
 -15   4  -7    8.39    4.10
 -15   4  -7   19.52   16.28
  15  -4   7    2.95    5.30
  15  -4   7   -4.55   17.01
 -15   5  -7   20.71   17.34
 -15   5  -7   -1.59    3.44
  15  -5   7    1.67    4.94
  15  -5   7   -6.43   17.48
 -15   6  -7    9.06    5.13
 -15   6  -7    2.98   18.25
  15  -6   7   17.36    5.90
  15  -6   7   33.04   18.02
 -15   7  -7    1.06    3.62
  15  -7   7   11.18    4.93
 -16  -5  -7  -21.44   13.05
 -16  -5   7    3.04   10.76
 -16  -5   7    0.23    2.87
  16   5   7  -23.68   23.32
 -16  -4  -7   79.87   16.75
 -16  -4   7   39.72    9.57
  16   4   7   55.90   25.27
  16   4   7   -0.46   12.25
 -16  -3  -7   -7.45   12.90
  16   3  -7   -5.15    6.62
 -16  -3   7  -23.13   12.77
 -16  -3   7   -5.17    3.39
  16   3   7  -18.05    8.18
  16   3   7  -27.38   22.65
  16   2  -7   14.16    6.48
  16   2  -7   -7.90   14.84
 -16  -2  -7   27.00   12.59
  16   2   7    4.71    8.28
 -16  -2   7   11.97   13.10
 -16  -2   7   13.80    4.16
  16   1  -7   -0.81    5.69
 -16  -1  -7   -1.39    3.61
  16   1  -7   17.14   14.70
 -16  -1  -7   13.89   12.93
  16   1   7    0.37    7.48
 -16  -1   7    1.55   14.08
 -16  -1   7    3.63    3.42
 -16   0  -7   -1.70   13.50
  16   0  -7    4.83    5.39
  16   0  -7    2.71   15.48
 -16   0  -7   -1.17    4.04
 -16   0   7   -5.44    3.19
  16   0   7   -9.31    7.04
  16   0   7    6.47   20.95
 -16   0   7   10.09   15.24
  16  -1  -7   -1.78    5.07
 -16   1  -7    9.46   14.47
  16  -1  -7   16.14   15.33
 -16   1  -7    4.46    3.59
  16  -1   7  -34.08   20.68
  16  -1   7   -0.32    6.74
 -16   1   7    2.04    3.43
 -16   1   7   10.48   16.22
  16  -2  -7   -0.50    5.27
  16  -2  -7   22.35   15.40
 -16   2  -7    3.07    4.23
 -16   2  -7   -5.64   15.40
 -16   2   7    6.13    3.73
  16  -2   7  -21.53   18.98
  16  -2   7   -0.31    6.16
 -16   2   7    0.98   17.87
 -16   3  -7   -0.96    4.03
  16  -3  -7    1.28    5.49
 -16   3  -7   -3.93   17.44
  16  -3   7   -6.74    6.12
  16  -3   7  -22.72   18.20
 -16   4  -7    5.03    5.76
 -16   4  -7    3.05   19.02
  16  -4   7    2.13    6.72
 -16   5  -7  -25.75   18.43
 -16   5  -7   -1.41    4.05
  16  -5   7   -5.17    5.49
  16  -5   7    0.35   19.79
 -16   6  -7   47.42   19.11
 -16   6  -7   -3.33    4.34
  16  -6   7  -31.08   18.61
  16  -6   7    1.53    5.12
 -16   7  -7   59.15   24.04
 -17  -5  -7   -4.20   13.53
  17   5   7   -4.70   24.42
 -17  -4  -7   -7.15   14.10
  17   4  -7   -0.37    6.92
  17   4  -7   18.60   17.49
 -17  -4   7    0.26    3.32
  17   4   7  -11.94   24.91
 -17  -4   7    9.27   12.00
  17   4   7   -5.08    9.22
  17   3  -7  -10.59   16.82
 -17  -3  -7   -4.91   13.85
  17   3  -7   17.29    7.72
 -17  -3   7   -4.08   12.46
 -17  -3   7    9.50    3.78
  17   3   7    0.40   25.20
  17   3   7   13.29    9.09
 -17  -2  -7  -24.56   13.71
  17   2  -7  -34.65   15.86
  17   2  -7    0.97    6.60
 -17  -2   7   -8.39   13.60
 -17  -2   7   -0.27    3.42
  17   2   7    0.45    8.51
  17   1  -7    8.48   16.53
 -17  -1  -7    8.27   13.87
  17   1  -7    7.99    6.13
  17   1   7    7.83    8.19
 -17  -1   7   -7.67   14.87
 -17  -1   7    1.73    3.55
 -17   0  -7   -0.33    4.30
 -17   0  -7    5.70   14.87
  17   0  -7   -1.50   16.84
  17   0  -7    6.12    6.14
  17   0   7  -27.09   23.86
  17   0   7    0.39    8.07
 -17   0   7    9.68   16.42
 -17   0   7    0.91    3.60
 -17   1  -7  -30.46   16.01
  17  -1  -7    1.39    5.91
  17  -1  -7   -1.85   16.16
 -17   1  -7    4.67    4.40
  17  -1   7    0.36   21.66
  17  -1   7    1.88    7.37
 -17   1   7   -7.35    4.07
 -17   1   7    8.94   18.25
 -17   2  -7   -0.34    4.30
  17  -2  -7  -18.22    8.86
 -17   2  -7   -9.37   17.28
  17  -2   7    5.28   20.82
  17  -2   7   -8.77    6.70
 -17   2   7   -3.01    4.68
 -17   2   7   -9.56   19.68
  17  -3  -7    6.53    6.34
 -17   3  -7    2.17    4.65
 -17   3  -7    4.86   18.76
 -17   3   7   -1.70   20.84
  17  -3   7    1.75   20.44
  17  -3   7    0.32    6.60
 -17   4  -7   33.48   19.68
 -17   4  -7    1.49    4.43
  17  -4   7   -4.58   21.16
  17  -4   7    0.91    5.98
 -17   5  -7   18.86   20.13
 -17   5  -7   -1.95    4.80
  17  -5   7   19.94   21.32
  17  -5   7    0.59    6.07
 -17   6  -7   14.65   21.15
 -17   6  -7    6.52    4.63
  17  -6   7   15.86   21.25
  17  -6   7    0.29    5.82
 -17   7  -7  -31.82   22.92
 -18  -4   7  -15.22   13.37
 -18  -4   7    0.85    4.01
  18   3  -7    9.96   18.44
 -18  -3  -7   12.15   16.22
  18   3  -7   12.82    7.93
  18   3   7    0.52    9.75
  18   3   7   24.88   27.30
 -18  -3   7   11.44   14.06
 -18  -3   7   -4.41    3.69
 -18  -2  -7    0.53   15.75
  18   2  -7    4.20   18.31
  18   2  -7    8.50    7.23
 -18  -2   7   -0.93    3.93
  18   2   7  -13.41    9.92
 -18  -2   7   17.13   15.46
  18   1  -7   -1.91   18.95
  18   1  -7    2.43    7.13
 -18  -1  -7    1.03   16.02
  18   1   7    0.94    9.22
 -18  -1   7   -2.88    3.81
 -18  -1   7   -3.75   16.12
  18   0  -7    4.40    7.03
 -18   0  -7   47.80   17.23
 -18   0  -7    0.36    4.95
  18   0  -7   -2.96   18.07
 -18   0   7    3.36    4.19
 -18   0   7  -13.11   19.00
  18   0   7    3.49    8.73
 -18   1  -7   -5.58    4.94
  18  -1  -7   -8.08   18.05
  18  -1  -7    1.58    6.68
 -18   1  -7  -17.74   18.12
  18  -1   7   29.04   24.28
 -18   1   7  -15.10   19.74
 -18   1   7   -8.08    4.11
  18  -1   7   11.51    8.28
 -18   2  -7   -0.39    5.09
  18  -2  -7    5.34    6.30
 -18   2  -7   -2.32   19.04
  18  -2   7  -13.29   22.97
 -18   2   7   -4.61   20.91
  18  -2   7   -9.76    8.17
 -18   2   7    4.38    4.34
  18  -3  -7  -17.17    6.67
 -18   3  -7   -1.21    5.17
 -18   3  -7   29.17   19.90
 -18   3   7   -0.61   21.78
  18  -3   7   -7.40    7.33
  18  -3   7    3.23   23.33
 -18   4  -7  -34.84   22.29
 -18   4  -7  -10.40    5.83
  18  -4   7  -17.86    7.87
 -18   5  -7  -67.29   23.72
 -18   5  -7   -7.85    5.58
 -18   6  -7    0.90    5.24
 -18   6  -7    6.38   22.31
  18  -6   7  -16.59   23.01
  18  -6   7  -17.36    6.37
 -18   7  -7  -10.44   22.98
  18  -7   7    1.59    6.30
 -19  -5  -7   17.53   17.78
  19   5   7   -6.13   29.43
 -19  -4  -7    8.41   19.12
  19   4   7   14.64   29.61
  19   4   7    1.25   11.35
 -19  -3  -7    5.61   18.59
 -19  -3  -7   -9.06    5.16
  19   3  -7  -12.01    8.41
  19   3   7  -14.12   28.81
 -19  -3   7   -5.93    4.25
  19   3   7    1.16   10.83
 -19  -3   7   -7.64   15.51
  19   2  -7   30.53   20.63
  19   2  -7  -15.26    8.58
 -19  -2  -7   -0.38    5.00
 -19  -2  -7    4.22   18.56
 -19  -2   7    4.80   17.05
 -19  -2   7    1.03    4.40
  19   2   7   32.36   30.30
  19   2   7    0.55   10.56
 -19  -1  -7  -23.14   19.24
  19   1  -7    0.40    7.94
  19   1  -7   -1.77   20.63
 -19  -1   7    4.15   17.77
 -19  -1   7   -0.35    4.33
  19   1   7  -23.47   10.76
 -19   0  -7   11.95   19.38
 -19   0  -7   -0.41    5.36
  19   0  -7   -2.57    7.62
  19   0  -7  -14.48   20.15
 -19   0   7  -14.46    4.52
  19   0   7    2.97   10.36
 -19   0   7   -2.75   19.22
 -19   1  -7    0.42    5.41
  19  -1  -7   -5.90   19.43
  19  -1  -7    4.69    7.34
 -19   1  -7   -9.22   20.85
 -19   1   7   -4.71   20.92
 -19   1   7    6.18    4.43
  19  -1   7    0.90    9.11
  19  -1   7   41.81   26.82
 -19   2  -7    7.81    5.98
  19  -2  -7   15.74    7.66
 -19   2  -7   36.53   21.98
 -19   2   7   13.74   23.55
  19  -2   7    0.43    8.84
 -19   2   7    9.21    4.55
  19  -2   7   19.95   25.56
 -19   3  -7   11.12   22.57
 -19   3  -7    0.45    5.53
  19  -3  -7    2.07    6.58
  19  -3   7    0.81    8.58
  19  -3   7    5.02   26.05
 -19   4  -7   10.79    5.88
 -19   4  -7   12.02   23.04
  19  -4   7    0.38    7.82
  19  -4   7    8.06   27.34
 -19   5  -7   15.69   24.60
 -19   5  -7    2.43    5.74
  19  -5   7    3.98    6.99
  19  -5   7   -9.53   26.01
 -19   6  -7  -22.91   25.35
  19  -6   7   -9.85    7.31
 -20  -3   7   -1.48    4.59
  20   2  -7   -9.51    9.63
  20   2  -7   42.01   23.44
 -20  -2   7   11.03   17.64
 -20  -2   7    5.73    5.00
  20   1  -7  -21.58   23.38
  20   1  -7   10.12    8.79
 -20  -1   7    3.41   19.28
 -20  -1   7    1.19    4.81
  20   0  -7   20.18    9.25
  20   0  -7    1.98   21.35
 -20   0   7   24.07   21.46
 -20   0   7    5.77    5.46
  20  -1  -7   27.03   21.76
  20  -1  -7    6.26    8.64
 -20   1   7   11.54   23.06
 -20   1   7   -0.43    5.02
  20  -2  -7   -6.59    7.90
 -20   2   7   24.39   23.92
 -20   2   7    0.44    4.91
   0   0  -8   56.69   16.43
   0   0  -8   77.13   17.03
   0   0   8   60.98   19.79
   1   0  -8    0.25    1.35
   1   0  -8   -0.15    1.17
  -1   0  -8   -1.00    1.27
   0   1  -8    0.53    1.03
   0   1  -8   -0.75    1.01
   0  -1   8   -0.37    2.90
  -1   0   8   -0.10    3.33
  -1   1  -8   21.00    4.02
   1   1  -8   17.30    4.01
  -1   1  -8   16.58    4.23
   1   1  -8   17.41    4.21
  -1  -1   8    9.64    5.72
   1  -1   8   11.81    5.53
   1  -1   8   11.91    5.05
   2   1  -8   -0.40    1.15
  -1   2  -8   -0.34    1.09
  -1   2  -8    0.43    1.11
  -1   2  -8   -0.46    0.70
   1  -2   8    0.33    0.76
   1  -2   8   -0.51    2.19
  -2  -1   8    0.17    3.66
   1  -2   8    0.73    2.50
  -2   0  -8    0.21    1.33
   0   2  -8    0.64    1.07
   2   0  -8   -0.57    1.36
   0   2  -8    0.53    0.79
   0  -2   8    0.06    2.54
   2   0   8    0.74    2.03
  -2   0   8   -0.43    3.88
  -2   1  -8    0.18    0.94
  -2   1  -8    0.19    1.64
   1   2  -8    0.94    0.81
  -2   1  -8    0.96    1.10
   1   2  -8    1.04    1.16
   2  -1   8   -0.51    2.67
  -1  -2   8    1.31    2.80
   2  -1   8   -0.38    1.11
   2  -1   8    0.74    3.08
  -2   2  -8   -0.18    1.57
  -2   2  -8    0.50    1.12
   2   2  -8    0.19    1.29
  -2   2  -8    1.15    0.70
   2  -2   8    1.28    0.89
   2  -2   8    0.58    2.64
   2  -2   8    0.37    2.93
  -2  -2   8   -0.14    3.25
   3   2  -8    0.51    0.68
  -2   3  -8    0.74    0.68
   3   2  -8    1.25    2.70
  -2   3  -8    1.05    1.22
  -2   3  -8    0.88    0.55
   2  -3   8    0.87    0.92
   2  -3   8    0.42    0.82
  -3  -2   8    2.21    1.78
   2  -3   8    1.14    3.48
  -3  -2   8    0.80    0.46
  -1   3  -8   42.45   10.64
  -1   3  -8   42.45    9.72
   3   1  -8   41.04   10.20
  -1   3  -8   46.14   10.02
   1  -3   8   39.75   10.44
   0   3  -8    1.40    0.73
   3   0  -8   -0.09    1.56
  -3   0  -8    0.29    1.48
  -3   0  -8   -0.87    2.19
   0   3  -8   -0.33    1.16
   3   0   8   -0.39    1.58
  -3   0   8   -1.13    4.60
   0  -3   8    0.80    0.94
   3   0   8    0.30    3.05
  -3   1  -8   41.60   10.45
  -3   1  -8   35.97   10.89
  -3   1  -8   50.86   11.94
   3  -1   8   33.82   12.97
   3  -1   8   45.40   12.65
   3  -1   8   44.79   10.52
  -3   2  -8    1.23    2.12
  -3   2  -8    0.50    0.65
  -3   2  -8    0.84    1.18
   3  -2   8    0.28    3.97
   3  -2   8    3.65    2.79
   3  -2   8    0.73    1.08
   3   3  -8  206.81   49.14
  -3   3  -8  228.83   53.77
   3   3  -8  151.52   61.99
   3   3  -8  142.52   52.84
  -3   3  -8  234.04   50.37
  -3   3  -8  222.51   48.35
   3   3  -8  242.80   52.45
  -3  -3   8  247.10   61.39
   3  -3   8  155.63   64.08
   3  -3   8  205.87   51.78
  -3  -3   8  254.51   51.79
   3  -3   8  217.29   53.72
   4   3  -8   50.40   11.02
   4   3  -8   51.39   11.88
   4   3  -8   51.80   11.93
   4   3  -8   24.65   14.24
  -3   4  -8   49.74   12.29
  -3   4  -8   48.08   10.92
  -3   4  -8   45.29   11.35
  -4  -3   8   38.72   14.50
   3  -4   8   49.32   11.80
  -4  -3   8   49.50   13.19
  -4  -3   8   49.87   11.72
   3  -4   8   53.50   12.20
   4   2  -8   25.71   14.34
   4   2  -8   36.12    9.86
   4   2  -8   37.73   10.07
   4   2  -8   52.99   10.68
  -2   4  -8   41.60    9.98
  -2   4  -8   43.25   10.76
  -4  -2   8   38.62   13.11
  -4  -2   8   44.59    9.87
  -4  -2   8   46.46   11.56
   2  -4   8   40.10   10.41
   4   1  -8    1.08    0.89
  -1   4  -8    0.73    1.40
   4   1  -8    0.29    1.56
  -4  -1   8    1.01    0.60
  -4   0  -8  220.30   62.61
  -4   0  -8  278.85   70.29
   4   0   8  267.95   62.11
   4   0   8  239.03   71.04
   1   4  -8    0.86    0.87
  -4   1  -8    1.29    2.48
  -4   1  -8    0.93    0.86
  -1  -4   8    0.71    1.29
   4  -1   8    0.67    1.55
   4  -1   8    0.22    4.63
   4  -1   8    2.71    3.31
  -4   2  -8   39.95    9.91
  -4   2  -8   45.69   10.74
   2   4  -8   39.85    9.56
   2   4  -8   42.50   10.28
  -4   2  -8   33.89   11.46
   4  -2   8   46.16   10.49
   4  -2   8   36.10    9.89
  -2  -4   8   49.79   10.17
   4  -2   8   34.64   13.05
   4  -2   8   30.31   12.30
  -4   3  -8   50.20   11.64
  -4   3  -8   53.50   10.20
   3   4  -8   30.46   14.29
   3   4  -8   37.91   10.37
   3   4  -8   46.67   11.25
  -4   3  -8   44.40   10.76
   4  -3   8   47.69   11.02
   4  -3   8   30.70   14.45
   4  -3   8   43.50   11.61
  -4   4  -8   46.82   11.34
   4   4  -8   42.37    9.99
   4   4  -8   39.25   13.24
   4  -4   8   33.94   10.73
  -4  -4   8   48.23   10.67
   5   4  -8    2.95    1.96
   5   4  -8    3.47    1.44
   5   4  -8   -0.06    4.39
   5   4  -8    4.41    2.20
  -4   5  -8    4.85    1.89
  -5  -4   8    3.28    2.65
  -5  -4   8    5.03    2.02
   5   3  -8   97.87   21.43
   5   3  -8   81.47   25.96
  -3   5  -8   82.93   22.19
   5   3  -8   68.26   21.93
   5   3  -8   80.73   20.14
  -5  -3   8   94.37   21.49
  -5  -3   8   84.51   24.07
  -5  -3   8   92.77   26.12
   5   2  -8    6.79    2.34
   5   2  -8    7.37    2.28
   5   2  -8    8.62    2.79
   5   2  -8   10.95    4.90
  -5  -2   8    9.69    2.11
  -5  -2   8    5.66    3.62
  -5  -2   8   10.69    5.41
   5   1  -8   89.75   31.65
  -5  -1  -8   85.37   27.76
   5   1  -8   96.37   23.44
   5   1  -8   82.18   21.92
   5   1  -8  110.64   21.59
  -5  -1   8   70.62   28.17
  -5  -1   8   92.17   21.48
   5   1   8   98.67   26.76
   5   1   8   91.73   23.70
   1  -5   8   81.54   23.05
   0   5  -8    0.74    1.61
   5   0  -8    5.59    1.91
   5   0  -8    1.30    1.96
  -5   0  -8   -0.57    1.40
   5   0  -8    0.23    1.13
   0   5  -8   -0.26    0.96
   0  -5   8   -0.68    1.44
   5   0   8   -0.91    5.02
  -5   0   8    8.71    5.43
  -5   1  -8   80.80   22.96
   1   5  -8  100.33   22.26
   1   5  -8  105.98   23.40
   5  -1  -8   94.27   22.69
  -1  -5   8   93.63   23.45
   2   5  -8    8.20    2.27
  -5   2  -8    6.66    2.51
  -5   2  -8    7.15    2.14
   2   5  -8   12.90    2.80
   5  -2   8   10.75    3.92
   5  -2   8    9.26    2.35
  -2  -5   8    8.57    2.63
  -5   3  -8   89.44   22.84
   3   5  -8   86.23   21.79
   5  -3   8   83.78   22.80
   5  -3   8   88.00   25.32
   4   5  -8    4.41    1.57
  -5   4  -8    6.65    1.89
  -5   4  -8    3.75    1.51
   4   5  -8    8.10    3.91
   4   5  -8    5.59    2.31
  -4  -5   8    3.67    2.18
   5  -4   8   -3.71    6.36
   5   5  -8   46.77   12.68
   5   5  -8   86.73   17.58
  -5   5  -8   49.16   14.28
  -5   5  -8   48.48   12.76
  -5  -5   8   46.20   13.71
   5  -5   8   53.55   13.48
   6   5  -8   18.26    3.82
   6   5  -8   14.52    4.56
  -6  -5   8   12.78    4.47
   5  -6   8   12.14    4.05
   6   4  -8   29.61    7.71
   6   4  -8   23.87    6.76
   6   4  -8   33.40    7.65
  -6  -4   8   27.94    9.01
  -6  -4   8   20.27   10.80
  -6  -4   8   30.40    7.47
   6   3  -8  117.58   28.02
   6   3  -8  109.51   26.82
   6   3  -8  126.67   32.74
   6   3  -8  111.11   25.44
  -6  -3   8  104.30   30.19
  -6  -3   8  111.33   27.26
  -6  -3   8   87.38   33.29
  -6  -3   8   92.67   25.32
   6   2  -8   42.19    9.79
   6   2  -8   42.99   10.66
   6   2  -8   66.76   13.36
   6   2  -8   43.99    9.98
  -6  -2  -8   16.08   12.93
  -6  -2   8   34.34   13.35
   6   2   8   47.00   12.75
  -6  -2   8   30.31   11.48
  -6  -2   8   48.45    9.78
   6   1  -8   13.69    3.17
   6   1  -8   11.48    3.29
   6   1  -8    8.28    3.62
  -6  -1  -8   15.53    4.92
   6   1   8   15.96    6.49
   6   1   8   15.25    4.12
  -6  -1   8    8.72    6.93
  -6   0  -8    6.19    3.40
   0   6  -8    5.09    1.98
   6   0  -8    5.41    2.31
   6   0  -8    4.61    2.37
  -6   0  -8    1.97    1.51
   0  -6   8    4.43    2.06
   6   0   8    5.20    2.44
  -6   0   8   -0.14    6.47
   6   0   8   -0.44    6.32
  -6   1  -8    8.66    2.62
   1   6  -8    9.29    2.78
   1   6  -8   12.82    3.23
  -6   1  -8   15.03    4.53
   6  -1  -8   15.49    3.67
   6  -1   8    7.05    7.12
   6  -1   8   12.79    3.20
  -1  -6   8    9.67    3.27
  -6   2  -8   38.86   11.33
  -6   2  -8   40.88   10.14
  -6   2  -8   46.96    9.03
   2   6  -8   39.18    9.28
  -6   2  -8   34.57    9.34
   2   6  -8   30.04    9.77
   6  -2   8   38.31   11.54
   6  -2   8   30.47   10.05
   6  -2   8   53.76   13.16
  -2  -6   8   47.21    9.99
   6  -2   8   31.58    9.47
  -6   3  -8   87.32   31.61
   3   6  -8  114.99   26.52
  -6   3  -8   97.90   24.56
  -6   3  -8  110.54   28.21
   6  -3   8  106.77   32.90
   6  -3   8  112.59   26.15
   6  -3   8   97.16   30.54
   4   6  -8   26.56    7.82
  -6   4  -8   27.77    8.27
   4   6  -8   35.10    7.29
  -6   4  -8   32.90    7.16
  -4  -6   8   28.33    7.99
   6  -4   8   29.60    7.72
   5   6  -8   18.20    4.27
  -6   5  -8   16.24    4.78
   5   6  -8   13.89    4.86
  -6   5  -8   15.26    4.22
   5   6  -8   32.96    7.27
   6  -5   8   16.28    4.53
   6  -5   8   13.41    8.99
  -5  -6   8   11.99    4.88
   6   6  -8    2.51    2.51
   6   6  -8    1.08    1.47
  -6  -6   8    0.31    2.49
   6  -6   8    0.78    1.80
   7   6  -8   -3.75    6.66
   7   6  -8    0.82    1.54
   7   6  -8    0.34    2.63
  -7  -6   8    0.82    2.57
   7   5  -8    2.02    2.60
   7   5  -8   -0.14    2.64
   7   5  -8    1.84    1.43
   7   5  -8   -1.47    6.45
  -7  -5   8    0.14    2.28
  -7  -5   8    6.17    3.45
   7   4  -8   45.35   17.05
   7   4  -8   50.35   12.56
   7   4  -8   51.18   14.07
  -7  -4   8   60.41   13.67
  -7  -4   8   60.30   17.59
   7   3  -8   26.27    9.66
   7   3  -8   18.24    6.98
   7   3  -8   25.70    6.01
  -7  -3   8   22.71    9.96
  -7  -3   8   26.37    6.67
  -7  -3   8   25.11    5.90
   7   2  -8   43.95   10.32
   7   2  -8    1.29   14.55
  -7  -2  -8   51.63   12.90
   7   2  -8   35.58    8.83
   7   2   8   41.94   13.31
  -7  -2   8   21.87   14.85
   7   2   8   34.37   10.60
  -7  -1  -8   36.55   11.12
   7   1  -8   31.72    8.92
   7   1   8   60.75   13.29
   7   1   8   24.22    9.68
   7   0  -8   -3.10    1.89
   7   0  -8   -4.48    3.01
  -7   0  -8    0.27    4.07
   7   0  -8   -3.85    2.88
  -7   0  -8   -1.98    1.04
  -7   0   8   -4.21    1.72
  -7   0   8  -23.57    9.44
   7   0   8   -1.59    2.93
   7  -1  -8   32.06    8.60
  -7   1  -8   34.15   10.34
   7  -1   8   28.76    8.24
  -7   2  -8   52.94   15.22
  -7   2  -8   66.91   12.77
   7  -2   8   52.41   13.18
  -7   3  -8   23.81    6.23
  -7   3  -8   25.98    9.59
   3   7  -8   24.50    6.95
   7  -3   8   31.52    6.75
   7  -3   8   23.12   10.56
  -7   4  -8   61.26   11.80
   4   7  -8   37.98   12.14
   4   7  -8   47.78   12.83
   7  -4   8   45.52   17.23
  -7   5  -8    4.31    1.65
   5   7  -8    2.00    2.70
   5   7  -8    3.01    1.66
   7  -5   8   -0.10    2.09
  -5  -7   8    0.69    2.79
   7  -5   8   -2.03    8.51
   6   7  -8    0.58    1.66
   6   7  -8    1.09    2.85
   7  -6   8   -0.20    1.96
  -6  -7   8   -0.18    2.95
   7   7  -8   14.77    8.73
   7   7  -8   18.41    5.19
   7   7  -8   16.89    4.40
  -7  -7   8   14.60    5.50
   8   7  -8    0.51    1.93
   8   7  -8    4.33    3.22
  -8  -7   8    0.42    3.40
   8   6  -8   12.40    8.28
   8   6  -8   11.25    3.87
   8   6  -8    7.45    2.74
  -8  -6   8    7.01    3.80
   8   5  -8    1.08    7.38
   8   5  -8   -2.16    3.22
   8   5  -8   -0.18    1.38
   8   5  -8   -0.22    2.79
  -8  -5   8    0.88    4.27
  -8  -5   8   -0.75    2.50
   8   4  -8   -3.62    6.93
   8   4  -8   -0.58    1.34
   8   4  -8    0.11    2.58
   8   4  -8    1.48    2.73
  -8  -4   8   -0.38    2.38
  -8  -4   8   -0.12    3.99
  -8  -4   8    6.95    6.70
   8   3  -8    6.75   16.39
  -8  -3  -8   40.73   16.29
   8   3  -8   58.86   11.48
   8   3  -8   56.82   13.34
  -8  -3   8   57.14   12.75
   8   3   8   46.84   16.15
  -8  -3   8   71.04   17.30
  -8  -3   8   39.23   11.47
  -8  -3   8   46.68   14.36
   8   2  -8    4.92    6.38
   8   2  -8   -0.30    2.50
  -8  -2  -8   -3.26    4.94
   8   2  -8    1.29    1.64
   8   2  -8    0.28    2.06
   8   2   8    2.34    3.64
  -8  -2   8   -3.37    6.87
  -8  -2   8    0.92    1.15
  -8  -2   8    1.89    4.90
   8   2   8    2.57    7.23
  -8  -1  -8   27.80    6.37
   8   1  -8   12.41    4.02
   8   1  -8   10.65    4.95
   8   1  -8    2.53    8.39
   8   1  -8   16.94    4.10
  -8  -1   8   15.48    3.89
   8   1   8   11.00    4.79
  -8  -1   8   20.36    8.90
   8   1   8    8.57    9.20
   8   0  -8   10.14    3.59
   8   0  -8    9.57    8.53
  -8   0  -8   14.96    5.46
   8   0  -8   12.56    3.35
   8   0  -8    8.65    4.06
  -8   0   8    9.05    8.17
   8   0   8   12.48    9.30
   8   0   8   16.17    4.04
  -8   0   8   10.05    3.09
   8  -1  -8   20.22    5.77
   8  -1  -8   26.82    5.27
  -8   1  -8   19.69    7.34
   8  -1   8   20.13    5.48
   8  -1   8   29.69   10.43
  -8   1   8   15.35    5.08
  -8   2  -8    0.68    1.29
  -8   2  -8    4.51    5.51
   8  -2   8    7.50    8.27
   8  -2   8   -0.12    2.34
  -8   3  -8   80.89   18.41
  -8   3  -8   67.03   14.22
   8  -3   8   60.81   19.21
   8  -3   8   48.99   14.82
  -8   4  -8    0.68    1.63
   8  -4   8    0.34    2.21
   8  -4   8    2.53    7.65
  -8   5  -8    2.69    1.82
   8  -5   8   -7.35    9.29
   8  -5   8   -1.82    2.38
  -8   6  -8   10.30    2.86
   8  -6   8    7.65    3.19
   7   8  -8    0.71    3.20
   8  -7   8   -0.91    2.24
   8   8  -8   36.21   10.06
   9   8  -8   -5.70    3.88
   9   7  -8   35.29    7.10
   9   7  -8   24.75    7.96
  -9  -7   8   20.21    8.51
   9   6  -8    9.79    3.79
   9   6  -8   -1.70    9.53
   9   6  -8    6.11    2.51
  -9  -6   8    7.90    3.69
   9   5  -8    1.61    8.67
   9   5  -8   -0.47    1.52
   9   5  -8   -1.69    3.14
   9   5  -8    0.92    3.67
  -9  -5   8    1.97    4.85
  -9  -5   8    2.52    8.05
  -9  -5   8    0.16    2.76
   9   4  -8    3.74    1.84
   9   4  -8    7.63    3.46
   9   4  -8    2.92    3.22
   9   4  -8    3.34    7.86
  -9  -4   8    7.77    4.93
  -9  -4   8    4.27    2.78
  -9  -4   8    9.31    7.76
   9   3  -8    1.83    2.72
  -9  -3  -8    9.18    6.16
   9   3  -8    2.20    2.91
   9   3  -8    4.23    1.74
   9   3  -8    0.56    7.46
  -9  -3   8    5.24    5.30
   9   3   8    4.38    4.43
  -9  -3   8    3.99    1.52
  -9  -3   8    2.20    7.69
   9   3   8    0.32    8.18
  -9  -3   8    3.29    2.56
   9   2  -8    0.11    2.58
   9   2  -8    0.75    2.19
   9   2  -8    4.02    7.00
   9   2  -8    0.18    1.58
  -9  -2  -8    1.50    5.41
  -9  -2   8   -2.19    7.65
  -9  -2   8   -4.55    5.82
  -9  -2   8    1.38    1.33
   9   2   8    0.50    8.61
   9   2   8   -1.99    3.93
   9   1  -8   -4.33    7.13
   9   1  -8    1.48    2.57
   9   1  -8    2.41    1.77
   9   1  -8    1.57    2.16
  -9  -1  -8    1.83    5.03
  -9  -1   8   -1.84    8.07
  -9  -1   8   -4.16    6.72
  -9  -1   8    0.86    1.42
   9   1   8   -7.72    9.36
   9   1   8    3.22    3.47
   9   0  -8    2.79    8.77
   9   0  -8   -0.50    2.69
   9   0  -8    0.98    2.11
  -9   0  -8    0.53    4.94
   9   0  -8    0.12    2.17
  -9   0   8   -5.24    8.06
  -9   0   8    0.28    1.49
   9   0   8    6.30    9.99
   9   0   8   -1.44    3.04
  -9   1  -8   -2.21    5.62
   9  -1  -8   -0.45    2.13
   9  -1  -8    0.48    2.68
  -9   1   8    1.84    1.43
   9  -1   8   -0.14    2.86
   9  -1   8    1.67    9.96
  -9   2  -8   -0.13    1.48
   9  -2  -8    1.33    2.24
  -9   2  -8   -1.81    6.63
   9  -2   8  -10.96    9.50
   9  -2   8   -0.40    2.63
  -9   3  -8    2.09    1.87
  -9   3  -8    2.26    7.40
   9  -3   8    5.46    2.81
   9  -3   8    9.11    8.80
  -9   4  -8    9.29    8.63
  -9   4  -8    4.30    2.10
   9  -4   8   -1.09    9.23
   9  -4   8    5.66    2.88
  -9   5  -8   -0.17    2.04
   9  -5   8   -7.82   10.16
   9  -5   8    0.52    2.59
  -9   6  -8    6.43    2.88
   9  -6   8   10.55    3.29
   9  -6   8    5.73   10.41
   9  -7   8   23.77    6.68
  10   8  -8   35.48   10.05
  10   7  -8    9.82    4.20
  10   7  -8    8.50    2.99
 -10  -7   8    4.03    4.47
  10   6  -8   -3.11   10.63
  10   6  -8    6.76    2.62
  10   6  -8    4.41    4.68
  10   6  -8   10.87    3.85
 -10  -6   8   10.53    4.03
 -10  -6   8    1.21    5.89
  10   5  -8   10.87    4.04
  10   5  -8   16.42    5.58
  10   5  -8   -1.52   10.71
  10   5  -8   17.21    5.80
 -10  -5   8   17.04    7.38
 -10  -5   8   20.35   10.26
 -10  -5   8   21.71    5.29
  10   4  -8   -1.51    3.59
  10   4  -8    0.37    3.16
  10   4  -8    0.13    8.79
  10   4  -8   -0.54    1.75
 -10  -4   8    7.16    5.24
 -10  -4   8   -0.91    2.71
 -10  -4   8   -0.85    1.45
 -10  -4   8   -6.21    8.55
  10   3  -8   -1.53    3.04
  10   3  -8   -2.37    2.94
  10   3  -8   -1.53    1.68
 -10  -3  -8    0.78    6.58
  10   3  -8    0.13    8.13
  10   3   8    0.18    9.47
 -10  -3   8    3.68    5.71
 -10  -3   8   -0.11    1.39
  10   3   8   -1.11    4.69
 -10  -3   8    3.26    8.49
 -10  -3   8   -1.35    2.70
  10   2  -8    2.31    3.70
  10   2  -8    0.50    8.35
  10   2  -8    6.21    3.18
  10   2  -8    7.80    2.52
 -10  -2  -8    3.58    6.26
  10   2   8    6.50    4.91
 -10  -2   8   10.33    8.94
 -10  -2   8   11.53    6.75
 -10  -2   8   11.28    2.43
 -10  -2   8    6.99    3.21
  10   2   8    9.23   10.82
  10   1  -8   -0.37    2.86
 -10  -1  -8    0.20    5.57
  10   1  -8    0.10    1.96
  10   1  -8    4.77    2.52
  10   1  -8    0.27    7.94
 -10  -1   8   -4.71    7.51
 -10  -1   8    0.41    1.67
  10   1   8   -2.68   10.80
  10   1   8    1.01    3.95
 -10  -1   8    0.49    9.15
  10   0  -8    0.17   10.67
  10   0  -8   12.65    5.61
  10   0  -8   13.05    4.76
 -10   0  -8   13.87    7.67
  10   0  -8   16.10    4.56
  10   0   8   20.91    5.36
 -10   0   8   23.73    4.46
 -10   0   8   22.72   10.45
  10   0   8   20.81   12.55
  10  -1  -8   -0.75    8.96
  10  -1  -8    2.90    2.84
 -10   1  -8    4.47    6.56
  10  -1  -8    0.39    2.52
  10  -1   8   -5.21   11.60
 -10   1   8   -0.68    1.85
  10  -1   8   -0.49    3.28
 -10   2  -8    9.26    7.91
  10  -2  -8    7.56    3.52
  10  -2  -8   10.53    4.33
 -10   2  -8   11.18    3.00
  10  -2   8   15.20   11.29
  10  -2   8   13.60    4.02
 -10   3  -8    0.51    8.63
 -10   3  -8    1.90    2.08
  10  -3   8   17.00   10.20
  10  -3   8   -0.15    3.04
 -10   4  -8    1.55    1.97
 -10   4  -8    5.07    9.90
  10  -4   8    0.28    2.86
  10  -4   8    6.24    9.89
 -10   6  -8    6.81    2.98
  10  -6   8    3.74   11.65
  10  -6   8   11.56    3.60
  10  -7   8    9.16    3.65
  11   8  -8   -2.15    4.18
  11   7  -8    0.44    2.45
  11   7  -8   10.24    4.06
 -11  -7   8   -0.25    4.28
  11   6  -8    8.56    3.14
  11   6  -8   12.87    4.70
 -11  -6   8   12.53   10.10
 -11  -6   8    6.40    4.64
 -11  -6   8   13.67    7.23
  11   5  -8   -0.16   10.73
  11   5  -8    4.07    3.73
  11   5  -8    2.38    1.92
  11   5  -8   -2.23    4.38
 -11  -5   8    5.01    6.53
 -11  -5   8    0.76    9.43
 -11  -5   8   -0.19    3.46
  11   4  -8    3.44    3.86
 -11  -4  -8    6.16    7.58
  11   4  -8    6.87    2.19
  11   4  -8    0.15   10.40
  11   4  -8    6.23    4.16
 -11  -4   8    4.41    2.14
 -11  -4   8    9.57    6.29
 -11  -4   8    7.58    3.48
 -11  -4   8    3.76    9.62
  11   3  -8    4.72    3.41
 -11  -3  -8    5.06    7.65
  11   3  -8    3.35    3.62
  11   3  -8    5.88    2.07
  11   3  -8    0.14    9.44
  11   3   8   12.08   11.94
  11   3   8    0.88    5.21
 -11  -3   8   27.04    9.57
 -11  -3   8    4.39    2.04
 -11  -3   8   10.19    6.86
 -11  -3   8    4.08    3.14
  11   2  -8   -3.11    8.98
 -11  -2  -8  -14.48    8.18
  11   2  -8    2.89    3.11
  11   2  -8    4.16    3.17
  11   2  -8   -0.46    1.78
 -11  -2   8    5.63    2.77
  11   2   8    7.85   13.58
 -11  -2   8    0.64    9.34
 -11  -2   8    0.83    1.78
 -11  -2   8   -1.23    7.53
  11   2   8   -5.06    5.54
  11   1  -8   11.24   13.55
  11   1  -8   21.79    7.78
  11   1  -8   34.60    8.32
  11   1  -8   29.96    9.70
 -11  -1   8   29.62    8.04
 -11  -1   8   40.25   12.66
  11   1   8   59.80   18.62
 -11  -1   8   52.10   14.86
  11   0  -8    0.92    2.18
  11   0  -8    1.40    2.90
  11   0  -8    0.36   10.05
  11   0   8   -4.85    5.09
 -11   0   8    0.86    1.96
 -11   0   8   -3.78    9.11
  11  -1  -8   38.55    8.32
  11  -1  -8    1.81   15.41
  11  -1  -8   31.51    8.18
 -11   1   8   34.93    8.11
  11  -2  -8    0.90    2.85
 -11   2  -8  -31.39   11.43
  11  -2  -8    1.52    3.51
 -11   2  -8    0.52    2.40
  11  -2   8  -14.52    4.51
 -11   3  -8    5.00    2.33
 -11   3  -8    3.75   10.04
  11  -3   8    3.03    3.55
  11  -3   8  -26.80   12.19
 -11   4  -8   10.03   11.39
 -11   4  -8    8.67    3.02
  11  -4   8   14.88    4.08
  11  -4   8  -11.54   11.58
 -11   5  -8    0.42    2.41
  11  -5   8    0.78    3.19
  11  -5   8   -7.96   12.54
 -11   6  -8   10.02    3.24
  11  -6   8    9.04   12.86
  11  -6   8    6.87    3.98
  11  -7   8    5.18    3.42
  12   8  -8    5.82    4.59
  12   7  -8   -0.16    4.11
 -12  -7   8    2.93   11.15
 -12  -7   8    1.92    4.86
  12   6  -8    0.26    2.14
  12   6  -8    2.32    4.27
 -12  -6   8  -18.83   10.72
 -12  -6   8    0.24    4.10
  12   5  -8   -1.91    2.07
  12   5  -8   -0.15    3.99
  12   5  -8    4.34   12.00
  12   5  -8    3.70    5.10
 -12  -5   8    0.80    3.59
 -12  -5   8   17.53    7.13
 -12  -5   8    0.65   10.04
  12   4  -8   -7.18   10.65
  12   4  -8    8.63    4.60
 -12  -4   8    3.07    9.95
 -12  -4   8    1.94    3.33
 -12  -4   8    6.40    6.89
 -12  -4   8    1.26    2.07
  12   3  -8    3.94    4.01
 -12  -3  -8    1.52    8.00
  12   3  -8    0.79   10.83
 -12  -3   8    3.36    1.99
 -12  -3   8    9.32    7.38
  12   3   8    1.26    5.91
  12   2  -8   32.39    9.24
 -12  -2  -8   60.23   12.81
  12   2  -8    0.47   14.81
  12   2   8   33.90   10.34
 -12  -2   8   30.41    8.73
 -12  -2   8   51.98   13.38
  12   1  -8    2.20    9.72
  12   1  -8   -0.16    3.25
 -12  -1  -8    6.09    7.61
  12   1   8   -4.23    5.15
 -12  -1   8   -1.03    2.12
 -12  -1   8    2.83    9.13
  12   1   8  -27.41   14.92
 -12   0  -8   99.96   22.98
  12   0  -8   93.12   19.05
 -12   0   8   90.74   24.50
 -12   0   8   68.32   19.02
  12   0   8   36.74   28.62
  12   0   8   77.54   19.26
 -12   1  -8    4.99    8.94
 -12   1  -8    1.86    2.41
  12  -1  -8    0.64   11.19
  12  -1  -8   -0.16    3.38
  12  -1   8   -0.66    4.77
  12  -1   8  -25.03   15.18
 -12   1   8    2.28    2.25
 -12   2  -8   50.84   15.30
 -12   2  -8   39.72    9.75
  12  -2  -8   48.22   10.05
 -12   2   8   26.48    9.88
  12  -2   8   47.45   10.44
  12  -2   8   10.45   18.38
 -12   3  -8    3.22    2.56
 -12   3  -8    5.49   11.49
  12  -3   8    5.75    3.95
  12  -3   8   -9.09   13.29
 -12   4  -8    1.39   12.07
 -12   5  -8    2.57   13.28
  12  -5   8   -0.70    3.56
  13   5  -8    1.36    5.70
 -13  -5   8    2.31    2.66
 -13  -5   8   20.36    8.66
  13   4  -8    3.98    4.63
  13   4  -8    1.07   11.76
 -13  -4  -8   -6.78    8.94
  13   4   8    1.85    6.68
 -13  -4   8    3.21    2.13
 -13  -4   8   13.59    7.83
  13   3  -8   -1.41   11.28
  13   3  -8    8.76    4.63
  13   3   8    0.26   15.54
 -13  -3   8    8.74    8.64
  13   3   8    5.84    6.11
 -13  -3   8    0.17    2.17
  13   2  -8    0.35   10.60
  13   2  -8   -1.73    3.94
  13   2   8  -16.91   16.34
 -13  -2   8   -1.81    9.53
 -13  -2   8    1.05    2.19
  13   1  -8   -0.56   12.90
  13   1  -8   27.42    6.46
 -13  -1   8   37.65   12.09
  13   1   8   -1.07   17.96
 -13  -1   8   25.60    5.82
  13   0  -8    1.06   12.17
  13   0  -8   -1.81    3.68
 -13   0   8   11.77   11.45
 -13   0   8   -1.25    2.58
  13  -1  -8   26.48    6.17
  13  -1  -8  -11.89   13.85
 -13   1   8   23.09    5.55
  13  -2  -8    2.05    3.68
 -13   2   8   -0.24    2.32
 -13   3  -8    4.09    3.08
  13  -3   8   -2.32   14.34
 -13   4  -8   -1.70    3.00
  13  -4   8   -0.20    3.13
  13  -4   8  -22.79   13.78
 -13   5  -8    5.68    4.12
 -13   5  -8   24.54   14.96
  13  -5   8   18.98    5.27
 -13   6  -8   -1.12    3.29
  13  -6   8   -0.28   15.29
  13  -6   8    0.57    3.85
 -13   7  -8    0.59    3.03
  13  -7   8    4.63    4.03
 -14  -4  -8   12.06   10.01
  14   4  -8    2.33    5.09
 -14  -4   8   -7.93    8.71
  14   4   8    0.40    6.71
 -14  -3  -8   10.44    9.96
  14   3  -8   -5.79    4.94
 -14  -3   8    4.32    9.17
  14   3   8    4.35    6.83
  14   2  -8   -2.55    4.59
 -14  -2  -8  -12.80    9.93
  14   2   8    1.35    6.30
 -14  -2   8   -8.64   10.73
  14   2   8  -42.67   18.97
 -14  -1  -8  -15.15   10.41
  14   1   8   -1.54    6.86
  14   1   8  -15.31   19.56
 -14   0  -8    4.34    4.10
 -14   0  -8    8.02   11.45
  14   0   8   34.59    7.99
 -14   1  -8  -24.16    7.29
 -14   1  -8  -15.71   13.22
  14  -1   8  -57.54   21.85
 -14   2  -8   -8.31   12.60
  14  -2  -8   -0.21    3.72
 -14   2  -8    1.71    3.49
  14  -2   8   -3.62    6.27
 -14   2   8    2.37    2.75
 -14   3  -8   -0.40   14.15
 -14   3  -8    0.76    2.92
  14  -3   8    3.37   16.33
  14  -3   8   -1.17    5.06
 -14   4  -8    1.63    3.37
 -14   4  -8  -25.72   15.14
  14  -4   8   -2.95   15.96
  14  -4   8    0.23    4.69
 -14   5  -8    5.72   15.28
 -14   5  -8    0.58    3.40
  14  -5   8    7.92    4.31
  14  -5   8    4.38   16.32
 -14   6  -8    0.31    3.57
 -14   6  -8   -8.63   17.06
  14  -6   8   -5.08    4.56
  14  -6   8    3.04   15.36
 -14   7  -8    4.86    3.45
  14  -7   8    0.63    4.48
  15   4  -8   13.30   13.83
 -15  -4  -8   -5.98   11.42
  15   4  -8    4.12    5.82
 -15  -4   8    0.81    2.54
  15   4   8    0.44    8.04
 -15  -4   8   -1.14    9.45
 -15  -3  -8   24.35   11.39
  15   3  -8  -17.92    5.64
  15   3  -8   10.77   13.20
 -15  -3   8    1.26    2.66
 -15  -3   8    5.97   10.29
  15   3   8    3.58    7.29
  15   2  -8    0.21   12.56
  15   2  -8    0.25    5.22
 -15  -2  -8    5.29   10.83
 -15  -2   8   27.85   11.45
  15   2   8   17.66   20.19
 -15  -2   8    0.22    2.76
  15   2   8   -8.20    7.26
 -15  -1  -8   13.81   11.19
  15   1  -8   -1.15   13.00
  15   1  -8    0.70    4.81
  15   1   8  -27.47   20.77
  15   1   8    0.34    6.72
 -15  -1   8   14.99   12.76
 -15  -1   8    3.52    3.04
  15   0  -8    4.03    4.61
 -15   0  -8  -10.91   11.75
  15   0  -8    8.22   14.04
 -15   0  -8   -3.35    3.62
  15   0   8    4.39   19.64
 -15   0   8   -1.76    2.78
  15   0   8    0.33    6.98
 -15   0   8   -9.18   13.71
 -15   1  -8    0.27    4.05
 -15   1  -8   -3.20   13.05
  15  -1  -8   13.16   14.09
  15  -1  -8   -1.15    4.98
 -15   1   8    4.60   14.79
  15  -1   8  -12.10    7.27
  15  -1   8  -30.62   19.70
 -15   1   8    1.35    3.08
 -15   2  -8    2.20    3.82
 -15   2  -8    3.37   13.87
  15  -2  -8   -2.04    4.43
  15  -2   8  -15.61    5.77
  15  -2   8   -0.29   17.71
 -15   2   8    6.57    3.39
 -15   3  -8   -1.14    3.56
  15  -3  -8    1.19    4.57
 -15   3  -8  -19.09   14.83
  15  -3   8    9.78   17.36
  15  -3   8    0.27    5.45
 -15   4  -8    3.63    3.73
 -15   4  -8  -19.44   16.23
  15  -4   8   -1.48    5.05
  15  -4   8    3.91   16.89
 -15   5  -8    0.96    4.03
 -15   5  -8  -14.90   17.03
  15  -5   8   14.62    5.32
  15  -5   8    7.11   17.76
 -15   6  -8    0.68    3.92
 -15   6  -8   10.87   17.61
  15  -6   8  -13.96   17.45
  15  -6   8    0.24    4.74
 -15   7  -8   -0.51   18.83
 -15   7  -8   -0.71    3.91
  15  -7   8    2.82    5.05
 -16  -4  -8  -28.30   13.33
 -16  -4   8   -2.48    3.31
  16   4   8    2.87    8.98
 -16  -3  -8    8.01   13.36
 -16  -3   8    8.40    4.26
 -16  -3   8   45.12   14.17
  16   3   8    0.44    8.45
 -16  -2  -8   -2.55   12.62
  16   2  -8    0.28    5.69
  16   2  -8  -40.72   15.24
  16   2   8    0.41    8.07
 -16  -2   8   -0.24    3.19
 -16  -2   8  -16.62   13.04
  16   1  -8    6.78    5.80
 -16  -1  -8    2.05   12.72
  16   1  -8   -5.93   15.15
 -16  -1  -8    3.33    3.54
 -16  -1   8    2.34    3.29
  16   1   8    4.15    7.55
 -16  -1   8    8.83   14.55
  16   1   8    7.78   22.09
  16   0  -8   11.93   15.16
  16   0  -8   -3.07    5.53
 -16   0  -8    5.47    3.70
 -16   0  -8   -9.72   12.95
 -16   0   8    1.66    3.23
  16   0   8  -23.56    7.67
  16   0   8  -20.64   21.17
 -16   0   8  -10.44   15.54
 -16   1  -8    5.38    3.90
 -16   1  -8   -2.67   13.91
  16  -1  -8   14.18   15.18
  16  -1  -8    0.25    4.96
 -16   1   8    2.06    3.43
 -16   1   8   10.90   16.47
  16  -1   8    7.36   20.37
  16  -1   8  -29.61    7.26
 -16   2  -8    0.31    4.01
  16  -2  -8    9.14    5.48
 -16   2  -8   -0.94   16.18
  16  -2   8  -38.81   20.19
  16  -2   8    0.31    6.28
 -16   2   8   -8.34   18.01
 -16   2   8   -0.31    3.85
 -16   3  -8   17.12   16.24
 -16   3  -8   -1.61    4.21
  16  -3   8  -10.83   20.10
  16  -3   8    2.06    6.09
 -16   4  -8    9.67   17.88
 -16   4  -8   -0.67    4.33
  16  -4   8  -23.63   19.96
  16  -4   8   -2.53    5.86
 -16   5  -8   -1.42    4.10
 -16   5  -8    8.90   18.48
  16  -5   8  -14.96   20.01
  16  -5   8   -6.79    5.72
 -16   6  -8   10.05    4.64
 -16   6  -8    0.54   19.68
  16  -6   8    2.38    5.24
  16  -6   8  -15.65   19.24
 -16   7  -8  -26.94   19.77
 -16   7  -8    0.39    4.05
  16  -7   8   -3.41    5.36
 -17  -4  -8   22.54   14.25
  17   4   8  -22.53    9.52
  17   4   8   -5.89   23.87
 -17  -3  -8    6.49   14.25
  17   3  -8   -2.97    6.77
 -17  -3   8   -2.54   12.19
 -17  -3   8   -0.79    3.31
  17   3   8   13.98    9.26
  17   2  -8   26.34   15.86
  17   2  -8    1.29    6.72
 -17  -2  -8   -5.27   14.13
 -17  -2   8    0.28    3.34
  17   2   8   10.47    8.93
 -17  -2   8   -3.93   13.56
 -17  -1  -8   -8.94   13.99
  17   1  -8   12.20   16.53
  17   1  -8   -8.28    6.01
 -17  -1  -8    0.31    3.92
 -17  -1   8   -6.03    3.30
  17   1   8    0.38   23.35
  17   1   8    0.43    8.19
 -17  -1   8   17.65   14.72
  17   0  -8    1.47    6.19
 -17   0  -8    9.02   15.43
 -17   0  -8   -0.98    4.32
  17   0  -8  -21.30   16.93
  17   0   8  -12.88   23.18
  17   0   8  -21.64    8.08
 -17   0   8   -2.43    3.64
 -17   0   8   -5.94   17.24
 -17   1  -8   17.39   15.80
 -17   1  -8    5.00    4.38
  17  -1  -8   10.35    6.25
  17  -1  -8    3.67   16.35
  17  -1   8   11.17   22.79
 -17   1   8    0.32    3.74
 -17   1   8    1.48   17.97
  17  -1   8   -0.38    7.59
 -17   2  -8   -1.38    4.35
 -17   2  -8   13.11   17.02
  17  -2   8    7.44   21.18
  17  -2   8    0.36    7.27
 -17   3  -8    5.95   17.52
 -17   3  -8    1.44    4.41
  17  -3   8    0.34    6.87
  17  -3   8  -23.33   20.23
 -17   4  -8    2.26    4.34
 -17   4  -8    7.23   19.52
  17  -4   8   -0.30    6.48
  17  -4   8  -41.43   22.51
 -17   5  -8  -22.82   20.73
 -17   5  -8   -5.91    4.71
  17  -5   8    7.05    6.25
  17  -5   8   29.93   21.76
 -17   6  -8  -39.18   20.69
 -17   6  -8    0.41    4.68
  17  -6   8    8.29    5.89
  17  -6   8   -1.99   21.28
 -17   7  -8   28.63   25.38
 -17   7  -8    1.71    9.63
  18   3   8   -0.55   10.96
 -18  -3   8   -0.29    3.75
 -18  -2  -8  -19.99   16.42
  18   2  -8   -8.27   17.74
  18   2  -8   -0.35    7.36
 -18  -2   8  -13.37   14.60
 -18  -2   8    2.14    3.69
  18   2   8  -31.23   10.25
  18   1  -8  -38.77   18.17
  18   1  -8   -3.11    7.14
 -18  -1  -8   -0.35    4.68
 -18  -1  -8    6.90   16.82
  18   1   8   -8.13    9.14
 -18  -1   8    1.59    3.99
 -18  -1   8    3.70   16.10
  18   1   8    1.71   25.66
  18   0  -8    9.63   17.69
 -18   0  -8   -0.54   17.05
 -18   0  -8    2.54    4.61
  18   0  -8    0.32    6.66
  18   0   8    9.83   25.30
  18   0   8    1.82    8.81
 -18   0   8    5.48   17.46
 -18   0   8   -0.67    3.99
 -18   1  -8    0.37    4.76
  18  -1  -8  -13.61   17.82
 -18   1  -8  -11.06   17.57
  18  -1  -8  -13.99    6.87
 -18   1   8   19.82   19.80
  18  -1   8  -18.70    8.51
  18  -1   8    0.40   24.21
 -18   1   8    5.61    4.19
 -18   2  -8    0.39    4.77
  18  -2  -8   -0.32    6.64
 -18   2  -8   11.60   18.98
  18  -2   8  -11.81   23.25
 -18   2   8    5.86    4.45
 -18   2   8   -5.74   21.21
  18  -2   8  -17.27    7.94
 -18   3  -8   -0.41    5.38
 -18   3  -8  -37.50   21.23
  18  -3   8  -28.34    8.12
 -18   4  -8  157.40   43.37
 -18   4  -8   25.60   27.08
  18  -4   8   76.88   25.59
 -18   5  -8  -15.60   21.86
 -18   5  -8    7.44    5.39
  18  -5   8  -18.72    7.37
 -18   6  -8   12.70   22.48
 -18   6  -8   -1.82    5.37
  18  -6   8  -47.38   23.37
  18  -6   8   -8.42    6.58
 -18   7  -8   -2.82    5.34
 -18   7  -8   16.23   22.83
  18  -7   8  -10.14    6.69
 -19  -4  -8   -3.28   19.07
  19   4   8  -20.04   29.40
  19   4   8   -8.28   11.99
 -19  -3  -8   -0.36    5.08
 -19  -3  -8    5.81   18.88
  19   3   8  -22.58   12.01
  19   3   8    6.04   29.41
  19   2  -8    6.54    7.91
 -19  -2  -8   -2.44   19.09
  19   2   8   -8.93   11.35
 -19  -2   8    4.41    4.24
 -19  -2   8  -16.93   16.50
 -19  -1  -8   15.56   19.64
 -19  -1  -8    0.39    5.57
  19   1  -8   20.84    8.03
  19   1  -8   -4.49   20.31
  19   1   8    0.53    9.98
 -19  -1   8   -0.35    4.10
 -19  -1   8   12.63   18.56
 -19   0  -8    0.40    5.25
 -19   0  -8   17.41   19.86
  19   0  -8  -23.21   19.26
  19   0  -8   -1.85    7.31
  19   0   8  -16.61   10.19
  19   0   8   20.96   28.88
 -19   0   8   -3.26   20.11
 -19   0   8    2.22    4.58
  19  -1  -8   10.13   19.44
 -19   1  -8  -12.94   20.06
 -19   1  -8    0.42    5.39
  19  -1  -8    2.18    7.54
  19  -1   8   25.25   26.64
 -19   1   8   -3.84    4.37
 -19   1   8   28.00   20.98
  19  -1   8    5.30    9.76
 -19   2  -8  -40.17   22.44
 -19   2  -8    2.18    5.49
  19  -2  -8    1.04    7.19
  19  -2   8  -44.40   26.42
 -19   2   8   -8.72   21.90
  19  -2   8  -10.91    9.28
 -19   3  -8   10.44    5.87
 -19   3  -8   14.55   22.57
  19  -3   8    2.16    8.86
  19  -3   8    7.69   26.45
 -19   4  -8  -23.45   23.15
 -19   4  -8  -13.57    5.79
  19  -4   8    2.45    8.39
  19  -4   8  -11.88   27.87
 -19   5  -8   -8.19   24.34
 -19   5  -8    3.92    6.00
  19  -5   8   34.50   26.82
  19  -5   8    4.25    8.06
 -19   6  -8  -52.77   25.64
  19  -6   8   -9.24    7.59
  20   1  -8  -15.23   22.48
  20   1  -8    7.46    8.59
 -20  -1   8    5.87    4.65
 -20  -1   8  -17.27   19.73
  20   0  -8  -11.60    8.78
  20   0  -8   -5.02   20.83
 -20   0   8    5.29    4.81
 -20   0   8   -8.89   20.54
  20  -1  -8    1.18    8.32
 -20   1   8   -0.63   23.43
 -20   1   8    0.42    4.45
  20  -2  -8   14.90    8.26
 -20   2   8  -18.87   24.32
   0   0  -9   -0.58    1.38
   0   0  -9   -0.52    1.60
   0   0   9   -0.75    3.85
   1   0  -9  106.59   23.58
   0   1  -9   96.74   23.60
  -1   0  -9  111.20   22.87
   0  -1   9   78.34   26.80
  -1   0   9   90.57   26.66
   1   1  -9    1.95    1.41
  -1   1  -9    0.49    1.21
  -1   1  -9   -0.20    1.27
   1  -1   9    0.98    3.76
  -1  -1   9   -1.36    3.99
   1  -1   9   -0.25    1.95
  -1   2  -9    1.60    1.00
  -1   2  -9    1.61    1.34
  -1   2  -9    2.83    1.51
   1  -2   9    2.24    1.07
   1  -2   9    0.70    2.58
   1  -2   9    3.67    3.38
  -2   0  -9   -1.41    1.71
   0   2  -9   -0.79    1.33
   0   2  -9    1.91    0.96
   0  -2   9    0.48    3.37
  -2   1  -9   -0.92    1.85
  -2   1  -9    0.64    1.49
  -2   1  -9    3.59    1.36
   2  -1   9    2.52    2.98
   2  -1   9    3.66    3.95
   2  -1   9    1.14    1.42
  -2   2  -9    0.19    1.70
  -2   2  -9   -0.21    1.37
  -2   2  -9    0.14    0.85
   2  -2   9   -0.18    1.06
   2  -2   9    1.13    3.36
   2  -2   9   -0.52    3.52
   3   2  -9   12.40    3.43
  -2   3  -9   14.02    3.81
   3   2  -9   11.01    3.60
  -2   3  -9   14.31    3.26
   3   2  -9   14.11    3.89
  -2   3  -9   14.80    3.43
  -2   3  -9   18.35    4.33
   2  -3   9   15.30    5.42
   2  -3   9   11.85    5.20
   2  -3   9   10.98    3.49
   2  -3   9   13.80    3.68
  -3  -2   9   17.22    6.16
  -1   3  -9    7.72    1.91
  -1   3  -9    6.27    2.33
  -1   3  -9    5.93    1.72
  -1   3  -9    8.30    2.46
   3   1  -9    7.36    2.42
   1  -3   9    6.11    1.87
   1  -3   9    4.81    4.01
   1  -3   9    8.30    2.10
   1  -3   9    9.08    3.62
  -3   0  -9    0.22    1.74
   3   0  -9    1.58    2.00
   3   0   9    0.18    3.24
  -3   1  -9    8.01    2.35
  -3   1  -9   10.06    2.59
  -3   1  -9    6.88    3.25
   3  -1   9    7.92    2.67
   3  -1   9    5.27    4.85
   3  -1   9   11.63    4.61
  -3   2  -9    9.93    3.46
  -3   2  -9   15.47    3.87
   2   3  -9   18.04    3.88
  -3   2  -9   15.77    4.38
   2   3  -9   11.47    3.45
  -2  -3   9   17.55    5.81
   3  -2   9   10.81    3.60
   3  -2   9   14.71    5.95
   3  -2   9   14.19    5.36
   3   3  -9   -0.15    1.68
  -3   3  -9   -1.66    2.60
  -3   3  -9   -0.15    1.38
   3   3  -9   -0.35    0.78
  -3   3  -9    0.64    0.71
  -3   3  -9   -0.37    0.67
   3   3  -9    0.55    2.34
  -3  -3   9    0.45    0.39
   3  -3   9    5.85    3.15
   3  -3   9    0.13    1.04
   3  -3   9    1.72    4.13
  -3  -3   9    0.58    4.39
  -3  -3   9   -0.59    1.22
   3  -3   9    1.16    1.09
   4   3  -9   25.27    9.10
   4   3  -9   26.39    6.43
   4   3  -9   27.34    7.03
  -3   4  -9   24.20    6.54
  -3   4  -9   26.20    6.32
   4   3  -9   29.43    6.83
  -3   4  -9   23.05    7.12
   3  -4   9   34.85    7.06
  -4  -3   9   25.83    9.23
  -4  -3   9   23.88    6.38
   3  -4   9   30.97    6.88
  -4  -3   9   26.93    7.69
   3  -4   9   25.04    9.80
   4   2  -9    2.02    3.56
   4   2  -9   -0.14    0.83
   4   2  -9    0.17    1.23
   4   2  -9    0.73    1.80
  -2   4  -9    0.19    1.54
  -4  -2   9   -0.27    0.58
   2  -4   9    0.59    0.94
  -4  -2   9    0.05    2.44
  -4  -2   9    1.90    4.85
   4   1  -9   11.40    3.23
   4   1  -9    7.93    3.53
   4   1  -9   17.03    3.79
  -4  -1   9   11.60    6.72
   1  -4   9   14.39    3.32
   4   0  -9    1.13    2.05
   4   0  -9   -1.01    2.14
  -4   0  -9    0.35    2.99
   0   4  -9   -0.33    0.82
  -4   0  -9   -0.10    1.67
  -4   0   9   10.42    5.90
   4   0   9    1.07    2.10
   0  -4   9    0.31    1.21
  -4   1  -9   11.82    3.35
   1   4  -9   12.21    3.16
  -4   1  -9   13.06    4.40
   1   4  -9   11.10    3.62
   4  -1   9   12.67    3.62
  -1  -4   9    9.48    3.47
   4  -1   9   15.20    5.27
   4  -1   9   19.68    6.18
   2   4  -9    0.46    1.67
   2   4  -9    0.57    1.05
  -4   2  -9    0.33    1.32
  -4   2  -9   -0.17    0.67
  -4   2  -9    1.03    2.43
   4  -2   9   -0.37    5.17
  -2  -4   9   -0.35    1.42
   4  -2   9    0.68    1.39
   4  -2   9    0.64    3.37
  -4   3  -9   29.94    6.14
   3   4  -9   20.64    6.81
  -4   3  -9   30.51    7.00
  -4   3  -9   22.21    8.08
  -4   3  -9   25.46    6.42
   3   4  -9   20.94    7.99
   4  -3   9   30.74    8.17
   4  -3   9   21.16    6.61
   4  -3   9   39.58    9.38
   4  -3   9   23.82    6.94
   4   4  -9   -0.48    3.18
   4   4  -9    0.26    1.81
  -4   4  -9   -1.11    1.55
  -4   4  -9   -0.08    0.77
  -4   4  -9    0.14    0.75
   4   4  -9    0.14    1.15
  -4  -4   9    0.20    1.60
   4  -4   9   -1.93    1.39
   4  -4   9   -0.81    1.30
   5   4  -9   26.76    9.74
  -4   5  -9   48.60   10.08
   5   4  -9   40.80    8.60
   5   4  -9   26.82    9.61
   5   4  -9   23.64   11.98
  -5  -4   9   51.13    9.44
  -5  -4   9   28.34   10.96
  -5  -4   9   28.25   12.75
   5   3  -9   52.75   13.98
   5   3  -9   47.65   13.54
   5   3  -9   62.75   12.77
   5   3  -9   53.88   17.48
  -5  -3   9   43.12   15.35
   3  -5   9   60.32   13.62
  -5  -3   9   61.54   17.22
  -5  -3   9   42.71   12.79
  -2   5  -9   37.25    9.24
   5   2  -9   39.27    9.26
   5   2  -9   39.37    9.11
   5   2  -9   41.81   13.54
   5   2  -9   40.90    9.93
  -5  -2   9   27.71   12.68
  -5  -2   9   38.60    9.17
  -5  -2   9   37.94   10.75
  -1   5  -9   24.23    5.56
  -1   5  -9   24.31    6.04
   5   1  -9   24.16    6.33
   5   1  -9   19.16    5.69
   5   1  -9   27.23    5.82
  -5  -1  -9   16.28    8.03
   1  -5   9   22.47    6.07
  -5  -1   9   17.81    9.09
   5   1   9   28.54    8.04
   5   1   9   22.74    6.60
  -5  -1   9   18.11    5.46
  -5   0  -9   33.43    9.90
   0   5  -9   36.80    8.97
  -5   0  -9   51.13   10.95
   0   5  -9   36.94    9.50
   5   0  -9   29.55    9.33
   5   0  -9   30.91   10.04
  -5   0   9   33.01   12.88
   0  -5   9   41.80    9.51
   5   0   9   54.67   12.01
  -5   1  -9   25.18    6.23
   1   5  -9   31.93    5.96
   1   5  -9   23.18    6.45
   5  -1   9   34.21    9.65
  -1  -5   9   15.05    6.42
  -5   2  -9   45.10    8.99
   2   5  -9   34.49    9.31
   2   5  -9   32.71    8.59
  -5   2  -9   39.79    9.87
   5  -2   9   34.10   11.51
   5  -2   9   30.56    9.60
  -5   3  -9   57.50   14.62
  -5   3  -9   54.05   15.22
   3   5  -9   78.71   19.58
  -5   3  -9   59.46   16.20
   3   5  -9   61.80   15.58
   5  -3   9   65.93   17.60
   5  -3   9   56.29   16.18
   5  -3   9   87.53   19.08
  -5   4  -9   56.23   11.67
   4   5  -9   36.23   11.10
   4   5  -9   53.83   10.33
   4   5  -9   39.23   13.77
  -5   4  -9   36.05   10.33
  -4  -5   9   48.35   11.09
  -5   5  -9    0.81    1.72
   5   5  -9   -0.98    2.35
   5   5  -9   -0.79    1.24
  -5   5  -9    0.68    1.16
   5   5  -9   -4.99    4.52
  -5  -5   9    1.83    1.93
   5  -5   9   -1.12    1.66
   6   5  -9    3.09    1.53
   6   5  -9    0.73    2.52
  -6  -5   9    1.17    2.29
   5  -6   9    2.77    1.76
   6   4  -9   63.85   17.92
   6   4  -9   79.77   20.75
   6   4  -9   63.53   16.26
  -6  -4   9   55.18   17.45
  -6  -4   9   88.46   21.69
  -6  -4   9   70.57   19.58
  -3   6  -9   84.80   23.94
   6   3  -9   82.84   23.25
   6   3  -9  108.94   22.24
  -6  -3   9   75.43   22.33
  -6  -3   9  135.03   28.77
   6   2  -9   42.55   10.20
   6   2  -9   37.65   14.93
   6   2  -9   49.84    9.97
   6   2  -9   35.06   11.10
   6   2   9   38.99   13.24
  -6  -2   9   44.11   10.10
  -6  -2   9   43.97   12.11
  -6  -2   9   27.20   14.45
   6   1  -9   20.39    6.13
  -1   6  -9   16.99    5.79
   6   1  -9   19.01    5.43
  -6  -1  -9   25.34    7.75
   6   1  -9   22.79    5.54
  -6  -1   9   23.92    9.46
   1  -6   9   22.38    5.94
   6   1   9   19.92    8.38
   6   1   9   24.98    6.39
   6   0  -9    1.50    2.25
  -6   0  -9   -1.40    3.50
   6   0  -9    0.43    2.24
   0   6  -9   -0.63    1.98
  -6   0  -9   -0.20    1.46
   0   6  -9   -1.53    1.19
  -6   0   9    5.76    6.80
   0  -6   9    0.12    1.89
   6   0   9   -1.54    6.20
   6   0   9   -1.46    2.40
  -6   1  -9   22.39    5.87
  -6   1  -9   21.68    7.27
   1   6  -9   22.84    6.24
   6  -1  -9   25.14    6.49
   1   6  -9   25.09    5.82
   6  -1   9   27.70    9.82
  -1  -6   9   21.34    6.31
   6  -1   9   29.68    6.18
  -6   2  -9   36.78   12.62
  -6   2  -9   44.38   11.54
   2   6  -9   43.29   10.40
  -6   2  -9   46.69   10.65
   6  -2   9   38.69   13.19
   6  -2   9   48.47   11.60
  -2  -6   9   53.77   11.18
   6  -2   9   31.77   14.77
   6  -2   9   44.08   10.69
  -6   3  -9   68.88   25.97
  -6   3  -9   64.43   23.70
   3   6  -9   79.38   22.32
  -6   3  -9   73.81   20.92
   6  -3   9  129.46   25.76
   6  -3   9  116.65   22.16
   4   6  -9   66.68   15.95
  -6   4  -9   58.40   18.23
   4   6  -9   69.29   16.91
  -6   4  -9   65.44   15.81
   4   6  -9   72.66   22.10
  -4  -6   9   77.51   17.08
   6  -4   9   61.81   21.40
   6  -4   9   66.43   16.96
  -6   5  -9    2.94    1.60
  -6   5  -9    2.79    2.00
   5   6  -9    4.10    1.64
   5   6  -9    5.78    2.61
   5   6  -9    2.70    4.85
   6  -5   9    4.93    2.07
  -5  -6   9    4.49    2.59
   6  -5   9    7.95    7.60
   6   6  -9   -0.46    2.58
   6   6  -9    1.46    1.57
  -6  -6   9   -0.77    2.64
   6  -6   9   -0.18    1.77
   7   6  -9    0.61    1.55
   7   6  -9    0.24    2.84
   7   6  -9    2.16    6.94
  -7  -6   9   -0.66    2.78
   6  -7   9    0.37    1.82
   7   5  -9   12.06    5.04
   7   5  -9   18.00    8.09
   7   5  -9   17.11    4.18
  -7  -5   9   18.82    4.95
   7   4  -9    0.17    1.40
   7   4  -9    0.11    2.49
  -7  -4   9   -0.13    2.14
  -7  -4   9   -1.29    6.66
   7   3  -9  179.01   49.88
   7   3  -9  194.79   44.96
  -7  -3   9  176.51   59.33
  -7  -3   9  227.15   48.36
  -7  -3   9  180.75   45.42
   7   2  -9    2.62    2.41
   7   2  -9    1.24    1.81
  -7  -2  -9    6.32    4.98
   7   2  -9    9.07    5.92
  -7  -2   9   -0.13    6.89
   7   2   9    3.56    3.70
   7   2   9    7.92    6.09
  -7  -2   9    2.12    1.26
  -7  -1  -9   48.17   15.16
   7   1  -9   48.57   13.56
   7   1  -9   49.36   12.23
   7   1  -9   58.68   12.01
   7   1  -9   29.55   18.85
   7   1   9   41.65   13.03
  -7  -1   9   56.24   12.17
  -7  -1   9   49.52   17.64
   7   1   9   50.57   16.48
   7   0  -9    0.57    1.58
  -7   0  -9   -1.75    1.15
  -7   0  -9   -0.69    4.04
   0   7  -9   -2.33    2.29
   7   0  -9   -2.45    2.88
   7   0  -9   -2.42    2.62
  -7   0   9    0.44    1.27
   7   0   9  -20.75    8.27
   7   0   9   -0.14    2.73
  -7   0   9   -4.36    7.97
   7  -1  -9   53.64   12.76
  -7   1  -9   49.36   14.52
   1   7  -9   36.71   12.91
   7  -1  -9   61.53   12.46
  -1  -7   9   52.84   13.42
   7  -1   9   53.17   12.56
   7  -1   9   48.84   17.59
   2   7  -9    1.82    1.56
  -7   2  -9    2.56    1.39
   2   7  -9    2.17    2.47
  -7   2  -9    4.58    4.67
   7  -2   9    3.23    2.37
  -2  -7   9    4.52    2.53
   7  -2   9   20.92    7.85
   3   7  -9  171.32   45.29
  -7   3  -9  192.58   42.40
  -7   3  -9  180.90   53.68
   7  -3   9  174.84   56.37
   7  -3   9  170.70   44.79
   4   7  -9    1.49    1.64
   4   7  -9   -0.23    2.41
  -7   4  -9   -0.97    1.39
   7  -4   9   -5.10    7.13
   7  -4   9    1.08    2.06
  -4  -7   9   -0.17    2.68
  -7   5  -9   19.98    4.25
   5   7  -9   18.56    4.25
   5   7  -9   12.02    4.93
   7  -5   9   15.38    9.78
  -5  -7   9   18.02    5.15
   7  -5   9   11.93    4.69
  -7   6  -9    2.41    1.68
   6   7  -9   -0.86    2.98
   6   7  -9   -1.61    1.66
   7  -6   9   -0.30    2.06
  -6  -7   9    1.46    2.98
   7   7  -9   -0.36    1.89
   7   7  -9   -0.13    2.96
  -7  -7   9    0.97    3.28
   7  -7   9    0.10    2.06
   8   7  -9   30.44    7.67
   8   7  -9   35.31    8.57
  -8  -7   9   27.28    8.96
   8   6  -9    7.10    2.44
   8   6  -9    9.23    3.75
  -8  -6   9    5.79    3.41
   8   5  -9   -2.39    7.14
   8   5  -9   -1.66    1.51
   8   5  -9    0.48    3.11
   8   5  -9    0.47    2.87
  -8  -5   9    1.65    4.25
  -8  -5   9    0.53    7.81
  -8  -5   9    0.77    2.67
   8   4  -9    3.91    3.03
   8   4  -9    5.92    1.92
   8   4  -9    2.50    6.99
   8   4  -9    4.04    3.05
  -8  -4   9    4.70    2.74
  -8  -4   9    7.39    7.58
  -8  -4   9    5.33    4.20
   8   3  -9   -3.84    6.40
   8   3  -9    1.36    1.62
   8   3  -9    0.93    2.27
   8   3  -9    0.77    2.61
  -8  -3   9    5.40    4.42
  -8  -3   9    4.79    7.33
  -8  -3   9    1.27    2.29
  -8  -3   9    1.71    1.20
   8   2  -9    4.98    9.94
   8   2  -9   28.78    6.01
  -8  -2  -9   34.88    8.83
   8   2  -9   25.66    5.77
   8   2  -9   19.84    6.82
  -8  -2   9   35.50   10.78
   8   2   9   15.26   10.31
  -8  -2   9   21.85    5.81
   8   2   9   17.14    7.26
  -8  -2   9   23.00    8.22
  -8  -1  -9   19.68    5.81
   8   1  -9   17.07    3.60
   8   1  -9   11.45    4.26
   8   1  -9    9.01    3.49
   8   1  -9    0.90    8.54
   8   1   9   10.58    4.64
   8   1   9   13.31    8.66
  -8  -1   9    9.43    3.30
  -8  -1   9   16.29    9.17
   8   0  -9   -1.13    2.38
   8   0  -9   -0.56    1.90
  -8   0  -9    0.47    4.32
   8   0  -9   -0.64    2.63
   8   0  -9    2.07    7.54
   8   0   9   -1.58    2.98
  -8   0   9    6.67    7.88
  -8   0   9    0.38    1.29
   8   0   9    2.97    8.55
   8  -1  -9   11.57    4.89
   8  -1  -9   17.56    4.10
  -8   1  -9   11.28    6.13
   8  -1   9   14.86    4.47
   8  -1   9   28.23   10.18
  -8   2  -9   26.57    6.50
  -8   2  -9   29.95    9.13
   8  -2   9   23.40    6.98
   8  -2   9   34.60   11.99
  -8   3  -9    1.23    1.38
  -8   3  -9    2.09    6.25
   8  -3   9    1.95    2.35
   8  -3   9   15.49    8.35
  -8   4  -9    4.65    1.89
  -8   4  -9    3.46    7.61
   8  -4   9    2.23    8.28
   8  -4   9    5.30    2.63
   5   8  -9    2.82    3.01
  -8   5  -9   -1.41    1.81
  -5  -8   9   -2.85    3.14
   8  -5   9    5.04    9.12
   8  -5   9   -0.35    2.39
   6   8  -9    4.41    3.53
  -8   6  -9    7.26    2.28
   8  -6   9    2.08    2.75
  -6  -8   9    7.07    3.60
   7   8  -9   34.77    8.07
  -7  -8   9   31.73    8.50
   8  -7   9   19.90    7.53
   8   8  -9    5.45    3.51
  -8  -8   9    2.89    4.24
   9   8  -9   34.00    8.78
  -9  -8   9   27.64    9.36
   9   7  -9   -3.69    3.52
   9   7  -9    3.29    2.13
  -9  -7   9    0.88    3.85
   9   6  -9   -0.40    3.41
   9   6  -9    1.36    2.04
  -9  -6   9    3.94    3.59
   9   5  -9    5.57    3.98
   9   5  -9    5.68    2.17
   9   5  -9   -2.17    8.32
   9   5  -9    7.70    3.54
  -9  -5   9    5.07    5.39
  -9  -5   9    0.99    8.85
  -9  -5   9    5.42    3.44
   9   4  -9   14.85    4.63
   9   4  -9   14.71    3.70
   9   4  -9   10.48    4.92
   9   4  -9    0.44    8.58
  -9  -4   9   15.12    4.55
  -9  -4   9   15.22    6.18
  -9  -4   9   16.52    3.57
  -9  -4   9   16.68    9.32
   9   3  -9    1.04    1.59
   9   3  -9   -0.12    2.57
  -9  -3  -9   -1.29    6.05
   9   3  -9    1.76    2.96
   9   3  -9   -0.11    7.45
  -9  -3   9    7.17    5.02
   9   3   9   -6.58    8.26
  -9  -3   9    0.40    2.63
  -9  -3   9   -0.40    1.32
  -9  -3   9   -0.57    8.47
   9   2  -9   -1.05    2.73
   9   2  -9    0.23    7.06
   9   2  -9    2.56    2.19
   9   2  -9    1.87    1.76
  -9  -2  -9    0.91    5.69
   9   2   9  -13.00    8.91
  -9  -2   9    2.97    8.31
   9   2   9    4.28    4.15
  -9  -2   9    3.75    5.59
  -9  -2   9    1.56    1.41
   9   1  -9    1.04    2.01
   9   1  -9    2.35    2.13
  -9  -1  -9    3.21    5.38
   9   1  -9    1.12    8.03
   9   1  -9    0.99    2.76
   9   1   9    7.27    3.72
   9   1   9    0.34    9.25
  -9  -1   9    0.26    1.54
  -9  -1   9   -0.67    8.72
   9   0  -9    3.56    2.26
   9   0  -9   -0.55    2.60
   9   0  -9    2.05    3.02
  -9   0  -9   -0.18    5.10
   9   0  -9    2.10    8.35
   9   0   9   16.85   10.35
  -9   0   9    1.45    1.62
  -9   0   9   -0.18    8.75
   9   0   9    1.55    3.27
   9  -1  -9    2.09    2.98
  -9   1  -9    5.52    5.67
   9  -1  -9    3.67    2.28
   9  -1   9    2.19   10.32
   9  -1   9   -0.46    3.04
  -9   2  -9    3.70    1.76
  -9   2  -9    4.33    6.48
   9  -2   9    3.41    2.88
   9  -2   9    8.38    9.60
  -9   3  -9    3.50    7.41
  -9   3  -9   -0.42    1.58
   9  -3   9  -16.38    9.41
   9  -3   9    3.53    2.80
  -9   4  -9   15.45    9.55
  -9   4  -9   15.10    3.81
   9  -4   9    4.68   10.32
   9  -4   9   14.78    4.48
  -9   5  -9   13.28    3.31
   9  -5   9    7.74    3.85
   9  -5   9   24.53   10.79
  -9   6  -9    4.07    2.59
   9  -6   9   37.59   12.29
   9  -6   9    5.50    3.30
   9  -7   9   -2.58    2.56
   9   9  -9    2.35    4.03
  10   8  -9    4.58    4.18
 -10  -8   9   -1.63    4.56
  10   7  -9    8.38    3.23
  10   7  -9    9.49    4.60
 -10  -7   9   12.74    4.59
  10   6  -9   14.79    4.83
  10   6  -9   24.20    6.38
 -10  -6   9   29.05   11.28
 -10  -6   9   13.25    6.14
  10   5  -9    0.80    1.78
  10   5  -9    1.28    9.08
  10   5  -9   -0.28    3.61
  10   5  -9   -1.77    4.10
 -10  -5   9    8.52    5.60
 -10  -5   9   -0.18    3.22
 -10  -5   9    9.84    9.37
  10   4  -9    4.09    3.51
  10   4  -9    5.28    3.76
  10   4  -9    5.50    2.16
  10   4  -9    7.36    9.03
 -10  -4   9    1.28    5.51
 -10  -4   9    9.61    3.23
 -10  -4   9    2.85    1.90
 -10  -4   9    6.92    9.49
  10   3  -9   -1.55    1.82
  10   3  -9    3.72    2.91
 -10  -3  -9   -0.27    6.63
  10   3  -9    0.13    3.21
  10   3  -9   -1.23    8.07
  10   3   9    1.71    5.15
 -10  -3   9   -3.07    8.99
 -10  -3   9    1.94    1.50
 -10  -3   9   -1.81    5.90
  10   3   9    7.36    9.57
 -10  -3   9    1.88    2.75
  10   2  -9    2.36    3.03
  10   2  -9    2.80    2.71
  10   2  -9    3.60    1.86
  10   2  -9    1.02    7.90
 -10  -2  -9    2.16    6.22
 -10  -2   9    0.63    1.65
 -10  -2   9   -4.70    9.20
  10   2   9    7.10   10.33
  10   2   9    0.25    4.46
 -10  -2   9    1.61    6.61
  10   1  -9    0.76    9.39
  10   1  -9    8.78    3.26
 -10  -1  -9   22.53    6.72
  10   1  -9   12.14    3.50
  10   1  -9    8.05    4.24
 -10  -1   9    9.51    2.96
 -10  -1   9    6.35    9.95
  10   1   9    6.26    4.68
  10   1   9   27.93   11.66
 -10  -1   9    7.99    8.19
  10   0  -9    0.17    8.73
  10   0  -9   -1.78    2.48
  10   0  -9   -2.27    2.56
  10   0  -9   -0.72    3.08
 -10   0  -9   -1.21    5.89
 -10   0   9   -0.16    1.76
 -10   0   9   -1.92    9.30
  10   0   9    0.19    3.72
  10   0   9  -12.52   11.83
  10  -1  -9   13.93    3.69
 -10   1  -9   13.13    7.03
  10  -1  -9    6.41    3.96
 -10   1   9    9.62    3.35
  10  -1   9   18.83    4.50
  10  -1   9    4.31   12.12
 -10   2  -9    8.39    7.46
 -10   2  -9   -0.30    1.78
  10  -2  -9    0.82    2.59
  10  -2   9   -8.98    3.42
  10  -2   9   -3.79   11.12
 -10   3  -9    6.00    8.49
 -10   3  -9    0.16    1.81
  10  -3   9    5.01    3.39
  10  -3   9   13.91   10.68
 -10   4  -9   21.23   10.47
 -10   4  -9    6.75    2.70
  10  -4   9  -20.67   11.42
  10  -4   9   11.07    3.62
 -10   5  -9    2.10    2.29
  10  -5   9    1.44    2.96
  10  -5   9  -22.04   11.56
 -10   6  -9   24.04    5.96
  10  -6   9   21.38    6.38
  10  -6   9   28.75   13.73
  10  -7   9    5.20    3.35
  11   8  -9    0.34    4.34
 -11  -8   9    7.82    5.10
  11   7  -9   -3.77    4.22
  11   7  -9    2.15    2.37
 -11  -7   9   -1.22   10.48
 -11  -7   9   -0.50    4.39
  11   6  -9    5.06    4.00
  11   6  -9    1.88    2.24
 -11  -6   9    9.31   10.42
 -11  -6   9    1.10    4.10
  11   5  -9    2.51    3.73
  11   5  -9    3.80    1.97
 -11  -5   9    2.11    3.79
 -11  -5   9    6.42    6.19
 -11  -5   9    6.82   10.11
  11   4  -9    1.28    1.73
  11   4  -9    2.95    3.77
  11   4  -9    0.19    3.93
  11   4  -9    0.98    9.65
 -11  -4   9    0.72    6.02
 -11  -4   9    0.12    1.65
 -11  -4   9   -4.90   10.04
 -11  -4   9    2.20    3.24
  11   3  -9   -0.40    3.54
  11   3  -9    3.19    9.19
 -11  -3  -9    4.10    7.63
  11   3  -9   -0.80    1.81
  11   3  -9   -0.47    3.33
  11   3   9    0.31    5.48
 -11  -3   9    0.13    1.64
 -11  -3   9    3.97    9.91
  11   3   9    0.21   11.36
 -11  -3   9    1.23    2.93
 -11  -3   9   -2.06    6.61
  11   2  -9   14.70    3.98
 -11  -2  -9   24.23    8.48
  11   2  -9   13.60    4.76
  11   2  -9   10.19    5.47
  11   2  -9    2.11    9.89
  11   2   9   10.03   13.11
 -11  -2   9   15.76    4.97
 -11  -2   9   28.85   11.21
 -11  -2   9   16.70    8.63
 -11  -2   9   12.74    4.08
  11   2   9   14.82    6.20
  11   1  -9    0.14    3.32
  11   1  -9   -0.49    9.38
  11   1  -9   -0.11    2.12
  11   1  -9    1.38    2.85
 -11  -1  -9   -7.21    7.29
 -11  -1   9   -0.93   10.05
 -11  -1   9    0.92    8.64
 -11  -1   9   -1.76    1.87
  11   0  -9   43.14    6.81
  11   0  -9   29.65    6.36
  11   0  -9   -0.38   13.15
 -11   0  -9    9.36   11.35
 -11   0   9   27.88   12.94
 -11   0   9   27.52    6.47
  11   0   9   -2.81    8.52
 -11   1  -9   -7.52    8.20
  11  -1  -9   -1.31    2.93
  11  -1  -9    0.16    3.04
 -11   1   9   -0.19    2.05
 -11   2  -9   34.45   10.16
  11  -2  -9   21.66    5.64
 -11   2  -9   26.08    5.28
  11  -2  -9   18.99    6.07
  11  -2   9   20.46    6.13
  11  -2   9  -14.06   13.57
 -11   3  -9   -6.79    9.72
 -11   3  -9    3.43    2.28
  11  -3   9  -14.68   12.09
  11  -3   9    2.53    3.59
 -11   4  -9   -3.08   10.65
 -11   4  -9    4.66    2.47
  11  -4   9   -6.38    3.85
  11  -4   9  -17.39   11.99
 -11   5  -9   16.19   11.92
 -11   5  -9    2.75    2.36
  11  -5   9   -7.47   12.54
  11  -5   9    0.16    3.53
 -11   6  -9    1.63    2.55
  11  -6   9    3.26    3.46
  11  -6   9  -12.74   12.99
 -11   7  -9    0.25    2.44
  11  -7   9    1.61    3.31
  12   9  -9   27.73    8.68
  12   7  -9    1.06    2.58
  12   7  -9   -3.19    4.47
 -12  -7   9  -10.35   11.85
 -12  -7   9   -1.64    5.22
  12   6  -9    0.65    2.21
  12   6  -9   -0.66    4.29
 -12  -6   9    0.71    4.05
 -12  -6   9   -2.12   11.41
  12   5  -9    1.65    2.04
  12   5  -9    3.89    4.02
 -12  -5   9   -5.77   11.03
 -12  -5   9    0.82    3.91
  12   4  -9   -4.77    4.31
  12   4  -9    0.46   10.15
  12   4  -9   -4.28    4.00
  12   4  -9    1.91    1.84
 -12  -4   9  -13.53   10.86
 -12  -4   9   -1.43    3.45
 -12  -4   9    1.41    1.94
 -12  -4   9    1.42    6.87
  12   3  -9    0.15    9.59
  12   3  -9    5.96    3.89
 -12  -3   9  -13.46   10.61
 -12  -3   9   -3.81    7.38
 -12  -3   9    2.06    2.04
 -12  -3   9    4.91    3.26
 -12  -2  -9   13.89    8.07
  12   2  -9    0.16    9.35
  12   2  -9    3.56    3.29
 -12  -2   9   -5.06   11.00
 -12  -2   9    1.24    3.12
 -12  -2   9    0.46    8.39
  12   2   9    4.84    5.52
 -12  -2   9   -1.76    2.12
  12   1  -9    0.18   15.07
  12   1  -9   32.45    8.77
 -12  -1  -9   62.01   12.37
 -12  -1   9   42.96   13.56
 -12  -1   9   34.04    8.48
  12   1   9   26.59    9.61
  12   0  -9    5.30    3.33
 -12   0  -9   -9.33    8.52
  12   0  -9    0.80   11.69
  12   0   9   -0.24    4.53
 -12   0   9   -1.17    2.18
  12  -1  -9   33.21    8.93
 -12   1  -9   40.31    8.58
 -12   1  -9   51.65   13.44
  12  -1   9   35.25    9.54
  12  -1   9   13.03   18.52
 -12   1   9   21.69    8.81
 -12   2  -9    2.16    2.64
 -12   2  -9    7.35   10.12
  12  -2  -9    3.77    3.44
  12  -2   9    0.60    4.25
  12  -2   9    4.47   13.86
 -12   3  -9   -1.28   11.15
  12  -3   9    7.04    4.34
 -12   4  -9   -0.22    2.43
 -12   4  -9   14.42   11.86
  12  -4   9    5.15    4.03
  12  -5   9   -0.18    3.70
 -12   7  -9   -2.19    3.29
 -13  -4  -9  -21.14    9.16
 -13  -4   9   -0.32    2.25
  13   4   9  -12.21   14.11
  13   3  -9   -1.50   10.76
  13   3  -9    9.75    4.63
 -13  -3  -9   -2.39    8.79
 -13  -3   9    3.14    2.20
  13   3   9    0.26   15.16
  13   3   9    0.35    6.45
 -13  -3   9   -4.30    8.33
  13   2  -9    7.28    4.48
  13   2  -9    0.34   10.77
  13   2   9   20.30    6.19
  13   2   9    5.82   16.18
 -13  -2   9    5.01    2.78
 -13  -2   9    0.26    9.40
  13   1  -9    4.20    3.76
  13   1  -9   -1.38   11.51
  13   1   9    7.29   16.38
 -13  -1   9   16.45   10.22
 -13  -1   9   -0.20    2.38
  13   0  -9   24.49    5.66
  13   0  -9    6.47   13.12
 -13   0   9   11.43   12.75
 -13   0   9   17.33    4.96
  13   0   9    7.94   17.14
 -13   1  -9   -1.48    2.78
  13  -1  -9   -3.80    3.77
  13  -1  -9    2.81   12.03
 -13   1   9   -0.23    2.49
  13  -1   9    0.25   15.63
  13  -2  -9   11.99    4.26
 -13   2  -9    5.07    3.47
  13  -2   9  -31.18   16.12
 -13   3  -9    2.97    2.97
  13  -3   9  -26.89   15.74
  13  -4   9   34.28    8.17
 -13   5  -9    0.52    3.01
 -13   5  -9    2.80   14.12
  13  -5   9  -28.70   16.47
  13  -5   9    0.20    4.10
 -13   6  -9    7.47   15.15
 -13   6  -9   -0.84    3.16
  13  -6   9  -28.99   15.66
  13  -6   9    5.11    4.10
 -13   7  -9   -1.19    3.06
  13  -7   9    3.33    3.98
  13  -8   9    1.20    4.26
 -14  -4  -9  -15.05   10.27
 -14  -3  -9   -8.25   10.41
  14   3  -9   -2.30    5.08
  14   3   9    0.29   17.37
 -14  -3   9    3.99    9.43
  14   3   9    9.58    6.98
  14   2  -9    2.33    4.70
 -14  -2  -9  -22.27   10.07
 -14  -2   9    8.24   10.32
  14   2   9    0.29   17.11
  14   2   9   -0.34    6.83
  14   1  -9   -0.20    4.48
 -14  -1  -9   17.18   10.02
  14   1   9    0.32    6.70
  14   1   9    0.30   18.23
 -14  -1   9   24.69   11.49
 -14   0  -9   -2.06    3.43
 -14   0  -9   -5.98   10.82
  14   0   9   -0.30    6.76
  14   0   9  -48.04   19.39
 -14   1  -9    4.22   11.20
 -14   1  -9   -0.71    3.68
  14  -1   9   -1.43    6.54
 -14   2  -9   -4.20    3.54
 -14   2  -9   13.47   12.89
  14  -2   9   30.82   17.75
  14  -2   9    7.04    6.07
 -14   3  -9  -38.16   14.61
 -14   3  -9   -4.11    3.43
  14  -3   9   -2.75    5.39
  14  -3   9  -46.73   16.57
 -14   4  -9    4.59    3.70
 -14   4  -9    6.70   14.65
  14  -4   9    0.23    4.88
  14  -4   9   -3.43   15.41
 -14   5  -9    1.44    3.52
 -14   5  -9   32.00   15.46
  14  -5   9  -10.25   17.03
  14  -5   9    0.45    4.49
 -14   6  -9   -1.23    3.41
 -14   6  -9    6.33   15.98
  14  -6   9    4.56   16.51
  14  -6   9    3.30    4.48
 -14   7  -9    7.48    3.76
 -14   7  -9   -0.46   16.80
  14  -7   9    0.44    4.73
 -15  -4  -9   24.73   11.43
  15   4   9  -13.78    8.12
  15   3  -9   24.07    6.62
 -15  -3  -9    5.81   12.21
  15   3   9   31.59   20.54
  15   3   9   -8.40    9.04
 -15  -3   9   52.95   11.04
 -15  -2  -9   20.33   11.19
  15   2  -9    0.21   12.73
  15   2  -9    5.98    5.20
  15   2   9    0.38    7.35
 -15  -2   9   15.13   10.67
  15   2   9   10.65   20.04
 -15  -2   9   -1.56    3.02
  15   1  -9   18.75   13.45
 -15  -1  -9  -10.43   11.13
  15   1  -9    7.22    5.17
  15   1   9  -33.94   20.49
  15   1   9   -1.79    7.21
 -15  -1   9    4.48   12.23
 -15  -1   9   -2.85    2.92
 -15   0  -9    4.49   11.68
 -15   0  -9   -3.57    3.56
  15   0  -9   -9.46    5.08
  15   0  -9  -24.36   13.68
 -15   0   9    0.26    3.08
  15   0   9   17.03   20.50
  15   0   9   -2.00    6.87
 -15   0   9    0.38   13.97
  15  -1  -9    3.58    4.72
  15  -1  -9    3.98   13.68
 -15   1  -9    0.40   12.90
 -15   1  -9    4.85    3.75
  15  -1   9   27.45   19.59
  15  -1   9   -7.58    6.85
 -15   1   9    0.82    3.01
 -15   1   9   -3.34   15.11
 -15   2  -9   14.64   14.44
  15  -2  -9    6.26    5.05
 -15   2  -9    1.11    3.91
  15  -2   9  -10.55   17.95
  15  -2   9    2.13    6.24
 -15   3  -9   -0.29    3.52
 -15   3  -9   -5.29   14.88
  15  -3   9   19.73   18.22
  15  -3   9    3.81    5.78
 -15   4  -9    0.92    3.62
 -15   4  -9   -2.31   15.53
  15  -4   9    8.39   17.54
  15  -4   9   -6.53    5.41
 -15   5  -9  -10.52   16.89
 -15   5  -9    1.28    4.00
  15  -5   9   16.16   18.24
  15  -5   9   12.64    5.58
 -15   6  -9   31.02   19.61
  15  -6   9   51.94   20.45
 -15   7  -9  -49.93   18.48
 -15   7  -9   -2.49    4.16
  15  -7   9    0.23    4.83
 -16  -4  -9   10.53   12.47
 -16  -3  -9  -26.35   13.55
  16   3   9  -16.05   22.09
 -16  -3   9   -6.77    3.38
  16   3   9    0.46    8.69
  16   2  -9   -0.82    7.25
 -16  -2  -9   21.56   13.70
 -16  -2   9   19.78    5.55
  16   2   9   58.36   24.11
  16   2   9   -5.02    9.08
 -16  -2   9   65.34   15.07
  16   1  -9   -8.15    5.68
 -16  -1  -9   -3.05    3.71
 -16  -1  -9  -12.18   12.93
 -16  -1   9  -10.18    3.67
 -16  -1   9   -6.80   14.92
  16   1   9   -0.40    7.75
 -16   0  -9  -22.52   13.95
 -16   0  -9   -0.29    3.57
  16   0  -9   -7.20    5.75
 -16   0   9   -3.09    3.58
  16   0   9  -15.85    8.18
 -16   0   9   12.82   15.93
 -16   1  -9    5.11    4.33
 -16   1  -9  -27.47   15.11
  16  -1  -9   -8.06    5.37
 -16   1   9   10.40   16.75
 -16   1   9   -5.94    3.76
  16  -1   9  -26.81    7.42
 -16   2  -9   43.76   17.57
  16  -2   9   44.54   10.67
 -16   2   9   -4.90   20.17
 -16   3  -9  -55.23   16.48
 -16   3  -9   -1.94    4.21
  16  -3   9   -1.59    6.67
  16  -3   9  -29.88   20.75
 -16   4  -9   -6.80    3.99
 -16   4  -9    1.52   17.39
  16  -4   9    0.28    5.61
  16  -4   9   -6.38   19.38
 -16   5  -9   18.28   18.28
 -16   5  -9   -5.00    4.28
  16  -5   9   12.56    5.85
  16  -5   9  -11.46   19.88
 -16   6  -9   21.45   19.07
 -16   6  -9    0.75    4.58
  16  -6   9   17.90   19.72
  16  -6   9    6.36    5.93
 -16   7  -9   11.48   19.82
 -16   7  -9   -1.17    4.41
  16  -7   9   10.22    5.53
 -17  -4  -9   11.15   14.20
  17   4   9  -21.81    9.96
 -17  -3  -9   24.86   14.76
  17   3   9    1.52    9.73
  17   2  -9   -3.52    6.43
 -17  -2  -9   24.77   14.48
 -17  -2   9   -3.00    3.46
  17   2   9    7.04   24.40
 -17  -2   9    0.39   13.24
  17   2   9  -17.12    9.16
  17   1  -9    2.07    6.30
  17   1  -9  -24.46   16.20
 -17  -1  -9    2.17    3.86
 -17  -1  -9    0.95   14.41
 -17  -1   9   -3.73   15.47
  17   1   9  -17.53   23.85
  17   1   9   11.45    8.51
 -17  -1   9   -1.45    3.51
  17   0  -9   -0.56    6.17
 -17   0  -9   10.99   15.29
  17   0  -9    9.91   15.89
 -17   0  -9    3.91    4.74
  17   0   9    0.42    7.88
 -17   0   9    6.76   16.18
  17   0   9  -32.67   22.96
 -17   0   9    2.45    3.72
 -17   1  -9   -5.46   15.97
  17  -1  -9   -9.60    5.97
 -17   1  -9   -2.34    4.01
 -17   1   9    7.75    3.81
 -17   1   9  -15.71   17.73
  17  -1   9    0.37   22.54
  17  -1   9    0.40    8.12
 -17   2  -9   -6.59    4.48
 -17   2  -9   -7.84   17.45
  17  -2  -9   -8.36    6.60
  17  -2   9   -4.26   21.70
  17  -2   9    4.71    7.31
 -17   2   9    5.83   19.97
 -17   3  -9  -14.57   18.11
 -17   3  -9   -5.78    4.61
  17  -3   9  -16.35   20.53
  17  -3   9   11.41    7.00
 -17   4  -9   20.04   18.42
 -17   4  -9    0.76    4.85
  17  -4   9   -7.49    6.47
  17  -4   9   -6.80   21.42
 -17   5  -9  -10.86   20.59
 -17   5  -9   -0.40    4.79
  17  -5   9    2.79    6.15
  17  -5   9   36.40   22.47
 -17   6  -9   -1.75   20.86
 -17   6  -9    1.24    4.94
  17  -6   9   -0.30    6.34
  17  -6   9  -18.88   22.59
 -17   7  -9    1.72    4.86
 -17   7  -9  -76.04   22.54
 -18  -3  -9  173.98   41.88
 -18  -2  -9  -21.61    5.21
 -18  -2   9   -5.75    4.03
  18   1  -9   -3.45    7.33
 -18  -1  -9   -8.31    4.60
  18   1  -9  -13.23   17.89
 -18  -1  -9  -13.93   16.42
  18   1   9  -48.40   26.35
 -18  -1   9    7.72   15.79
 -18  -1   9    0.32    3.90
  18   1   9    0.97    9.10
  18   0  -9   -8.87   17.21
 -18   0  -9   -7.25    5.11
  18   0  -9   -1.60    6.66
 -18   0  -9   -9.13   16.65
 -18   0   9    0.67    3.80
 -18   0   9  -12.78   18.27
  18   0   9  -24.55    9.29
  18   0   9  -22.66   25.86
 -18   1  -9  -23.24   17.60
  18  -1  -9   -0.64    6.59
 -18   1  -9    2.99    5.38
  18  -1   9  -17.33    9.29
 -18   1   9   -5.27    4.06
  18  -1   9  -54.84   25.38
 -18   1   9    3.19   20.11
 -18   2  -9  -18.43   19.33
 -18   2  -9  -11.23    5.40
  18  -2  -9   -1.87    6.69
 -18   2   9   28.62   21.80
  18  -2   9  -17.65    8.92
 -18   3  -9   97.97   29.66
  18  -3   9   72.75   19.63
 -18   4  -9    0.42    5.20
 -18   4  -9  -10.36   21.29
  18  -4   9  -22.28    8.23
 -18   5  -9    5.74    5.52
 -18   5  -9   54.18   22.46
  18  -5   9   -8.76   24.79
  18  -5   9   -7.39    6.83
 -18   6  -9   -4.13    5.57
 -18   6  -9   15.83   22.73
  18  -6   9   -0.44   24.01
  18  -6   9    3.56    6.71
 -18   7  -9   -5.21    5.76
 -18   7  -9   22.61   23.32
  18  -7   9   16.90    7.21
 -19  -4  -9  -10.63   18.18
  19   4   9    9.03   11.89
  19   4   9  -31.71   26.17
 -19  -3  -9   21.61   19.46
  19   3   9    1.24   12.42
 -19  -2  -9  -37.04   19.86
 -19  -2  -9   -4.85    4.85
  19   2   9   -0.59   11.42
 -19  -1  -9   19.84   18.67
 -19  -1  -9   14.51    5.84
  19   1   9   -2.79   11.30
 -19  -1   9    4.21    4.36
 -19  -1   9  -16.86   18.41
  19   0  -9  -11.73   19.12
  19   0  -9   -3.33    7.59
 -19   0  -9   -0.60   19.81
 -19   0  -9    0.40    5.01
 -19   0   9   -8.07    4.48
  19   0   9   -0.51   10.08
 -19   0   9   -2.14   19.22
  19   0   9   -0.45   27.66
  19  -1  -9    0.35    7.18
 -19   1  -9  -19.11   20.13
 -19   1  -9    2.50    5.10
 -19   1   9    9.21   21.17
  19  -1   9   -0.49   10.07
  19  -1   9    0.44   26.51
 -19   1   9  -13.38    4.41
  19  -2  -9    5.24    7.17
 -19   2  -9    5.10   20.95
 -19   2  -9    9.17    5.58
  19  -2   9  -17.03    9.29
 -19   2   9    9.29   22.85
  19  -2   9    5.66   26.58
 -19   3  -9   -5.93    5.87
 -19   3  -9   30.40   21.87
  19  -3   9   -0.43    8.49
  19  -3   9   35.55   26.78
 -19   4  -9    8.01    5.76
 -19   4  -9  -17.43   22.33
  19  -4   9   37.13   28.20
  19  -4   9  -18.90    8.20
 -19   5  -9   46.33   24.38
  19  -5   9  -33.93   26.97
  19  -5   9    0.39    7.55
  20   0  -9   22.52    8.26
  20   0  -9   -8.26   20.40
 -20   0   9   -4.42    4.75
 -20   0   9   -7.56   21.26
  20  -1  -9    6.74    8.09
 -20   1   9    4.59    4.63
 -20   1   9   -2.50   22.50
  20  -2  -9    0.79    8.11
 -20   2   9  -10.70   24.54
   0   0  10  364.27  111.77
  -1   0 -10    0.55    1.95
   0   1 -10   -0.08    1.56
   0  -1  10    1.09    4.74
  -1   1 -10   23.62    5.96
  -1   1 -10   21.40    5.65
   1  -1  10   14.63    8.00
   1  -1  10   22.54    6.69
   2   1 -10   -0.09    1.57
   2   1 -10    5.21    1.96
  -1   2 -10    5.46    1.80
  -1   2 -10   -0.07    1.20
   1  -2  10    7.14    2.99
   1  -2  10    2.55    4.14
  -2   0 -10  158.26   38.44
  -2   1 -10    6.02    2.20
   1   2 -10    4.48    1.89
  -2   1 -10    8.41    2.01
   2  -1  10    5.79    4.72
   2  -1  10    4.48    3.62
  -2   2 -10   33.24   10.77
  -2   2 -10   38.92   11.56
   2   2 -10   51.77   10.70
  -2   2 -10   71.22   13.03
   2  -2  10   50.28   13.40
   2  -2  10   42.70   13.45
   2  -2  10   34.65   11.39
  -2  -2  10   34.10   13.83
  -2   3 -10   24.81    5.97
  -2   3 -10   36.51    7.27
   3   2 -10   19.16    6.32
  -2   3 -10   26.79    6.82
  -2   3 -10   28.15    6.27
   3   2 -10   24.15    6.84
  -3  -2  10   24.15    9.32
   2  -3  10   31.99    8.27
   2  -3  10   24.27    8.53
   2  -3  10   18.90    6.35
  -1   3 -10    9.21    1.92
  -1   3 -10    9.24    2.66
   3   1 -10   -0.12    2.75
   3   1 -10    6.56    2.91
   1  -3  10    8.47    2.15
  -3  -1  10    3.87    6.02
   1  -3  10    9.00    3.82
   3   0 -10   -0.11    2.00
   0   3 -10   -0.61    1.02
   3   0 -10   -0.47    2.39
  -3   0 -10    1.48    2.00
  -3   0  10    1.65    5.92
   3   0  10   -0.19    3.29
  -3   1 -10    8.32    2.75
  -3   1 -10    9.82    3.59
   1   3 -10    8.02    2.71
  -3   1 -10   11.69    2.52
   1   3 -10    5.94    2.23
   3  -1  10    9.02    5.01
   3  -1  10    5.48    4.90
   3  -1  10    7.17    2.78
  -1  -3  10    8.02    4.90
   2   3 -10   19.98    6.11
   2   3 -10   25.73    6.66
  -3   2 -10   34.00    7.40
  -3   2 -10   24.20    6.86
  -3   2 -10   28.13    6.26
   3  -2  10   23.02    8.80
   3  -2  10   21.02    8.43
   3  -2  10   27.84    6.43
  -2  -3  10   21.37    8.71
  -3   3 -10    2.19    1.46
  -3   3 -10    0.94    0.67
   3   3 -10    1.65    2.15
   3   3 -10   -0.41    1.70
  -3   3 -10   -0.91    2.39
  -3   3 -10    1.36    0.80
   3   3 -10    0.30    0.70
  -3  -3  10    0.67    1.07
  -3  -3  10    0.65    0.39
   3  -3  10   -4.88    3.50
   3  -3  10    0.30    1.13
  -3  -3  10    2.31    4.73
   3  -3  10    1.34    1.09
   3  -3  10    0.90    4.26
   4   3 -10    0.16    1.31
   4   3 -10   -0.18    1.06
  -3   4 -10    0.63    0.80
   4   3 -10   -0.93    3.39
  -3   4 -10    0.74    1.55
   4   3 -10   -0.36    1.95
   3  -4  10  -12.77    5.20
  -4  -3  10    2.40    1.99
  -4  -3  10    0.70    5.24
  -4  -3  10   -0.11    0.61
   3  -4  10   -2.96    1.21
   4   2 -10    9.02    3.03
   4   2 -10    8.37    2.33
   4   2 -10   11.19    2.63
  -2   4 -10    5.72    2.17
   2  -4  10   11.61    2.46
  -4  -2  10    6.66    6.07
  -1   4 -10   13.63    3.14
   4   1 -10   12.25    3.94
   4   1 -10    7.15    3.20
   4   1 -10    8.85    3.59
  -4  -1  10   13.90    7.26
   1  -4  10   14.02    3.28
   1  -4  10   16.11    3.49
   0   4 -10    0.61    0.93
   0   4 -10   -0.58    1.64
  -4   0 -10    0.78    1.84
   4   0 -10   -0.79    2.34
   4   0 -10   -0.45    2.16
   0  -4  10    0.08    1.33
  -4   0  10   -1.31    6.25
   1   4 -10   18.68    4.16
  -4   1 -10   13.58    3.98
   1   4 -10   12.41    3.71
  -4   1 -10   18.36    5.03
   4  -1  10   21.44    5.83
  -1  -4  10   17.77    3.98
   4  -1  10    8.39    4.23
  -4   2 -10    9.37    2.83
  -4   2 -10    8.64    2.28
  -4   2 -10    9.37    3.48
   2   4 -10   10.39    2.90
   2   4 -10    8.42    2.31
  -2  -4  10    4.40    2.63
   4  -2  10   10.54    4.68
   4  -2  10    8.19    2.64
   3   4 -10    1.02    1.89
  -4   3 -10    0.27    1.55
  -4   3 -10   -0.04    0.76
  -4   3 -10    1.10    0.79
  -4   3 -10    2.89    3.01
   3   4 -10    0.54    2.10
   4  -3  10   -0.66    1.38
   4  -3  10   18.72    5.19
  -3  -4  10    1.16    5.02
   4  -3  10   -2.96    3.53
   4  -3  10    1.19    1.09
  -4   4 -10   37.82    7.71
  -4   4 -10   18.96    7.07
   4   4 -10   29.10    6.90
   4   4 -10   25.21    7.54
   4   4 -10   22.06    9.04
  -4  -4  10   32.28    7.42
   4  -4  10   35.94    7.35
  -4  -4  10   42.15   10.16
   4  -4  10   26.10    7.67
   5   4 -10   47.23    7.78
   5   4 -10   46.39    8.94
   5   4 -10    8.40   11.68
   5   4 -10   30.24    8.90
  -5  -4  10   15.26   12.73
  -5  -4  10   20.49   10.20
  -3   5 -10   14.37    2.75
   5   3 -10    7.40    2.90
   5   3 -10    9.03    2.96
   5   3 -10   10.03    3.51
   5   3 -10    1.36    5.63
  -5  -3  10    8.29    6.77
  -5  -3  10    9.75    2.66
  -5  -3  10   11.94    3.87
   3  -5  10   11.57    2.98
   3  -5  10   16.49    3.28
  -2   5 -10   45.86   10.52
   5   2 -10   40.27    9.86
   5   2 -10   49.34    9.77
   5   2 -10   35.13   14.89
  -2   5 -10   47.60    9.82
   5   2 -10   33.66   10.59
  -5  -2  10   39.95    9.78
   2  -5  10   48.12   10.55
  -5  -2  10   28.23   13.58
   2  -5  10   47.12   10.32
  -5  -2  10   30.54   11.39
  -1   5 -10    2.14    1.07
  -1   5 -10    1.88    1.90
   5   1 -10    3.91    2.34
   5   1 -10    1.01    1.99
   5   1 -10    0.77    1.20
  -5  -1  10    2.01    6.61
   1  -5  10    2.46    1.61
   5   1  10   -1.37    4.57
   5   0 -10   -0.60    2.41
   0   5 -10   -0.08    1.89
   5   0 -10    0.48    2.41
  -5   0 -10   -1.47    3.64
  -5   0 -10   -0.96    1.85
   0   5 -10   -0.26    0.94
  -5   0  10   -1.08    6.77
   5   0  10   -3.01    2.66
   0  -5  10   -0.90    1.60
   5   0  10   -3.40    5.32
   1   5 -10    2.47    1.98
  -5   1 -10    2.05    1.19
   1   5 -10    0.95    1.13
   5  -1  10    1.97    5.82
  -1  -5  10    3.34    1.74
  -5   2 -10   31.84    9.27
   2   5 -10   32.25    9.62
   2   5 -10   39.63    8.84
  -5   2 -10   40.56   10.26
   5  -2  10   41.48   12.04
  -2  -5  10   40.74    9.57
   5  -2  10   37.09    9.84
   5  -2  10   29.57   13.07
   3   5 -10    9.93    3.93
  -5   3 -10    8.88    3.00
  -5   3 -10   11.90    2.47
  -5   3 -10   10.64    2.47
   3   5 -10    7.95    3.14
   5  -3  10    4.21    4.68
   5  -3  10    8.56    2.83
  -5   4 -10   39.12   10.34
   4   5 -10   53.92    9.93
  -5   4 -10   44.93    9.94
   4   5 -10   44.88   10.75
   4   5 -10   25.39   12.70
  -5   4 -10   46.33   11.21
   5  -4  10   47.90   10.63
   5  -4  10   30.84   11.27
  -4  -5  10   50.87   10.68
   5   5 -10    0.69    4.08
   5   5 -10    1.44    1.35
  -5   5 -10    0.11    1.24
   5   5 -10    1.33    2.31
  -5   5 -10    0.07    1.87
  -5  -5  10    0.51    2.09
   5  -5  10   -4.20    1.73
   5  -5  10   -4.81    6.96
   6   5 -10   12.24    3.09
   6   5 -10   20.84    6.10
   6   5 -10    6.72    3.82
   5  -6  10   12.81    3.42
  -6  -5  10    8.07    3.74
  -4   6 -10    4.22    2.59
   6   4 -10    6.65    5.47
   6   4 -10    6.65    2.91
   6   4 -10    3.42    2.45
   6   4 -10    4.75    1.94
  -6  -4  10    7.84    3.31
  -6  -4  10    6.28    1.56
  -6  -4  10    4.82    2.63
  -6  -4  10    4.13    6.78
   6   3 -10  161.10   37.05
   6   3 -10  121.39   46.05
   6   3 -10  152.27   34.04
  -3   6 -10  127.76   37.22
   6   3 -10  155.60   35.57
  -6  -3  10  147.64   43.90
  -6  -3  10  140.35   34.77
  -6  -3  10  160.16   39.52
  -2   6 -10   13.38    4.46
   6   2 -10   16.70    4.03
   6   2 -10   19.29    4.20
   6   2 -10    9.99    4.74
   6   2 -10   17.18    8.30
  -2   6 -10   17.34    4.02
  -6  -2  10   10.27    3.94
  -6  -2  10   10.78    9.06
  -6  -2  10   21.26    5.97
   2  -6  10   20.93    4.65
  -6  -1 -10   44.62   16.03
  -1   6 -10   53.39   12.97
   6   1 -10   55.49   12.38
  -1   6 -10   57.71   12.34
   6   1 -10   52.08   12.45
   6   1 -10   53.34   13.59
   6   1  10   41.40   13.68
   6   1  10   49.79   15.71
   1  -6  10   54.09   13.30
  -6  -1  10   46.78   17.34
   6   0 -10    8.98    3.60
   0   6 -10   12.62    2.56
  -6   0 -10    8.17    3.07
  -6   0 -10    8.99    4.77
   6   0 -10   11.19    3.48
   0   6 -10    9.40    3.16
   0  -6  10    9.94    3.10
  -6   0  10    5.22    8.23
   6   0  10    8.85    3.60
   6   0  10   -6.16    7.39
   6  -1 -10   48.73   11.86
   1   6 -10   47.00   11.92
  -6   1 -10   42.33   11.72
   1   6 -10   47.45   11.19
  -6   1 -10   52.40   13.41
   6  -1  10   47.12   11.69
   6  -1  10   25.12   16.72
  -1  -6  10   51.79   12.11
  -6   2 -10    8.64    6.14
   2   6 -10   24.11    4.14
   2   6 -10   20.57    4.71
  -6   2 -10   16.81    4.09
   6  -2  10   11.91    4.63
   6  -2  10   13.56    4.42
  -2  -6  10   16.00    4.63
  -6   3 -10  159.29   37.27
   3   6 -10  134.89   34.45
  -6   3 -10  130.88   39.40
  -6   3 -10  141.20   34.12
   6  -3  10  156.73   34.06
   6  -3  10  133.17   40.54
   6  -3  10  132.73   37.17
   6  -3  10  122.84   42.34
  -6   4 -10    4.00    5.71
   4   6 -10    5.74    2.83
  -6   4 -10    6.66    1.89
   4   6 -10    4.22    1.95
  -6   4 -10    6.57    2.28
   6  -4  10    5.57    6.89
   6  -4  10    3.68    2.49
   6  -4  10   10.04    3.93
  -4  -6  10    6.43    2.66
   5   6 -10   10.73    2.85
  -6   5 -10    6.81    2.88
   5   6 -10    8.72    3.73
  -6   5 -10   11.67    3.49
  -5  -6  10   11.24    3.78
   6  -5  10    9.86    8.37
   6  -5  10   12.60    3.32
   6   6 -10   -0.67    1.57
   6   6 -10    0.58    2.68
  -6  -6  10   -0.16    2.62
   6  -6  10   -0.36    2.00
   7   6 -10    0.91    1.62
  -6   7 -10   -1.41    2.27
   7   6 -10    3.24    2.95
  -7  -6  10    0.17    2.92
   6  -7  10    1.29    1.97
   7   5 -10    3.04    2.99
   7   5 -10    4.37    1.95
  -5   7 -10    3.64    2.65
  -7  -5  10   12.16    7.71
   5  -7  10    6.78    2.25
  -7  -5  10    5.12    2.89
   7   4 -10   49.03   16.25
  -4   7 -10   54.76   16.04
   7   4 -10   66.53   14.48
  -7  -4  10   62.77   20.37
  -7  -4  10   71.87   15.74
  -3   7 -10    1.03    2.13
   7   3 -10    0.66    2.49
   7   3 -10    1.44    1.69
  -7  -3  10   -1.69    7.23
   7   2 -10  113.26   24.39
  -2   7 -10   92.49   26.25
   7   2 -10  115.73   27.35
  -7  -2  10   99.42   33.67
   7   2  10   85.56   30.52
  -7  -2  10  101.92   25.25
   7   1 -10   34.97   12.20
  -7  -1 -10   22.82    9.45
   7   1 -10   28.00    7.03
   7   1 -10   22.16    7.89
  -1   7 -10   30.98    7.37
   7   1  10   37.86   10.79
  -7  -1  10   20.96    6.95
  -7  -1  10   21.00   11.83
   7   1  10   33.21    8.00
   7   0 -10   -1.29    2.75
  -7   0 -10   -0.59    4.15
   7   0 -10    0.41    1.55
   7   0 -10    1.32    2.77
   0   7 -10    1.14    2.34
   7   0  10    0.92    2.94
   0  -7  10   -0.15    2.21
   7   0  10    3.75    7.67
  -7   0  10    0.69    7.85
   1   7 -10   30.17    7.69
   7  -1 -10   18.27    7.78
  -7   1 -10   25.94    8.89
   1   7 -10   38.98    7.22
  -1  -7  10   27.45    7.88
   7  -1  10   34.87   11.97
   7  -1  10   29.82    7.56
   2   7 -10   95.80   27.38
  -7   2 -10  115.23   30.45
   2   7 -10  113.08   26.37
  -2  -7  10  112.37   28.21
   7  -2  10  117.68   34.26
   7  -2  10  114.23   26.76
  -7   3 -10   -0.11    1.27
   3   7 -10   -0.10    1.45
  -7   3 -10   -0.62    5.15
   3   7 -10   -0.11    2.49
   7  -3  10   -0.49    7.60
  -3  -7  10    0.32    2.40
   7  -3  10   -0.62    2.24
   4   7 -10   51.06   16.12
  -7   4 -10   67.26   15.21
   4   7 -10   72.20   15.36
  -7   4 -10   68.71   20.09
   7  -4  10   58.96   20.59
   7  -4  10   76.93   16.20
   5   7 -10    2.31    3.03
  -7   5 -10    3.09    2.05
   5   7 -10   11.79    2.22
  -5  -7  10    6.24    3.34
   7  -5  10    3.96    2.64
   7  -5  10    5.27    8.75
  -7   6 -10   -0.32    1.62
   6   7 -10    0.46    1.83
   6   7 -10   -0.63    2.93
   7  -6  10    5.03    2.35
  -6  -7  10   -1.28    3.00
   7   7 -10    2.16    3.45
   7   7 -10    4.56    2.10
  -7  -7  10    4.07    3.33
   7  -7  10    3.96    2.38
   8   7 -10    3.91    3.63
   8   7 -10    3.76    2.11
  -8  -7  10    0.21    3.45
   8   6 -10    0.74    1.62
   8   6 -10    1.84    3.11
  -8  -6  10   -1.43    3.13
   8   5 -10    1.01    3.04
   8   5 -10    1.56    1.70
  -8  -5  10   -0.40    4.32
  -8  -5  10    0.63    2.83
  -8  -5  10    4.36    8.28
   8   4 -10   15.98    4.70
   8   4 -10   12.89    4.31
   8   4 -10    6.07    7.62
   8   4 -10   16.47    3.59
  -8  -4  10   15.27    4.33
  -8  -4  10   14.77    5.49
  -8  -4  10    9.29    3.34
  -8  -4  10   15.56    8.98
   8   3 -10    6.90    3.05
   8   3 -10   12.52    3.76
   8   3 -10   10.91    2.75
   8   3 -10    9.15    6.85
  -8  -3  10    6.74    4.90
  -8  -3  10    6.91    3.36
  -8  -3  10    9.96    8.45
  -8  -3  10    7.11    2.40
   8   2 -10    8.93    3.98
   8   2 -10    9.81    7.64
  -8  -2 -10    5.21    6.34
   8   2 -10   12.78    3.25
   8   2 -10    8.78    3.22
   8   2  10    8.34    7.92
  -8  -2  10    7.17    8.89
  -8  -2  10   15.64    5.96
   8   2  10   21.39    5.22
  -8  -2  10   10.80    3.00
  -8  -1 -10   10.54    5.76
   8   1 -10    8.97    3.81
   8   1 -10   -2.44    8.22
   8   1 -10   11.89    3.09
   8   1 -10   13.12    3.21
  -8  -1  10    5.21    9.17
   8   1  10   13.62    4.39
   8   1  10   12.74    8.60
  -8  -1  10    6.95    2.76
   8   0 -10   10.89    4.34
  -8   0 -10   11.85    5.69
   8   0 -10   11.98    3.82
   8   0 -10   12.23    3.47
  -8   0  10   12.11    9.55
   8   0  10   20.30    9.59
   8   0  10    6.93    4.18
  -8   1 -10    4.08    5.33
   8  -1 -10    3.66    3.90
   8  -1 -10   12.22    2.91
   8  -1  10   10.70    9.44
   8  -1  10    6.37    3.56
   2   8 -10   11.37    4.15
  -8   2 -10    9.76    3.32
  -8   2 -10   11.92    6.10
   8  -2  10   17.19    4.11
   8  -2  10   23.09   10.33
  -8   3 -10    9.32    2.84
  -8   3 -10    7.86    6.76
   3   8 -10   11.47    3.78
  -3  -8  10    6.51    3.97
   8  -3  10   10.92    3.46
   8  -3  10   22.01    9.34
  -8   4 -10   14.51    3.84
  -8   4 -10   11.03    8.50
   4   8 -10   15.28    4.67
   8  -4  10   13.11    9.62
   8  -4  10   17.05    4.43
   5   8 -10   -0.81    3.17
   5   8 -10    1.03    1.99
  -8   5 -10    2.17    1.81
   8  -5  10   -0.24    2.39
   8  -5  10    1.32    9.31
  -5  -8  10    1.23    3.28
   6   8 -10   -1.25    3.36
  -8   6 -10   -0.18    1.87
   6   8 -10   -2.42    2.13
  -6  -8  10    0.22    3.29
   8  -6  10   -0.91    9.60
   8  -6  10    0.36    2.61
   7   8 -10   -0.58    3.39
   7   8 -10    0.70    2.24
   8  -7  10    1.06    2.43
  -7  -8  10    3.19    3.92
   8   8 -10   29.97    5.12
   8   8 -10    8.78    6.23
  -8  -8  10    8.93    6.74
   9   8 -10   -0.32    4.00
   9   8 -10    0.76    2.38
  -9  -8  10    0.26    4.12
   9   7 -10    5.37    3.15
   9   7 -10   14.73    4.50
  -9  -7  10   13.87    4.76
   9   6 -10   16.50    5.33
   9   6 -10   15.05    4.10
  -9  -6  10   12.77    5.28
  -9  -6  10   24.00   10.64
   9   5 -10    5.38    2.38
   9   5 -10    7.37    3.82
  -9  -5  10    6.87    3.64
  -9  -5  10   15.72    9.29
   9   4 -10   -0.26    3.17
   9   4 -10    2.40    1.83
   9   4 -10   -0.53    7.35
   9   4 -10   -1.57    3.19
  -9  -4  10    1.84    2.86
  -9  -4  10   -0.90    8.72
  -9  -4  10    6.83    4.83
  -9  -4  10    1.12    1.32
   9   3 -10    9.19    3.23
   9   3 -10    1.80    7.82
   9   3 -10   14.40    3.90
   9   3 -10    9.77    4.38
  -9  -3  10   13.96    3.09
  -9  -3  10    7.48    5.94
  -9  -3  10   17.98    9.74
  -9  -3  10   11.32    3.98
   9   2 -10    3.88    3.24
   9   2 -10    5.52    2.30
   9   2 -10    1.58    7.53
  -9  -2 -10   13.29    6.42
   9   2 -10    5.91    2.60
  -9  -2  10    6.69    9.26
   9   2  10   11.17    4.65
   9   2  10   -1.76    8.44
  -9  -2  10    4.04    5.87
  -9  -2  10    3.34    1.96
   9   1 -10    5.37    8.61
   9   1 -10    0.10    2.22
   9   1 -10    1.88    3.21
   9   1 -10    0.26    2.19
  -9  -1 -10    5.43    5.48
  -9  -1  10    3.75    9.19
   9   1  10    2.94    4.11
   9   1  10   -0.33    9.55
  -9  -1  10    1.62    1.61
  -9   0 -10   -5.93    5.31
   9   0 -10    0.22    2.22
   9   0 -10    2.06    3.31
   9   0 -10    3.91    2.72
  -9   0  10   -4.86    9.22
   9   0  10   -2.23   10.07
  -9   0  10    1.34    1.64
   9   0  10    1.10    3.60
  -9   1 -10   -0.54    5.58
   9  -1 -10   -0.39    3.33
   9  -1 -10    2.67    2.28
   9  -1  10    0.16    3.36
   9  -1  10   -2.71   10.51
  -9   2 -10    1.16    6.47
  -9   2 -10    7.85    2.36
   9  -2  10    4.99    3.51
   9  -2  10   23.51   10.73
  -9   3 -10   12.30    8.00
  -9   3 -10   15.48    3.73
   9  -3  10   14.47    4.48
   9  -3  10    8.30   10.54
  -9   4 -10    2.85    8.50
  -9   4 -10    0.31    1.76
   9  -4  10   -0.14    2.89
   9  -4  10    4.38    9.98
  -9   5 -10    6.20    2.50
   9  -5  10    3.79    3.24
   9  -5  10    5.78   10.71
  -9   6 -10   14.12    3.81
   9  -6  10   12.99    4.30
   9  -6  10   -0.20   11.49
   7   9 -10    9.64    4.36
   9  -7  10    3.58    3.24
   8   9 -10    0.17    3.85
   9  -8  10    2.56    2.92
   9   9 -10    6.16    4.43
  10   8 -10    7.27    3.00
  10   8 -10    5.63    4.59
 -10  -8  10   11.47    4.92
  10   7 -10   12.04    4.45
  10   7 -10    7.38    2.82
 -10  -7  10    5.41    4.64
  10   6 -10   -2.11    3.88
  10   6 -10    0.93    2.10
 -10  -6  10   -3.11    3.81
 -10  -6  10   -4.16   10.29
  10   5 -10   12.68    4.54
  10   5 -10   12.12    2.99
 -10  -5  10    3.11    4.41
 -10  -5  10    4.22   10.45
  10   4 -10    5.17    3.99
  10   4 -10    8.22    2.63
 -10  -4  10    8.00    2.41
 -10  -4  10    4.26   10.11
 -10  -4  10   10.38    3.80
 -10  -4  10   14.56    5.90
 -10  -3 -10    3.67    7.12
 -10  -3  10    4.29    3.55
 -10  -3  10    4.57    2.30
 -10  -3  10   16.39    6.77
  10   2 -10    0.13    8.22
 -10  -2 -10    2.54    6.67
  10   2 -10   -1.34    3.16
  10   2 -10   -0.67    2.01
  10   2 -10    0.12    2.64
  10   2  10    2.39    4.58
 -10  -2  10    0.35    6.52
 -10  -2  10   -0.27    1.66
  10   2  10   -5.88   10.38
 -10  -2  10   -0.88    9.78
  10   1 -10    2.01    2.45
  10   1 -10    0.64    9.29
 -10  -1 -10   -0.88    6.19
  10   1 -10   -0.72    2.67
  10   1 -10    0.72    3.12
 -10  -1  10   -4.91   10.12
  10   1  10    5.30    4.34
  10   1  10   17.19   10.85
 -10  -1  10   -3.27    7.84
 -10  -1  10   -1.21    1.76
  10   0 -10   10.49    3.94
 -10   0 -10   11.97    6.75
  10   0 -10   14.23    4.51
  10   0 -10   13.41    3.74
  10   0 -10   -0.54    9.95
 -10   0  10   11.05   10.38
  10   0  10    7.73    4.85
  10   0  10   10.48   12.74
 -10   0  10   11.67    3.38
 -10   1 -10   -4.16    6.44
  10  -1 -10   -0.79    2.75
  10  -1 -10    1.67    3.29
  10  -1  10  -20.70   12.23
  10  -1  10   -1.86    3.64
 -10   2 -10    2.29    1.86
 -10   2 -10   -3.78    6.99
  10  -2  10    1.20    3.65
  10  -2  10  -10.35   11.53
 -10   3 -10   -1.61    2.26
 -10   3 -10   -1.22    8.75
  10  -3  10   -1.91    3.71
 -10   4 -10    7.28    9.48
 -10   4 -10    4.14    2.39
  10  -4  10   10.99    3.52
  10  -4  10  -28.86   11.19
 -10   5 -10    5.58   10.72
 -10   5 -10   10.73    3.47
  10  -5  10   14.60    4.13
  10  -5  10   -2.38   12.15
 -10   6 -10    0.64    2.55
  10  -6  10   -6.68   11.67
  10  -6  10    2.70    3.27
 -10   7 -10    1.84    2.58
  10  -7  10    4.31    3.36
  10  -8  10    2.85    3.24
  11   9 -10   39.28   11.11
  11   7 -10    1.15    2.41
  11   7 -10   -3.65    4.20
 -11  -7  10   -8.05   11.36
 -11  -7  10   -1.02    4.54
  11   6 -10    5.52    4.36
  11   6 -10    1.00    2.09
 -11  -6  10    1.98    4.06
 -11  -6  10   -0.18   11.12
  11   5 -10   -1.55    4.07
  11   5 -10    0.22    1.93
 -11  -5  10  -14.60   10.83
 -11  -5  10    0.20    3.47
  11   4 -10    2.66    3.93
  11   4 -10    0.21    1.93
 -11  -4  10    2.12    5.91
 -11  -4  10    1.60    1.74
 -11  -4  10   -4.62   10.90
 -11  -4  10    1.91    3.40
  11   3 -10   -4.22    8.59
 -11  -3 -10   -0.30    7.52
  11   3 -10    1.52    2.03
  11   3 -10    0.57    3.65
  11   3 -10    2.63    3.35
 -11  -3  10   14.73   10.79
  11   3  10    0.63    5.54
 -11  -3  10   -4.43    6.67
 -11  -3  10    0.40    1.76
 -11  -3  10    0.33    3.15
  11   3  10   -0.20   11.13
  11   2 -10   -1.57    2.06
  11   2 -10    1.18    8.84
  11   2 -10   -0.14    3.05
  11   2 -10   -0.14    3.41
 -11  -2 -10    2.96    7.59
 -11  -2  10    0.75    1.89
  11   2  10    1.67    5.43
 -11  -2  10    6.03    7.34
 -11  -2  10   -2.63   10.72
  11   2  10   19.09   12.04
  11   1 -10   15.20    5.27
  11   1 -10    7.46   11.95
  11   1 -10   21.35    5.63
 -11  -1 -10   31.54    8.75
  11   1 -10   14.60    6.45
  11   1  10   -0.43   14.43
 -11  -1  10   28.48    5.38
 -11  -1  10   12.29   12.34
  11   1  10   25.07    6.94
 -11  -1  10   28.34   10.21
  11   0 -10    1.16    9.96
 -11   0 -10   -6.20    7.16
  11   0 -10   -1.27    2.98
  11   0 -10    0.88    2.66
  11   0  10    0.22   13.81
 -11   0  10    0.92    2.00
  11   0  10    0.23    4.53
 -11   0  10    3.88   10.07
  11  -1 -10   14.46    5.87
  11  -1 -10   24.44    5.58
 -11   1 -10   15.72    9.27
  11  -1  10  -15.15   15.73
  11  -1  10   29.45    6.49
 -11   2 -10   11.99    8.45
 -11   2 -10    2.78    2.39
  11  -2 -10    1.70    3.07
  11  -2  10   -6.93    4.33
  11  -2  10  -20.76   13.84
 -11   3 -10   -3.33    9.66
 -11   3 -10   -1.27    2.07
  11  -3  10   -3.19    3.82
  11  -3  10   22.74   12.97
 -11   4 -10    6.46    2.80
 -11   4 -10    7.57   10.72
  11  -4  10    3.00    3.90
  11  -4  10    9.55   12.25
 -11   5 -10   -3.91   11.59
 -11   5 -10    1.06    2.36
  11  -5  10    2.37    3.56
  11  -5  10  -12.03   12.90
 -11   6 -10    2.10    2.65
  11  -6  10    1.40   13.04
  11  -6  10    1.30    3.56
 -11   7 -10    5.02    2.85
  11  -7  10    7.12    3.80
  12   9 -10   13.31    6.11
 -12  -8  10   -1.25    5.39
  12   7 -10    3.20    4.62
 -12  -7  10    4.81   12.25
  12   6 -10   -1.44    2.35
  12   6 -10    2.58    4.42
 -12  -6  10    0.94    4.50
 -12  -6  10   -9.43   12.36
  12   5 -10   -0.56    1.90
  12   5 -10    0.49    4.33
 -12  -5  10    4.36   11.86
 -12  -5  10   -1.45    3.89
  12   4 -10    4.66    4.27
  12   4 -10    3.79    2.23
 -12  -4  10    1.65    3.68
 -12  -4  10    8.55   11.60
  12   3 -10    0.45    3.77
  12   3 -10    2.26    3.80
  12   3 -10    1.91    9.45
  12   3 -10    1.76    2.16
 -12  -3  10   -2.29    7.17
 -12  -3  10    2.70   11.49
 -12  -3  10   -1.38    3.35
 -12  -3  10   -0.30    1.89
  12   2 -10    1.29    3.84
  12   2 -10    2.46    2.60
  12   2 -10   -1.45   10.35
  12   2 -10    7.88    4.38
 -12  -2  10   20.92   11.84
 -12  -2  10    5.61    3.81
 -12  -2  10    5.88    8.26
 -12  -2  10    7.17    2.66
 -12  -1 -10   -5.29    8.18
  12   1 -10    3.69    3.29
  12   1 -10    1.87   10.62
 -12  -1  10    1.45   10.80
 -12  -1  10    4.32    9.58
 -12  -1  10    2.03    2.36
  12   1  10   -6.75    5.29
  12   0 -10   -0.41   12.42
  12   0 -10   20.44    5.27
 -12   0 -10   24.97    9.36
 -12   0  10   23.70    4.84
  12   0  10    7.84    6.36
  12   0  10   -0.24   13.48
 -12   1 -10    3.80    8.75
  12  -1  10    7.25    5.15
 -12   2 -10   12.78   10.12
 -12   3 -10    6.58    2.72
 -12   3 -10   26.06   11.51
  12  -3  10    1.88    4.68
 -12   4 -10   -0.34   12.38
  12  -4  10   -0.19    4.03
 -12   7 -10   -0.82    2.78
  12  -8  10    1.67    3.86
  13   9 -10    0.40    5.43
 -13  -9  10  -20.05   13.92
 -13  -8  10   85.47   21.68
 -13  -3 -10   -1.39    8.97
  13   3  10    0.37    6.79
  13   3  10  -12.97   14.93
 -13  -3  10   -0.67    2.15
 -13  -3  10   10.34    8.33
  13   2 -10   -2.30   10.66
  13   2 -10   -1.43    3.78
 -13  -2 -10   -3.56    9.09
  13   2  10  -10.24    6.63
 -13  -2  10    2.27    9.37
  13   2  10   -0.79   15.63
 -13  -2  10   -0.74    2.35
  13   1 -10    6.85    4.16
  13   1 -10    0.20   11.64
  13   1  10  -17.90   16.37
  13   1  10   24.47    6.22
 -13  -1  10   -8.43   10.45
 -13  -1  10    7.49    2.85
  13   0 -10   -3.52   11.59
  13   0 -10    4.09    3.68
  13   0  10    2.37   16.42
 -13   0  10    2.87    2.63
 -13   0  10    7.90   12.03
  13  -1 -10    3.13    4.12
 -13   1 -10   -0.63    2.96
 -13   1  10    2.85    2.73
  13  -1  10   12.56   17.07
  13  -2 -10    3.03    3.89
 -13   2 -10   -0.45    2.67
  13  -2  10   16.91   17.62
 -13   4 -10   37.88   13.40
 -13   4 -10   -0.49    3.76
  13  -4  10   11.21    5.22
  13  -4  10   37.60   16.12
 -13   5 -10    0.26    3.20
 -13   5 -10   14.69   14.16
  13  -5  10    3.19   16.09
  13  -5  10    0.21    4.40
 -13   6 -10   -4.23    3.38
 -13   6 -10   16.93   14.49
  13  -6  10    0.20    4.26
  13  -6  10    0.56   15.27
 -13   7 -10   -0.90    3.38
  13  -7  10   -0.20    4.25
  13  -8  10   -7.93    4.22
 -14  -4 -10   13.30    9.63
  14   4  10  -10.01   15.87
 -14  -3 -10  -11.08   10.13
  14   3  10  -14.94    7.35
  14   3  10   14.24   17.04
  14   2 -10   -5.69    4.40
 -14  -2 -10   10.05   10.18
 -14  -2  10    3.92   10.27
  14   2  10    0.29   17.56
  14   2  10  -11.61    7.24
 -14  -1 -10   -3.33    9.87
  14   1 -10    7.07    4.62
  14   1  10   -4.29    6.38
  14   1  10   33.43   18.53
 -14  -1  10   -3.71   11.40
 -14   0 -10  -12.33   10.33
  14   0  10   -6.48   18.41
  14   0  10    2.82    6.53
 -14   1 -10    7.31   11.49
 -14   1 -10    1.19    3.45
  14  -1  10    4.34    6.34
  14  -1  10   -0.28   18.18
 -14   2 -10    0.25    3.61
 -14   2 -10    1.87   13.33
  14  -2  10   43.21   18.39
  14  -2  10    0.28    5.91
 -14   3 -10   16.11   14.02
 -14   3 -10    4.64    3.52
  14  -3  10    2.67   17.13
  14  -3  10  -16.08    5.42
 -14   4 -10    0.54    3.24
 -14   4 -10   -0.42   14.59
  14  -4  10    4.12    5.15
  14  -4  10  -19.38   15.97
 -14   5 -10   -1.45    3.31
 -14   5 -10  -15.23   15.31
  14  -5  10   25.25   17.04
  14  -5  10    0.24    4.72
 -14   6 -10    5.41   16.11
 -14   6 -10    4.35    3.48
  14  -6  10  -46.59   17.32
  14  -6  10    7.07    4.45
 -14   7 -10    3.27    3.79
 -14   7 -10   32.83   17.10
  14  -7  10    0.22    4.63
  14  -8  10    7.16    4.90
 -15  -4 -10    1.76   10.52
  15   4  10  -12.72   18.24
 -15  -3 -10   -7.60   11.09
  15   3  10  -21.23   18.86
  15   3  10    3.01    7.89
 -15  -2 -10   -6.82   11.64
  15   2  10   16.51   19.68
 -15  -2  10   56.17   11.15
 -15  -2  10   -0.67    3.07
  15   2  10    0.40    7.44
  15   1 -10   -9.45   13.22
  15   1 -10    7.97    4.74
 -15  -1 -10   -6.75   11.32
  15   1  10   -0.32   19.46
 -15  -1  10   -0.24    2.73
  15   1  10    4.39    6.52
 -15  -1  10   -6.44   12.44
  15   0 -10    6.12    4.77
  15   0 -10    6.53   13.34
 -15   0 -10   -1.79    3.92
 -15   0 -10   19.19   11.55
 -15   0  10  -12.42   14.23
  15   0  10    1.74    7.10
 -15   0  10    5.75    3.10
  15   0  10  -25.81   19.89
 -15   1 -10  -22.73   12.18
 -15   1 -10   -3.78    3.70
  15  -1 -10   -1.14    4.73
 -15   1  10    0.28    3.15
  15  -1  10  -19.05   19.21
 -15   1  10   -5.82   15.72
  15  -1  10   -2.87    6.60
 -15   2 -10   10.89   13.63
 -15   2 -10    5.28    3.62
  15  -2 -10    0.93    4.79
  15  -2  10   -6.40   19.29
  15  -2  10   -1.22    6.45
 -15   3 -10   -2.19   14.90
 -15   3 -10    2.61    3.76
  15  -3  10   -0.58   17.81
  15  -3  10    4.99    6.25
 -15   4 -10   -2.77    4.00
 -15   4 -10   12.85   16.33
  15  -4  10    9.40   17.09
  15  -4  10   -0.26    5.52
 -15   5 -10   -2.90    4.04
 -15   5 -10   -3.34   16.46
  15  -5  10  -23.67   18.97
  15  -5  10   -7.38    5.49
 -15   6 -10   33.42   17.81
 -15   6 -10    0.34    3.74
  15  -6  10   -4.00   18.46
  15  -6  10    0.49    5.39
 -15   7 -10   -2.51    4.06
 -15   7 -10   36.14   18.92
  15  -7  10    3.41    5.07
 -15   8 -10  -18.41   19.52
  15  -8  10  -15.44    5.64
 -16  -4 -10    7.76   12.76
  16   4  10   -8.28   20.71
 -16  -3 -10   -4.70   12.85
  16   3  10   11.30    8.81
  16   3  10  -34.74   21.74
 -16  -2 -10    2.70   12.86
  16   2  10   -0.44    8.44
  16   2  10  -58.78   22.50
  16   1  10   98.99   27.69
 -16  -1  10   50.66   20.74
  16   0 -10   49.38   12.42
 -16   0 -10   57.78   18.38
  16   0  10   59.00   13.86
 -16   0  10   21.33   19.38
 -16   1 -10   -0.30    4.63
  16  -1 -10    3.31    6.03
 -16   1 -10  -29.13   14.18
 -16   1  10   -0.30    4.36
 -16   1  10    2.70   17.92
  16  -1  10  109.52   23.73
  16  -1  10   27.55    8.67
  16  -2 -10    1.52    5.32
 -16   2 -10   -2.34   15.36
 -16   2 -10    3.11    3.82
  16  -2  10  -14.39    7.38
 -16   3 -10   -3.87    3.98
 -16   3 -10    0.49   15.54
  16  -3  10  -21.81    6.56
  16  -3  10   30.10   20.34
 -16   4 -10  -25.30   17.74
 -16   4 -10   -1.37    4.29
  16  -4  10  -17.28    6.36
  16  -4  10  -18.69   19.97
 -16   5 -10   -0.36    4.21
 -16   5 -10   13.59   18.49
  16  -5  10    6.65    5.91
  16  -5  10  -15.06   21.09
 -16   6 -10   12.86    4.62
 -16   6 -10  -14.96   19.69
  16  -6  10   13.19   19.43
  16  -6  10   -1.68    5.95
 -16   7 -10    2.76    4.44
 -16   7 -10   10.35   19.66
  16  -7  10    5.97    5.85
 -16   8 -10  -21.07   20.34
 -17  -4 -10   22.59   15.07
 -17  -3 -10   -0.52   14.03
  17   3  10    0.52    9.53
  17   3  10   11.89   23.01
 -17  -2 -10   14.72   14.86
  17   2  10  -22.72   24.38
  17   2  10   10.23    9.26
 -17  -1 -10   18.16   14.34
 -17  -1 -10    2.14    4.20
  17   1  10    0.46    8.60
  17   1  10   16.90   23.91
 -17  -1  10   -1.22   14.76
 -17  -1  10   -0.29    3.62
 -17   0 -10   -3.90    4.56
  17   0 -10   17.63   15.88
 -17   0 -10   -3.83   15.05
  17   0 -10    0.28    5.72
  17   0  10   14.12   22.86
 -17   0  10   -7.09    3.72
 -17   0  10  -16.46   16.28
  17   0  10   10.69    8.42
 -17   1 -10    2.01    4.48
 -17   1 -10   10.38   15.89
  17  -1 -10    4.56    5.85
  17  -1  10   -7.77   23.26
  17  -1  10   -4.52    8.26
 -17   1  10    4.87   17.81
 -17   1  10    2.28    3.56
 -17   2 -10    2.42    4.81
 -17   2 -10    3.11   16.52
  17  -2 -10   13.28    6.06
  17  -2  10    5.05    8.24
  17  -2  10   -1.80   21.37
 -17   2  10   10.57   19.52
 -17   3 -10   -5.98   17.89
 -17   3 -10    1.45    4.62
  17  -3  10    4.45    7.30
  17  -3  10    0.36   21.65
 -17   4 -10    6.11   18.49
 -17   4 -10   -0.38    4.61
  17  -4  10  -18.01   21.58
  17  -4  10    0.35    7.10
 -17   5 -10   25.08   19.94
 -17   5 -10   -4.80    5.02
  17  -5  10   -2.81    6.46
  17  -5  10  -24.63   22.51
 -17   6 -10   -0.42    5.72
 -17   6 -10  -24.98   21.11
 -17   7 -10   -1.30    4.80
 -17   7 -10  -13.03   21.25
  17  -7  10   -6.73    6.25
 -18  -4 -10   -4.80   16.52
 -18  -2 -10  160.81   38.05
  18   2  10  129.46   32.64
 -18  -1 -10    0.34    4.83
 -18  -1 -10   48.84   18.66
  18   1  10  -30.25   11.12
  18   0 -10  -17.00    7.06
 -18   0 -10  -25.80   18.17
 -18   0 -10   -6.89    5.21
  18   0 -10  -36.83   18.17
 -18   0  10    1.68    4.10
 -18   0  10  -11.15   17.79
 -18   1 -10   -6.36    4.68
  18  -1 -10   -0.31    6.50
 -18   1 -10   84.58   19.61
 -18   1  10    1.58   19.94
  18  -1  10  -19.00    9.74
 -18   1  10    0.35    3.91
 -18   2 -10  113.15   31.41
 -18   2 -10   35.29   20.55
  18  -2  10  111.56   21.67
 -18   3 -10  -72.53   21.05
 -18   3 -10   -1.62    5.26
 -18   4 -10   -1.70    4.65
 -18   4 -10  -15.90   20.26
  18  -4  10    0.38    7.64
  18  -4  10  -26.59   24.94
 -18   5 -10   -5.61   21.68
 -18   5 -10   -2.22    5.00
  18  -5  10   23.34    7.69
  18  -5  10   22.41   25.16
 -18   6 -10   -0.46    5.32
 -18   6 -10  -12.05   22.25
  18  -6  10    0.34    7.06
  18  -6  10   12.88   24.49
 -18   7 -10   33.39   23.17
 -18   7 -10    1.43    5.27
  18  -7  10    6.95    6.90
 -19  -3 -10   18.57   19.38
  19   3  10    0.47   28.97
  19   3  10    0.63   12.05
 -19  -2 -10    0.37    4.61
 -19  -2 -10   25.26   19.67
  19   2  10  -10.74   10.91
  19   2  10  -26.05   28.28
 -19  -1 -10   16.96   19.24
 -19  -1 -10    1.17    5.21
  19   1  10    8.50   10.68
  19   1  10   66.72   28.65
 -19   0 -10   -7.42   19.80
 -19   0 -10   -0.40    5.16
 -19   0  10    1.58   18.94
  19   0  10  -10.71   28.13
 -19   0  10    4.75    4.37
  19   0  10   -8.09   10.77
 -19   1 -10   43.54   20.28
 -19   1 -10    2.91    5.65
  19  -1 -10   -5.61    7.15
 -19   1  10   -2.28   20.77
  19  -1  10    0.51   10.02
  19  -1  10   25.33   27.48
 -19   2 -10   24.91   20.84
 -19   2 -10   -2.59    5.15
  19  -2 -10   -4.94    7.20
  19  -2  10    6.97   26.71
  19  -2  10    0.49   10.20
 -19   2  10   16.61   23.17
 -19   3 -10   -5.92   21.43
 -19   3 -10    0.91    5.17
  19  -3  10   29.14   26.87
  19  -3  10    5.11    9.62
 -19   4 -10  -26.16   23.20
 -19   4 -10   -6.16    6.10
  19  -4  10  -23.31   27.61
  19  -4  10    0.88    8.81
 -19   5 -10   28.59   23.74
  19  -5  10   -7.07    8.78
  20  -1 -10   -1.20    8.56
 -20   1  10  -17.91   23.78
   1   0 -11  161.91   35.92
  -1   0  11  129.24   43.67
   1   1 -11    2.54    1.97
   1   1 -11    1.23    1.90
  -1  -1  11    8.67    5.66
   1  -1  11    0.57    2.29
   2   1 -11   19.05    7.34
   2   1 -11   29.01    6.88
  -2  -1  11   18.08   10.27
   1  -2  11   30.70    8.62
  -2   0 -11    4.94    2.05
   2   0 -11    0.17    2.51
   0   2 -11    0.52    1.40
   2   0 -11   -1.47    2.19
  -2   0  11   -1.15    5.91
   1   2 -11   31.63    7.50
  -2   1 -11   35.38    7.84
  -2   1 -11   23.78    8.22
   1   2 -11   35.75    7.97
   2  -1  11   31.83    9.33
  -1  -2  11   22.43   10.18
   2  -1  11   31.46   10.11
   2   2 -11   -0.20    1.55
  -2   2 -11    1.78    2.10
   2   2 -11   -1.04    1.99
  -2   2 -11    1.82    1.76
   2  -2  11    0.51    3.73
   2  -2  11    4.76    4.50
   2  -2  11   -0.42    1.53
  -2  -2  11   -0.84    5.32
  -2   3 -11    6.01    2.54
   3   2 -11    5.87    2.49
   3   2 -11    5.12    1.56
  -2   3 -11    6.59    1.46
  -3  -2  11    7.04    6.01
   2  -3  11    0.28    4.20
   2  -3  11    5.40    1.88
  -1   3 -11    0.51    0.45
   3   1 -11   -0.31    2.00
  -1   3 -11   -0.38    1.03
  -1   3 -11    0.11    1.39
  -3  -1  11    4.03    6.24
   1  -3  11    0.41    0.96
   1  -3  11    1.63    2.59
   0   3 -11    5.91    2.15
  -3   0 -11    9.74    2.97
   0   3 -11    8.08    2.66
   3   0 -11    7.43    2.96
  -3   0  11    8.87    6.60
   0  -3  11    7.20    4.94
   3   0  11    7.00    4.02
  -3   1 -11    0.76    1.76
   1   3 -11    0.53    1.19
  -3   1 -11    0.70    2.56
   1   3 -11   -0.49    1.83
  -3   1 -11   -0.09    1.48
   3  -1  11    1.75    4.14
   3  -1  11    2.13    4.79
  -1  -3  11    0.27    4.61
   2   3 -11    7.31    2.73
  -3   2 -11    6.42    2.18
  -3   2 -11   10.57    3.14
  -3   2 -11    8.36    2.66
   2   3 -11    6.79    2.25
   3  -2  11   10.30    2.59
   3  -2  11    7.88    4.94
   3  -2  11    8.79    5.31
  -2  -3  11    5.68    5.40
  -3   3 -11   -1.99    2.36
  -3   3 -11   -0.92    1.80
   3   3 -11    0.45    2.06
   3   3 -11    0.60    0.59
  -3   3 -11    0.31    0.69
   3  -3  11   -0.55    1.41
   3  -3  11   -0.07    0.93
   3  -3  11   -7.34    4.26
  -3  -3  11   -0.83    5.38
  -3  -3  11    0.05    0.99
   4   3 -11    2.80    2.28
  -3   4 -11    7.04    2.99
   4   3 -11    2.08    1.15
  -3   4 -11    2.36    0.98
   4   3 -11    3.02    1.63
   4   3 -11    1.08    3.42
  -4  -3  11    3.23    6.13
  -4  -3  11    2.75    2.06
   3  -4  11    0.53    1.36
  -4  -3  11    1.71    0.74
   3  -4  11    3.04    5.37
   4   2 -11   34.22    9.71
   4   2 -11   50.21    9.66
  -2   4 -11   36.97   11.22
  -2   4 -11   37.83    9.28
   4   2 -11   39.45   10.42
  -4  -2  11   41.71   13.58
   2  -4  11   41.46   10.18
   2  -4  11   34.47    9.83
  -1   4 -11    1.21    1.91
  -1   4 -11    1.69    1.66
   4   1 -11   -0.32    2.14
   4   1 -11    1.10    2.14
  -1   4 -11    1.78    1.07
   1  -4  11    3.18    4.52
   1  -4  11    1.58    0.79
  -4  -1  11   -0.55    6.51
   1  -4  11    0.93    1.50
   4   0 -11    0.86    2.36
   0   4 -11    0.16    1.88
   4   0 -11   -0.17    2.57
   0   4 -11   -0.27    1.08
  -4   0 -11   -0.62    1.96
   0  -4  11   -1.48    4.75
  -4   0  11    1.74    6.65
   0  -4  11   -1.33    1.51
  -4   1 -11    3.26    2.98
  -4   1 -11    2.68    1.45
   1   4 -11    0.94    1.26
   1   4 -11    2.00    1.93
   4  -1  11    0.67    2.21
  -1  -4  11   -0.83    4.98
  -1  -4  11    1.41    1.56
   2   4 -11   36.95   10.22
  -4   2 -11   56.07   11.93
   2   4 -11   42.71   10.92
  -4   2 -11   48.14   11.48
  -4   2 -11   32.99   10.54
  -2  -4  11   34.10   10.73
  -2  -4  11   40.50   13.50
   4  -2  11   52.61   10.68
   4  -2  11   53.61   13.31
  -4   3 -11    2.75    1.07
  -4   3 -11    5.25    1.00
  -4   3 -11    2.88    3.00
   3   4 -11    0.74    2.18
  -4   3 -11   -1.37    1.90
   3   4 -11    2.09    1.92
  -3  -4  11    4.68    5.61
   4  -3  11    3.39    1.70
   4  -3  11    7.10    4.24
  -3  -4  11    1.77    0.62
   4  -3  11    0.49    1.37
   5   4 -11   -0.14    1.63
   5   4 -11    0.84    1.50
   5   4 -11    0.93    4.23
   5   4 -11   -0.64    2.59
  -4   5 -11    0.94    1.05
  -5  -4  11    1.23    2.06
  -5  -4  11    0.71    0.75
   4  -5  11    0.60    1.68
  -5  -4  11   -0.12    2.30
  -5  -4  11    2.97    6.70
  -3   5 -11   51.80    8.64
   5   3 -11   35.57    7.77
  -3   5 -11   32.29    7.87
   5   3 -11   38.33    8.07
   5   3 -11   27.03    8.57
   5   3 -11   18.16   12.52
  -5  -3  11   33.56    7.88
   3  -5  11   37.18    8.61
  -5  -3  11   15.51   12.32
  -5  -3  11   23.33    9.23
   3  -5  11   30.92    8.37
   5   2 -11    1.48    1.98
   5   2 -11    2.71    2.36
  -2   5 -11    0.57    1.16
   5   2 -11    1.62    1.14
  -2   5 -11    1.15    2.40
  -5  -2  11   -0.64    7.15
   2  -5  11    2.80    1.86
   5   1 -11   12.78    3.39
  -1   5 -11    8.17    3.36
   5   1 -11   11.34    2.76
  -1   5 -11   10.12    2.69
   5   1 -11    4.55    3.57
  -5  -1  11    9.55    7.88
   1  -5  11   11.42    3.12
   1  -5  11    9.93    2.80
   5   1  11   17.80    5.47
   0   5 -11    0.62    1.08
  -5   0 -11    0.11    1.91
   5   0 -11   -0.17    2.57
   0   5 -11   -0.52    1.97
  -5   0 -11   -0.73    3.54
   5   0 -11    1.42    2.58
   0  -5  11    0.76    0.57
   5   0  11    1.29    5.26
  -5   0  11   -1.33    7.07
   0  -5  11    2.36    1.64
   5   0  11   -2.11    2.92
  -5   1 -11   10.59    4.32
   1   5 -11   14.10    2.62
   1   5 -11    9.53    3.24
  -5   1 -11    6.88    2.82
   5  -1  11    4.20    6.99
   5  -1  11   13.95    3.45
  -1  -5  11    5.91    3.05
  -5   2 -11   -0.72    1.07
   2   5 -11    0.19    2.31
  -5   2 -11   -6.08    2.43
  -5   2 -11   -7.45    3.65
   2   5 -11    3.56    1.30
  -2  -5  11    2.55    1.93
  -5   3 -11   39.39    7.70
  -5   3 -11   36.83    8.06
  -5   3 -11   26.79    8.95
   3   5 -11   28.48    8.44
   5  -3  11   25.91    8.66
  -3  -5  11   39.11    8.37
  -5   4 -11    0.79    1.80
  -5   4 -11    0.37    1.13
  -5   4 -11    0.34    0.92
   4   5 -11    1.04    1.39
   4   5 -11    1.13    2.35
   5  -4  11   -0.23    1.51
  -4  -5  11    1.00    2.03
   5  -4  11   17.25    6.32
   5  -4  11    2.85    4.11
   5   5 -11   -0.22    2.50
   5   5 -11    0.09    1.42
  -5   5 -11    0.89    1.24
  -5  -5  11   -2.75    6.67
   5  -5  11   -5.27    6.92
   5  -5  11    0.87    1.96
  -5  -5  11    0.40    2.00
   6   5 -11    8.01    4.76
  -5   6 -11   24.23    4.63
   6   5 -11   16.90    3.94
  -6  -5  11   22.33    8.78
  -6  -5  11    6.93    4.55
   5  -6  11   17.37    4.28
   6   4 -11  110.18   26.25
   6   4 -11  109.05   26.32
   6   4 -11   98.89   32.16
   6   4 -11   87.84   23.92
  -4   6 -11  124.09   26.98
  -6  -4  11  102.02   31.71
  -6  -4  11   89.32   24.41
  -6  -4  11   97.80   28.60
   6   3 -11    0.77    2.53
   6   3 -11    0.26    1.52
  -3   6 -11    1.81    2.12
   6   3 -11   -1.55    4.97
   6   3 -11    0.92    1.79
  -6  -3  11   -1.68    3.23
  -6  -3  11    1.17    0.95
   3  -6  11    1.26    1.94
   3  -6  11    1.07    1.28
  -6  -3  11   -2.22    7.02
   6   2 -11  170.97   37.59
   6   2 -11  150.18   41.11
   6   2 -11  127.93   56.82
   6   2 -11  133.59   38.39
  -2   6 -11  168.93   38.53
  -2   6 -11  161.00   40.52
   2  -6  11  189.06   41.58
  -6  -2  11  154.51   43.12
  -6  -2  11  154.19   38.66
   2  -6  11  163.46   40.19
  -6  -2  11  175.80   48.96
  -1   6 -11   14.33    3.55
   6   1 -11   12.08    4.45
  -1   6 -11   13.40    4.10
   6   1 -11   14.74    4.03
  -6  -1 -11    8.49    6.00
   6   1 -11   13.06    3.62
   1  -6  11   11.53    4.07
  -6  -1  11   24.81    9.32
   6   1  11   16.27    6.96
   0   6 -11    1.05    2.23
   0   6 -11   -0.57    1.24
  -6   0 -11   -1.68    4.27
   6   0 -11   -0.18    2.78
   6   0 -11   -1.76    2.73
  -6   0 -11    0.18    1.96
   6   0  11   -2.38    3.21
   0  -6  11   -0.50    1.99
  -6   0  11   -7.39    8.11
   1   6 -11   20.02    3.73
  -6   1 -11   16.96    5.39
  -6   1 -11   12.07    3.85
   1   6 -11   13.35    4.31
   6  -1  11   16.10    4.46
  -1  -6  11   10.42    4.24
   6  -1  11   16.94    8.51
  -6   2 -11  164.52   44.73
   2   6 -11  167.22   39.18
  -6   2 -11  149.48   41.25
   2   6 -11  150.67   41.25
   6  -2  11  219.37   49.83
   6  -2  11  169.64   40.39
   6  -2  11  174.73   47.77
   3   6 -11    1.20    1.34
  -6   3 -11    1.63    4.35
  -6   3 -11    0.38    0.76
  -6   3 -11    1.59    1.18
  -6   3 -11   -0.55    1.74
   3   6 -11    0.65    2.41
  -3  -6  11   -0.14    2.14
   6  -3  11    1.30    1.23
   6  -3  11   -8.71    7.33
   6  -3  11    2.00    2.01
   6  -3  11    0.41    4.16
  -6   4 -11  138.10   31.01
   4   6 -11  104.85   26.46
  -6   4 -11   99.72   28.43
  -6   4 -11  109.23   24.98
   4   6 -11  105.61   24.83
   6  -4  11  107.51   32.24
   6  -4  11   98.17   26.53
   5   6 -11   16.73    3.45
  -6   5 -11   11.45    4.17
  -6   5 -11   13.22    3.42
   5   6 -11    7.91    4.21
  -5  -6  11   10.85    4.23
   6  -5  11   12.30    4.00
   6  -5  11   14.84    8.85
   6   6 -11    0.39    1.59
   6   6 -11    1.21    2.90
  -6   6 -11   -1.01    1.51
  -6  -6  11    1.92    2.81
   6  -6  11   -1.31    2.06
   7   6 -11    0.10    1.75
   7   6 -11   -0.91    3.26
   6  -7  11   -0.94    2.12
  -7  -6  11   -2.89    3.03
  -5   7 -11    0.09    2.41
   7   5 -11   -0.80    1.68
   7   5 -11    0.13    3.05
  -7  -5  11   -0.15    2.64
  -7  -5  11   -1.13    8.17
   5  -7  11   -3.36    1.82
   7   4 -11   11.99    2.84
  -4   7 -11    9.24    3.47
   7   4 -11    5.57    3.81
   4  -7  11    9.42    2.85
  -7  -4  11    9.46    3.47
  -7  -4  11   12.14    8.09
   7   3 -11   21.02    6.50
   7   3 -11   28.11    7.54
  -3   7 -11   28.58    7.28
  -7  -3  11   25.55   11.45
  -2   7 -11    6.38    3.20
   7   2 -11    7.79    2.91
   7   2 -11   11.52    3.67
  -7  -2  11    7.72    2.43
   7   2  11   10.41    6.72
  -7  -2  11    6.92    8.45
   7   1 -11   13.01    4.15
   7   1 -11   19.29    3.82
   7   1 -11   11.59    4.77
  -7  -1 -11   12.83    6.38
  -1   7 -11   10.49    4.24
   7   1  11   19.16    7.93
   7   1  11   14.15    5.14
  -7  -1  11    9.17    9.42
   1  -7  11    9.80    4.38
   0   7 -11   57.34   13.75
   7   0 -11   54.37   13.93
   7   0 -11   48.33   15.50
  -7   0 -11   51.26   16.42
   0  -7  11   59.14   14.88
   7   0  11   79.06   18.57
   7   0  11   46.66   14.56
  -7   0  11   61.72   19.54
   1   7 -11    8.69    4.35
   1   7 -11   16.22    3.78
   7  -1 -11   11.91    5.00
  -7   1 -11   13.74    5.65
   7  -1  11   16.88    4.48
  -1  -7  11   11.53    4.44
   7  -1  11   29.40    9.43
   2   7 -11   11.02    3.66
   2   7 -11    8.91    2.91
  -7   2 -11    9.10    5.17
   7  -2  11   17.35    8.91
   7  -2  11    6.70    3.60
  -2  -7  11   16.82    3.66
   3   7 -11   33.43    6.80
   3   7 -11   20.79    7.34
  -7   3 -11   26.54    9.42
  -7   3 -11   27.06    6.69
   7  -3  11   33.14   11.75
  -3  -7  11   29.30    7.46
   7  -3  11   24.32    7.21
   4   7 -11    4.56    3.42
  -7   4 -11    9.08    2.35
  -7   4 -11    7.19    6.52
   7  -4  11    1.23    8.17
   7  -4  11    9.24    3.11
  -7   5 -11    0.28    1.56
   5   7 -11    0.89    1.68
   5   7 -11    1.26    2.97
   7  -5  11   -0.15    8.60
   7  -5  11    0.84    2.36
  -5  -7  11   -1.56    2.88
  -7   6 -11    1.27    1.71
   6   7 -11    0.13    3.04
   6   7 -11   -0.35    1.77
  -6  -7  11   -0.18    3.33
   7  -6  11   -0.97    2.45
   7   7 -11    0.36    1.98
   7   7 -11   -1.79    3.56
   7  -7  11    0.75    2.33
  -7  -7  11   -1.36    3.49
   8   7 -11    3.30    3.73
   8   7 -11    8.19    2.39
   7  -8  11    2.80    2.57
  -8  -7  11    2.68    3.98
   8   6 -11    0.22    1.85
   8   6 -11   -1.93    3.60
  -8  -6  11   -1.72    9.18
  -8  -6  11   -0.73    3.35
   8   5 -11   40.83    9.53
   8   5 -11   32.73   10.87
  -8  -5  11   42.37   10.46
  -8  -5  11   52.65   14.94
   8   4 -11    3.19    1.95
   8   4 -11    2.07    3.31
  -8  -4  11    1.96    1.21
  -8  -4  11   -1.94    4.24
  -8  -4  11    1.20    2.87
  -8  -4  11    0.30    8.71
   8   3 -11   25.06    6.68
   8   3 -11   30.48   10.93
   8   3 -11   30.02    6.96
   8   3 -11   15.21    7.83
  -8  -3  11   22.72    8.67
  -8  -3  11   32.65    6.73
  -8  -3  11   28.18   12.38
   8   2 -11   26.59    5.67
   8   2 -11   18.52    5.70
  -8  -2 -11   13.90    8.54
   8   2 -11   22.90   10.68
   8   2 -11   22.37    6.60
   8   2  11   30.72    9.96
  -8  -2  11   20.47    8.10
  -8  -2  11   15.43   11.33
  -8  -2  11   22.44    5.65
  -1   8 -11   16.87    4.57
   8   1 -11   17.17    4.37
  -8  -1 -11   16.68    7.03
   8   1 -11   10.93    5.06
   8   1 -11   15.06    4.18
  -8  -1  11   10.68   10.59
   8   1  11   27.28    5.59
  -8  -1  11   10.40    3.97
   8   1  11    8.91    9.19
   0   8 -11    1.43    2.67
  -8   0 -11    0.67    4.63
   8   0 -11    0.10    1.96
   8   0 -11   -0.52    2.94
   8   0 -11   -0.90    3.10
  -8   0  11    1.57    9.14
   8   0  11    0.53    3.38
   8   0  11    6.23    8.95
   1   8 -11   18.50    4.82
   8  -1 -11   20.00    4.40
   8  -1 -11   14.32    5.31
  -8   1 -11   10.22    6.27
   8  -1  11   13.10    4.93
  -1  -8  11   14.08    4.90
   8  -1  11   19.60   10.65
   2   8 -11   27.51    5.91
   2   8 -11   26.00    6.47
  -8   2 -11   19.37    8.30
   8  -2  11   31.31   12.05
   8  -2  11   21.82    6.36
  -2  -8  11   17.45    6.60
   3   8 -11   27.34    6.98
   3   8 -11   21.06    7.48
  -8   3 -11   31.05    6.82
  -8   3 -11   23.86    9.97
   8  -3  11   29.08    7.39
  -3  -8  11   27.84    7.93
   8  -3  11   40.29   12.55
  -8   4 -11    5.60    7.05
   4   8 -11    1.46    3.06
  -8   4 -11    2.59    1.77
   8  -4  11    1.09    2.70
   8  -4  11    9.33    8.74
  -8   5 -11   29.39    8.44
   5   8 -11   41.14    9.24
   5   8 -11   34.44    8.50
  -8   5 -11   34.56   13.98
   8  -5  11   35.80   14.68
   8  -5  11   32.87    9.20
  -5  -8  11   27.06    9.64
   6   8 -11   -0.67    2.07
  -8   6 -11    0.88    1.95
   6   8 -11    2.70    3.42
   8  -6  11   -0.49    2.73
  -6  -8  11    1.29    3.45
   8  -6  11  -15.11    9.88
   7   8 -11    2.22    2.20
   7   8 -11    2.85    3.55
   8  -7  11    2.91    2.78
  -7  -8  11   -3.18    4.02
   8   8 -11   -2.17    2.45
   8   8 -11   -1.74    3.83
  -8  -8  11   -3.37    4.17
   8  -8  11    0.49    2.51
   9   8 -11    3.63    2.83
   9   8 -11    5.54    4.29
  -9  -8  11   11.24    4.64
   9   7 -11   13.02    3.13
   9   7 -11    9.22    4.58
  -9  -7  11    3.50    4.59
   9   6 -11    2.82    3.57
   9   6 -11    0.90    1.93
  -9  -6  11   -0.79    3.63
  -9  -6  11    4.98   10.19
   9   5 -11   10.57    3.50
   9   5 -11    8.61    4.90
  -9  -5  11   24.15   10.63
  -9  -5  11   13.76    4.61
   9   4 -11   17.31    7.74
   9   4 -11   32.17    6.43
  -9  -4  11   24.76    7.37
  -9  -4  11   26.35   12.67
   9   3 -11   -0.33    2.46
   9   3 -11    1.61    3.22
   9   3 -11   -4.45    7.14
   9   3 -11    0.90    1.98
  -9  -3  11    0.69    5.03
  -9  -3  11   -1.09    1.39
  -9  -3  11    2.84    9.33
  -9  -3  11    0.77    2.90
   9   2 -11   17.02    4.21
   9   2 -11   10.69    4.10
   9   2 -11   14.55    9.51
  -9  -2 -11   19.73    7.72
   9   2 -11   10.20    5.14
  -9  -2  11   14.16    3.95
  -9  -2  11    7.85    7.12
   9   2  11   12.95    9.96
   9   2  11   19.07    5.96
  -9  -2  11   25.70   10.68
   9   1 -11    6.09    2.28
   9   1 -11    0.58    3.29
   9   1 -11   -0.28    2.70
   9   1 -11   -0.93    8.39
  -9  -1 -11    4.96    5.73
  -9  -1  11    1.55    1.67
   9   1  11   -2.26    4.09
  -9  -1  11    3.44    9.90
   9   1  11    4.62    9.42
   9   0 -11    3.95    3.20
  -9   0 -11    5.23    5.49
   9   0 -11    2.47    2.40
   9   0 -11    6.01    3.70
  -9   0  11    6.00    9.77
   9   0  11    7.32   10.41
   9   0  11    2.73    3.92
  -9   1 -11    1.80    5.50
   9  -1 -11   -1.07    3.76
   9  -1 -11    1.19    2.26
   9  -1  11    1.94    3.59
   9  -1  11   11.81   11.03
  -9   2 -11   14.32    7.84
  -9   2 -11   20.85    4.62
   9  -2  11   16.41    5.51
   9  -2  11   24.54   11.77
  -9   3 -11    1.44    7.07
  -9   3 -11    2.89    1.75
   9  -3  11   -8.95   10.21
   9  -3  11    1.20    3.10
  -9   4 -11   37.02   11.29
  -9   4 -11   23.89    6.56
   9  -4  11   24.07    7.30
   9  -4  11   28.04   12.67
  -9   5 -11   13.30   10.14
   5   9 -11   20.94    5.06
  -9   5 -11   13.75    3.95
  -5  -9  11   15.93    5.41
   9  -5  11   11.22    4.75
   9  -5  11    6.16   11.44
  -9   6 -11   -1.35    2.20
   6   9 -11    0.16    3.72
  -6  -9  11    0.25    4.12
   9  -6  11   -2.61    2.90
   9  -6  11   -8.21   10.82
   7   9 -11    1.95    4.22
  -7  -9  11    0.26    4.31
   9  -7  11    8.21    3.23
   8   9 -11    0.17    4.00
   9  -8  11   -0.69    3.07
  10   9 -11   -0.18    3.84
 -10  -9  11  -24.27    5.98
  10   7 -11    1.14    4.24
  10   7 -11    4.18    2.42
 -10  -7  11    3.35    4.32
 -10  -7  11    5.13   11.05
  10   6 -11    2.87    3.93
  10   6 -11   -0.83    2.10
 -10  -6  11  -11.16   10.82
 -10  -6  11    0.63    3.82
  10   5 -11    5.97    3.97
  10   5 -11    4.24    2.20
 -10  -5  11    1.50    3.47
 -10  -5  11   -1.23   10.75
  10   4 -11    5.15    3.94
  10   4 -11    0.11    2.13
 -10  -4  11    8.55   10.58
 -10  -4  11    1.91    3.23
  10   3 -11    8.01    3.88
  10   3 -11    9.86    2.53
 -10  -3  11    6.51   10.52
 -10  -3  11    5.56    2.09
  10   3  11  -19.54    9.97
 -10  -3  11    5.53    3.30
 -10  -3  11   -2.86    6.04
  10   2 -11    0.70    2.73
  10   2 -11   -1.09    2.37
  10   2 -11   -1.02    3.72
  10   2 -11    1.03    9.15
 -10  -2  11   23.74   10.83
 -10  -2  11    1.97    1.98
 -10  -2  11    6.16    6.93
  10   1 -11    0.15    3.42
  10   1 -11   -0.58    2.51
  10   1 -11   -7.87    9.33
 -10  -1 -11   -7.05    6.89
  10   1 -11   -0.14    2.48
 -10  -1  11    0.32    1.86
  10   1  11  -13.52    5.42
 -10  -1  11   -6.85   10.78
 -10   0 -11   -7.17    6.61
  10   0 -11    2.04    2.70
  10   0 -11    1.50    3.06
  10   0 -11   -0.83    3.58
 -10   0  11  -18.75   10.61
  10   0  11  -15.82    5.06
 -10   0  11   -1.87    1.82
 -10   1 -11  -11.56    7.45
  10  -1 -11   -1.59    2.72
  10  -1 -11    1.87    3.53
  10  -1  11  -15.50    5.03
 -10   2 -11   14.45    4.02
 -10   2 -11   23.82    8.75
 -10   3 -11    5.56    2.42
 -10   3 -11    8.08    8.49
  10  -3  11    3.54    3.90
 -10   4 -11    8.63    9.18
 -10   4 -11    1.22    2.00
  10  -4  11    1.60    3.50
  10  -4  11  -19.31   11.08
 -10   5 -11    2.68    2.29
 -10   5 -11    6.89   10.52
  10  -5  11    2.01    3.41
  10  -5  11    3.28   11.62
 -10   6 -11   -0.42    2.43
  10  -6  11    3.62   11.89
  10  -6  11    3.26    3.37
 -10   7 -11    1.61    2.70
  10  -7  11    5.67    3.44
  10  -8  11   -1.39    3.21
  11  10 -11    0.41    5.23
  11   9 -11   -2.82    4.85
 -11  -9  11   -8.58    5.43
  11   7 -11    7.36    4.54
  11   7 -11   -0.14    2.04
 -11  -7  11  -10.63   11.99
  11   6 -11   -2.89    4.45
  11   6 -11    3.10    2.19
 -11  -6  11   -1.12    4.17
 -11  -6  11    0.76   11.69
  11   5 -11    0.16    4.38
  11   5 -11    2.53    2.19
 -11  -5  11    4.18    3.89
 -11  -5  11   12.66   11.60
  11   4 -11    7.58    2.68
  11   4 -11    4.12    4.48
 -11  -4  11    8.93    4.00
 -11  -4  11   14.06   11.92
 -11  -3 -11    2.17    7.35
  11   3 -11   -0.31    3.81
  11   3 -11    0.36    2.26
 -11  -3  11    1.73    3.38
 -11  -3  11   -4.62   11.53
 -11  -3  11    1.67    1.78
  11   2 -11    1.27    9.84
  11   2 -11    0.61    2.34
 -11  -2 -11   -1.13    7.43
  11   2 -11    0.27    2.99
  11   2 -11    0.15    3.63
  11   2  11    0.30    5.50
  11   2  11    0.20   12.07
 -11  -2  11   13.08   11.72
 -11  -2  11    0.78    1.86
 -11  -2  11    4.96    7.35
  11   1 -11    1.48    3.01
  11   1 -11    1.95    3.86
 -11  -1 -11   -1.00    7.07
  11   1 -11   -1.26   10.26
  11   1 -11   -0.70    2.66
  11   1  11    5.48   12.91
 -11  -1  11   16.92   11.00
  11   1  11    0.26    5.11
 -11  -1  11   -4.09    8.46
 -11  -1  11    1.22    2.05
  11   0 -11   17.15    6.85
  11   0 -11   21.56    6.85
 -11   0 -11   35.51    9.90
 -11   0  11   23.78   13.43
  11   0  11   21.42   15.63
 -11   0  11   23.84    6.59
  11   0  11   42.20    8.00
  11  -1 -11    3.22    3.92
 -11   1 -11    4.23    7.57
  11  -1 -11    1.36    3.22
  11  -1  11   32.01   14.48
  11  -1  11    8.48    4.93
 -11   2 -11    2.53    8.50
 -11   2 -11    4.21    2.16
  11  -2  11   -6.56    4.46
  11  -2  11  -24.57   13.88
 -11   3 -11    1.66    2.34
 -11   3 -11    9.77    9.17
  11  -3  11    2.26    3.89
  11  -3  11   -5.63   13.15
 -11   4 -11    8.79    2.95
 -11   4 -11   23.04   10.74
  11  -4  11    8.49    4.28
  11  -4  11  -12.15   12.75
 -11   5 -11   17.93   11.70
 -11   5 -11    2.77    2.59
  11  -5  11    9.31    3.93
  11  -5  11  -27.10   12.97
 -11   6 -11    0.23    2.96
 -11   6 -11   10.55   12.98
  11  -6  11    5.76    3.84
  11  -6  11   25.51   13.91
 -11   7 -11    3.26    2.64
  11  -7  11    0.17    3.71
  12  10 -11    0.63    5.22
  12   9 -11   -0.20    5.00
 -12  -9  11    1.10   13.53
  12   8 -11    1.71    3.74
  12   8 -11   21.98    5.76
 -12  -8  11    7.52    6.41
  12   6 -11   -9.35    5.07
  12   6 -11    3.22    2.20
 -12  -6  11   -8.36   13.52
 -12  -6  11    6.04    4.36
  12   5 -11   -0.12    2.11
  12   5 -11    2.79    4.55
 -12  -5  11    0.65    4.06
 -12  -5  11  -25.95   12.82
  12   4 -11    1.66    4.41
  12   4 -11   -1.28    2.09
 -12  -4  11    0.81   12.56
 -12  -4  11    1.94    3.92
  12   3 -11    4.51    3.95
  12   3 -11    1.31    2.33
 -12  -3  11    2.19    3.59
 -12  -3  11   -4.96   12.03
  12   3  11    6.53   12.67
  12   2 -11    0.98    3.88
  12   2 -11   -0.46    3.38
  12   2 -11    1.86    2.38
 -12  -2  11    0.89    7.95
 -12  -2  11   -1.03    2.09
 -12  -2  11   10.33   12.22
  12   1 -11    0.39   10.76
  12   1 -11    3.24    3.38
  12   1 -11    1.85    3.94
  12   1 -11    6.29    2.56
  12   1  11   -0.29    5.43
 -12  -1  11    2.49    2.47
 -12  -1  11   -2.41   11.58
 -12  -1  11    0.50    9.40
 -12   0 -11    9.11    8.09
  12   0 -11   -3.35    3.54
  12   0 -11    1.25    3.00
 -12   0  11   -0.83    2.27
  12   0  11   10.37    5.16
 -12   1 -11   20.15    9.04
  12  -1 -11    5.06    3.93
  12  -1  11    8.49    5.39
 -12   2 -11   -0.20    1.69
 -12   2 -11    2.88    9.89
  12  -2  11    2.29    4.93
 -12   3 -11    5.84   10.79
  12  -3  11   -0.21    4.43
 -12   4 -11    4.99   12.14
  12  -4  11   -1.84    4.34
 -12   7 -11    3.02    3.04
  12  -8  11    5.34    4.53
  13  10 -11    3.28    6.09
  13   9 -11   13.73    9.44
 -13  -9  11   74.69   17.41
  13   8 -11    6.36    3.15
  13   8 -11    3.45    5.54
 -13  -8  11   22.53   14.05
 -13  -8  11   -9.28    6.23
 -13  -7  11    0.88    5.13
 -13  -3 -11    5.04   10.01
  13   3  11    7.51    6.89
  13   3  11   -9.01   14.66
 -13  -2 -11    3.32    9.52
  13   2  11  -20.14   15.72
 -13  -2  11   -1.52    2.35
  13   2  11  -15.91    7.03
 -13  -2  11   -2.23    9.37
  13   1 -11    5.45    4.17
  13   1 -11   -1.03   11.99
 -13  -1 -11   25.93    9.49
  13   1  11   -1.26    6.22
 -13  -1  11    2.51    2.71
 -13  -1  11    4.72   10.45
  13   1  11  -41.38   16.51
  13   0 -11   -0.45   12.05
  13   0 -11    1.26    3.98
 -13   0  11    6.91   12.22
  13   0  11   20.17    5.82
 -13   0  11    0.91    2.71
  13   0  11  -21.17   16.94
  13  -1 -11    0.56    4.20
 -13   1 -11    2.33    3.25
  13  -1  11   43.95    6.20
  13  -1  11  -33.92   17.99
 -13   2 -11   71.30   14.60
  13  -2  11   25.10    9.24
 -13   3 -11   -1.17    3.21
  13  -3  11   10.11    5.52
  13  -3  11    7.74   22.13
 -13   4 -11    2.96    3.51
 -13   4 -11   19.30   14.06
  13  -4  11    6.71    5.12
  13  -4  11   13.04   15.81
 -13   5 -11   14.52   14.45
 -13   5 -11    1.31    3.17
  13  -5  11   -3.72    4.61
  13  -5  11   -3.41   16.11
 -13   6 -11   -2.54    3.38
 -13   6 -11   -2.05   15.18
  13  -6  11   -3.71    4.56
  13  -6  11   -4.76   16.03
 -13   7 -11    0.30    3.39
 -13   7 -11    2.54   15.49
  13  -7  11   -9.88   15.13
  13  -7  11   -4.27    4.49
  13  -8  11   -2.22    4.19
 -14  -3 -11   -3.55   10.08
  14   3  11   -3.64   16.10
  14   3  11   12.64    7.72
 -14  -2 -11   18.33   10.85
  14   2  11    5.57    7.76
  14   2  11   12.37   17.88
 -14  -1 -11    2.08   10.14
  14   1 -11    9.92    4.51
  14   1  11   16.77   17.87
  14   1  11    2.09    6.89
 -14  -1  11   -4.58   11.66
 -14   0 -11    2.66   10.48
  14   0  11    8.17   18.37
  14   0  11   -3.84    6.48
 -14   1 -11   -2.07   11.44
 -14   1 -11    0.96    3.13
  14  -1  11  -17.53   18.06
  14  -1  11    5.87    6.40
 -14   2 -11    0.75    3.73
 -14   2 -11   -8.48   13.18
  14  -2 -11   25.51    4.92
  14  -2  11    5.32    6.09
  14  -2  11  -14.13   18.86
 -14   3 -11   -1.04    3.38
 -14   3 -11   -2.34   13.85
  14  -3  11    2.17    5.56
  14  -3  11  -39.16   18.07
 -14   4 -11  -11.56   14.92
 -14   4 -11   -0.55    3.40
  14  -4  11  -17.90   16.61
  14  -4  11   -1.30    5.53
 -14   5 -11    0.86   15.51
 -14   5 -11    1.76    3.68
  14  -5  11   14.46    5.51
  14  -5  11    0.29   17.46
 -14   6 -11    0.31    3.79
 -14   6 -11   37.70   16.53
  14  -6  11    1.61    4.99
  14  -6  11    2.76   17.93
 -14   7 -11   -2.63    3.65
 -14   7 -11   -1.84   17.08
  14  -7  11  -27.18   17.10
  14  -7  11    0.23    4.69
 -14   8 -11   17.81   17.61
  14  -8  11    0.22    4.66
 -15  -3 -11    8.68   11.68
  15   3  11  -10.23    8.29
  15   3  11    7.80   18.80
 -15  -2 -11    9.82   11.79
  15   2  11    0.82    7.71
  15   2  11    1.91   19.29
 -15  -1 -11  -17.14   11.31
 -15  -1  11    1.99    2.90
  15   1  11  -17.78   20.14
 -15  -1  11    8.35   12.34
  15   1  11    0.39    7.53
  15   0 -11   -1.32    4.56
  15   0 -11   12.94   13.11
 -15   0 -11   -1.28    3.52
 -15   0 -11    0.38   11.77
  15   0  11    3.78   20.29
 -15   0  11   -3.35   13.52
  15   0  11    0.35    6.91
 -15   0  11   -5.05    3.07
  15  -1 -11   -0.69    5.05
 -15   1 -11    2.93    3.55
 -15   1 -11   -4.68   12.12
  15  -1  11   -1.37    6.99
 -15   1  11   -4.54   16.20
  15  -1  11   12.61   19.48
 -15   2 -11    8.25   13.69
 -15   2 -11    7.00    4.27
  15  -2 -11   12.76    5.28
  15  -2  11    5.79   19.08
  15  -2  11    1.31    6.55
 -15   3 -11  -30.03   15.06
 -15   3 -11   -0.29    3.36
  15  -3  11  -10.69    6.19
  15  -3  11    7.04   18.02
 -15   4 -11   -0.31    4.01
 -15   4 -11   -1.83   15.94
  15  -4  11  -20.11   17.34
  15  -4  11  -14.10    6.17
 -15   5 -11  -13.79   17.08
 -15   5 -11   -0.65    4.07
  15  -5  11  -12.68    5.86
  15  -5  11   64.67   20.14
 -15   6 -11   17.11   17.84
 -15   6 -11   -0.34    3.89
  15  -6  11   -3.91    5.50
  15  -6  11  -11.12   18.85
 -15   7 -11   -0.72    3.99
 -15   7 -11  -25.98   18.79
  15  -7  11  -31.71   18.52
  15  -7  11    8.34    5.49
 -15   8 -11  -23.39   18.52
  15  -8  11    3.99    5.22
  16   4  11   11.00   21.21
 -16  -3 -11    9.64   12.86
  16   3  11   -6.34    9.19
  16   3  11    0.35   20.60
 -16  -2 -11   10.54   13.09
  16   2  11   -8.54    8.41
  16   2  11  -17.41   21.06
 -16  -1 -11   14.51   13.21
  16   1  11   -0.43    8.09
  16   1  11  -11.23   22.24
 -16   0 -11   11.26   13.49
  16   0 -11    9.42    5.21
 -16   0 -11    0.29    3.80
  16   0  11   -2.84    8.17
 -16   0  11   -8.05    3.21
  16   0  11  -20.77   21.41
 -16   0  11    9.31   15.51
 -16   1 -11  -42.54   13.88
 -16   1 -11    8.16    3.90
  16  -1 -11   -0.26    5.49
  16  -1  11   19.40   21.25
 -16   1  11   26.35   16.79
  16  -1  11    0.38    7.64
 -16   2 -11   -7.38   15.15
 -16   2 -11    1.56    4.11
  16  -2 -11    2.83    5.53
  16  -2  11    0.36    7.15
  16  -2  11    9.45   20.11
 -16   3 -11   11.24   16.40
 -16   3 -11   -2.60    3.96
  16  -3  11   13.96   19.30
  16  -3  11    0.69    6.88
 -16   4 -11    3.11    4.54
 -16   4 -11  -30.29   17.19
  16  -4  11  -12.77    6.96
  16  -4  11  -16.11   19.83
 -16   5 -11   19.77   18.63
 -16   5 -11    5.40    4.63
  16  -5  11   19.41   20.76
  16  -5  11    8.45    6.45
 -16   6 -11   -1.06   18.52
 -16   6 -11    0.76    4.40
  16  -6  11    2.57   19.94
  16  -6  11    2.25    5.77
 -16   7 -11  -10.33   19.61
 -16   7 -11    3.97    4.26
  16  -7  11    3.27    5.75
  16  -7  11   10.17   19.94
 -16   8 -11   37.44   37.14
 -17  -4 -11    6.53   14.25
  17   4  11   29.70   23.16
 -17  -3 -11    1.08   14.71
  17   3  11   37.78   23.41
  17   3  11   13.40   10.37
 -17  -2 -11   -5.67   14.89
  17   2  11    9.93    9.30
  17   2  11    1.89   23.11
 -17  -1 -11   -0.50   14.21
 -17  -1 -11    0.30    3.75
  17   1  11    2.36    8.90
  17   1  11   24.22   23.50
 -17   0 -11    5.38   14.77
 -17   0 -11   -3.82    4.20
 -17   0  11   -2.49    3.58
  17   0  11  -16.62    8.88
  17   0  11    0.38   24.03
 -17   0  11    7.02   16.12
 -17   1 -11    9.72    4.47
 -17   1 -11   -7.94   15.13
  17  -1 -11   -1.95    5.54
  17  -1  11    8.44   23.08
 -17   1  11   -2.41   18.30
  17  -1  11  -14.14    8.76
  17  -2 -11   11.19    5.81
 -17   2 -11    0.35    3.94
 -17   2 -11   14.41   16.69
  17  -2  11   -9.46    7.91
  17  -2  11  -63.30   22.41
 -17   2  11    8.94   20.49
 -17   3 -11   -2.19    4.63
 -17   3 -11    0.54   17.68
  17  -3  11   -3.74    7.59
  17  -3  11   -5.74   21.08
 -17   4 -11    3.84    4.88
 -17   4 -11  -19.46   18.98
  17  -4  11   -1.49   21.78
  17  -4  11  -13.15    6.94
 -17   5 -11   -5.59    4.61
 -17   5 -11   11.40   19.96
 -17   6 -11   24.42   20.92
 -17   6 -11   -6.74    5.21
 -17   7 -11    1.77   21.11
 -17   7 -11   -3.50    5.03
  17  -7  11    4.30    6.49
 -17   8 -11    7.17   22.44
  17  -8  11    4.49    6.25
 -18  -4 -11  -16.37   16.49
  18   4  11   12.19   26.30
 -18  -3 -11   -4.23   16.89
  18   3  11   18.96   26.35
  18   3  11   20.69   11.58
 -18  -2 -11  -20.35   17.31
 -18  -1 -11   -0.34    4.76
 -18  -1 -11  -67.36   18.72
  18   1  11  -44.83   11.70
 -18   0 -11    2.17    4.83
 -18   0 -11  -25.42   18.47
  18   0  11  -61.70   28.50
 -18   1 -11  -25.06   18.88
 -18   1 -11   -3.35    5.34
  18  -1 -11  -12.44    6.92
 -18   1  11  -29.71   19.84
 -18   2 -11    1.94    5.06
 -18   2 -11   -0.57   19.13
  18  -2  11  -27.38    9.86
 -18   3 -11   -2.98   19.56
 -18   3 -11   -8.95    5.45
  18  -3  11   -5.52   23.60
  18  -3  11   -9.50    8.75
 -18   4 -11    8.11    5.22
 -18   4 -11   -0.61   20.89
  18  -4  11  -25.17   24.94
  18  -4  11  -18.46    8.49
 -18   5 -11   44.80   21.35
 -18   5 -11   -9.85    5.41
  18  -5  11    2.20   25.03
  18  -5  11    9.78    7.75
 -18   6 -11    5.60    5.43
 -18   6 -11   15.18   23.19
  18  -6  11  -11.70    7.46
  18  -6  11   -0.45   24.51
 -18   7 -11  -39.65   23.76
 -18   7 -11    3.86    5.28
  18  -7  11  -35.59    7.64
 -18   8 -11   22.66   23.28
  18  -8  11   -7.43    6.93
 -19  -3 -11  -20.39   19.49
  19   3  11    0.65   11.85
 -19  -2 -11  -32.22   20.48
  19   2  11    0.63   11.63
  19   2  11    0.46   26.18
 -19  -1 -11    6.37   18.86
 -19  -1 -11    3.48    5.18
  19   1  11  -17.72   28.09
  19   1  11    4.04   11.63
 -19   0 -11    6.24   19.06
 -19   0 -11   -0.40    5.41
  19   0  11   22.01   27.61
  19   0  11  -18.14   10.55
 -19   1 -11    0.41    5.18
 -19   1 -11   33.08   20.07
  19  -1  11  -61.93   27.66
  19  -1  11   -7.32   10.26
 -19   2 -11  -17.21   21.11
 -19   2 -11  -11.67    5.74
  19  -2  11    0.50   10.00
  19  -2  11    0.43   26.27
 -19   3 -11    7.23    6.19
 -19   3 -11  -14.44   22.20
  19  -3  11   24.39   26.07
  19  -3  11    0.47    9.36
 -19   4 -11   16.26   23.12
  19  -4  11    5.33    9.70
  19  -4  11    0.48   22.11
   0   0 -12  196.48   49.35
   0   0  12  201.17   58.09
   1   0 -12   -0.73    2.52
   0   1 -12    0.10    2.13
  -1   0 -12   -1.53    2.45
   1   0 -12   -0.48    2.19
   0   1 -12   -0.13    1.95
  -1   0  12    0.15    6.12
   0  -1  12   -3.78    5.93
   1   1 -12   53.04   12.87
  -1   1 -12   58.34   13.09
   1   1 -12   52.10   13.69
  -1  -1  12   43.70   16.57
   2   1 -12    1.09    2.08
   2   1 -12   -0.14    2.23
  -1   2 -12   -1.25    1.54
   1  -2  12   -1.62    3.04
  -2  -1  12    1.93    6.32
   1  -2  12   16.58    4.72
   2   0 -12   16.38    4.12
   0   2 -12   14.08    3.96
   0   2 -12   11.33    3.59
   2   0 -12   15.60    4.20
   0  -2  12    6.93    6.39
  -2   0  12   10.33    7.50
   0  -2  12   12.30    4.25
   1   2 -12    0.55    1.97
   1   2 -12   -0.94    1.81
  -1  -2  12    2.77    5.48
   2  -1  12    2.29    3.26
   2   2 -12    7.68    3.22
   2   2 -12   11.03    3.00
  -2  -2  12    5.99    6.61
   2  -2  12   10.67    4.82
   3   2 -12    0.63    0.62
  -2   3 -12    0.12    0.64
   3   2 -12   -0.71    2.10
  -2   3 -12   -0.06    1.19
  -2   3 -12    4.79    2.06
  -3  -2  12    2.12    6.14
   2  -3  12   11.58    4.05
   2  -3  12   -0.44    1.50
  -1   3 -12    1.28    1.33
  -1   3 -12    0.84    1.57
   3   1 -12    1.36    2.38
  -1   3 -12    2.83    0.67
  -1   3 -12    4.54    2.06
   1  -3  12   -0.06    2.73
  -3  -1  12    2.03    6.96
   1  -3  12   -2.41    5.01
   0   3 -12   -0.93    1.34
   3   0 -12    1.55    2.36
   0   3 -12   -0.08    1.99
  -3   0  12   -2.29    6.71
   0  -3  12    0.09    5.05
   1   3 -12    1.58    1.56
  -3   1 -12    6.13    2.33
   1   3 -12    3.63    2.14
   3  -1  12   -2.41    5.37
  -1  -3  12   -0.71    5.49
   3  -1  12    7.25    4.42
  -3   2 -12   -1.31    2.15
  -3   2 -12    4.45    2.77
   2   3 -12    0.84    2.25
   2   3 -12   -0.09    1.63
   3  -2  12   10.42    5.14
   3  -2  12    2.04    2.07
   3  -2  12   10.57    5.09
  -2  -3  12   -1.73    5.71
   3   3 -12   15.68    6.20
  -3   3 -12   26.29    5.28
  -3   3 -12   22.44    6.71
  -3  -3  12   24.67    9.17
   3  -3  12   21.81    5.79
   4   2 -12   -1.48    2.07
  -2   4 -12   -1.25    1.20
   4   2 -12   -0.85    2.46
   4   2 -12   -0.10    0.97
  -2   4 -12   -1.52    2.32
  -2   4 -12   -0.72    0.80
  -2   4 -12   -6.79    2.30
   2  -4  12   -0.69    1.65
   2  -4  12   -2.13    1.16
  -4  -2  12   -6.12    7.16
  -1   4 -12   -0.13    1.37
  -1   4 -12    0.48    1.13
  -1   4 -12    0.58    1.94
   4   1 -12   -0.60    2.35
   4   1 -12    1.90    2.49
   1  -4  12    3.72    4.96
  -4  -1  12    0.77    7.31
   1  -4  12    1.08    1.55
   1  -4  12   -0.06    0.85
   0   4 -12    0.45    1.20
   0   4 -12    0.26    1.98
   4   0 -12    0.67    2.70
  -4   0 -12    2.08    2.44
   4   0 -12    1.32    2.81
   0  -4  12    0.85    1.60
  -4   0  12   -0.34    7.23
   0  -4  12    1.70    5.25
  -4   1 -12    0.43    1.61
   1   4 -12    0.24    1.31
   1   4 -12   -0.73    2.09
  -1  -4  12   -0.10    5.52
  -1  -4  12    0.30    1.70
   2   4 -12   -0.58    2.39
  -4   2 -12   -9.35    2.44
   2   4 -12   -0.94    1.41
  -4   2 -12   -3.82    1.52
  -2  -4  12   -9.15    6.87
  -2  -4  12   -2.28    2.03
   4  -2  12   -6.21    2.31
  -4   4 -12   12.51    8.16
   4   4 -12   22.11    7.25
   4   4 -12   28.52    6.49
   4  -4  12   33.22    6.77
  -4  -4  12   32.52   10.62
  -4   5 -12   21.75    5.84
   5   4 -12   23.22    6.60
   5   4 -12   24.00    5.81
  -4   5 -12   26.73    6.60
  -5  -4  12   21.73    9.89
  -5  -4  12   20.40    6.34
   4  -5  12   26.60    6.51
   5   3 -12    5.55    4.45
  -3   5 -12    5.73    2.36
   5   3 -12    2.35    2.78
   5   3 -12    1.49    1.98
   5   3 -12    4.10    1.51
  -3   5 -12    2.42    1.34
   3  -5  12    4.07    1.99
  -5  -3  12    1.74    1.07
  -5  -3  12    3.53    2.89
   3  -5  12    2.71    1.59
  -5  -3  12    3.18    7.26
  -2   5 -12   91.81   19.74
   5   2 -12   67.37   20.17
   5   2 -12   64.72   19.75
  -2   5 -12   92.60   21.56
   5   2 -12   82.47   21.60
   2  -5  12   78.87   21.18
  -5  -2  12   74.02   26.49
   2  -5  12   96.69   21.44
   5   1 -12    2.75    2.67
  -1   5 -12    0.90    1.17
  -1   5 -12   -0.09    2.25
   5   1 -12    0.87    1.27
   5   1 -12    1.37    2.36
   1  -5  12    0.10    1.78
   5   1  12  -13.66    5.24
   1  -5  12   -0.72    0.91
  -5  -1  12   -6.66    8.57
  -5   0 -12    7.05    4.87
   0   5 -12   -0.27    2.38
   5   0 -12    0.98    2.98
   5   0 -12    5.44    3.11
   0   5 -12    2.45    1.55
  -5   0 -12    8.06    2.71
   0  -5  12    1.06    2.02
   0  -5  12    2.81    0.88
  -5   0  12   14.35    8.54
  -5   1 -12   -0.14    1.62
  -5   1 -12   -9.00    4.24
   1   5 -12   -0.86    2.30
   1   5 -12    1.18    1.30
  -1  -5  12   -0.45    1.89
  -5   2 -12  101.85   23.65
   2   5 -12  100.70   20.26
  -5   2 -12   96.52   23.23
   2   5 -12   87.91   21.67
   5  -2  12   64.07   25.68
   5  -2  12   43.72   27.01
  -2  -5  12   96.15   21.44
   5  -2  12   96.66   21.22
  -5   3 -12    2.04    1.35
  -5   3 -12    4.49    2.19
   3   5 -12    4.15    2.53
  -5   3 -12    4.07    1.29
   3   5 -12    4.35    1.72
   5  -3  12    1.50    1.60
  -3  -5  12   10.16    6.56
   5  -3  12    0.28    6.92
   5  -3  12   13.07    4.93
  -3  -5  12    4.82    2.15
  -5   4 -12   15.73    5.44
  -5   4 -12   23.66    6.43
  -5   4 -12   35.89    7.68
   4   5 -12   20.42    6.31
  -4  -5  12   24.91    9.74
   5  -4  12    7.55    9.30
   5  -4  12   35.84    5.94
   5  -4  12   16.36    7.92
  -5   5 -12   13.58    4.15
   5   5 -12   12.35    4.99
  -5   5 -12   14.29    4.03
   5   5 -12   17.74    4.14
  -5  -5  12   17.09    4.83
   5  -5  12   20.87    4.55
   5  -5  12   13.14    8.70
  -5  -5  12   25.26    8.96
   6   5 -12    2.24    3.22
  -5   6 -12    4.92    2.70
   6   5 -12    3.31    2.01
  -6  -5  12   15.70    8.16
  -6  -5  12    4.18    2.85
   5  -6  12    4.17    2.30
  -4   6 -12   32.43    7.43
   6   4 -12   25.18    7.42
   6   4 -12   26.73    6.53
  -6  -4  12   15.41   11.08
   4  -6  12   32.42    7.48
  -6  -4  12   23.16    7.16
   6   3 -12   54.93   19.34
   6   3 -12   91.72   17.72
  -3   6 -12   81.43   18.29
  -3   6 -12   75.49   19.53
   3  -6  12   74.17   19.93
  -6  -3  12   69.39   18.41
   3  -6  12   77.80   19.42
  -6  -3  12   79.61   20.56
  -6  -3  12   65.87   23.91
  -2   6 -12   19.52    4.87
   6   2 -12   14.38    5.69
  -2   6 -12   17.59    5.50
   6   2 -12   25.79    5.15
   6   2 -12   19.89    4.91
  -6  -2  12   13.83    9.91
   2  -6  12   21.50    5.19
   2  -6  12   18.17    5.51
  -1   6 -12   11.80    4.14
   6   1 -12   13.15    4.21
   6   1 -12   10.18    4.54
  -1   6 -12   15.71    3.46
   6   1 -12   12.25    3.56
   1  -6  12   11.01    4.03
  -6  -1  12   25.69    9.41
   6   1  12   14.44    6.95
   0   6 -12  154.92   34.61
  -6   0 -12   95.15   36.96
   6   0 -12  150.33   33.34
   6   0 -12  130.88   36.65
  -6   0 -12  125.97   40.48
   0   6 -12  150.99   32.81
   6   0  12  133.67   35.64
   6   0  12  148.55   39.98
  -6   0  12  166.04   42.40
   0  -6  12  138.60   34.87
   1   6 -12   11.79    4.20
  -6   1 -12   11.19    3.68
   1   6 -12   11.84    3.47
  -6   1 -12   17.31    5.39
   6  -1  12   16.35    8.45
  -1  -6  12   16.47    4.22
   6  -1  12   17.00    4.45
   2   6 -12   21.05    4.83
   2   6 -12   23.30    5.53
  -6   2 -12   16.68    4.94
  -6   2 -12   14.96    6.42
   6  -2  12   14.39    5.44
  -2  -6  12   26.08    5.44
   6  -2  12   23.03    9.73
   3   6 -12   77.35   18.78
   3   6 -12   74.26   17.57
  -6   3 -12   73.14   18.47
  -6   3 -12   84.12   20.36
  -6   3 -12   82.77   17.64
  -6   3 -12   57.54   20.78
  -3  -6  12   86.04   18.82
   6  -3  12   90.27   23.55
   6  -3  12   60.18   18.40
  -6   4 -12   39.17    8.72
   4   6 -12   16.38    6.68
  -6   4 -12   23.24    5.86
   6  -4  12   22.27    6.48
   6  -4  12   22.02   10.29
  -6   5 -12    2.45    1.79
  -6   5 -12    6.90    6.13
   5   6 -12    5.81    2.97
   5   6 -12    4.48    1.98
  -5  -6  12    6.00    2.94
   6  -5  12    4.74    2.48
   6  -5  12    8.46    8.01
   6   6 -12    7.41    2.85
  -6   6 -12    9.00    2.78
   6   6 -12   13.88    3.97
   6  -6  12    9.71    3.43
  -6  -6  12    9.15    3.77
  -6  -6  12   12.77    8.97
   7   6 -12    0.41    3.53
   7   6 -12    1.53    1.85
  -7  -6  12    0.35    3.26
  -7  -6  12   -7.20    9.33
   6  -7  12    0.96    2.20
  -5   7 -12   25.63    5.81
   7   5 -12   17.10    6.04
   7   5 -12   14.45    4.97
  -7  -5  12   26.76   10.66
   5  -7  12   21.13    5.37
  -7  -5  12   19.49    5.67
   7   4 -12    2.45    3.34
  -4   7 -12    4.78    2.87
   7   4 -12    2.68    2.33
   4  -7  12   11.87    2.23
  -7  -4  12    7.54    8.82
  -7  -4  12    1.95    3.00
   7   3 -12   15.01    6.76
  -3   7 -12   19.91    6.42
   7   3 -12   31.48    5.83
  -7  -3  12   20.86   11.10
   7   2 -12   14.20    5.84
   7   2 -12   14.78    5.03
  -2   7 -12   18.42    5.50
  -7  -2  12   26.79   10.70
   2  -7  12   19.12    5.71
   7   1 -12   27.41    6.23
  -7  -1 -12   16.69    8.83
   7   1 -12   14.63    7.14
  -1   7 -12   28.34    6.66
   7   1 -12   27.47    6.42
  -1   7 -12   23.74    6.12
   7   1  12   29.95    9.78
  -7  -1  12   22.80   11.95
   1  -7  12   23.36    6.93
   7   0 -12    1.14    3.16
   7   0 -12   -0.15    3.17
   7   0 -12   -0.18    1.88
   0   7 -12    0.90    1.50
  -7   0 -12   -0.35    4.54
   0   7 -12   -0.43    2.53
  -7   0  12    5.17    8.89
   7   0  12   -2.97    7.71
   0  -7  12   -1.88    2.46
   7   0  12   -0.36    3.43
   1   7 -12   18.51    6.44
   1   7 -12   18.88    5.84
  -7   1 -12   25.37    7.73
   7  -1  12   23.15    6.61
   7  -1  12   34.60   11.19
  -1  -7  12   26.77    6.53
   2   7 -12   19.78    6.27
  -7   2 -12   22.18    7.54
   2   7 -12   29.47    5.66
   7  -2  12   32.43   11.03
   7  -2  12   24.53    6.14
  -2  -7  12   14.76    6.32
   3   7 -12   20.08    5.30
   3   7 -12   18.98    6.01
  -7   3 -12   14.78    7.69
  -7   3 -12   23.86    5.23
  -3  -7  12   23.48    6.10
   7  -3  12   25.74   10.93
   7  -3  12   18.79    5.78
  -7   4 -12    3.12    1.72
   4   7 -12    3.55    3.06
  -7   4 -12    3.41    5.98
   7  -4  12   -5.52    8.13
   7  -4  12    5.44    2.67
  -7   5 -12   17.07    8.93
  -7   5 -12   13.63    4.55
   5   7 -12   11.56    4.60
   5   7 -12   24.06    5.57
  -5  -7  12   20.45    5.46
   7  -5  12   19.55    5.29
   7  -5  12   23.64   10.94
   6   7 -12    4.36    3.32
   6   7 -12    5.59    2.13
  -7   6 -12    5.06    1.93
  -6  -7  12    1.49    3.30
   7  -6  12   -0.97    9.07
   7  -6  12    2.08    2.65
   7   7 -12   -3.45    2.53
   7   7 -12   -8.93    4.11
  -7  -7  12  -12.84    4.18
   7  -7  12   -0.77    2.66
   8   7 -12   -0.45    3.60
   8   7 -12    0.13    2.14
  -8  -7  12   -8.95    3.77
   7  -8  12    0.89    2.45
   8   6 -12    3.80    3.71
   8   6 -12   -0.68    1.97
  -8  -6  12    1.89    3.56
  -8  -6  12    2.82   10.12
   6  -8  12    0.79    2.33
   8   5 -12   -0.14    3.54
  -5   8 -12    0.73    2.73
   8   5 -12    2.95    2.01
  -8  -5  12    3.42    3.06
  -8  -5  12   -7.94    9.79
  -4   8 -12   43.22   12.51
   8   4 -12   48.39   12.89
   8   4 -12   46.61   11.32
  -8  -4  12   48.97   17.52
  -8  -4  12   52.09   12.31
   8   3 -12    7.92    2.65
  -3   8 -12    4.54    3.01
   8   3 -12    4.58    3.51
  -8  -3  12    2.18    9.33
   8   2 -12   13.87    6.44
   8   2 -12   31.39   10.53
  -2   8 -12   22.12    5.91
   8   2 -12   22.15    5.47
   8   2 -12   22.55    5.42
  -8  -2  12   28.33   11.35
   8   2  12   14.35    9.30
  -8  -2  12   15.55    5.33
  -8  -2  12   19.79    7.72
   8   1 -12    6.22    3.50
   8   1 -12    9.30    3.01
   8   1 -12    5.63    4.05
  -1   8 -12    7.88    3.56
  -8  -1 -12    8.20    6.30
   8   1  12   17.00    4.97
  -8  -1  12   -0.39   10.01
   8   1  12    6.96    8.45
   8   0 -12   19.09    8.72
   0   8 -12   30.11    7.87
  -8   0 -12   37.69    9.72
   8   0 -12   33.41    7.50
   8   0 -12   24.41    7.79
  -8   0  12   28.21   13.26
   8   0  12   19.29    8.30
   8   0  12   37.35   12.59
   0  -8  12   33.47    8.38
   1   8 -12    6.42    3.87
  -8   1 -12   10.06    5.47
   1   8 -12   15.57    3.23
   8  -1 -12    8.08    4.59
   8  -1  12   12.89   10.35
   8  -1  12   10.92    4.26
  -1  -8  12   11.84    4.07
   2   8 -12   28.40    5.56
   2   8 -12   23.16    6.18
  -8   2 -12   14.45    7.60
  -2  -8  12   14.21    6.36
   8  -2  12   31.56   12.23
   8  -2  12   22.53    6.24
   3   8 -12    3.56    2.28
  -8   3 -12    5.64    5.70
  -8   3 -12    7.15    1.99
   3   8 -12    4.31    3.17
  -3  -8  12    5.62    3.39
   8  -3  12   11.01   10.10
   8  -3  12    2.98    3.17
  -8   4 -12   38.34   14.85
   4   8 -12   50.26   11.38
  -8   4 -12   42.22   10.60
   8  -4  12   38.57   11.45
   8  -4  12   43.84   16.46
   5   8 -12   -0.28    3.37
  -8   5 -12    2.60    7.83
   5   8 -12    2.71    2.22
  -8   5 -12    5.08    2.02
   8  -5  12   -5.63    9.51
   8  -5  12    2.37    2.93
  -5  -8  12    2.93    3.30
   6   8 -12    2.23    3.51
   6   8 -12    4.15    2.23
  -8   6 -12    3.49    2.05
   8  -6  12    0.99    2.76
  -6  -8  12   -1.30    3.89
   8  -6  12  -11.66   10.16
   7   8 -12    0.94    3.82
   7   8 -12    1.26    2.23
   8  -7  12    0.88    2.82
  -7  -8  12    3.19    4.13
   8   8 -12   -0.87    2.39
   8   8 -12   -0.48    3.95
  -8  -8  12   -4.83    4.27
   8  -8  12    1.52    2.87
   9   8 -12    0.17    4.16
   9   7 -12   -1.35    2.31
   9   7 -12    1.12    4.25
  -9  -7  12    1.65   10.84
  -9  -7  12    0.23    4.27
   9   6 -12    8.33    4.29
   9   6 -12    7.46    2.46
  -9  -6  12    0.71   11.13
  -9  -6  12    0.61    4.06
   9   5 -12   20.70    5.88
   9   5 -12   16.40    4.36
  -9  -5  12   12.14    5.38
  -9  -5  12   18.64   11.80
   9   4 -12    8.75    5.23
   9   4 -12   12.92    3.50
  -9  -4  12    5.12    4.43
  -9  -4  12   27.62   11.38
   9   3 -12   31.13    7.96
   9   3 -12   32.33    9.63
  -9  -3  12   25.76   14.97
   9   2 -12   -1.47    3.53
   9   2 -12    0.82    2.46
  -9  -2 -12    6.98    6.09
   9   2 -12    1.77    2.07
  -9  -2  12    1.37    6.01
   9   2  12   -6.94    8.52
  -9  -2  12    2.49   10.28
  -9  -2  12    2.24    1.61
  -9  -1 -12   10.13    6.98
   9   1 -12   10.27    4.11
   9   1 -12   13.87    3.92
   9   1 -12   16.21    5.00
   9   1  12   14.08    5.51
   9   1  12   22.76   10.32
  -9  -1  12   10.27    3.62
  -9  -1  12   12.84   11.08
  -9   0 -12   -0.39    5.49
   9   0 -12    0.17    3.52
   9   0 -12   -2.05    3.29
   9   0 -12   -3.35    2.46
   9   0  12   -7.74   10.48
   9   0  12    1.05    4.10
  -9   0  12   -1.32    9.91
  -9   1 -12   15.40    6.48
   9  -1 -12   14.10    4.07
   9  -1 -12   14.78    5.06
   9  -1  12   -3.13   11.71
   9  -1  12   14.43    4.94
   2   9 -12    4.42    3.21
  -9   2 -12    3.74    5.86
   9  -2  12    0.68    3.68
   9  -2  12   10.85   11.20
  -9   3 -12   34.33   12.29
   3   9 -12   38.08    9.51
  -9   3 -12   45.81    8.84
  -3  -9  12   47.55   10.25
   9  -3  12   17.00   15.25
   9  -3  12   26.55    9.46
  -9   4 -12    3.31    9.24
   4   9 -12   43.48    5.79
   9  -4  12    2.98    5.24
   5   9 -12   12.56    4.42
  -9   5 -12   16.77   10.10
   5   9 -12   21.35    5.44
  -9   5 -12   17.22    4.39
   9  -5  12   27.56   11.38
  -5  -9  12    4.32    5.70
   9  -5  12   17.05    5.29
  -9   6 -12   12.11    2.60
  -9   6 -12    5.95   10.40
   6   9 -12    2.54    4.02
   6   9 -12    0.77    2.72
  -6  -9  12    0.25    4.34
   9  -6  12    9.84   11.90
   9  -6  12    2.27    3.34
   7   9 -12   -3.98    3.94
  -9   7 -12    2.52    2.24
   9  -7  12    0.70    3.13
   9  -8  12    4.40    3.13
   9   9 -12   -1.56    2.83
  -9  -9  12   -5.31    5.28
  10   9 -12    2.23    4.46
  10   9 -12    0.54    2.86
 -10  -9  12    0.31    5.29
  10   7 -12    0.34    4.40
  10   7 -12   12.09    2.80
 -10  -7  12   -6.19   11.98
  10   6 -12   -0.12    2.03
  10   6 -12    1.67    4.16
 -10  -6  12    1.50    4.00
 -10  -6  12    1.52   11.81
  10   5 -12    6.02    4.46
  10   5 -12    8.82    2.60
 -10  -5  12   -4.53   11.54
 -10  -5  12    3.27    3.87
  10   4 -12   11.09    4.82
  10   4 -12   20.02    6.35
 -10  -4  12   22.65    5.89
 -10  -4  12   32.41   12.98
  10   3 -12    0.46    3.85
  10   3 -12    0.75    2.19
 -10  -3  12   -2.71   10.98
 -10  -3  12    3.14    3.33
  10   2 -12    1.87    2.42
 -10  -2 -12   -1.92    6.90
  10   2 -12    2.20    3.57
  10   2  12   11.57    5.47
 -10  -2  12    0.52    6.77
  10   2  12  -20.06   10.41
 -10  -2  12   -6.51   11.38
 -10  -2  12    2.66    1.71
  10   1 -12   -0.33    3.76
  10   1 -12    1.25    2.87
  10   1 -12    0.47    2.72
 -10  -1 -12    2.91    6.68
 -10  -1  12    0.65    1.87
  10   1  12   -1.52    5.10
 -10  -1  12  -21.03   11.49
  10   0 -12   -0.38    2.75
  10   0 -12   -0.18    3.29
 -10   0 -12   -5.74    6.60
  10   0  12  -12.05    4.63
 -10   0  12   -8.11   10.79
  10  -1 -12    1.35    4.12
  10  -1 -12    0.54    2.72
 -10   1 -12    1.43    6.58
  10  -1  12   -6.47    4.53
 -10   2 -12    2.03    2.12
 -10   2 -12    6.04    6.88
  10  -2  12    2.00    3.69
  10  -2  12   -9.47   12.45
 -10   3 -12    0.93    7.89
 -10   3 -12    1.66    2.13
  10  -3  12   -3.34   12.06
  10  -3  12    0.72    3.74
 -10   4 -12   28.98   10.65
 -10   4 -12   17.72    5.37
  10  -4  12   21.08    6.13
  10  -4  12   18.70   12.78
 -10   5 -12    3.46    2.63
 -10   5 -12    4.47   10.22
  10  -5  12   -3.23   12.05
  10  -5  12   10.09    3.76
 -10   6 -12    1.48    2.33
 -10   6 -12    7.55   11.41
  10  -6  12   -0.31    3.40
  10  -6  12   -9.56   12.02
 -10   7 -12    0.23    2.45
  10  -7  12    2.18    3.33
  10  -8  12   -8.26    4.33
   9  10 -12   -1.38    4.78
  10  10 -12    1.41    4.99
  11  10 -12    0.63    4.98
  11   9 -12    4.13    4.90
 -11  -9  12   -1.69    5.30
  11   8 -12   37.70    9.65
  11   6 -12   -0.18    4.64
  11   6 -12   -1.27    2.31
 -11  -6  12    7.23    4.09
 -11  -6  12    2.83   12.57
  11   5 -12    2.82    2.34
  11   5 -12    1.74    4.53
 -11  -5  12    5.91   12.15
 -11  -5  12    5.84    3.98
  11   4 -12   -0.33    4.28
  11   4 -12   -0.62    2.14
 -11  -4  12    1.56    3.56
 -11  -4  12    4.72   12.31
  11   3 -12    3.74    2.63
  11   3 -12    6.01    4.11
 -11  -3  12    1.85    3.69
 -11  -3  12    3.35   12.26
  11   2 -12   -0.14    2.72
 -11  -2 -12    4.42    7.61
  11   2 -12    1.50    3.99
  11   2  12    1.87    5.70
  11   2  12   17.42   11.57
 -11  -2  12   10.71   11.73
  11   1 -12    0.17    4.01
  11   1 -12   -2.42   10.08
 -11  -1 -12    5.82    7.46
  11   1 -12   -0.15    2.86
  11   1 -12    3.11    2.95
 -11  -1  12    1.80   11.58
 -11  -1  12   -0.68    8.76
 -11  -1  12   -0.18    2.11
  11   1  12   -1.04   12.78
  11   1  12    3.59    5.17
  11   0 -12   -1.77    3.25
 -11   0 -12   -0.48    7.16
  11   0 -12   -1.90    3.11
  11   0  12   -4.44    4.70
 -11   0  12    0.97   10.85
  11   0  12   10.72   13.74
  11  -1 -12    4.21    3.08
  11  -1 -12   -3.06    4.02
 -11   1 -12    7.70    7.50
  11  -1  12   -1.36    4.66
  11  -1  12    3.94   14.28
 -11   2 -12    2.97    8.00
 -11   2 -12    1.60    2.34
  11  -2  12   -6.52    4.46
  11  -2  12   20.12   13.72
 -11   3 -12   -1.33    9.16
 -11   3 -12    2.99    2.37
  11  -3  12  -11.73   13.45
  11  -3  12    2.82    4.18
 -11   4 -12   -1.78    2.47
 -11   4 -12   11.26   10.19
  11  -4  12    2.60    4.04
  11  -4  12    4.34   12.79
 -11   5 -12    0.64    2.57
 -11   5 -12    7.21   11.47
  11  -5  12    1.48    4.14
  11  -5  12   -6.12   12.96
 -11   6 -12   -1.63    2.76
 -11   6 -12    2.01   12.53
  11  -6  12    8.61   13.53
  11  -6  12    3.88    3.67
 -11   7 -12    5.27    3.03
  11  -7  12   -0.17    4.13
  12  10 -12    4.34    5.72
  12   9 -12   -9.09    5.38
 -12  -9  12   -1.15   14.14
 -12  -9  12    0.36    6.14
  12   8 -12   -1.01    5.21
  12   8 -12    1.03    2.82
 -12  -8  12    3.56   13.98
 -12  -8  12    2.82    5.39
  12   7 -12   -0.46    2.55
 -12  -7  12   -0.55    5.11
  12   5 -12    8.79    4.09
  12   5 -12   19.60    6.43
 -12  -5  12    8.16    5.96
 -12  -5  12   73.56   15.67
  12   4 -12    0.35    4.44
  12   4 -12   -0.50    2.23
 -12  -4  12   -3.73   12.81
 -12  -4  12    0.81    3.85
  12   3 -12    4.99    4.42
  12   3 -12   -0.13    2.48
 -12  -3  12    0.58    3.70
  12   3  12    7.15   12.68
 -12  -3  12   -4.46   12.54
  12   2 -12   -1.93    4.25
  12   2 -12    1.63    2.51
 -12  -2  12  -10.50   12.81
  12   1 -12    0.18    4.32
  12   1 -12   -2.25    3.08
 -12  -1  12    2.49    9.61
 -12  -1  12  -17.72   12.06
 -12  -1  12   -2.57    2.27
  12   0 -12   11.81    4.21
  12   0 -12    6.49    4.03
  12  -1 -12   -3.44    3.64
  12  -1 -12    1.68    3.86
 -12   1 -12   -0.27    8.68
  12  -1  12  -14.43    5.37
 -12   2 -12   -9.86    9.51
  12  -2  12   -5.35    5.31
 -12   3 -12   -5.14   11.46
  12  -3  12   15.93    5.56
 -12   7 -12   -1.92    2.97
  12  -7  12    9.29   14.79
  12  -7  12   -0.19    3.46
  12  -8  12    0.19    4.15
  13  10 -12    2.04    6.01
 -13 -10  12    5.54   15.62
  13   9 -12    5.48    5.68
 -13  -9  12  -24.33   15.34
 -13  -9  12    6.00    6.64
  13   8 -12  -12.46    5.68
  13   8 -12    1.43    2.89
 -13  -8  12   -5.06    6.62
 -13  -8  12  -11.74   14.98
  13   7 -12    1.65    5.49
  13   7 -12   -4.90    2.53
 -13  -7  12    2.57   14.85
 -13  -7  12    3.24    5.34
  13   6 -12   -0.14    2.25
 -13  -6  12    3.63    4.76
 -13  -4  12    4.50    4.23
 -13  -3 -12   -4.77    8.78
  13   3  12    7.70   14.31
 -13  -2 -12  -14.18   10.17
  13   2  12  -11.87    7.39
  13   2  12  -27.92   15.66
 -13  -1 -12   11.96    9.51
 -13  -1  12   -0.22    2.63
 -13  -1  12    0.55   10.44
  13   1  12    5.15    6.64
  13   1  12    2.34   16.49
 -13   0 -12   25.30   10.51
  13   0 -12    9.79    5.55
 -13   0  12    8.11    4.87
  13   0  12   37.04    8.10
 -13   1 -12   10.56   10.17
  13  -1 -12    4.21    4.44
 -13   1 -12    3.41    3.50
  13  -1  12   15.82    6.94
  13  -1  12   59.23   18.91
 -13   2 -12   13.45   12.92
 -13   2 -12    2.72    3.10
  13  -2  12  -27.60    6.39
 -13   3 -12   -4.95    3.27
 -13   3 -12  -27.71   15.03
  13  -3  12    4.97    5.26
 -13   4 -12    7.41    3.21
 -13   4 -12   -2.19   13.26
  13  -4  12   -7.66    5.09
  13  -4  12  -10.00   15.95
 -13   5 -12    3.98    3.80
 -13   5 -12   18.96   14.12
  13  -5  12   19.50   16.30
  13  -5  12    7.19    5.34
 -13   6 -12   -4.47   15.04
 -13   6 -12   -2.27    3.23
  13  -6  12   -0.56   16.10
  13  -6  12    4.52    4.69
 -13   7 -12   -5.87   15.78
 -13   7 -12    2.71    3.34
  13  -7  12   -6.78    4.53
  13  -7  12   18.49   15.83
 -13   8 -12   -0.86   16.32
  13  -8  12    5.43    4.74
 -14  -3 -12    1.20   10.33
  14   3  12   13.77   16.37
 -14  -2 -12   16.79   10.54
  14   2  12   -2.75    7.78
  14   2  12   22.06   17.48
 -14  -1 -12   12.65   10.12
  14   1  12    1.77    7.05
  14   1  12  -25.83   18.10
 -14   0 -12    4.43   10.27
  14   0  12   13.83   17.99
  14   0  12    0.34    6.63
 -14   1 -12  -16.42   11.32
 -14   1 -12    0.72    3.19
  14  -1  12    2.25   17.51
  14  -1  12   -6.60    6.40
 -14   2 -12   -3.62   12.76
 -14   2 -12    1.52    3.30
  14  -2  12   20.03   18.62
  14  -2  12   -0.30    5.90
 -14   3 -12   -5.26    3.60
 -14   3 -12   16.33   14.50
  14  -3  12   -7.55   17.39
  14  -3  12    3.49    6.21
 -14   4 -12    0.28    3.71
 -14   4 -12   -4.48   14.28
  14  -4  12    9.15   16.90
  14  -4  12    2.61    5.49
 -14   5 -12   -7.29   15.44
 -14   5 -12    5.60    3.88
  14  -5  12    0.25    5.45
  14  -5  12   -7.23   17.35
 -14   6 -12   -5.96    3.80
 -14   6 -12   13.79   16.11
  14  -6  12   -2.77   17.49
  14  -6  12   -7.55    5.25
 -14   7 -12   17.37   16.65
 -14   7 -12    3.97    4.04
  14  -7  12  -18.59   17.83
  14  -7  12    0.24    5.08
 -14   8 -12   -5.59   16.90
  14  -8  12    0.23    4.98
 -15  -3 -12    5.73   11.85
  15   3  12   46.36   19.11
  15   3  12    0.45    8.64
 -15  -2 -12  -11.03   11.95
  15   2  12  -23.50   18.78
  15   2  12    0.43    7.85
 -15  -1 -12   19.75   11.77
  15   1  12   25.77   20.22
  15   1  12   -2.35    7.95
 -15   0 -12    4.62   11.24
 -15   0 -12   -3.83    3.61
 -15   0  12   -2.21   13.83
  15   0  12    1.87    7.27
 -15   0  12    0.81    2.92
  15   0  12  -14.03   19.45
 -15   1 -12   10.41    3.66
  15  -1 -12   -7.44    4.99
 -15   1 -12    7.79   12.00
 -15   1  12   10.66   15.30
  15  -1  12   13.45   19.73
  15  -1  12    6.08    7.36
 -15   2 -12    1.63   13.21
 -15   2 -12   -0.28    3.62
  15  -2  12  -10.03   18.94
  15  -2  12   -0.33    6.81
 -15   3 -12    0.58    3.83
 -15   3 -12   -0.87   14.73
  15  -3  12   -7.31    6.75
  15  -3  12  -39.69   19.93
 -15   4 -12   -0.31    4.54
 -15   4 -12   12.25   16.37
  15  -4  12   25.57    7.44
 -15   5 -12   -4.92    3.96
 -15   5 -12    3.77   16.84
  15  -5  12   17.92   19.62
  15  -5  12   -2.90    6.14
 -15   6 -12  -15.07   17.21
 -15   6 -12    1.04    3.89
  15  -6  12    4.73    5.69
  15  -6  12   17.56   19.00
 -15   7 -12   -3.64    4.02
 -15   7 -12   22.90   18.45
  15  -7  12  -24.09   18.94
  15  -7  12  -13.74    5.67
 -15   8 -12   10.60   18.78
  15  -8  12   -6.50    5.31
 -16  -3 -12    4.88   13.11
  16   3  12    0.34   20.44
  16   3  12   -0.50    8.68
 -16  -2 -12  -18.98   13.17
  16   2  12    1.90    8.74
  16   2  12    0.34   20.49
 -16  -1 -12   -3.56   13.05
  16   1  12    0.43    8.30
  16   1  12    6.55   21.50
 -16   0 -12   21.77   13.70
 -16   0 -12   -3.39    3.75
  16   0  12  -10.38   21.83
  16   0  12    6.62    7.75
 -16   1 -12  -25.08   14.13
  16  -1 -12   -4.01    5.26
 -16   1 -12    5.43    3.77
 -16   1  12   -3.99   16.58
  16  -1  12    0.79    7.88
  16  -1  12   -0.34   20.47
 -16   2 -12   -1.84   15.28
 -16   2 -12    8.43    4.09
  16  -2  12    4.24    7.75
  16  -2  12    8.76   20.82
 -16   3 -12   -3.60    4.31
 -16   3 -12   11.14   16.51
  16  -3  12    1.62   20.18
  16  -3  12  -10.40    7.30
 -16   4 -12   -0.69    4.30
 -16   4 -12   24.10   17.55
  16  -4  12   31.81   19.69
  16  -4  12    0.33    6.96
 -16   5 -12    7.27    4.68
 -16   5 -12    2.59   18.49
  16  -5  12   -2.50    6.76
  16  -5  12    9.72   21.19
 -16   6 -12   -0.38    4.52
 -16   6 -12   33.52   19.67
  16  -6  12   -0.74   20.79
  16  -6  12    2.08    6.35
 -16   7 -12  -11.34   19.89
 -16   7 -12    2.40    5.02
  16  -7  12  -45.21   21.21
  16  -7  12  -29.80    6.79
 -16   8 -12  -37.81   20.81
  16  -8  12  -15.29    6.81
 -17  -3 -12  -15.79   14.40
  17   3  12    0.55    9.71
  17   3  12    4.17   23.00
 -17  -2 -12   -0.53   14.31
  17   2  12  -21.17   23.00
  17   2  12   11.00    9.89
 -17  -1 -12   -5.70   14.67
 -17  -1 -12   -7.89    4.33
  17   1  12    0.50    9.45
  17   1  12   46.92   23.18
 -17   0 -12    4.76    3.92
 -17   0 -12  -12.80   14.82
  17   0  12    0.46    8.15
  17   0  12    0.37   22.97
 -17   1 -12   14.87   15.21
 -17   1 -12   -0.67    4.68
  17  -1  12    4.82    8.60
  17  -1  12  -26.63   23.47
 -17   2 -12   -1.54   16.52
 -17   2 -12   -1.74    4.61
  17  -2  12    6.76    8.53
  17  -2  12  -11.11   21.33
 -17   3 -12    8.03   17.13
 -17   3 -12    5.09    4.70
  17  -3  12    1.08   22.02
  17  -3  12    7.62    7.99
 -17   4 -12    0.39    4.70
 -17   4 -12    1.12   18.72
  17  -4  12  -36.39   22.74
 -17   6 -12   -6.95   20.97
 -17   6 -12    0.85    4.96
  17  -6  12    4.17    6.78
  17  -6  12  -35.26   22.93
 -17   7 -12   -1.17   21.59
 -17   7 -12   -1.76    4.90
  17  -7  12  -29.73   22.79
  17  -7  12  -18.84    6.93
 -17   8 -12  -23.13   21.89
  17  -8  12    1.26    6.49
 -18  -3 -12   -3.05   16.93
  18   3  12    1.66   25.65
  18   3  12    0.60   10.17
 -18  -2 -12   -6.01   17.18
  18   2  12   16.80   11.11
  18   2  12  -18.24   25.96
 -18  -1 -12   -3.06    4.28
 -18  -1 -12    1.76   17.16
  18   1  12    0.55   10.31
  18   1  12  -21.29   25.19
 -18   0 -12  -25.60   17.01
 -18   0 -12   12.53    5.16
  18   0  12   -0.40   25.25
  18   0  12    4.20    9.94
 -18   1 -12   23.96   17.39
 -18   1 -12   -4.45    5.11
  18  -1  12  -27.13    9.63
  18  -1  12  -39.48   25.83
 -18   2 -12    0.77    5.30
 -18   2 -12   10.30   18.57
  18  -2  12  -18.57   24.25
  18  -2  12   -8.82    9.36
 -18   3 -12   13.63   19.79
 -18   3 -12    3.67    5.36
  18  -3  12   -7.44    8.94
  18  -3  12   16.54   24.25
 -18   4 -12   -9.43    5.63
 -18   4 -12   -4.31   20.58
  18  -4  12  -12.00    8.51
  18  -4  12  -27.04   25.04
 -18   5 -12   11.23   21.40
 -18   5 -12    1.78    5.35
  18  -5  12   -0.88   25.39
  18  -5  12    1.57    7.99
 -18   6 -12   -5.69   22.43
 -18   6 -12    0.47    5.26
  18  -6  12   -8.83    7.79
  18  -6  12   24.08   25.86
 -18   7 -12    0.49    5.18
 -18   7 -12   14.06   23.04
  18  -7  12    6.29    7.34
 -18   8 -12   27.65   24.57
 -19  -2 -12  -17.66   19.94
  19   2  12   -0.64   11.41
 -19  -1 -12   -0.38    4.32
 -19  -1 -12   -7.96   19.40
  19   1  12    0.61   11.66
 -19   0 -12   31.05   19.88
 -19   0 -12    0.40    5.15
  19   0  12   -4.06   11.32
 -19   1 -12    6.39   19.06
 -19   1 -12    3.72    4.92
  19  -1  12  -15.99   10.75
 -19   2 -12   -6.42   20.41
 -19   2 -12   -3.02    5.87
  19  -2  12   -3.14   10.30
 -19   3 -12  -10.48   21.71
 -19   3 -12   -1.36    5.95
  19  -3  12    9.09   10.19
 -19   4 -12  -18.92   22.24
  19  -4  12   -3.14    8.99
   0   0 -13   -1.71    2.75
  -1   0 -13   38.62   10.26
   1   0 -13   24.71   10.13
   0   1 -13   50.57   10.11
   0   1 -13   41.55   10.67
  -1   0  13   30.81   13.29
   0  -1  13   50.77   13.35
  -1   1 -13    0.23    2.28
   1   1 -13   -0.75    2.22
  -1   1 -13   -0.40    2.08
   1   1 -13   -1.17    2.35
   1  -1  13    0.44    2.39
   1  -1  13    3.36    6.08
  -1  -1  13    4.04    6.59
   2   1 -13    3.01    2.73
   2   1 -13    5.31    2.78
  -1   2 -13    6.57    2.25
  -1   2 -13    4.27    2.73
   1  -2  13    8.19    3.63
   1  -2  13    3.08    5.90
  -2  -1  13    4.68    7.22
   0   2 -13    2.74    1.90
  -2   0 -13   -0.17    2.72
   2   0 -13    3.35    2.96
   0   2 -13    0.99    2.22
   2   0 -13    0.14    2.62
  -2   0  13    2.73    6.97
   0  -2  13   -0.12    6.03
   0  -2  13    3.94    2.08
   1   2 -13    6.89    2.37
  -2   1 -13    6.48    2.55
   1   2 -13    4.89    2.58
  -1  -2  13    6.63    6.73
   2  -1  13    3.60    3.72
   2   2 -13    0.95    2.36
   2   2 -13   -1.11    1.96
  -2   2 -13    0.46    1.68
  -2   2 -13    4.57    2.25
  -2  -2  13    0.53    6.46
   2  -2  13   -0.71    4.15
   3   2 -13    0.93    0.64
  -2   3 -13   -2.03    1.62
  -2   3 -13   -4.03    2.61
   3   2 -13    0.99    2.50
  -2   3 -13   -0.39    0.73
  -3  -2  13   -4.25    7.41
   2  -3  13   -5.72    2.05
  -1   3 -13    0.16    1.40
   3   1 -13    1.74    2.56
  -1   3 -13    1.03    0.48
  -1   3 -13    0.27    2.16
  -3  -1  13   -1.90    7.56
   1  -3  13   -7.49    5.77
   1  -3  13    1.71    2.90
   0   3 -13    1.50    2.23
   0   3 -13    1.90    1.49
   3   0 -13   -0.28    2.71
   0  -3  13    0.21    5.74
  -3   0  13   -2.29    7.63
   1   3 -13    1.27    1.60
   1   3 -13   -0.49    2.33
   3  -1  13   -7.87    4.62
  -1  -3  13   -4.54    6.04
   2   3 -13   -1.04    1.97
   2   3 -13   -0.61    2.81
  -2  -3  13  -13.13    7.55
   3   3 -13   -0.77    1.97
   3   3 -13   -3.53    2.91
   3  -3  13    1.92    5.12
  -3   4 -13    9.19    3.84
  -3   4 -13   11.06    2.62
  -3   4 -13    9.97    2.82
  -3   4 -13   10.13    3.64
   4   3 -13    7.58    3.83
  -4  -3  13   15.01    8.10
   3  -4  13   12.27    6.14
   3  -4  13   12.40    5.85
   3  -4  13   14.73    3.01
   3  -4  13    6.72    3.17
   4   2 -13    9.75    3.18
  -2   4 -13    3.96    3.37
  -2   4 -13   10.73    2.27
   4   2 -13    9.46    2.40
   4   2 -13   12.64    3.60
  -2   4 -13    8.33    2.51
   2  -4  13   10.26    2.85
   2  -4  13    5.02    2.60
  -4  -2  13   14.47    7.91
   4   1 -13    2.47    4.51
   4   1 -13    3.94    3.68
  -4  -1  13   -3.66    9.72
   1  -4  13    1.85    7.65
   4   0 -13    3.25    3.70
   4   0 -13    0.29    3.56
   0  -4  13    9.49    2.81
  -4   0  13   20.83    9.25
   1   4 -13   -0.61    3.03
   1   4 -13    1.69    4.07
  -1  -4  13    6.37    8.05
  -1  -4  13   -0.55    3.62
   2   4 -13   11.87    2.79
   2   4 -13    7.68    3.40
  -2  -4  13   10.94    6.98
  -2  -4  13    7.37    3.19
  -4   3 -13    8.71    3.93
   3   4 -13    8.18    3.67
   3   4 -13    7.44    2.82
  -3  -4  13    9.63    7.28
   4  -3  13   12.08    3.16
  -3  -4  13   12.49    3.42
   4   4 -13   -0.91    2.62
  -4   4 -13    0.46    1.03
   4  -4  13   -1.16    1.64
   4  -4  13   -0.54    1.59
  -4  -4  13    5.98    7.17
   5   4 -13   40.41    9.60
  -4   5 -13   50.80   10.97
  -4   5 -13   41.26    9.82
   5   4 -13   24.94   10.63
  -5  -4  13   46.38   14.53
   4  -5  13   27.56   10.76
  -5  -4  13   43.01   10.34
   4  -5  13   44.72   13.33
  -3   5 -13   76.00   23.11
  -3   5 -13   86.80   21.02
   5   3 -13   73.15   22.52
   5   3 -13   95.12   20.85
   3  -5  13   88.08   21.86
   3  -5  13   89.70   22.85
  -5  -3  13   74.04   27.53
   3  -5  13  109.74   27.09
  -2   5 -13   20.28    5.57
  -2   5 -13   18.62    4.74
   5   2 -13   17.70    4.84
   5   2 -13   17.17    5.71
   5   2 -13   15.79    5.17
   2  -5  13   22.42    4.91
   2  -5  13   20.40    5.31
  -5  -2  13   14.60    9.96
   2  -5  13   16.54    8.26
   5   1 -13   24.10    5.62
  -1   5 -13   15.54    5.69
   5   1 -13   20.06    5.11
  -1   5 -13   14.71    4.95
   5   1 -13   23.25    6.10
   1  -5  13   22.00    5.44
  -5  -1  13   17.86   10.67
   1  -5  13   27.86    8.53
   0   5 -13   52.85   13.98
   5   0 -13   58.59   14.48
   0   5 -13   56.57   15.07
  -5   0 -13   56.41   15.83
   5   0 -13   50.83   15.85
   5   0  13   73.72   17.40
   0  -5  13   57.34   14.76
  -5   0  13   52.59   19.58
   0  -5  13   67.67   18.54
   1   5 -13   26.16    5.85
  -5   1 -13   18.06    5.66
  -5   1 -13   21.98    7.25
   1   5 -13   18.92    5.17
  -1  -5  13   18.52    8.88
  -1  -5  13   24.17    5.58
   5  -1  13   17.71    6.20
   5  -1  13   21.46    8.89
   2   5 -13   16.14    5.72
  -5   2 -13   19.50    5.17
   2   5 -13   23.14    5.04
  -5   2 -13   21.95    5.90
  -5   2 -13   18.84    6.46
   5  -2  13   25.56    5.64
   5  -2  13   11.51    9.34
   5  -2  13   20.07    8.14
  -2  -5  13   26.09    9.04
  -2  -5  13   18.91    5.46
  -5   3 -13   94.19   23.39
   3   5 -13   87.11   21.67
  -5   3 -13   79.75   19.93
  -5   3 -13  106.86   23.27
  -3  -5  13  103.64   26.65
   5  -3  13   46.56   26.67
   5  -3  13   88.94   20.88
   5  -3  13   73.61   25.66
  -5   4 -13   48.64   12.22
   4   5 -13   43.36   11.03
   5  -4  13   26.83   14.01
  -4  -5  13   50.62   14.58
   5  -4  13   48.88   10.63
   5   5 -13    0.75    3.04
  -5   5 -13    0.19    1.16
  -5   5 -13    7.93    2.41
  -5   5 -13    4.07    4.79
   5   5 -13   -0.33    1.79
  -5   5 -13    0.65    1.34
   5  -5  13   -0.31    1.84
  -5  -5  13   -0.59    2.57
  -5  -5  13    5.00    8.01
   5  -5  13    7.47    5.23
   5  -5  13    2.28    1.93
   5  -5  13    9.71    7.32
   6   5 -13   14.02    4.78
   6   5 -13   12.91    3.69
  -5   6 -13   14.06    4.38
  -6  -5  13   13.39    4.47
   5  -6  13   13.11    3.97
   5  -6  13   12.96    4.30
  -6  -5  13   16.44    9.55
  -4   6 -13    4.24    2.72
   6   4 -13    1.16    2.13
  -4   6 -13    2.81    1.45
   6   4 -13    2.71    3.12
  -6  -4  13    3.75    2.55
   4  -6  13    3.52    2.38
  -6  -4  13    0.46    8.47
  -3   6 -13   20.60    6.29
   6   3 -13   21.77    5.65
  -3   6 -13   22.72    5.51
   6   3 -13    9.09    6.37
  -6  -3  13   30.35   11.08
   3  -6  13   27.48    6.31
  -2   6 -13    7.30    4.00
  -2   6 -13   12.01    3.22
   6   2 -13   16.33    3.80
   6   2 -13    7.30    4.27
   2  -6  13   13.90    3.98
  -6  -2  13   13.55    9.50
   6   1 -13   49.24   11.79
   6   1 -13   31.46   13.09
   6   1 -13   49.17   11.78
  -1   6 -13   49.67   12.49
  -1   6 -13   48.65   11.45
   6   1  13   54.58   14.63
   1  -6  13   46.63   12.48
  -6  -1  13   43.23   17.46
  -6   0 -13   -1.07    4.25
   0   6 -13    0.85    2.57
   0   6 -13   -0.25    1.32
  -6   0 -13   -0.57    2.29
   6   0 -13    1.43    3.33
   6   0 -13    1.24    3.42
  -6   0  13    1.41    8.81
   6   0  13    0.92    3.29
   0  -6  13    1.18    2.10
   6   0  13   -2.72    6.44
  -6   1 -13   48.99   12.50
   1   6 -13   54.74   11.50
   1   6 -13   30.79   12.44
  -6   1 -13   50.43   14.41
   6  -1  13   56.47   16.37
  -1  -6  13   46.14   12.43
   6  -1  13   55.19   12.77
   2   6 -13   15.96    4.47
   2   6 -13   12.93    3.65
  -6   2 -13   19.27    5.34
  -2  -6  13    8.86    4.24
   6  -2  13   14.92    4.34
   6  -2  13   22.94    9.06
  -6   3 -13   30.04    7.43
   3   6 -13   24.22    5.66
   3   6 -13   22.49    6.40
  -6   3 -13   24.24    5.59
   6  -3  13   20.69   10.34
  -3  -6  13   19.06    6.31
   6  -3  13   19.95    6.20
  -6   4 -13   -1.93    4.65
  -6   4 -13    2.81    1.48
   4   6 -13    1.57    2.83
   6  -4  13    5.60    2.37
   6  -4  13    5.10    7.45
   5   6 -13   15.65    3.54
  -6   5 -13   17.15    6.67
   5   6 -13   14.97    4.52
  -6   5 -13   10.23    3.37
   6  -5  13   12.14    4.04
   6  -5  13   -4.32    9.10
  -5  -6  13   21.51    9.25
  -5  -6  13   12.64    4.41
   6   6 -13   -2.58    3.33
  -6   6 -13    0.28    1.54
   6   6 -13   -0.33    1.86
  -6  -6  13    3.77    9.40
  -6  -6  13   -1.03    3.16
   6  -6  13   -1.94    2.23
   7   6 -13   17.26    4.36
   7   6 -13   22.64    5.54
  -7  -6  13   14.44    5.35
  -7  -6  13    6.15   11.32
   6  -7  13   17.55    4.95
   7   5 -13    0.47    2.08
   7   5 -13    2.68    3.50
  -5   7 -13    1.29    2.62
  -7  -5  13    2.71    3.11
  -7  -5  13    7.48    9.44
   7   4 -13   65.89   15.86
  -4   7 -13   67.76   17.79
   7   4 -13   58.79   17.62
  -7  -4  13   58.26   22.50
  -7  -4  13   82.41   17.01
  -3   7 -13   28.75    7.43
   7   3 -13   24.60    7.65
   7   3 -13   24.74    6.69
  -7  -3  13   32.99   12.31
   3  -7  13   25.17    7.67
  -2   7 -13   16.95    5.58
   7   2 -13   15.63    5.26
  -2   7 -13   14.57    4.91
   7   2 -13   23.92    6.10
   2  -7  13   24.85    5.69
  -7  -2  13   25.34   10.93
   7   1 -13    9.07    2.49
   7   1 -13   10.34    3.50
  -1   7 -13    8.43    3.24
  -1   7 -13    6.94    2.36
   7   1 -13    1.51    3.64
   7   1  13    6.54    6.98
  -7  -1  13    6.43    9.96
   1  -7  13    6.25    3.03
   7   0 -13   42.43   13.15
   0   7 -13   50.07   12.09
  -7   0 -13   36.41   14.63
   7   0 -13   47.12   11.83
   7   0 -13   41.51   11.69
   0   7 -13   46.09   11.38
   7   0  13   64.37   15.82
   0  -7  13   50.42   12.40
   7   0  13   43.77   12.69
  -7   0  13   46.36   17.52
   1   7 -13    7.07    2.12
  -7   1 -13    4.00    4.76
   1   7 -13    5.46    3.14
  -1  -7  13    3.63    2.79
   7  -1  13    8.29    8.58
   7  -1  13    2.81    3.62
   2   7 -13   20.40    5.42
  -7   2 -13   17.74    6.72
   2   7 -13   24.03    4.70
   7  -2  13   14.53    5.41
  -2  -7  13   11.25    5.41
   7  -2  13   16.03   10.51
  -7   3 -13   19.15    8.43
   3   7 -13   26.45    6.13
  -7   3 -13   24.57    6.15
   3   7 -13   23.12    6.97
   7  -3  13   19.05    6.80
  -3  -7  13   28.69    7.00
   7  -3  13   35.72   11.81
  -7   4 -13   55.68   18.65
  -7   4 -13   62.67   14.51
   4   7 -13   53.72   15.54
   7  -4  13   64.02   15.51
   7  -4  13   60.82   20.73
   5   7 -13    4.67    3.09
   5   7 -13    1.02    1.87
  -7   5 -13    3.36    6.41
  -7   5 -13   -0.14    1.66
  -5  -7  13    0.73    3.31
   7  -5  13    2.01    2.60
   7  -5  13  -15.67    8.81
  -7   6 -13   18.01    8.68
   6   7 -13    7.54    3.61
   6   7 -13   13.69    4.88
  -7   6 -13   13.67    3.62
   7  -6  13   15.36    4.49
  -6  -7  13   12.02    4.93
   7  -6  13   12.03   10.06
   7   7 -13    0.49    1.99
   7   7 -13    6.52    3.87
   7  -7  13   -1.51    2.61
  -7  -7  13    0.21    3.74
  -7  -7  13    0.35   10.21
   8   7 -13   -6.42    2.17
   8   7 -13    0.48    3.95
  -8  -7  13   -2.01   10.83
  -8  -7  13   -5.88    4.01
   8   6 -13    3.57    4.05
   8   6 -13   10.51    2.59
  -8  -6  13    0.58    3.75
  -8  -6  13   -0.88   10.85
   8   5 -13   25.62    6.19
   8   5 -13   28.42    7.55
  -5   8 -13   18.57    7.00
  -8  -5  13   48.21   13.25
  -8  -5  13   16.70    6.99
  -4   8 -13   -0.22    2.91
   8   4 -13    0.15    3.54
   8   4 -13    1.38    2.22
  -8  -4  13   -0.51    3.18
  -8  -4  13   -4.28   10.44
   8   3 -13   47.88   11.11
   8   3 -13   37.97   12.66
  -3   8 -13   43.46   12.18
  -8  -3  13   50.77   17.82
   8   2 -13    6.05    2.84
  -2   8 -13    1.53    3.06
   8   2 -13    2.66    3.59
  -8  -2  13    8.66   10.48
   8   1 -13   17.78    7.89
  -8  -1 -13   14.79    9.55
  -1   8 -13   27.49    7.10
   8   1 -13   29.10    6.61
   8   1 -13   22.93    6.85
   8   1  13   17.42   11.07
  -8  -1  13   39.54   13.33
   8   1  13   30.06    7.95
   1  -8  13   26.74    7.63
   8   0 -13    1.39    3.59
  -8   0 -13   -0.78    5.33
   8   0 -13   -1.40    2.05
   0   8 -13   -1.35    2.95
   8   0 -13    2.04    3.49
   0   8 -13   -0.48    1.88
  -8   0  13    8.46   10.25
   0  -8  13   -0.38    3.26
   8   0  13   -0.82    3.96
   8   0  13    1.77    8.87
   1   8 -13   24.87    7.10
  -8   1 -13   33.06    9.25
   1   8 -13   30.74    7.69
   8  -1  13   25.66    7.93
   8  -1  13   38.09   13.32
  -1  -8  13   27.97    7.98
   2   8 -13    7.02    3.23
  -8   2 -13    0.64    5.22
   2   8 -13    3.18    2.04
  -2  -8  13    3.66    3.22
   8  -2  13    5.73    3.48
   8  -2  13    4.05   10.58
  -8   3 -13   35.98   14.11
  -8   3 -13   45.59   11.15
   3   8 -13   56.04   11.13
   3   8 -13   52.88   11.85
   8  -3  13   34.30   17.47
  -3  -8  13   43.52   12.26
   8  -3  13   42.86   11.85
  -8   4 -13   -2.01    6.42
  -8   4 -13   -0.69    1.64
   4   8 -13    3.81    3.29
   8  -4  13    2.33    2.89
  -4  -8  13   -0.20    3.23
   8  -4  13    8.21    9.30
  -8   5 -13   11.39    6.37
  -8   5 -13   17.52   10.87
   5   8 -13   33.43    6.51
   5   8 -13   44.83    7.53
   8  -5  13   18.47    7.12
  -5  -8  13   27.92    7.62
   8  -5  13   29.90   12.38
  -8   6 -13    9.55    2.77
  -8   6 -13    6.94    8.92
   6   8 -13    7.00    2.89
   6   8 -13    7.37    3.95
   8  -6  13    6.25    3.67
   8  -6  13    7.98   10.16
  -6  -8  13    8.37    4.39
   7   8 -13   -0.63    3.79
   7   8 -13    0.14    2.28
  -7  -8  13    0.46    4.27
   8  -7  13   -0.13    2.80
   8   8 -13   -3.13    4.10
   9   7 -13    0.17    4.41
   9   7 -13    8.72    2.57
  -9  -7  13    0.58   11.47
  -9  -7  13   -0.23    3.86
   9   6 -13    6.76    4.32
   9   6 -13   -2.26    2.28
  -9  -6  13    0.41    3.76
  -9  -6  13   -0.76   11.47
   9   5 -13    1.52    2.22
   9   5 -13    0.80    4.10
  -9  -5  13    0.19    3.44
  -9  -5  13    8.67   11.47
   9   4 -13   41.10    7.99
   9   4 -13   28.31    9.51
  -9  -4  13   24.02   15.30
  -9  -4  13   26.47    9.00
   9   3 -13    4.46    3.78
   9   3 -13   -1.62    2.32
  -9  -3  13   -0.58   11.28
   9   2 -13    9.50    5.20
  -2   9 -13   21.32    4.58
   9   2 -13   16.36    4.20
  -9  -2  13    8.81   12.09
   9   2  13   -9.71    9.75
   9   1 -13    5.32    3.39
   9   1 -13    6.73    3.94
  -9  -1 -13    5.98    6.26
  -1   9 -13    1.33    3.15
  -9  -1  13   -3.04   11.19
   9   1  13   -8.41    9.86
   9   1  13    1.54    4.81
   9   0 -13   31.91    7.25
   9   0 -13   19.64    8.05
   0   9 -13   30.23    7.24
   9   0 -13   24.05    6.82
  -9   0 -13   20.63    9.15
   9   0  13   26.44    7.77
  -9   0  13   17.58   13.57
   9   0  13   33.73   13.19
  -9   1 -13    2.92    5.66
   9  -1 -13    7.21    4.31
   1   9 -13    4.46    3.50
   9  -1  13  -12.69   11.19
   9  -1  13    1.18    4.05
  -1  -9  13    0.88    3.25
  -9   2 -13   16.47    7.36
   2   9 -13   22.66    4.98
   9  -2  13  -23.55   12.89
  -2  -9  13   12.45    5.10
   9  -2  13   15.25    5.16
  -9   3 -13   -1.56    6.95
   3   9 -13    0.15    3.44
   3   9 -13    1.43    2.06
  -9   3 -13    0.15    2.08
   9  -3  13   30.54   11.88
   9  -3  13    0.47    3.47
  -3  -9  13    2.98    4.21
  -9   4 -13   33.40   12.58
  -9   4 -13   31.20    8.19
   4   9 -13   41.34    8.27
   4   9 -13   50.54    8.93
   9  -4  13   31.06    8.99
   9  -4  13   20.96   14.47
  -4  -9  13   10.40    9.31
   5   9 -13   -5.16    2.35
   5   9 -13   -0.31    3.72
  -9   5 -13   -0.24    8.48
  -9   5 -13    2.59    1.95
   9  -5  13    6.58   10.48
   9  -5  13    1.65    3.42
  -9   6 -13    0.38    2.26
   6   9 -13    0.82    3.87
  -9   6 -13    0.52    9.82
   9  -6  13    4.70    3.36
   9  -6  13    7.09   11.17
  -9   7 -13   -0.63    2.24
   9  -7  13    3.72    3.15
   8   9 -13    0.50    2.72
  -8  -9  13    0.28    4.61
   9  -8  13    2.49    3.21
   9   9 -13   -0.73    4.65
   9   9 -13   -2.43    2.85
  -9  -9  13    6.32    5.40
  10   9 -13    2.56    2.92
  10   9 -13    6.79    5.11
 -10  -9  13    1.60    5.54
  10   8 -13   -5.31    2.93
 -10  -8  13  -16.99    5.29
 -10  -8  13  -22.43   12.49
  10   6 -13    7.54    3.05
  10   6 -13   11.70    5.11
 -10  -6  13   13.23    4.74
 -10  -6  13   -0.40   12.64
  10   5 -13   12.87    5.07
  10   5 -13    8.57    3.27
 -10  -5  13    6.50    4.56
 -10  -5  13   24.88   12.84
  10   4 -13    5.34    2.68
  10   4 -13    3.15    4.36
 -10  -4  13   12.96   12.34
 -10  -4  13    4.22    3.71
  10   3 -13   10.60    5.84
  10   3 -13   18.96    4.51
 -10  -3  13   10.51   13.04
  10   2 -13   -2.53    3.88
 -10  -2 -13   -0.28    6.75
  10   2 -13    4.40    2.74
  10   2  13    6.40   10.20
 -10  -2  13    9.49   12.07
  10   1 -13    3.55    4.05
 -10  -1 -13   -0.26    6.86
  10   1 -13    3.56    3.20
  10   1  13   -7.32   10.95
 -10  -1  13    2.97   11.56
  10   1  13    4.36    5.23
  10   0 -13    3.95    3.67
  10   0 -13   -0.51    2.81
 -10   0 -13   -0.90    6.61
  10   0  13    4.97   12.05
 -10   0  13    3.20   11.21
  10   0  13    0.95    4.78
  10  -1 -13    1.70    4.28
  10  -1 -13   -1.94    2.80
 -10   1 -13    1.86    6.48
  10  -1  13   -0.21    4.24
  10  -1  13  -10.83   12.70
 -10   2 -13    1.90    2.23
 -10   2 -13    2.74    6.83
  10  -2  13   19.99   12.79
  10  -2  13    2.72    4.35
 -10   3 -13   15.85    4.77
 -10   3 -13   30.19    9.00
  10  -3  13  -12.47   13.89
  10  -3  13   25.31    6.10
 -10   4 -13    5.46    2.58
 -10   4 -13   12.54    8.76
  10  -4  13    7.25    4.20
  10  -4  13   -2.52   11.75
 -10   5 -13    5.12   10.12
 -10   5 -13   10.45    3.39
  10  -5  13    0.19   11.75
  10  -5  13   13.55    4.43
 -10   6 -13   16.74   10.91
 -10   6 -13    1.27    2.71
  10  -6  13    9.06    3.81
  10  -6  13   -1.90   12.52
  -6 -10  13    0.29    4.54
   7  10 -13    0.18    4.58
 -10   7 -13   -8.44   12.01
 -10   7 -13   -1.15    2.43
  -7 -10  13    0.91    4.76
  10  -7  13   -1.29    3.44
   8  10 -13   -0.19    4.76
  -8 -10  13   -8.27    6.08
  10  -8  13   -1.74    3.94
   9  10 -13    0.20    4.89
  -9 -10  13    4.70    5.50
  10  10 -13    2.49    5.09
  11  10 -13    0.21    5.18
  11   9 -13    4.92    3.37
  11   9 -13    2.04    5.40
 -11  -9  13   -0.34    5.92
 -11  -9  13    9.74   14.13
  11   8 -13    4.18    4.98
  11   8 -13   -3.51    3.03
 -11  -8  13    5.63    5.18
 -11  -8  13    7.37   13.94
  11   7 -13   -3.76    2.56
 -11  -7  13    0.26    4.87
  11   5 -13   -8.18    4.68
  11   5 -13    1.07    2.32
 -11  -5  13    1.10   13.20
 -11  -5  13   -1.29    4.24
  11   4 -13    4.26    4.58
  11   4 -13    3.41    2.61
 -11  -4  13    4.87    4.08
 -11  -4  13   13.77   13.28
  11   3 -13    2.52    2.52
  11   3 -13    0.70    4.23
 -11  -3  13   -8.48   12.86
 -11  -3  13    1.75    3.93
  11   2 -13   -1.96    4.10
 -11  -2 -13   -2.72    7.71
  11   2 -13   -0.59    2.90
  11   2  13   -8.31    6.26
 -11  -2  13    8.62   12.60
  11   2  13   20.82   11.15
  11   1 -13    2.40    3.94
  11   1 -13   -1.50    3.08
 -11  -1 -13   -4.36    7.52
  11   1  13   -3.54    5.46
 -11  -1  13   -5.71   11.86
  11   1  13    1.45   12.70
  11   0 -13    2.16    3.13
 -11   0 -13   -0.50    7.22
  11   0 -13   -1.93    3.44
  11   0  13   -4.45    5.26
  11   0  13   -5.15   13.76
 -11   1 -13    5.15    7.12
  11  -1 -13   -0.15    3.10
  11  -1 -13   -0.47    4.51
  11  -1  13   -9.16   14.33
  11  -1  13   -8.56    5.10
 -11   2 -13   -0.36    2.27
 -11   2 -13   11.12    8.10
  11  -2  13  -39.62   14.76
  11  -2  13   -4.37    4.58
 -11   3 -13   -9.68    9.09
 -11   3 -13   -0.19    2.37
  11  -3  13   12.20    4.63
  11  -3  13    7.55   13.66
 -11   4 -13    6.46   10.00
 -11   4 -13   -1.99    2.63
  11  -4  13   -1.59   12.80
  11  -4  13    2.37    4.06
 -11   5 -13    0.86    2.56
 -11   5 -13    5.78   10.94
  11  -5  13    2.77    4.27
  11  -5  13   17.11   12.98
 -11   6 -13   -1.40    2.87
 -11   6 -13    0.66   12.05
  11  -6  13   -1.83    4.51
 -11   7 -13    9.79    3.09
 -11   7 -13    6.91   13.05
  11  -7  13    1.23    4.03
  12  10 -13    0.22    5.75
 -12 -10  13   -1.27   15.81
  12   9 -13    5.68    3.27
  12   9 -13  -13.89    5.65
 -12  -9  13    2.43   15.15
 -12  -9  13   -0.36    6.19
  12   8 -13   18.08    5.78
  12   8 -13   -3.50    2.97
 -12  -8  13    4.80    5.73
 -12  -8  13   -8.98   14.93
  12   7 -13   -4.54    2.91
  12   7 -13    1.24    5.50
 -12  -7  13    2.24    5.20
 -12  -7  13    4.89   14.59
 -12  -6  13    0.50    4.60
  12   5 -13   -0.20    4.87
  12   4 -13   44.34    9.55
 -12  -4  13   11.26    8.64
 -12  -4  13   69.31   17.61
  12   3 -13   -0.55    4.57
  12   3 -13   -2.84    2.73
 -12  -3  13    1.44    4.01
 -12  -3  13    0.95   13.59
  12   2 -13    3.70    2.91
  12   2 -13    4.70    4.68
  12   2  13   -2.67   13.27
 -12  -2  13    6.54   13.44
  12   1 -13    6.04    3.23
  12   1 -13    1.93    4.50
 -12  -1  13   -0.99   12.56
  12   0 -13   -2.50    3.53
  12  -1 -13    2.96    4.40
  12  -1 -13    5.79    3.75
  12  -6  13  -11.19   15.39
 -12   7 -13   99.37   18.23
  12  -7  13   62.79   11.52
  12  -7  13   -8.16   17.91
 -12   8 -13    1.17   14.99
  12  -8  13   -8.16    4.27
  13  10 -13   -2.13    6.27
 -13 -10  13   16.36   16.73
  13   9 -13    0.23    5.96
 -13  -9  13    3.79    6.15
 -13  -9  13  -17.85   16.22
  13   8 -13   16.32    8.01
 -13  -8  13   12.51    8.77
  13   7 -13    4.83    3.04
  13   7 -13    8.73    5.73
 -13  -7  13    3.49   15.37
 -13  -7  13    6.78    5.69
  13   6 -13   -1.85    2.51
  13   6 -13  -10.51    5.33
 -13  -6  13  -14.03   15.26
 -13  -6  13   -0.81    4.96
 -13  -5  13    3.64    4.52
 -13  -3  13    6.61    4.24
 -13  -3  13   -2.78   14.76
  13   3  13   -2.21   14.08
 -13  -2 -13    1.07    9.67
  13   2  13  -10.87    6.87
  13   2  13   -8.99   15.55
 -13  -1 -13    2.31    9.32
  13   1  13    6.98   16.30
  13   1  13   -5.80    6.63
 -13   0 -13   -6.99    9.24
  13   0  13  -24.34   17.25
  13   0  13   -2.57    6.39
  13  -1 -13   -2.46    4.03
 -13   1 -13   -0.64    2.71
 -13   1 -13    8.46    9.70
  13  -1  13    1.77    6.21
  13  -1  13    2.07   17.01
 -13   2 -13   10.06   10.88
 -13   2 -13    1.35    3.19
  13  -2  13    2.31    6.16
  13  -2  13   -0.26   17.97
 -13   3 -13    1.02   11.88
 -13   3 -13    1.42    3.07
  13  -3  13    5.02    5.88
  13  -3  13    4.56   17.26
 -13   4 -13   11.15   12.72
 -13   4 -13   -1.50    3.15
  13  -4  13   -7.20    5.44
  13  -4  13  -11.52   16.34
 -13   5 -13   16.02   13.84
 -13   5 -13   -1.61    3.23
  13  -5  13   -1.29   15.22
  13  -5  13   -7.92    5.19
 -13   6 -13    6.41   14.59
 -13   6 -13   -3.71    3.48
  13  -6  13    0.23    4.83
  13  -6  13   -5.87   16.54
 -13   7 -13   31.56   15.42
 -13   7 -13    1.51    3.76
  13  -7  13   11.47    5.15
  13  -7  13   -8.33   16.11
 -13   8 -13   14.89   16.89
  13  -8  13   14.10    6.86
  13  -9  13   -0.21    4.78
 -14  -3 -13    1.63   10.17
  14   3  13   13.43   16.23
 -14  -2 -13    5.43   10.38
  14   2  13  -13.64   16.90
  14   2  13  -10.48    7.40
 -14  -1 -13   -1.84   10.34
  14   1  13    2.25    7.25
  14   1  13    8.58   17.81
 -14   0 -13   -0.34   10.23
  14   0  13  -19.58    7.27
  14   0  13   46.07   18.00
 -14   1 -13    2.40   10.74
 -14   1 -13    0.95    3.37
  14  -1  13   13.51   19.00
  14  -1  13   23.70    7.32
 -14   2 -13  -11.09   11.74
 -14   2 -13   -0.25    3.37
  14  -2  13   12.09   18.51
  14  -2  13    7.69    6.66
 -14   3 -13    3.45    3.29
 -14   3 -13   29.42   12.96
  14  -3  13    8.46    6.30
  14  -3  13  -21.91   17.96
 -14   4 -13   -4.72    3.54
 -14   4 -13   21.75   14.00
  14  -4  13   -5.97   17.23
  14  -4  13  -14.39    6.05
 -14   5 -13   31.37   16.07
  14  -5  13   34.00   18.01
  14  -5  13    4.59    6.51
 -14   6 -13   26.85   16.39
 -14   6 -13    3.15    3.99
  14  -6  13    0.25    5.52
 -14   7 -13    8.17   16.21
 -14   7 -13   -0.66    3.74
  14  -7  13    5.34   17.03
  14  -7  13    0.71    5.23
 -14   8 -13    3.23   17.09
  14  -8  13    0.70    4.82
 -14   9 -13    1.40   18.08
  14  -9  13    0.23    4.99
 -15  -3 -13   10.71   11.87
  15   3  13   15.57   18.96
 -15  -2 -13   20.67   12.14
  15   2  13  -28.67    8.46
  15   2  13  -12.94   19.04
 -15  -1 -13  -16.92   12.17
  15   1  13   -2.48    8.20
  15   1  13  -37.51   20.24
 -15   0 -13   19.88   12.70
  15   0  13  -14.58   20.67
  15   0  13   24.06    8.81
 -15   1 -13  -18.23   12.75
 -15   1 -13    4.27    3.91
  15  -1  13  -61.34   21.91
  15  -1  13    0.37    7.14
 -15   2 -13   -2.54    3.98
 -15   2 -13   45.63   13.45
  15  -2  13  -22.68    8.09
 -15   3 -13   -1.77    4.19
 -15   3 -13   17.95   14.58
  15  -3  13   14.28    7.60
 -15   4 -13   -1.35   15.47
 -15   4 -13    5.30    3.93
  15  -4  13  -15.82   18.58
  15  -4  13   14.18    6.76
 -15   5 -13    2.31    3.72
 -15   5 -13   -7.48   16.13
  15  -5  13   11.39    6.30
  15  -5  13  -24.99   19.39
 -15   6 -13    0.70    4.25
 -15   6 -13    2.42   17.37
  15  -6  13   -3.34    6.01
  15  -6  13   25.38   19.99
 -15   7 -13   -0.37    4.49
 -15   7 -13   29.14   18.07
  15  -7  13    0.27    5.54
  15  -7  13    1.72   19.06
 -15   8 -13   22.57   18.50
  15  -8  13   -4.15    5.44
 -15   9 -13   52.65   22.65
 -16  -3 -13    2.96   12.86
  16   3  13   -6.77   20.57
 -16  -2 -13    8.18   12.56
  16   2  13  -10.68    9.26
  16   2  13   24.94   21.00
 -16  -1 -13    4.18   13.84
  16   1  13    3.66    8.65
  16   1  13    3.73   21.51
 -16   0 -13    1.13    3.29
 -16   0 -13    8.55   13.49
  16   0  13   24.92   21.79
  16   0  13  -17.91    8.49
 -16   1 -13   20.63   14.51
 -16   1 -13   11.14    5.44
  16  -1  13   36.34   21.77
  16  -1  13   11.74    8.94
 -16   2 -13  -15.44   14.75
 -16   2 -13    3.45    3.92
  16  -2  13   -8.39   20.99
  16  -2  13    0.39    7.69
 -16   3 -13   31.97   16.27
 -16   3 -13    5.59    4.81
  16  -3  13   21.76   20.97
  16  -3  13   16.75    8.39
 -16   4 -13  -25.15   17.22
 -16   4 -13    2.42    4.53
  16  -4  13  -28.49    7.69
  16  -4  13    1.97   19.81
 -16   5 -13  -34.10   18.02
 -16   5 -13    5.50    4.62
  16  -5  13   -2.03    7.11
  16  -5  13  -14.06   21.18
 -16   6 -13    3.47    4.72
 -16   6 -13   -6.87   19.12
  16  -6  13    9.30   21.30
  16  -6  13  -13.11    6.83
 -16   8 -13    0.54   19.45
  16  -8  13    2.34    6.20
 -17  -2 -13   15.11   14.76
  17   2  13   17.66   23.49
  17   2  13    0.54   10.01
 -17  -1 -13    3.32    4.16
 -17  -1 -13  -28.83   14.86
  17   1  13  -11.73   22.46
  17   1  13   -0.51    9.44
 -17   0 -13    4.74    4.81
 -17   0 -13   17.81   15.39
  17   0  13   16.44    9.63
  17   0  13   20.95   22.68
 -17   1 -13    5.05   15.73
 -17   1 -13   -0.33    4.46
  17  -1  13  -37.92    9.54
  17  -1  13  -10.01   23.86
 -17   2 -13   11.21   16.72
 -17   2 -13   -4.18    4.88
  17  -2  13   21.99    8.90
  17  -2  13    6.77   22.40
 -17   3 -13   -0.73    4.13
 -17   4 -13  208.49   53.64
  17  -4  13  197.86   44.84
 -17   5 -13   -4.06    4.69
 -17   5 -13   35.19   19.33
  17  -5  13  -23.08    7.66
 -17   6 -13   -5.12    5.02
 -17   6 -13    5.78   20.20
  17  -6  13    8.94    7.07
  17  -6  13    5.31   23.38
 -17   7 -13   32.78   21.27
 -17   7 -13   -1.33    5.09
  17  -7  13    1.31    7.06
  17  -7  13    8.67   23.42
 -17   8 -13    7.07   21.27
  17  -8  13  -11.62    6.73
 -18  -3 -13   -6.16   16.71
  18   3  13    0.41   25.05
 -18  -2 -13   26.75   17.22
  18   2  13    2.96   11.32
  18   2  13  -27.30   25.93
 -18  -1 -13    1.19   17.58
 -18  -1 -13   -2.34    4.35
  18   1  13    6.72   11.12
  18   1  13  -19.93   25.91
 -18   0 -13   16.17   17.62
 -18   0 -13   11.02    4.87
  18   0  13   -6.41   10.31
  18   0  13  -42.33   25.21
 -18   1 -13    0.74    4.95
 -18   1 -13    8.55   17.75
  18  -1  13   29.01   25.23
  18  -1  13    8.15   10.09
 -18   2 -13   12.64   18.57
 -18   2 -13   -1.16    4.99
  18  -2  13  -28.99   24.66
  18  -2  13   -6.33    9.70
 -18   3 -13  -11.84    5.47
 -18   3 -13  -20.71   19.24
  18  -3  13  -13.74   24.21
  18  -3  13    5.17    9.49
 -18   4 -13    7.32    5.42
 -18   4 -13   -4.27   20.38
  18  -4  13    5.35   24.85
  18  -4  13   -2.22    9.09
 -18   5 -13  -10.32    5.80
 -18   5 -13   61.61   21.31
  18  -5  13   17.12   25.80
  18  -5  13    6.74    8.75
 -18   6 -13   31.60   21.92
 -18   6 -13    0.47    5.68
  18  -6  13    4.46   25.00
  18  -6  13    3.97    8.18
 -18   7 -13   -1.91   24.91
 -18   7 -13   -1.47    5.06
  18  -7  13   -1.81   25.16
  18  -7  13   10.10    7.82
 -18   8 -13   53.19   25.97
 -19   0 -13   21.57   20.10
  19   0  13  -24.78   11.64
 -19   1 -13  -18.00   20.49
  19  -1  13  -14.63   11.06
 -19   2 -13    3.86   20.32
  19  -2  13    0.54   10.19
 -19   3 -13   11.14   22.78
  19  -3  13  -39.52   11.16
   0   0 -14   50.11   12.66
   0   1 -14    1.09    2.33
  -1   0 -14   -0.40    2.79
   0   1 -14    0.25    2.59
   1   0 -14   -0.82    3.04
  -1   0  14   12.41    7.29
   0  -1  14   -1.97    6.90
  -1   1 -14   28.88    7.29
   1   1 -14   35.51    7.25
   1   1 -14   27.45    7.70
  -1   1 -14   19.00    7.64
  -1  -1  14   21.83   10.73
   1  -1  14   35.40   10.37
   2   1 -14    2.53    2.76
  -1   2 -14   -0.23    2.03
   2   1 -14    4.92    2.76
  -1   2 -14    0.44    2.78
  -2  -1  14   -4.42    8.16
   0   2 -14    5.24    2.28
  -2   0 -14    2.64    3.23
   0   2 -14    6.65    2.64
   2   0 -14    5.32    3.49
   0  -2  14   -5.88    7.33
  -2   0  14    1.66    8.09
   1   2 -14    2.91    2.33
  -2   1 -14   -4.00    2.72
   1   2 -14    1.37    2.68
  -2   1 -14   -2.45    2.96
  -1  -2  14   -2.21    7.10
   2   2 -14   -0.84    3.27
  -2   2 -14    3.40    3.19
  -2   2 -14   11.41    4.11
   2   2 -14    3.88    3.77
  -2  -2  14   13.61    8.56
  -2   3 -14   -0.36    0.63
  -2   3 -14   -2.48    2.16
  -2   3 -14    0.10    2.44
   3   2 -14   -1.59    2.81
   3   2 -14   -0.28    2.46
  -2   3 -14    0.41    1.42
  -3  -2  14    7.31    7.70
   2  -3  14   -1.27    4.50
   2  -3  14   -2.27    6.03
  -1   3 -14   -2.40    2.68
  -1   3 -14    0.39    0.48
  -1   3 -14   -1.02    1.67
   3   1 -14   -0.14    2.98
   3   1 -14   -3.25    2.91
  -3  -1  14   -9.57    9.02
   0   3 -14    0.10    1.97
   3   0 -14   -0.46    3.22
   0   3 -14   -5.86    2.85
  -3   0  14   -7.81    8.67
   0  -3  14  -17.73    7.57
   1   3 -14   -1.61    2.03
   1   3 -14   -1.81    2.83
  -3   1 -14   -8.00    2.83
  -1  -3  14  -14.16    7.62
   2   3 -14   -1.55    2.62
   2   3 -14    1.18    1.93
  -3   2 -14    0.28    1.69
  -3   2 -14   -1.81    2.58
  -2  -3  14    4.89    7.05
   3  -2  14   -3.65    6.41
  -3   3 -14   18.55    4.38
   3   3 -14   17.44    4.58
  -3   3 -14   18.95    4.02
  -3   3 -14   16.21    5.19
   3   3 -14   12.40    5.14
  -3   3 -14   10.67    5.59
   3  -3  14   25.65    7.82
   3  -3  14    9.09    7.26
  -3  -3  14   26.57    9.17
   3  -3  14   17.68    4.80
  -3   4 -14   27.81    6.64
  -3   4 -14   23.71    6.83
   4   3 -14   21.08    6.63
  -3   4 -14   19.29    5.42
  -3   4 -14   22.51    5.74
   3  -4  14   21.78    6.23
  -4  -3  14   20.54   10.61
   3  -4  14   24.15    9.02
   3  -4  14   25.63    5.91
   3  -4  14   17.48    8.43
   4   2 -14    0.64    2.76
  -2   4 -14   -0.39    2.41
  -2   4 -14   -0.54    1.31
   2  -4  14    3.39    6.02
   2  -4  14    0.87    1.50
   2  -4  14    0.97    1.73
  -4  -2  14   -3.38    8.38
  -1   4 -14   32.51    7.56
  -1   4 -14   25.61    6.91
   4   1 -14   27.99    7.88
   4   1 -14   27.03    7.45
  -4  -1  14   27.90   11.77
   1  -4  14   32.49   10.13
   1  -4  14   31.08    7.22
   0   4 -14    0.54    1.55
   0   4 -14   -0.52    2.47
   4   0 -14    0.66    3.35
  -4   0 -14    0.50    2.80
   4   0 -14   -0.63    3.10
  -4   0  14    2.37    8.69
   4   0  14    3.96    4.67
   0  -4  14    2.99    6.37
   0  -4  14    0.89    1.96
  -4   1 -14   -0.11    6.30
   1   4 -14   22.58    6.35
   1   4 -14   26.24    5.63
  -1  -4  14   35.13    9.80
  -4   2 -14   -1.34    1.58
   2   4 -14    0.90    2.55
   2   4 -14    1.24    1.68
  -2  -4  14   -0.26    6.97
   3   4 -14   15.37    5.48
  -4   3 -14   22.42    5.46
   3   4 -14   17.84    6.21
  -3  -4  14   28.18   10.28
  -4   4 -14   29.29    6.13
   4   4 -14   13.34    6.06
  -4   4 -14   22.17    5.23
   4  -4  14   20.83    5.69
   4  -4  14   25.46    8.33
  -4  -4  14    1.74   10.27
   4  -4  14   21.21    5.41
   5   4 -14    9.36    2.72
  -4   5 -14    5.56    3.34
  -4   5 -14    7.49    2.14
   5   4 -14    7.26    3.56
   4  -5  14    1.40    6.28
   4  -5  14    6.06    2.74
  -5  -4  14    4.97    8.85
  -3   5 -14   21.71    5.72
   5   3 -14   14.94    6.69
  -3   5 -14   18.67    6.74
   5   3 -14   26.70    6.05
  -5  -3  14   18.02   11.12
   3  -5  14   21.67    6.37
   3  -5  14   37.64    9.49
  -2   5 -14   16.94    5.87
  -2   5 -14   21.67    4.97
   5   2 -14   21.29    5.42
   5   2 -14   15.57    6.05
   2  -5  14   17.52    5.48
  -5  -2  14   14.64   10.53
   2  -5  14   27.41    8.89
  -1   5 -14   46.04   12.75
   5   1 -14   61.51   14.33
  -1   5 -14   53.79   13.90
   5   1 -14   41.23   13.10
   1  -5  14   60.30   17.07
   1  -5  14   60.47   13.49
  -5  -1  14   52.25   18.23
   0   5 -14    0.96    1.46
   5   0 -14    1.08    3.59
   0   5 -14    1.40    2.54
   5   0 -14   -0.82    3.47
   0  -5  14    1.66    6.71
   5   0  14    3.07    5.44
  -5   0  14   -1.03    9.03
   0  -5  14   -0.12    2.02
   1   5 -14   44.16   12.28
   1   5 -14   58.89   13.38
  -5   1 -14   37.30   16.13
   5  -1  14   41.10   13.83
  -1  -5  14   60.17   16.91
  -1  -5  14   51.11   13.04
   5  -1  14   61.02   16.55
  -5   2 -14   26.85    6.88
   2   5 -14   24.75    5.22
   2   5 -14   17.73    5.92
   5  -2  14   26.29    5.95
   5  -2  14   12.89    9.63
  -2  -5  14   12.28    9.62
  -2  -5  14   17.38    5.76
  -5   3 -14   24.01    5.98
  -5   3 -14   26.63    7.48
   3   5 -14   28.40    6.17
   3   5 -14   32.62    6.93
   5  -3  14   22.22    6.58
  -3  -5  14   29.43   10.73
   5  -3  14   15.32   10.21
  -3  -5  14   21.62    6.70
  -5   4 -14    3.85    4.08
  -5   4 -14    6.45    2.10
  -5   4 -14    6.17    2.07
   4   5 -14    4.46    3.57
   5  -4  14    9.74    7.10
  -4  -5  14   13.23    8.56
   5  -4  14    9.18    2.82
   5  -4  14    7.98    2.64
   5   5 -14   25.35    6.81
  -5   5 -14   29.27    7.95
  -5   5 -14   30.49    6.93
  -5   5 -14   33.90    8.97
  -5   5 -14   26.62    6.64
   5   5 -14   25.26    7.78
   5  -5  14   33.72    9.99
   5  -5  14   14.09   11.05
   5  -5  14   31.01    7.75
   5  -5  14   26.46    7.21
  -5  -5  14   25.58    7.46
  -5  -5  14   27.28   12.15
   6   5 -14   -0.71    3.60
  -5   6 -14   -3.45    2.81
  -5   6 -14   -1.45    1.38
   6   5 -14    1.84    2.06
   5  -6  14    1.21    2.28
  -6  -5  14    6.39    9.53
  -6  -5  14    0.17    3.14
   6   4 -14   31.71    7.30
  -4   6 -14   20.16    7.23
   6   4 -14   27.03    6.31
  -4   6 -14   20.72    6.29
   4  -6  14   31.86    7.16
  -6  -4  14   16.70   12.03
  -6  -4  14   23.37    6.91
   6   3 -14   21.23    5.41
  -3   6 -14   15.11    5.09
   6   3 -14   13.27    6.20
  -3   6 -14   21.95    5.98
  -6  -3  14   25.13   11.38
   3  -6  14   25.25    5.85
  -2   6 -14   16.26    5.80
   6   2 -14   12.72    6.10
   6   2 -14   20.01    5.44
  -2   6 -14   22.43    4.86
   2  -6  14   18.34    5.59
  -6  -2  14   23.37   11.19
   6   1 -14    6.43    3.30
  -1   6 -14    4.46    1.82
  -1   6 -14    2.51    2.95
   6   1 -14    6.99    3.63
  -6  -1  14    4.15    9.68
   1  -6  14    5.44    2.60
   6   1  14   10.41    6.09
   6   0 -14   25.94    5.05
   0   6 -14   12.05    3.70
   6   0 -14   12.96    5.36
   0   6 -14   10.77    4.54
   6   0  14   22.41    7.84
   0  -6  14   12.61    4.32
  -6   0  14   10.98   10.37
   1   6 -14    4.65    1.97
   1   6 -14    3.66    3.07
  -6   1 -14    6.38    4.48
   6  -1  14   10.29    7.83
   6  -1  14   -0.34    3.51
  -1  -6  14    7.53    2.76
   2   6 -14   19.62    5.21
  -6   2 -14   32.11    6.96
   2   6 -14   18.16    6.02
  -2  -6  14   14.43    5.75
   6  -2  14   18.62    6.05
  -2  -6  14   30.13   10.11
   6  -2  14   22.62   10.46
   3   6 -14   23.97    5.37
   3   6 -14   29.97    6.24
  -6   3 -14   20.04    7.04
  -6   3 -14   20.07    5.26
   6  -3  14   16.67    5.90
  -3  -6  14   13.45   10.22
   6  -3  14   25.38   10.43
  -3  -6  14   22.64    6.04
   4   6 -14   21.90    7.09
  -6   4 -14   23.54    6.15
  -6   4 -14   31.48    8.23
  -4  -6  14   35.51   11.59
   6  -4  14   20.98   10.67
   6  -4  14   26.05    6.75
  -6   5 -14    2.36    5.10
   5   6 -14   -2.60    3.18
   5   6 -14    0.23    1.92
  -6   5 -14    1.57    1.40
  -5  -6  14    6.35    9.25
  -5  -6  14   -1.17    2.79
   6  -5  14   -3.20    2.32
   6  -5  14  -10.91    8.04
   6   6 -14    6.65    4.16
   6   6 -14    8.63    2.85
  -6  -6  14    7.44    3.70
  -6  -6  14    7.37   10.08
   7   6 -14    0.13    2.15
   7   6 -14    0.15    3.89
  -7  -6  14   -0.19    3.50
  -7  -6  14    0.18   10.56
   7   5 -14   17.46    5.05
  -5   7 -14   20.80    5.97
   7   5 -14   27.84    6.28
  -7  -5  14   -1.77   12.49
  -7  -5  14   16.65    5.95
  -4   7 -14    3.02    2.96
   7   4 -14    1.70    2.38
   7   4 -14    3.63    3.47
  -7  -4  14    6.61   10.04
   4  -7  14    1.62    2.77
  -7  -4  14    2.56    3.06
  -3   7 -14   26.94    7.67
   7   3 -14   32.73    8.73
  -3   7 -14   28.70    8.58
   7   3 -14   29.01    7.63
   3  -7  14   34.06    8.80
  -7  -3  14   25.95   13.80
   7   2 -14   14.13    5.52
  -2   7 -14   11.07    4.30
  -2   7 -14   22.49    5.18
   7   2 -14   21.23    4.87
   2  -7  14   16.83    5.13
  -7  -2  14   11.83   11.45
  -1   7 -14   35.39    9.51
   7   1 -14   38.83    9.89
   7   1 -14   25.84   11.08
  -1   7 -14   39.86   10.40
   1  -7  14   40.54   10.51
  -7  -1  14   53.82   15.89
   7   1  14   38.89   13.12
  -7   0 -14   -1.78    5.01
   7   0 -14   -1.25    3.75
   7   0 -14    0.28    2.01
   7   0 -14    3.52    3.58
   0   7 -14   -1.75    1.60
   0   7 -14   -3.33    2.86
   7   0  14   11.48    7.97
   7   0  14    0.84    3.78
   0  -7  14   -0.96    2.70
  -7   0  14   -1.81    9.85
   1   7 -14   38.76   10.59
   1   7 -14   35.59    9.79
  -7   1 -14   39.96   12.42
   7  -1  14   43.78   15.11
  -1  -7  14   56.27   10.69
   7  -1  14   33.03   10.88
  -7   2 -14   18.34    6.28
   2   7 -14   22.06    5.20
   2   7 -14   15.41    4.31
   7  -2  14   35.45   10.97
   7  -2  14   11.15    5.19
  -2  -7  14   11.20    5.13
  -7   3 -14   34.78    7.83
   3   7 -14   30.59    8.61
   3   7 -14   32.45    7.80
  -7   3 -14   29.30    9.81
  -3  -7  14   35.90    8.75
   7  -3  14   45.34   13.46
   7  -3  14   25.64    8.44
   4   7 -14    0.13    3.20
  -7   4 -14    2.54    1.63
  -7   4 -14    3.25    5.03
  -4  -7  14    0.71    3.30
   7  -4  14    4.36    8.44
   7  -4  14    4.59    2.95
   5   7 -14   18.99    6.21
   5   7 -14   23.07    5.05
  -7   5 -14   15.45    4.97
  -7   5 -14   21.04    8.45
   7  -5  14   17.67   10.59
   7  -5  14   15.11    5.67
  -5  -7  14   26.25    5.96
   6   7 -14    2.43    1.90
   6   7 -14   -3.55    3.86
  -6  -7  14    0.20    3.53
   7  -6  14  -25.73    9.53
   7  -6  14    2.99    2.80
  -6  -7  14   -0.87   10.13
   7   7 -14   10.92    3.00
   7   7 -14    1.10    4.55
  -7  -7  14    4.03   11.40
  -7  -7  14   12.57    4.71
   8   7 -14    2.18    4.89
   8   7 -14   13.65    3.26
  -8  -7  14   13.55    4.68
  -8  -7  14    0.77   11.81
   8   6 -14    6.36    4.26
   8   6 -14    5.98    2.52
  -8  -6  14    0.19   11.53
  -8  -6  14    1.43    4.11
   8   5 -14    1.47    2.39
   8   5 -14   -2.07    4.05
  -8  -5  14   -0.19    3.67
  -8  -5  14   -1.51   11.00
   8   4 -14   65.53   15.84
  -4   8 -14   53.67   17.72
   8   4 -14   72.28   17.97
  -8  -4  14   80.91   24.10
  -8  -4  14   61.02   17.09
  -3   8 -14    2.02    3.17
   8   3 -14    2.85    2.70
   8   3 -14    4.01    3.73
  -8  -3  14    8.97   10.89
  -2   8 -14   30.69    9.07
   8   2 -14   25.30    9.67
   8   2 -14   34.29    8.47
   2  -8  14   46.08    9.62
  -8  -2  14   28.45   15.32
  -1   8 -14    1.19    1.75
   8   1 -14   -0.17    3.91
  -1   8 -14    1.62    3.10
   8   1 -14    0.19    3.17
   1  -8  14    0.38    3.13
   8   1  14   11.28    8.35
  -8  -1  14    3.94   10.82
   8   0 -14   33.26    8.13
  -8   0 -14   19.60   10.80
   0   8 -14   45.56    8.55
   8   0 -14   35.53    8.56
   8   0 -14   11.90    9.46
   0   8 -14   34.40    7.87
  -8   0  14   28.19   14.54
   0  -8  14   29.91    8.82
   8   0  14   28.90    9.17
   8   0  14   37.04   12.97
  -8   1 -14    2.46    4.97
   1   8 -14    1.21    1.92
   1   8 -14   -1.45    2.98
  -1  -8  14   -0.95    3.22
   8  -1  14    0.76    3.74
   8  -1  14    3.07    9.83
  -8   2 -14   23.76   10.16
   2   8 -14   36.07    7.96
   2   8 -14   32.92    8.70
   8  -2  14   38.18   14.82
   8  -2  14   25.39    8.72
  -2  -8  14   34.33    8.91
   3   8 -14    1.53    2.31
  -8   3 -14    4.93    2.01
   3   8 -14   10.94    3.66
  -8   3 -14    1.96    5.43
   8  -3  14    4.04   10.26
  -3  -8  14    2.99    3.43
   8  -3  14    4.30    3.58
  -8   4 -14   59.77   21.32
   4   8 -14  120.70   18.57
   4   8 -14   88.48   17.58
  -8   4 -14   46.09   17.68
   8  -4  14   44.34   18.47
   8  -4  14   88.42   23.92
   5   8 -14   -0.13    2.21
  -8   5 -14    1.54    1.83
  -8   5 -14   -4.87    7.11
   5   8 -14    2.25    3.75
   8  -5  14  -14.73    9.47
   8  -5  14   -2.74    3.06
   6   8 -14    3.49    2.39
  -8   6 -14    7.25    8.27
   6   8 -14    7.74    4.00
  -8   6 -14    5.33    2.27
   8  -6  14  -11.69   10.67
   8  -6  14    2.99    3.03
  -6  -8  14    0.22    4.18
   7   8 -14   -0.16    4.24
   9   8 -14    5.12    4.55
   9   8 -14    0.32    2.39
  -9  -8  14    0.26    4.70
   9   6 -14   -1.05    5.38
   9   6 -14   13.91    3.48
  -9  -6  14   -0.81   12.72
  -9  -6  14   18.41    5.02
   9   5 -14    9.20    3.06
   9   5 -14    1.70    4.74
  -9  -5  14    3.26   12.26
  -9  -5  14    7.88    4.44
  -4   9 -14   -0.12    3.30
   9   4 -14    3.95    2.62
   9   4 -14    5.27    4.24
  -9  -4  14   -0.19    3.70
  -9  -4  14    0.21   11.79
  -3   9 -14   39.29   10.18
   9   3 -14   35.05    9.22
   9   3 -14   28.55   10.80
  -9  -3  14   45.57   17.39
   9   2 -14   -1.53    3.97
  -2   9 -14    1.71    3.28
   9   2 -14    1.15    2.92
  -9  -2  14   -3.33   11.97
   9   2  14  -12.78    9.08
  -1   9 -14   21.06    4.91
  -9  -1 -14   14.27    7.80
   9   1 -14   29.16    5.07
   9   1 -14    9.76    5.71
   9   1  14  -23.54   11.02
  -9  -1  14   23.51   12.69
   9   1  14    6.36    6.21
  -9   0 -14   -2.84    6.31
   0   9 -14   -5.80    3.64
   9   0 -14   -0.43    3.91
   0  -9  14   -1.34    3.81
  -9   0  14   -6.22   11.55
   9   0  14   -6.03    4.83
   9   0  14   13.87   11.01
   1   9 -14   23.84    5.18
  -9   1 -14   21.64    7.23
   9  -1  14   10.77    5.90
   9  -1  14  -24.55   12.98
  -1  -9  14   17.51    5.52
   2   9 -14    0.14    2.16
  -9   2 -14    1.45    5.69
   2   9 -14   -2.18    3.53
  -2  -9  14   -0.23    3.79
   9  -2  14    7.47   11.70
   9  -2  14    0.55    3.99
  -9   3 -14   48.03    9.67
   3   9 -14   48.64   10.40
  -9   3 -14   31.10   12.73
   3   9 -14   35.99    9.71
   9  -3  14   29.70   10.29
   9  -3  14   46.35   16.75
  -3  -9  14   35.38   10.99
   4   9 -14    0.31    3.84
   4   9 -14    1.48    2.41
  -9   4 -14    3.00    2.09
  -9   4 -14    4.09    7.02
   9  -4  14    3.14    3.66
   9  -4  14    7.56   10.56
  -4  -9  14    3.56    4.33
   5   9 -14    0.16    4.31
  -9   5 -14    7.19    2.71
  -9   5 -14    4.08    8.66
   9  -5  14   12.93    4.05
   9  -5  14   11.15   10.36
  -9   6 -14    6.86    3.01
  -9   6 -14    4.52    9.69
   9  -6  14    7.23    3.97
   9  -6  14   17.24   11.83
   7   9 -14   -2.95    2.69
  -7  -9  14    0.27    4.66
   9  -7  14    1.92    3.30
   8   9 -14    5.97    2.92
   8   9 -14   -0.36    4.63
  -8  -9  14   -0.29    5.11
   9   9 -14    0.19    4.75
   9   9 -14   -2.30    2.94
  -9  -9  14   -5.75    5.51
  10   9 -14    1.47    3.02
  10   9 -14    0.20    5.04
 -10  -9  14   -0.32    5.70
 -10  -9  14   -6.27   14.44
  10   8 -14    0.20    4.80
  10   8 -14   -2.79    2.94
 -10  -8  14   -1.34   13.60
 -10  -8  14    0.29    4.88
  10   7 -14    0.29    2.73
 -10  -7  14    7.93    5.34
  10   5 -14   -0.28    2.50
  10   5 -14    4.32    4.60
 -10  -5  14    0.21    4.02
 -10  -5  14    3.30   13.04
  10   4 -14   11.34    3.64
  10   4 -14    8.48    5.18
 -10  -4  14   17.10   13.32
 -10  -4  14    7.47    4.73
  10   3 -14   -3.85    4.28
  10   3 -14    1.95    2.74
 -10  -3  14    8.08   12.81
  10   2 -14    4.35    4.75
  10   2 -14    7.72    3.77
  10   2  14   22.00   10.56
 -10  -2  14    0.24   12.78
 -10  -1 -14   -0.80    7.04
  10   1 -14    1.28    3.43
  10   1 -14    1.88    4.23
  10   1  14   -2.86    5.27
 -10  -1  14   -4.82   12.12
  10   1  14    4.53   11.10
  10   0 -14    1.92    4.02
 -10   0 -14    6.66    6.74
 -10   0  14    2.86   11.74
  10   0  14    3.04    5.17
  10   0  14    2.27   11.80
 -10   1 -14    3.40    6.39
  10  -1 -14   -1.30    4.63
  10  -1  14    5.50   12.87
  10  -1  14    0.23    4.38
 -10   2 -14    8.94    7.17
  10  -2  14    9.13    4.66
  10  -2  14    2.17   13.59
 -10   3 -14    2.22    2.33
 -10   3 -14    1.77    7.17
   3  10 -14   -0.16    3.90
  10  -3  14    0.19    3.92
  10  -3  14   10.65   12.27
 -10   4 -14    5.94    9.00
 -10   4 -14   11.77    3.42
  10  -4  14   18.15    5.06
  10  -4  14   -3.98   12.28
 -10   5 -14    3.90    9.43
 -10   5 -14   -0.19    2.31
  10  -5  14    3.14    3.99
  10  -5  14   -5.86   11.35
   6  10 -14    0.18    4.46
 -10   6 -14    2.53    2.46
 -10   6 -14    5.97   10.21
  10  -6  14    0.83    3.81
  -6 -10  14    0.30    4.88
  10  -6  14    2.51   13.07
   7  10 -14   -2.11    4.73
 -10   7 -14    1.37    2.53
  10  -7  14    3.52    3.89
  -7 -10  14   -0.31    5.09
   8  10 -14   -3.12    4.84
  -8 -10  14   -4.83    5.32
   9  10 -14    0.20    4.93
  -9 -10  14    1.03    5.56
  10  10 -14    2.12    5.15
 -10 -10  14   -0.73    5.97
  11  10 -14   -7.32    5.69
 -11 -10  14    0.38    6.80
 -11 -10  14    9.96   16.32
  11   9 -14    0.76    3.44
  11   9 -14   10.28    5.63
 -11  -9  14   -7.31   15.36
 -11  -9  14    1.02    6.16
  11   8 -14   -6.70    5.48
  11   8 -14    1.04    2.76
 -11  -8  14   12.57   14.70
 -11  -8  14   -3.95    5.47
  11   7 -14   -5.10    5.28
  11   7 -14    0.75    2.74
 -11  -7  14   -4.90   14.27
 -11  -7  14    4.06    5.18
 -11  -6  14    3.88    4.59
  11   5 -14   -0.19    5.00
  11   4 -14    2.06    4.63
  11   4 -14    3.40    2.84
 -11  -4  14    7.76   14.10
 -11  -4  14    2.57    4.03
  11   3 -14   -0.19    4.35
  11   3 -14   -1.06    3.01
 -11  -3  14    1.20   13.34
 -11  -3  14    2.08    4.02
  11   2 -14    0.19    4.45
 -11  -2 -14   -6.51    7.63
  11   2 -14   -0.16    2.93
 -11  -2  14    7.13   13.16
  11   1 -14    8.78    4.08
  11   1 -14    6.71    5.16
 -11  -1 -14    6.00    7.98
  11   1  14    6.39    5.95
 -11  -1  14    7.56   13.11
 -11   0 -14    0.25    7.23
  11   0 -14    2.58    4.05
  11   0  14   -5.56    5.70
  11   0  14    8.92   13.78
  11  -1 -14    4.08    3.83
  11  -1 -14    4.84    4.64
 -11   1 -14   12.67    7.95
  11  -1  14   -1.30   14.61
  11  -1  14    3.26    5.45
 -11   2 -14    7.38    7.72
 -11   2 -14   -1.08    2.53
  11  -2  14    6.01   14.51
  11  -2  14    4.90    4.86
 -11   3 -14   -4.07    8.42
 -11   3 -14    3.08    2.54
  11  -3  14   -0.42   14.47
  11  -3  14    2.55    4.47
 -11   4 -14   -1.60    2.60
 -11   4 -14    5.46    9.25
  11  -4  14    8.50   13.31
  11  -4  14    0.21    4.38
 -11   5 -14    1.50    2.86
 -11   5 -14   -3.84   10.58
  11  -5  14    6.59    4.40
 -11   6 -14   -0.95   11.96
 -11   6 -14   -0.47    2.94
  11  -6  14   -1.73    4.60
  11  -6  14   17.26   14.57
 -11   7 -14   -8.44   13.00
  11  -7  14   -2.38    3.99
 -12 -11  14   13.22   18.21
  12  10 -14    0.23    5.91
 -12 -10  14   30.58   17.16
 -12 -10  14    1.22    6.68
  12   9 -14    8.42    3.70
  12   9 -14    1.14    6.10
 -12  -9  14   17.70   16.67
 -12  -9  14    0.73    6.62
  12   8 -14    1.78    3.08
  12   8 -14   -6.86    5.67
 -12  -8  14   -8.29   15.71
 -12  -8  14    1.61    5.85
  12   7 -14    0.43    5.70
  12   7 -14    1.88    2.76
 -12  -7  14   -3.49    5.19
 -12  -7  14   10.27   15.55
  12   6 -14    3.39    5.52
  12   6 -14    0.44    2.51
 -12  -6  14   -7.98   14.81
 -12  -6  14    0.26    4.66
 -12  -5  14   -0.24    4.36
  12   3 -14    9.09    6.23
  12   3 -14   17.58    4.43
 -12  -3  14    8.20    5.65
 -12  -3  14   43.15   16.14
  12   2 -14   -4.22    3.31
 -12  -2 -14   23.37    8.29
  12   2 -14   -7.21    5.09
 -12  -2  14  -19.49   15.02
  12   2  14  -23.09   13.46
  12   1 -14    4.03    3.58
  12   1 -14   -2.05    4.55
  12   1  14   -8.92   14.56
 -12  -1  14  -14.12   13.47
  12   0 -14   -2.29    3.90
  12  -1 -14    3.45    4.77
 -12   6 -14    1.04    3.08
  12  -6  14   -7.35   15.07
 -12   7 -14   -1.38    4.33
 -12   7 -14   33.57   13.65
  12  -7  14   15.41   14.79
  12  -7  14   33.48    5.33
  13  11 -14    2.32    6.48
 -13 -11  14  -19.77   18.50
  13  10 -14    0.25    6.08
 -13 -10  14   -5.84   17.68
  13   9 -14   -4.13    6.27
  13   9 -14    0.82    3.18
 -13  -9  14    4.87   17.07
 -13  -9  14    5.81    6.90
  13   8 -14    1.28    3.06
  13   8 -14    0.70    5.87
 -13  -8  14  -21.49   16.92
 -13  -8  14    2.73    6.16
  13   7 -14   -9.85    3.08
  13   7 -14  -21.49    6.62
 -13  -7  14   -3.67    6.45
  13   6 -14    5.94    2.64
  13   6 -14   -3.12    5.68
 -13  -6  14   -5.32   16.25
 -13  -6  14   -2.76    5.41
  13   5 -14    7.06    5.81
  13   5 -14    0.58    2.90
 -13  -5  14    0.76    4.77
 -13  -5  14   15.40   15.98
  13   4 -14   -0.15    2.70
 -13  -4  14   -1.19    4.58
 -13  -2 -14   13.07    9.46
  13   2  14    4.59    7.19
 -13  -2  14    1.86   13.97
  13   2  14   -6.15   14.67
 -13  -1 -14   30.28    9.78
 -13  -1  14   -0.81   12.87
  13   1  14    3.25    7.17
  13   1  14  -25.97   16.14
 -13   0 -14  -18.94    9.65
  13   0  14   18.10   16.76
  13   0  14    2.95    6.58
 -13   1 -14    5.52    9.64
  13  -1  14  -29.60   17.88
  13  -1  14  -13.09    6.11
 -13   2 -14    0.45    2.92
 -13   2 -14   -9.92   10.67
  13  -2  14   -0.52   17.35
  13  -2  14    0.58    6.28
 -13   3 -14   -0.99   11.63
 -13   3 -14   -2.63    2.98
  13  -3  14    4.22    5.73
  13  -3  14    9.40   17.22
 -13   4 -14    0.25    3.21
 -13   4 -14    6.69   12.32
  13  -4  14    9.32    5.55
  13  -4  14    3.20   15.93
 -13   5 -14   -0.54    3.48
 -13   5 -14    6.73   13.12
  13  -5  14   27.71   16.02
  13  -5  14    7.47    5.47
 -13   6 -14   16.58   13.92
 -13   6 -14    0.29    3.32
  13  -6  14   -0.24    5.22
  13  -6  14    0.84   16.47
 -13   7 -14   -0.30    3.66
 -13   7 -14   -1.23   15.29
  13  -7  14  -10.45    5.24
  13  -7  14  -21.52   16.74
  13  -8  14   13.50    5.54
  14  11 -14   14.93    7.56
 -14 -11  14  -12.94   19.00
 -14 -10  14  105.53   37.81
 -14  -9  14    0.41    6.88
 -14  -2 -14   -8.38   10.70
  14   2  14   -0.42    7.67
  14   2  14   -2.47   16.72
 -14  -1 -14   -7.11   10.69
  14   1  14   -5.95    7.85
  14   1  14   -6.76   17.29
 -14   0 -14   15.64   11.17
  14   0  14   12.68    8.25
  14   0  14   19.36   18.79
 -14   1 -14   20.87   11.18
 -14   1 -14   -0.48    3.17
  14  -1  14    0.28   18.55
  14  -1  14    0.35    6.99
 -14   2 -14   -1.06   11.57
 -14   2 -14    5.88    3.54
  14  -2  14   -1.40   18.18
  14  -2  14    5.53    6.63
 -14   3 -14   -2.41    3.56
 -14   3 -14    2.99   12.25
  14  -3  14   -9.35    6.57
  14  -3  14  -13.20   18.00
 -14   4 -14   18.79   13.83
 -14   4 -14    3.65    3.79
  14  -4  14    2.12    6.52
  14  -4  14    4.09   17.82
 -14   5 -14    3.00    3.81
 -14   5 -14  -21.65   15.24
  14  -5  14    3.80    5.72
  14  -5  14    8.57   17.75
 -14   6 -14    6.10   16.15
 -14   6 -14   -1.91    3.56
  14  -6  14    2.08    5.86
  14  -6  14   -6.46   18.21
 -14   7 -14   24.20   16.66
 -14   7 -14   -2.68    3.80
  14  -7  14    1.25    5.57
  14  -7  14   16.97   17.72
  14  -8  14    1.21    5.16
  15   3  14    7.83   17.93
  15   2  14  -15.02   18.81
  15   2  14  -10.06    8.86
 -15  -1 -14    8.39   11.96
  15   1  14   16.05    8.47
  15   1  14  -27.39   19.86
 -15   0 -14   33.69   17.13
  15   0  14   29.73   13.17
  15   0  14   76.55   25.00
 -15   1 -14    1.33    4.05
 -15   1 -14    9.07   12.60
  15  -1  14    9.81   20.80
  15  -1  14    9.23    8.27
 -15   2 -14   -9.17   12.56
 -15   2 -14    1.42    4.13
  15  -2  14  -33.29    8.18
 -15   3 -14   10.51   14.39
 -15   3 -14    5.04    4.32
  15  -3  14    5.16    7.40
  15  -3  14   28.98   19.52
 -15   4 -14    5.03    4.28
 -15   4 -14   34.41   15.33
  15  -4  14  -14.18    6.80
  15  -4  14    0.30   19.16
 -15   5 -14   -0.33    3.90
 -15   5 -14    2.78   15.85
  15  -5  14    0.63    6.79
  15  -5  14   13.07   19.36
 -15   6 -14    5.63    4.32
 -15   6 -14   14.38   17.09
  15  -6  14   -3.29    6.07
  15  -6  14  -14.56   19.76
 -15   7 -14    1.96   17.53
 -15   7 -14   -0.74    4.23
  15  -7  14   22.74   19.29
  15  -7  14    1.71    6.13
 -15   8 -14   -0.38    4.22
 -15   8 -14  -13.43   18.17
  15  -8  14  -28.71    6.50
  16   3  14   20.03   21.15
 -16  -2 -14    4.92   13.44
  16   2  14   19.59    9.22
  16   2  14  -24.66   20.44
 -16  -1 -14   20.26   13.84
  16   1  14   -0.47    8.68
  16   1  14    9.33   20.82
 -16   0 -14   -0.56    3.89
 -16   0 -14   29.04   13.51
  16   0  14   24.21   21.58
  16   0  14   17.78    9.07
 -16   1 -14   -0.60    4.03
 -16   1 -14   16.99   13.75
  16  -1  14  -19.20    8.41
  16  -1  14  -15.29   21.76
 -16   2 -14    2.82    3.89
 -16   2 -14  -10.89   14.65
  16  -2  14    3.99   21.59
  16  -2  14   -9.82    8.49
 -16   3 -14   -9.42   15.48
 -16   3 -14   -0.33    4.01
  16  -3  14    0.99   20.92
  16  -3  14   -0.40    8.25
 -16   4 -14  -24.37   17.02
 -16   4 -14    5.92    4.50
  16  -4  14   -7.90    7.43
  16  -4  14   31.26   20.27
 -16   5 -14    8.19   17.68
 -16   5 -14   -0.37    4.60
  16  -5  14   20.59   21.25
  16  -5  14  -11.99    7.29
 -16   6 -14  -41.47   19.31
 -16   6 -14   -5.05    5.22
  16  -6  14  -24.16    7.97
 -16   7 -14   -1.22    4.98
 -16   7 -14   -3.21   18.37
  16  -7  14  -13.13    6.41
 -16   8 -14   -6.70    4.49
 -16   8 -14  -31.80   20.08
  16  -8  14   -6.45    6.48
 -17  -3 -14   54.37   26.47
  17   3  14  147.08   33.17
 -17  -2 -14  -16.55   17.08
 -17  -1 -14  -46.12   17.13
 -17   0 -14   -7.19   15.23
 -17   0 -14   -0.31    4.28
  17   0  14  -22.65   10.24
 -17   1 -14  -40.50   17.54
 -17   1 -14   -3.67    5.14
  17  -1  14  -38.27    9.73
 -17   2 -14   13.29   17.29
 -17   2 -14   -5.23    4.61
  17  -2  14  -28.51   10.43
 -17   3 -14    9.51    7.94
 -17   3 -14   44.34   20.74
  17  -3  14   36.27   12.08
 -17   4 -14    3.84   19.21
 -17   4 -14   -1.93    4.80
  17  -4  14    4.56    8.56
 -17   5 -14    5.13   20.05
 -17   5 -14   -3.68    4.87
  17  -5  14  -29.57    8.46
  17  -5  14   -3.18   23.88
 -17   6 -14    5.76   19.62
 -17   6 -14   -5.58    5.09
  17  -6  14   -4.09    7.84
  17  -6  14   12.27   23.27
 -17   7 -14   -5.24   21.87
 -17   7 -14   -5.81    5.37
  17  -7  14   -6.30    7.37
  17  -7  14   -0.41   22.13
 -17   8 -14  -23.46   21.96
  17  -8  14   10.93    7.29
 -18  -3 -14   -9.93   16.40
  18   3  14    4.03   24.86
 -18  -2 -14  -31.06   18.02
  18   2  14   -9.78   11.16
  18   2  14  -20.03   25.61
 -18  -1 -14   -3.07   16.60
 -18  -1 -14    0.33    4.02
  18   1  14   29.16   25.54
  18   1  14  -25.99   11.36
 -18   0 -14    4.24    4.54
 -18   0 -14    5.25   16.91
  18   0  14   26.48   25.45
  18   0  14  -10.34   10.44
 -18   1 -14   -9.73   17.68
 -18   1 -14   -6.63    5.02
  18  -1  14    2.61   10.33
  18  -1  14  -30.16   25.16
 -18   2 -14   -3.47    4.42
 -18   2 -14   11.48   18.62
  18  -2  14   -9.98    9.89
  18  -2  14   -2.72   24.43
 -18   3 -14   -3.23    5.00
 -18   3 -14    7.05   19.09
  18  -3  14  -12.93    9.97
  18  -3  14   33.26   24.53
 -18   4 -14   -9.09   20.33
 -18   4 -14    6.05    5.69
  18  -4  14  -16.70   24.05
  18  -4  14    2.70    9.35
 -18   5 -14    6.32    6.16
 -18   5 -14   55.03   21.66
  18  -5  14   -8.76   25.95
  18  -5  14    6.80    8.95
 -18   6 -14   22.04   21.72
 -18   6 -14   -5.71    5.42
  18  -6  14   17.40   25.70
  18  -6  14    5.62    8.15
 -18   7 -14    3.94    5.28
 -18   7 -14  -50.00   22.79
  18  -7  14   -6.39    7.69
  18  -7  14   37.14   25.13
 -18   8 -14   31.77   23.47
   0   0 -15   -3.43    3.37
   1   0 -15   69.87   17.58
  -1   0 -15   60.82   17.92
   0   1 -15   89.89   17.70
   0  -1  15   62.04   21.67
  -1   1 -15   -1.79    3.00
  -1   1 -15   -0.32    2.62
   1   1 -15   -2.12    2.94
   1   1 -15    0.71    2.94
  -1  -1  15   -6.65    7.86
   1  -1  15    1.12    7.25
   2   1 -15    1.47    2.99
  -1   2 -15   -1.03    2.23
   2   1 -15    1.02    2.98
  -1   2 -15    2.44    2.74
  -2  -1  15    4.06    8.35
   1  -2  15   -1.15    7.15
   1  -2  15    4.78    3.60
   2   0 -15    2.06    3.57
   0   2 -15   -0.27    2.30
  -2   0 -15   -0.41    3.36
   0   2 -15   -0.37    2.70
   0  -2  15   -2.65    7.58
  -2   0  15   -1.99    8.55
  -2   1 -15    2.17    2.81
  -2   1 -15    0.45    2.48
   1   2 -15   -0.15    2.52
   1   2 -15    1.89    2.88
  -1  -2  15    0.46    7.39
   2  -1  15   -6.26    3.68
   2  -1  15   -3.31    6.97
   2   2 -15   -0.26    2.83
  -2   2 -15   -0.23    1.90
  -2   2 -15    2.41    2.81
   2   2 -15    1.52    2.67
  -2  -2  15    4.48    7.88
   2  -2  15   -3.75    7.09
   2  -2  15   -1.76    4.44
  -2   3 -15    0.65    2.54
   3   2 -15    2.07    2.61
  -2   3 -15   -0.28    1.62
   3   2 -15   -1.60    2.84
   2  -3  15    7.87    6.50
  -3  -2  15   -4.02    8.44
  -1   3 -15   20.85    6.21
   3   1 -15   31.05    6.12
   3   1 -15   14.47    6.51
  -1   3 -15   19.13    5.56
  -3  -1  15   18.38   10.73
   1  -3  15   28.93    9.39
   3   0 -15   -1.82    3.57
   0   3 -15   -1.14    1.98
   0   3 -15    0.68    2.68
  -3   0 -15   -0.19    3.21
  -3   0  15   -4.51    8.92
   0  -3  15    5.20    7.23
  -3   1 -15   25.38    6.26
   1   3 -15   22.48    6.29
   1   3 -15   16.28    5.76
  -1  -3  15   32.02    9.72
  -3   2 -15   -2.03    2.79
   2   3 -15    2.45    2.15
   2   3 -15    0.85    2.75
  -3   2 -15    1.04    1.85
  -2  -3  15    7.01    7.70
   3  -2  15   -2.17    5.54
   3  -2  15   -6.46    6.97
   3   3 -15    1.27    2.86
  -3   3 -15   -0.90    1.46
   3   3 -15   -2.03    2.22
  -3   3 -15    1.26    2.70
   3  -3  15    1.34    5.57
   3  -3  15   -1.36    2.15
   3  -3  15    1.41    6.46
  -3  -3  15    6.92    7.93
  -3   4 -15    4.73    2.07
  -3   4 -15    8.78    3.19
   4   3 -15    4.86    3.56
   3  -4  15    7.52    2.48
  -4  -3  15    5.09    8.96
   3  -4  15    2.73    6.69
   4   2 -15   15.32    7.15
  -2   4 -15   23.89    6.16
  -2   4 -15   25.55    7.06
  -4  -2  15   21.84   11.61
   2  -4  15   26.65    9.87
   2  -4  15   26.65    6.57
  -1   4 -15    7.23    2.94
  -1   4 -15    5.67    2.15
   4   1 -15    8.16    3.61
  -4  -1  15    2.69    9.34
   1  -4  15   -2.05    6.96
   1  -4  15    6.16    2.48
   0   4 -15    0.11    2.64
   0   4 -15    1.79    1.71
   4   0 -15   -0.17    3.23
  -4   0 -15    1.81    3.09
   4   0  15   -5.77    4.81
  -4   0  15    5.94    8.81
   0  -4  15    0.64    7.00
  -4   1 -15    7.77    2.73
   1   4 -15    3.62    2.27
   1   4 -15    6.77    3.23
  -1  -4  15   -1.34    7.52
   4  -1  15    7.64    5.75
  -4   2 -15   33.53    7.15
   2   4 -15   34.72    6.98
  -4   2 -15   27.55    7.99
   2   4 -15   21.11    7.69
  -2  -4  15   22.24   11.25
   4  -2  15   27.10   10.42
  -4   3 -15    6.98    3.21
  -4   3 -15    6.81    2.27
   3   4 -15    5.69    3.42
   3   4 -15   10.89    2.71
   4  -3  15   10.98    6.91
  -3  -4  15   -3.14    8.34
  -4   4 -15    0.99    1.29
   4   4 -15   -0.80    3.05
  -4   4 -15   -3.42    2.57
   4  -4  15    6.21    6.14
  -4  -4  15  -11.70    8.82
   4  -4  15   -0.19    1.75
   5   4 -15   13.39    4.35
   5   4 -15   13.33    3.41
  -4   5 -15    8.61    2.87
  -4   5 -15    7.29    3.89
   4  -5  15   13.04    7.19
  -5  -4  15   14.93    9.89
   4  -5  15   12.57    3.57
   5   3 -15    9.49    2.77
  -3   5 -15    5.43    2.01
  -3   5 -15    5.83    3.23
   5   3 -15    6.22    3.56
   3  -5  15    5.18    2.63
   3  -5  15    5.98    6.76
  -5  -3  15    9.74    9.72
  -2   5 -15    6.46    3.39
   5   2 -15    4.37    3.79
   5   2 -15   10.78    3.22
  -2   5 -15    8.06    2.29
   2  -5  15    5.81    2.79
  -5  -2  15   17.65    9.66
   2  -5  15    2.20    7.29
   5   1 -15   11.35    4.92
  -1   5 -15   14.98    4.46
   5   1 -15   12.85    4.70
  -1   5 -15   11.12    3.51
   1  -5  15   17.77    4.01
   1  -5  15    5.86    8.12
  -5  -1  15    9.63   10.37
   0   5 -15    7.77    3.54
   5   0 -15    6.71    4.34
   5   0 -15   10.67    4.03
  -5   0 -15    5.25    3.83
   0   5 -15    8.87    2.71
  -5   0  15    7.05    9.99
   0  -5  15   10.05    3.17
   5   0  15    4.49    6.20
   0  -5  15   21.05    7.80
   1   5 -15   16.29    4.72
   1   5 -15   16.81    3.86
  -5   1 -15    8.89    4.31
   5  -1  15   18.29    8.25
  -1  -5  15   14.60    4.37
  -1  -5  15   11.87    8.67
   2   5 -15    8.16    2.71
  -5   2 -15    3.96    2.53
  -5   2 -15    7.50    4.52
   2   5 -15    9.32    3.56
  -2  -5  15   12.21    3.34
   5  -2  15    4.52    8.01
  -2  -5  15   13.75    8.31
   5  -2  15   13.70    3.60
  -5   3 -15    3.24    1.72
  -5   3 -15    1.37    3.49
   3   5 -15    4.27    3.35
  -5   3 -15   17.07    2.99
   3   5 -15    2.31    2.14
   5  -3  15    4.39    2.06
   5  -3  15    1.49    2.84
  -3  -5  15    5.16    2.93
  -3  -5  15   -8.79    8.47
   5  -3  15   -6.28    7.69
  -5   4 -15   11.55    3.68
  -5   4 -15   10.75    2.57
   4   5 -15   15.72    4.13
  -4  -5  15   11.46    9.41
   5  -4  15    6.75    7.47
   5  -4  15    8.82    3.01
  -4  -5  15   -0.16    3.60
   5  -4  15    5.90    6.95
   5  -4  15    7.36    3.16
  -5   5 -15    1.00    1.19
   5   5 -15   -0.56    3.44
   5   5 -15   -0.64    2.35
  -5   5 -15   -2.14    2.83
  -5  -5  15    2.98    2.98
  -5  -5  15    4.53    9.76
  -5   6 -15   15.02    4.64
  -5   6 -15   17.91    5.76
   6   5 -15   18.35    4.83
   6   5 -15   13.90    5.76
  -6  -5  15    9.26   11.73
  -6  -5  15   26.00    5.65
   6   4 -15   23.88    6.02
  -4   6 -15   19.33    4.81
   6   4 -15   19.31    5.01
  -4   6 -15   15.92    5.92
  -6  -4  15   10.45   11.66
   4  -6  15   18.33    5.59
   4  -6  15   12.45    9.11
  -3   6 -15   10.05    3.39
   6   3 -15   11.41    4.85
   6   3 -15    8.56    3.98
  -3   6 -15   16.60    4.55
   3  -6  15   13.66    4.22
  -6  -3  15   16.05   10.62
   3  -6  15   16.13    8.33
   6   2 -15   17.81    7.78
  -2   6 -15   26.86    6.42
  -2   6 -15   26.85    7.63
   6   2 -15   26.12    6.94
   2  -6  15   22.99    7.36
  -6  -2  15   32.80   13.26
   2  -6  15   20.27   11.18
  -1   6 -15   12.09    3.25
   6   1 -15   12.69    4.93
   6   1 -15   14.22    4.62
  -1   6 -15   15.21    4.31
   1  -6  15   10.29    4.02
  -6  -1  15    2.95   11.15
   1  -6  15    9.40    8.56
   0   6 -15    2.64    3.00
   0   6 -15   -0.38    1.60
   6   0 -15    0.92    3.65
   6   0 -15   -1.83    3.82
  -6   0  15   -6.66    9.89
   0  -6  15   -0.14    2.27
   6   0  15   -1.97    6.65
   0  -6  15   -3.27    7.89
   1   6 -15   13.46    3.32
  -6   1 -15    4.93    5.75
   1   6 -15   14.73    4.38
   6  -1  15   16.39    8.56
   6  -1  15    2.88    4.65
  -1  -6  15   11.64    3.95
  -1  -6  15   21.40    9.00
  -6   2 -15   40.73    9.74
   2   6 -15   41.47    8.71
   2   6 -15   31.66    7.92
  -2  -6  15   27.86    8.53
  -2  -6  15   35.60   12.68
   6  -2  15   25.15    8.67
   6  -2  15   34.77   12.85
  -6   3 -15   16.20    3.50
  -6   3 -15   17.72    5.33
   3   6 -15   16.55    3.74
   3   6 -15    9.59    4.71
  -3  -6  15    9.36    4.31
   6  -3  15   11.91    4.34
  -3  -6  15   20.82    9.93
   6  -3  15    1.62    9.33
   4   6 -15   19.72    6.00
  -6   4 -15   18.79    4.87
   4   6 -15   17.17    5.04
  -6   4 -15   17.69    6.65
  -4  -6  15   27.64    5.91
   6  -4  15   24.92    5.54
   6  -4  15   17.54    9.62
  -4  -6  15    9.37   11.13
   5   6 -15   18.57    6.40
   5   6 -15   21.44    5.48
  -5  -6  15   36.86   11.82
   6   6 -15   -4.13    2.73
   6   6 -15  -14.56    4.58
  -6  -6  15   -2.62    4.00
  -6  -6  15   15.97   12.29
   7   6 -15   10.88    4.49
   7   6 -15    3.63    2.87
  -7  -6  15    3.62   11.94
  -7  -6  15    5.16    4.19
   7   5 -15  -11.50    4.37
   7   5 -15   -2.91    2.95
  -7  -5  15   -6.19    3.66
  -7  -5  15  -11.49   12.24
  -4   7 -15    8.79    2.65
   7   4 -15   10.78    3.32
   7   4 -15    0.78    4.50
  -4   7 -15   12.58    3.94
   4  -7  15    6.29    3.69
  -7  -4  15   -8.24   12.05
   7   3 -15    7.47    4.42
  -3   7 -15    8.82    2.89
  -3   7 -15    6.79    3.97
   7   3 -15   16.85    3.74
   3  -7  15   10.01    3.91
  -7  -3  15    6.86   11.18
  -2   7 -15   39.81   10.29
   7   2 -15   32.26   10.62
  -2   7 -15   32.55    9.20
   7   2 -15   40.94    9.41
   2  -7  15   42.80   10.32
  -7  -2  15   26.80   16.21
  -1   7 -15    1.24    1.76
   7   1 -15    1.57    3.48
  -1   7 -15    3.79    3.09
   7   1 -15   -0.18    3.79
  -7  -1  15    5.76   11.12
   1  -7  15    4.52    2.99
   7   1  15    4.18    7.04
   0   7 -15   20.76    5.34
  -7   0 -15    5.15    7.11
   7   0 -15   30.84    5.78
   0   7 -15   18.12    4.38
   7   0 -15   14.48    6.15
   0  -7  15   13.84    5.14
  -7   0  15   18.50   11.74
   7   0  15   10.92    9.04
   1   7 -15    7.84    3.41
  -7   1 -15    3.41    5.01
   1   7 -15    1.58    1.93
   7  -1  15   10.91    9.53
   7  -1  15    5.40    3.89
  -1  -7  15    5.55    3.06
   2   7 -15   33.10    9.53
   2   7 -15   45.55   10.48
  -7   2 -15   36.83   11.81
   7  -2  15   38.27   10.51
  -2  -7  15   39.24   10.46
   7  -2  15   56.72   15.57
  -7   3 -15   14.94    5.27
   3   7 -15    8.46    3.02
   3   7 -15   11.84    4.25
  -7   3 -15   10.80    2.83
   7  -3  15    6.08    3.95
   7  -3  15   13.22    9.93
  -3  -7  15    9.44    3.80
  -7   4 -15   11.45    2.93
  -7   4 -15   18.70    5.56
   4   7 -15    6.02    3.23
  -4  -7  15   20.17    4.13
   7  -4  15   -0.78    9.62
  -4  -7  15  -25.04   11.46
   7  -4  15   11.76    3.94
   7  -5  15   -0.86    3.01
   7  -5  15  -13.12    9.13
   6   7 -15    6.46    3.01
   6   7 -15   16.83    4.59
  -6  -7  15    6.64    4.43
  -6  -7  15    1.85   11.40
   7   7 -15    8.88    2.86
   7   7 -15    0.50    4.64
  -7  -7  15   14.27    4.54
  -7  -7  15    0.39   12.00
   8   6 -15    4.48    2.71
   8   6 -15    1.73    4.71
  -8  -6  15   -1.42   12.46
  -8  -6  15   11.77    4.30
   8   5 -15    2.86    5.63
   8   5 -15   11.37    3.96
  -8  -5  15   -0.41   13.09
  -8  -5  15   18.10    5.15
   8   4 -15    5.91    4.23
   8   4 -15    1.03    2.75
  -4   8 -15    3.50    3.39
  -8  -4  15    4.60    3.76
  -8  -4  15   -1.24   11.89
  -3   8 -15   31.92    9.63
   8   3 -15   35.06   10.01
   8   3 -15   32.62    8.53
  -8  -3  15   17.79   16.21
   3  -8  15   37.15   10.17
   8   2 -15    3.74    3.39
  -2   8 -15    7.18    3.59
  -2   8 -15    4.44    2.32
   8   2 -15    1.38    4.20
  -8  -2  15   -0.22   12.26
   2  -8  15    9.58    3.59
   8   1 -15   23.59    7.42
  -1   8 -15   26.98    6.88
   8   1 -15   30.36    8.41
  -1   8 -15   29.07    7.69
   1  -8  15   31.31    7.94
  -8  -1  15   20.25   14.08
   8   0 -15   -4.22    4.22
   0   8 -15   -0.61    1.90
  -8   0 -15    0.44    5.89
   0   8 -15   -0.96    3.50
  -8   0  15   -6.29   11.40
   8   0  15   -0.70    4.44
   8   0  15   -4.54    9.32
   0  -8  15   -2.50    3.10
   1   8 -15   24.94    6.93
   1   8 -15   27.66    6.16
  -8   1 -15   17.77    8.82
  -1  -8  15   35.42    7.16
   8  -1  15    3.71   12.58
   8  -1  15   18.51    7.45
  -8   2 -15    3.94    5.49
   2   8 -15    6.66    2.60
   2   8 -15    8.58    3.88
  -2  -8  15    9.75    3.82
   8  -2  15   -0.94   11.74
   8  -2  15    8.00    4.11
   3   8 -15   40.32    8.92
   3   8 -15   44.11    9.87
  -8   3 -15   26.01   11.31
  -8   3 -15   47.10    9.02
   8  -3  15   31.51    9.76
  -3  -8  15   39.35    9.94
   8  -3  15   15.80   15.79
   4   8 -15    6.15    2.42
   4   8 -15    3.86    3.62
  -8   4 -15    5.20    2.07
  -8   4 -15    5.10    5.79
   8  -4  15   -0.15    3.50
  -4  -8  15    1.68    3.94
   8  -4  15    8.86    9.92
   5   8 -15   21.58    6.09
  -8   5 -15   20.61    4.94
  -8   5 -15   14.39    8.47
   8  -5  15   18.35   11.03
   8  -5  15   20.21    5.77
   6   8 -15    0.16    3.79
   8   8 -15   -0.18    4.18
   8   8 -15    0.16    2.69
  -8  -8  15    0.77    4.93
   9   8 -15   -0.19    4.92
  -9  -8  15    7.83   14.21
  -9  -8  15   -0.27    5.25
   9   7 -15    2.33    2.45
  -9  -7  15    0.49    4.46
   9   5 -15    1.96    4.51
   9   5 -15    3.73    2.76
  -9  -5  15    0.88   13.50
  -9  -5  15    1.05    3.96
   9   4 -15   30.82    6.30
   9   4 -15   11.08    7.81
  -4   9 -15   25.36    7.10
  -9  -4  15   31.58    7.27
  -9  -4  15   -0.22   14.53
   9   3 -15   -4.21    4.41
  -3   9 -15    1.46    3.25
   9   3 -15   -3.34    3.03
  -9  -3  15   -2.03   12.49
   9   2 -15   18.30   10.00
  -2   9 -15   38.34    9.18
   9   2 -15   31.99    8.56
  -9  -2  15   47.88   16.81
  -1   9 -15    2.65    3.54
   9   1 -15   -0.20    3.86
   9   1 -15    0.58    4.17
   9   1  15    1.11    9.44
   1  -9  15    1.82    3.68
  -9  -1  15   -1.47   12.26
   0   9 -15    5.43    3.79
   0   9 -15    5.06    2.49
   9   0 -15    2.33    4.07
  -9   0 -15    6.73    6.48
  -9   0  15   -2.90   11.91
   9   0  15   12.92   10.64
   0  -9  15    4.77    3.72
   9   0  15    2.24    4.77
   1   9 -15   -3.00    2.38
   1   9 -15   -2.94    3.52
  -9   1 -15   -2.61    5.61
   9  -1  15  -15.74   12.11
   9  -1  15   -2.81    4.43
  -1  -9  15   -1.38    3.80
   2   9 -15   48.22    9.30
   2   9 -15   34.60    8.57
  -9   2 -15   21.50   11.10
   9  -2  15   23.96    9.48
   9  -2  15   42.35   16.02
  -2  -9  15   34.29    9.82
  -9   3 -15   -0.37    5.97
   3   9 -15    1.92    2.34
   3   9 -15    0.16    3.83
  -9   3 -15   -0.15    1.94
   9  -3  15    1.41    3.81
   9  -3  15   -2.91   12.00
  -3  -9  15    0.24    4.00
  -9   4 -15   27.04    9.38
  -9   4 -15   27.33    5.67
   4   9 -15    4.42    6.82
   9  -4  15   34.96   12.86
   9  -4  15   19.94    6.70
  -9   5 -15    2.41    2.32
  -9   5 -15    7.56    8.10
   9  -5  15    7.69   10.61
   9  -5  15    6.66    3.85
   6   9 -15    0.16    2.65
  -6  -9  15   -6.52    4.71
   7   9 -15    1.61    4.47
   7   9 -15    0.67    2.55
  -7  -9  15   -6.29    5.05
   8   9 -15   -2.60    2.75
   8   9 -15    0.19    4.69
  -8  -9  15    2.89    5.19
  -8  -9  15   11.55   13.65
   9   9 -15    0.18    3.10
   9   9 -15   -0.40    4.81
  -9  -9  15    2.56   13.99
  -9  -9  15   -8.26    5.40
  10   9 -15    3.41    3.18
  10   9 -15   -1.90    5.34
 -10  -9  15   -2.31    5.94
 -10  -9  15    4.39   15.10
  10   8 -15    7.02    5.38
  10   8 -15   -0.17    2.86
 -10  -8  15  -10.71    5.62
 -10  -8  15    0.24   14.61
  10   7 -15   -0.60    2.64
  10   7 -15    0.20    5.42
 -10  -7  15   -3.50   14.78
 -10  -7  15   -0.26    4.83
 -10  -6  15   -0.24    4.39
  10   5 -15   -0.19    4.74
  10   4 -15   -4.85    4.66
  10   4 -15   -0.16    3.07
 -10  -4  15   11.79    4.05
 -10  -4  15   -3.54   13.28
  10   3 -15   31.18    8.43
  10   3 -15   37.72    9.55
 -10  -3  15   57.05   16.39
  10   2 -15   -2.48    3.46
  10   2 -15   -2.51    4.51
  10   2  15   -0.17   10.14
 -10  -2  15    2.49   13.01
  -1  10 -15   -0.45    3.69
  10   1 -15    5.93    3.67
  10   1 -15    1.41    4.32
 -10  -1 -15   -5.50    6.97
 -10  -1  15    3.83   12.43
  10   1  15    1.98   11.13
 -10   0 -15    1.00    7.04
   0  10 -15   -2.93    3.80
  10   0 -15   -2.60    4.38
  10   0  15    7.55    5.09
  10   0  15    9.93   12.04
   1  10 -15    3.81    3.92
 -10   1 -15    2.00    6.36
  10  -1  15    6.07   12.98
  10  -1  15    5.02    4.76
 -10   2 -15    0.21    6.64
   2  10 -15   -3.58    4.10
  10  -2  15    2.17   13.36
  10  -2  15   -1.30    4.58
 -10   3 -15   13.90    8.19
 -10   3 -15    9.50    3.93
  10  -3  15   17.00    5.55
  10  -3  15  -16.90   13.94
 -10   4 -15   -0.54    2.21
 -10   4 -15    2.32    8.13
   4  10 -15   -2.57    2.77
  10  -4  15    3.46   12.10
  10  -4  15   -2.96    4.47
  -4 -10  15   -0.28    4.44
 -10   5 -15    3.49    9.27
 -10   5 -15    5.42    2.89
   5  10 -15   11.48    4.65
  10  -5  15    9.71   11.47
  10  -5  15    3.30    4.35
   6  10 -15    2.00    2.94
   6  10 -15    0.19    4.55
  10  -6  15   -2.60    3.97
  -6 -10  15    4.79    5.16
   7  10 -15    4.89    2.96
   7  10 -15   -1.16    4.79
  -7 -10  15  -10.03    5.38
   8  10 -15    0.20    4.40
   8  10 -15    2.93    3.09
  -8 -10  15    3.63    5.86
   9  10 -15   -0.63    5.43
   9  10 -15   -1.21    3.10
  -9 -10  15    0.35    5.82
  10  10 -15   -0.44    5.71
  10  10 -15    0.84    3.37
 -10 -10  15   15.59   15.67
 -10 -10  15   -5.52    6.19
  11  10 -15    6.10    3.96
  11  10 -15    6.27    5.87
 -11 -10  15    0.78    6.62
 -11 -10  15  -13.35   17.94
  11   9 -15   -8.25    3.36
  11   9 -15    1.35    5.69
 -11  -9  15   21.36   15.96
 -11  -9  15    0.35    6.11
  11   8 -15   -1.77    2.94
  11   8 -15    3.06    5.42
 -11  -8  15   20.91   15.91
 -11  -8  15    2.45    5.64
  11   7 -15    0.16    2.73
  11   7 -15    5.76    5.52
 -11  -7  15    0.28    4.89
 -11  -7  15   -1.51   15.47
  11   6 -15   -1.47    5.59
  11   6 -15   -0.30    2.75
 -11  -6  15    6.26   15.32
 -11  -6  15    0.26    4.95
 -11  -5  15   -0.24    4.53
  11   3 -15   22.41    3.87
  11   3 -15   -4.99    5.40
 -11  -3  15    3.83   14.79
  11   2 -15   -1.27    3.43
  11   2 -15   -4.91    4.62
 -11  -2  15   17.44   14.07
  11   1 -15    5.06    4.79
  11   1 -15   -2.01    3.87
 -11  -1 -15   -8.00    8.21
  11   1  15    0.32    5.94
 -11  -1  15    1.33   13.44
 -11   0 -15   10.46    8.98
  11   0  15    1.14    6.61
 -11   1 -15   -3.97    7.32
  11  -1  15   12.22    5.53
  11  -1  15   12.72   14.92
 -11   2 -15    2.13    7.78
 -11   2 -15   -0.91    2.32
  11  -2  15    0.64   14.29
  11  -2  15    6.33    5.13
 -11   3 -15    2.71    8.07
 -11   3 -15   -0.58    2.59
  11  -3  15  -15.18   14.77
  11  -3  15    8.82    4.97
 -11   4 -15    0.81    2.56
 -11   4 -15    9.07    9.20
  11  -4  15   -4.44    5.00
 -11   5 -15   -5.99   10.72
 -11   5 -15    0.22    2.79
  11  -5  15    0.20    4.72
 -11   6 -15    7.41   11.87
   8  11 -15    0.22    5.26
   9  11 -15   -1.81    5.56
  10  11 -15    2.10    5.92
 -11 -11  15   34.16   22.04
  12  11 -15    9.76    7.29
 -12 -11  15   21.70   18.52
  12  10 -15    1.48    6.33
 -12 -10  15    1.96   17.64
 -12 -10  15   -0.42    6.84
  12   9 -15   -1.02    3.49
  12   9 -15    3.12    6.06
 -12  -9  15    9.52   16.84
 -12  -9  15   -2.59    6.29
  12   8 -15  -12.59    6.34
  12   8 -15   -3.71    3.15
 -12  -8  15  -37.92   17.72
 -12  -8  15    0.33    6.16
  12   7 -15    9.05    6.27
  12   7 -15    1.96    2.96
 -12  -7  15   11.85   16.59
 -12  -7  15    0.30    5.43
  12   6 -15    2.96    2.79
  12   6 -15   -0.22    5.48
 -12  -6  15   -7.78    5.10
 -12  -6  15  -19.59   16.45
  12   5 -15   -4.70    5.40
  12   5 -15    1.10    2.75
 -12  -5  15  -10.79    4.67
 -12  -5  15    6.71   15.67
  12   4 -15   -0.16    2.95
 -12  -4  15    3.09    4.88
  12   2 -15   -6.64    5.44
 -12  -2  15   -5.70   15.16
  12   2  15   -8.98   13.44
 -12  -1 -15   65.48   10.48
  12   1 -15   -6.13    7.71
  12   1 -15   24.95    6.24
  12   1  15  -19.18   15.81
 -12  -1  15   -8.87   15.66
  12   1  15   59.95    8.45
  12   0 -15    4.73    4.60
  12   0  15  -23.34   16.09
  12  -5  15   14.73   14.77
 -12   6 -15   -1.55    3.05
  12  -6  15   -4.79   15.01
  13  11 -15    5.96    7.59
 -13 -11  15   24.10   19.78
  13  10 -15    2.35    6.92
 -13 -10  15    2.20    7.57
 -13 -10  15   38.22   19.05
  13   9 -15  -14.88    6.86
  13   9 -15   -0.63    3.55
 -13  -9  15   -0.39    6.85
 -13  -9  15  -45.32   18.42
  13   8 -15    0.49    6.12
  13   8 -15   -5.33    3.18
 -13  -8  15    0.70    6.49
 -13  -8  15   -4.29   17.91
  13   7 -15    0.67    3.07
  13   7 -15   -5.08    6.67
 -13  -7  15   -9.39    6.24
  13   6 -15  -13.96    6.14
  13   6 -15    2.06    2.76
 -13  -6  15    0.29    5.15
  13   5 -15    1.14    5.73
  13   5 -15   -1.74    3.04
 -13  -5  15    0.52    4.97
 -13  -5  15   -5.91   17.01
  13   4 -15    1.33    5.44
  13   4 -15    1.15    3.00
 -13  -4  15  -36.87   16.46
 -13  -4  15    5.22    4.68
  13   3 -15   -1.51    3.16
 -13  -3  15   -0.72    4.75
 -13  -2 -15   15.87    9.40
  13   2  15  -11.76   14.99
 -13  -1 -15   -0.35    9.88
  13   1  15   -7.41    6.87
  13   1  15  -16.83   16.36
 -13   0 -15    2.65    9.77
  13   0  15    1.73    6.85
  13   0  15   -9.71   16.60
 -13   1 -15   -1.23    9.49
  13  -1  15   -1.91    6.47
  13  -1  15  -13.10   17.72
 -13   2 -15   -6.47   10.09
 -13   2 -15   -0.46    2.92
  13  -2  15    5.79    6.38
  13  -2  15   -5.17   17.32
 -13   3 -15   -9.01   10.89
 -13   3 -15   -1.94    3.08
  13  -3  15   -9.65   17.13
  13  -3  15   -8.99    6.30
 -13   4 -15    5.54   11.60
 -13   4 -15    4.33    3.19
  13  -4  15    3.02    5.72
  13  -4  15  -24.73   16.21
 -13   5 -15    1.36    3.31
 -13   5 -15    4.76   12.47
  13  -5  15  -15.47    5.60
  13  -5  15   23.18   16.27
 -13   6 -15   -2.70   13.96
 -13   6 -15   -2.29    3.35
  13  -6  15   -3.06   16.71
  13  -6  15   -5.06    4.97
  13  -7  15  -33.41   16.97
  14  11 -15  -15.05    7.29
 -14 -11  15   20.05   19.92
  14  10 -15   13.07    7.02
 -14 -10  15   -4.62   19.32
 -14 -10  15  -10.11    8.26
  14   9 -15   -0.65    3.49
  14   9 -15   -0.53    6.84
 -14  -9  15   -6.27    7.22
 -14  -9  15    9.74   19.50
 -14  -8  15  -32.12   19.12
 -14  -8  15    0.37    6.86
 -14  -7  15    3.66    6.61
 -14  -2 -15   -4.04   10.44
  14   2  15    9.00   16.79
 -14  -1 -15    8.93   11.14
  14   1  15   -0.28   17.71
  14   1  15   -8.95    7.32
 -14   0 -15    5.56   10.65
  14   0  15    1.15    7.67
  14   0  15   -1.71   18.02
 -14   1 -15   -3.10    3.09
 -14   1 -15   -4.87   10.67
  14  -1  15  -16.08   18.42
  14  -1  15   -4.59    6.96
 -14   2 -15  -25.59   11.60
 -14   2 -15    1.03    3.47
  14  -2  15    0.68    6.98
  14  -2  15    3.62   17.96
 -14   3 -15   10.27   12.13
 -14   3 -15    2.95    3.53
  14  -3  15   -9.56   18.29
  14  -3  15    0.33    6.87
 -14   4 -15   47.70   16.00
  14  -4  15   70.99   20.54
  14  -4  15   19.06   10.24
 -14   5 -15   12.30   14.16
 -14   5 -15    4.55    3.60
  14  -5  15  -19.89   17.62
  14  -5  15  -13.46    6.51
 -14   6 -15   -0.32    3.53
 -14   6 -15    5.14   15.39
  14  -6  15    1.39    5.92
  14  -6  15  -15.69   18.60
  14  -7  15    4.25    6.34
  14  -7  15   36.66   18.52
 -15  -2 -15  -18.31   11.69
  15   2  15   33.84   18.91
 -15  -1 -15   11.70   12.45
  15   1  15    9.39   18.67
  15   1  15    0.45    8.28
 -15   0 -15   14.59   12.56
  15   0  15   14.81    8.78
  15   0  15    2.16   19.91
 -15   1 -15   -1.07    3.44
 -15   1 -15   10.67   12.26
  15  -1  15    0.39    7.84
  15  -1  15  -27.29   19.74
 -15   2 -15    7.13    4.15
 -15   2 -15    8.36   12.72
  15  -2  15    0.38    7.48
  15  -2  15   39.16   20.28
 -15   3 -15  -19.06   13.99
 -15   3 -15    3.58    3.97
  15  -3  15   20.20    7.79
  15  -3  15    6.57   19.32
 -15   4 -15   25.35   15.10
 -15   4 -15    1.57    4.37
  15  -4  15    9.52    7.75
  15  -4  15   39.10   19.64
 -15   5 -15   -2.69    4.40
 -15   5 -15   -8.22   15.68
  15  -5  15   25.02   19.08
  15  -5  15   -9.89    6.83
 -15   6 -15  -11.33   16.47
 -15   6 -15    1.06    4.20
  15  -6  15  -21.68    6.69
  15  -6  15   -0.34   19.53
 -15   7 -15   16.96   17.59
 -15   7 -15   -1.85    4.25
  15  -7  15    0.29    5.95
  15  -7  15   -4.47   19.09
 -16  -2 -15  -19.38   13.03
  16   2  15  -35.97   20.68
  16   2  15    2.04    9.59
 -16  -1 -15   11.67   13.56
  16   1  15   23.60   20.92
  16   1  15    4.44    9.68
 -16   0 -15   -1.12    3.93
 -16   0 -15   -9.44   14.43
  16   0  15  -13.11    8.64
  16   0  15  -16.56   20.98
 -16   1 -15   -0.89    3.94
 -16   1 -15   12.99   13.03
  16  -1  15    6.75    9.02
  16  -1  15  -19.46   21.43
 -16   2 -15   -1.89    4.24
 -16   2 -15   -8.11   14.28
  16  -2  15  -10.04    8.41
  16  -2  15   -6.27   20.56
 -16   3 -15   -3.95    4.33
 -16   3 -15   -4.66   15.16
  16  -3  15    2.62   20.45
  16  -3  15  -13.76    8.47
 -16   4 -15   15.12   16.63
 -16   4 -15   -6.67    4.42
  16  -4  15    0.39    7.99
  16  -4  15  -15.47   20.66
 -16   5 -15  -10.39    5.00
 -16   6 -15   -3.92    4.89
  16  -6  15  -37.94    8.50
 -16   7 -15  -26.50   19.52
 -16   7 -15    1.23    4.63
  16  -7  15   13.95   20.87
  16  -7  15   -3.93    6.80
  17   2  15  -52.83   11.43
 -17  -1 -15  -37.26   17.81
  17   1  15  -25.11   11.64
 -17   0 -15   11.87    5.08
 -17   0 -15  -13.36   17.05
  17   0  15    6.74   11.09
  17   0  15   12.82   25.99
 -17   1 -15  -43.29   17.55
 -17   1 -15   -1.99    4.80
 -17   2 -15   -4.16    4.96
 -17   3 -15    0.52   16.61
 -17   3 -15    0.73    4.70
  17  -3  15   10.69    8.82
  17  -3  15  -31.89   22.79
 -17   4 -15    3.10    4.90
 -17   4 -15  -21.69   18.22
  17  -4  15    1.26    8.68
  17  -4  15   11.91   21.30
 -17   5 -15    4.53    4.81
 -17   5 -15   -1.13   19.16
  17  -5  15  -17.85   24.39
  17  -5  15    4.77    8.27
 -17   6 -15   -4.00   19.91
 -17   6 -15   -1.30    5.25
  17  -6  15   -0.38    7.74
  17  -6  15   -4.09   24.36
 -17   7 -15    5.40    5.63
 -17   7 -15   14.43   19.96
  17  -7  15    1.24   22.67
  17  -7  15   -5.98    7.33
 -18  -2 -15   18.14   16.43
  18   2  15   14.59   24.96
  18   2  15  -25.44   11.65
 -18  -1 -15   24.15   17.72
 -18  -1 -15   11.59    5.37
  18   1  15   28.40   11.60
  18   1  15  -13.36   25.28
 -18   0 -15   23.62   17.82
 -18   0 -15   -3.81    4.49
  18   0  15  -31.94   25.34
  18   0  15  -29.28   11.21
 -18   1 -15   -0.73    4.80
 -18   1 -15   44.35   18.65
  18  -1  15    9.26   24.58
  18  -1  15  -13.21   10.77
 -18   2 -15  -25.15   18.98
 -18   2 -15   -1.15    4.89
  18  -2  15  -12.67   24.44
  18  -2  15   14.20   10.34
 -18   3 -15  -16.48   19.16
 -18   3 -15   -4.45    5.38
  18  -3  15   34.18   24.08
  18  -3  15  -46.17   10.74
 -18   4 -15  -12.66   20.04
 -18   4 -15    3.04    5.38
  18  -4  15  -20.30   24.96
  18  -4  15   17.91    9.81
 -18   5 -15   -0.45    5.58
 -18   5 -15   27.79   21.07
  18  -5  15  -27.85    9.08
  18  -5  15   20.51   26.18
 -18   6 -15  -28.44   22.15
 -18   6 -15   -1.91    5.77
  18  -6  15   50.25   26.89
  18  -6  15  -11.21    9.35
 -18   7 -15   49.83   22.36
 -18   7 -15    1.98    5.63
  18  -7  15   -0.81    8.57
  18  -7  15    0.45   21.15
   0   0 -16  246.79   59.97
   0   1 -16   -0.37    2.94
  -1   0 -16   -1.33    3.43
   1   0 -16   -1.19    3.60
   0   1 -16    0.91    3.23
   0  -1  16   -7.31    8.07
   1   1 -16   46.31   12.75
   1   1 -16   39.29   11.95
  -1   1 -16   45.28   12.14
  -1   1 -16   48.06   12.78
  -1  -1  16   49.36   15.97
   1  -1  16   57.25   15.49
  -1   2 -16    4.08    2.58
   2   1 -16    4.75    3.18
   2   1 -16    0.95    3.36
  -1   2 -16    0.54    3.02
   1  -2  16   -1.41    7.94
  -2  -1  16    4.00    8.71
  -2   0 -16    1.71    3.71
   0   2 -16    9.74    3.19
   2   0 -16    6.64    4.12
   0   2 -16    5.75    3.58
   0  -2  16    9.31    8.15
  -2   1 -16    6.94    2.82
   1   2 -16    1.11    3.01
   1   2 -16    3.00    2.79
   2  -1  16   -4.66    7.33
   2  -1  16    0.06    3.74
  -1  -2  16    2.71    8.42
   2   2 -16    6.93    3.65
  -2   2 -16    5.77    3.66
   2   2 -16    6.83    3.80
  -2   2 -16    7.70    3.14
   2  -2  16   27.61    8.08
  -2  -2  16    8.99    9.19
   3   2 -16   23.27   10.02
  -2   3 -16   36.61    9.06
   3   2 -16   33.32    9.15
  -2   3 -16   42.15   10.12
   2  -3  16   32.69   13.04
  -3  -2  16   34.61   14.41
  -1   3 -16    1.21    3.02
   3   1 -16    2.76    3.48
  -1   3 -16    3.84    2.11
   3   1 -16    1.99    3.39
   1  -3  16    2.97    7.64
  -3  -1  16    0.20    9.26
  -3   0 -16    2.83    3.34
   0   3 -16    0.25    2.14
   0   3 -16    1.50    2.83
   3   0 -16   -5.60    4.13
   0  -3  16   -4.52    7.58
  -3   0  16    1.98    9.26
   1   3 -16    1.72    2.29
  -3   1 -16    0.77    2.74
   1   3 -16    5.26    3.18
  -1  -3  16   -0.61    8.18
   2   3 -16   35.81    9.44
  -3   2 -16   50.01    9.78
  -3   2 -16   39.79   10.79
   2   3 -16   42.30   10.24
   3  -2  16   24.32   13.27
  -2  -3  16   25.31   14.14
  -3   3 -16    2.48    3.37
  -3   3 -16    6.13    2.33
   3   3 -16    6.44    3.45
   3   3 -16   14.11    3.00
   3  -3  16   -0.40    7.51
  -3  -3  16   -0.17    9.01
  -3   4 -16   -0.90    2.90
   4   3 -16    0.29    3.12
  -3   4 -16    0.51    1.53
   3  -4  16   -1.05    1.86
  -4  -3  16    5.32    9.35
   3  -4  16  -16.24    7.06
  -2   4 -16    0.28    1.67
  -2   4 -16   -1.61    2.81
   4   2 -16    1.21    3.34
   2  -4  16   -3.17    7.08
  -4  -2  16    4.05    9.87
   2  -4  16    1.12    2.11
   4   1 -16   14.03    6.76
  -1   4 -16   24.25    6.35
  -1   4 -16   19.13    5.58
   1  -4  16   35.18   10.06
  -4  -1  16   22.41   11.71
  -4   0 -16    4.92    3.60
   0   4 -16    5.66    2.32
   0   4 -16    4.41    3.30
   0  -4  16   13.52    8.10
   4   0  16    5.49    5.05
  -4   0  16    1.81    9.60
   1   4 -16   22.71    6.44
   1   4 -16   18.49    5.70
  -4   1 -16   25.28    6.22
  -1  -4  16   25.47   10.34
   4  -1  16   21.33    8.40
  -4   2 -16    2.15    1.97
   2   4 -16    2.59    2.21
  -4   2 -16    1.44    3.11
   2   4 -16    1.18    3.11
   4  -2  16    3.60    6.99
  -2  -4  16  -11.68    8.87
   4  -2  16    9.80    7.23
   3   4 -16   -0.95    3.01
  -4   3 -16    2.34    2.92
   3   4 -16   -1.69    2.19
  -4   3 -16    0.73    1.50
  -3  -4  16    7.21    9.16
   4  -3  16   -3.61    7.37
   4   4 -16    1.28    3.37
  -4   4 -16    3.83    1.53
   4   4 -16   -0.14    2.49
  -4   4 -16    2.05    2.93
   4  -4  16    1.77    1.97
   4  -4  16    3.12    6.93
  -4  -4  16    1.73    9.64
  -4   5 -16    4.64    3.28
   5   4 -16    1.05    3.52
   5   4 -16    3.72    2.64
  -4   5 -16    2.34    1.65
  -5  -4  16    2.01    9.99
   4  -5  16   10.19    7.26
   4  -5  16    4.32    2.35
   5   3 -16    1.05    3.58
  -3   5 -16   -0.33    1.45
  -3   5 -16    2.42    3.02
   5   3 -16   -1.28    2.93
  -5  -3  16   12.91   10.20
   3  -5  16   -1.44    7.27
   3  -5  16    0.81    2.04
  -2   5 -16   38.72   10.29
  -2   5 -16   36.34    9.13
   5   2 -16   35.28   10.35
   5   2 -16   33.20    9.40
  -5  -2  16   38.33   15.37
   2  -5  16   49.86   13.58
   2  -5  16   33.73    9.75
  -1   5 -16    1.82    2.99
   5   1 -16    1.48    3.60
   5   1 -16   -0.69    3.74
  -1   5 -16   -0.10    1.64
   1  -5  16    6.16    7.83
  -5  -1  16   -1.29   10.18
   1  -5  16   -0.76    2.17
   5   0 -16   -3.22    4.00
   0   5 -16   -1.67    1.84
  -5   0 -16   -0.35    3.09
   0   5 -16    3.88    3.08
   0  -5  16   -3.95    7.97
   5   0  16    0.28    5.72
  -5   0  16    7.05    9.95
   0  -5  16   -0.94    2.30
  -5   1 -16   -0.60    2.33
   1   5 -16    0.64    3.20
   1   5 -16    0.11    1.94
   5  -1  16  -17.59    6.78
  -1  -5  16    1.82    2.48
  -1  -5  16    2.37    8.38
  -5   2 -16   44.26    9.59
   2   5 -16   39.00   10.16
   2   5 -16   30.86    9.22
  -5   2 -16   21.11   11.71
   5  -2  16   36.77   13.73
  -2  -5  16   49.91   14.44
   5  -2  16   50.16   12.98
   5  -2  16   33.25   10.29
  -2  -5  16   40.04    9.72
  -5   3 -16    2.91    3.03
  -5   3 -16    0.78    1.46
   3   5 -16    1.93    3.31
   3   5 -16   -0.25    2.29
   5  -3  16   -3.88    7.87
  -3  -5  16   11.39    9.68
  -3  -5  16    2.68    2.91
   5  -3  16    2.98    2.87
  -5   4 -16    6.37    1.66
   4   5 -16    3.95    2.43
  -5   4 -16    2.71    3.12
   4   5 -16    2.45    3.77
  -4  -5  16    2.00    3.26
  -4  -5  16    0.17    9.59
   5   5 -16    4.36    3.62
  -5  -5  16   -2.72   10.32
   6   5 -16    5.63    3.41
   6   5 -16  -17.94    4.86
  -6  -5  16   41.16   13.74
  -6  -5  16    5.22    4.13
   6   4 -16    3.72    2.81
   6   4 -16    3.26    3.87
  -4   6 -16    3.07    3.38
  -4   6 -16    2.42    1.67
   4  -6  16    8.38    7.62
   4  -6  16    1.79    2.53
  -6  -4  16    2.15   11.05
   6   3 -16   12.93    4.71
   6   3 -16   20.61    5.41
  -3   6 -16   10.32    5.25
  -3   6 -16   16.58    3.96
   3  -6  16   14.73    9.14
   3  -6  16   15.79    4.71
  -6  -3  16    7.24   11.85
  -2   6 -16   11.69    3.59
  -2   6 -16    6.14    2.32
   6   2 -16   -1.33    4.41
   6   2 -16    2.77    3.69
  -6  -2  16    5.56   11.58
   2  -6  16    8.00    3.24
   2  -6  16   17.82    8.41
  -1   6 -16   14.49    4.04
   6   1 -16   16.69    5.30
   6   1 -16   14.21    5.73
  -1   6 -16   16.15    5.23
   1  -6  16   15.36    9.46
  -6  -1  16   15.03   11.58
   1  -6  16   16.92    4.72
   6   0 -16    5.39    4.34
   0   6 -16    4.29    3.72
   0   6 -16    8.67    2.43
   0  -6  16   11.23    8.99
  -6   0  16   -3.67   11.02
   6   0  16    4.60    7.09
   0  -6  16    8.70    3.19
  -6   1 -16    9.39    6.24
   1   6 -16   12.17    4.91
   1   6 -16   15.04    3.83
   6  -1  16    9.00    8.94
  -1  -6  16   16.85    4.52
  -1  -6  16   16.12    9.77
  -6   2 -16    6.44    4.96
   2   6 -16   17.82    4.29
   2   6 -16    8.99    2.85
   6  -2  16    2.70    9.15
  -2  -6  16   10.73    3.60
  -2  -6  16    4.92    9.58
   6  -2  16    5.13    4.15
   3   6 -16   20.21    4.14
   3   6 -16   14.48    5.14
  -6   3 -16   16.36    5.80
  -3  -6  16   16.98    4.91
   6  -3  16    4.35    4.75
   6  -3  16   15.24    9.80
  -3  -6  16   12.75   10.61
   4   6 -16    5.46    2.23
   4   6 -16   -0.45    3.83
  -4  -6  16   -0.18    3.41
  -4  -6  16   -9.03   10.41
   6   6 -16    8.22    3.03
   6   6 -16    5.71    4.41
  -6  -6  16    6.29    4.08
  -6  -6  16   -3.85   11.47
   7   6 -16    5.67    2.86
   7   6 -16    0.17    4.57
  -7  -6  16    1.24    4.02
  -7  -6  16    9.27   12.44
   7   5 -16    1.80    2.97
   7   5 -16    8.59    4.62
  -7  -5  16   -3.08   12.18
  -7  -5  16    9.64    4.18
  -4   7 -16    8.31    3.12
   7   4 -16    6.59    4.97
  -4   7 -16   16.45    4.52
   7   4 -16   15.64    3.94
  -7  -4  16   -1.66   12.57
   4  -7  16   17.84    4.18
   4  -7  16   -3.63    8.94
  -3   7 -16   15.05    4.16
  -3   7 -16   14.43    5.36
   7   3 -16    7.61    5.62
   7   3 -16   16.80    4.71
  -7  -3  16   -4.05   13.94
   3  -7  16   20.81    5.05
   3  -7  16   20.76    9.84
  -2   7 -16   14.83    5.20
   7   2 -16   19.39    5.88
  -2   7 -16   20.09    6.30
   7   2 -16   31.49    6.84
   2  -7  16   17.67    6.06
   2  -7  16   39.05   10.83
  -7  -2  16    6.55   13.18
   7   1 -16    6.39    5.40
  -1   7 -16    9.26    4.76
   7   1 -16   12.00    4.96
  -1   7 -16   17.04    3.66
   7   1  16   16.84    8.09
   1  -7  16   18.14    9.77
  -7  -1  16   13.64   12.06
   1  -7  16   12.53    4.49
   7   0 -16    0.25    4.34
   0   7 -16   -0.53    1.77
   0   7 -16   -4.67    3.43
   0  -7  16    0.47    8.96
   0  -7  16    0.68    2.80
  -7   0  16   -7.13   11.63
   7   0  16  -10.55    8.30
  -7   1 -16    6.66    6.14
   1   7 -16    9.44    4.63
   1   7 -16   11.05    3.34
  -1  -7  16   24.06    4.37
   7  -1  16    1.08    9.88
   7  -1  16    7.96    5.08
  -1  -7  16    8.36    9.85
  -7   2 -16   14.13    7.34
   2   7 -16   32.00    6.31
   2   7 -16   18.80    5.10
   7  -2  16   21.27   11.69
  -2  -7  16    8.15   11.51
  -2  -7  16   21.80    5.98
   7  -2  16   17.63    6.36
  -7   3 -16   14.94    4.27
   3   7 -16   11.36    5.53
  -7   3 -16   20.97    6.23
   3   7 -16   15.74    4.59
  -3  -7  16   24.08    5.76
   7  -3  16   20.69   11.30
   7  -3  16   14.01    5.33
   4   7 -16   15.34    3.25
   4   7 -16   19.89    4.63
   7  -4  16   10.38    3.89
   7  -4  16  -10.02    9.80
  -4  -7  16  -20.09   11.22
  -4  -7  16    0.19    4.17
   5   7 -16    5.25    4.18
  -5  -7  16   -5.62   11.40
   6   7 -16   14.43    3.47
   6   7 -16    0.17    4.99
  -6  -7  16   19.59    4.62
  -6  -7  16    1.18   12.44
   8   7 -16    2.09    2.58
  -8  -7  16   -1.67    3.93
   8   5 -16    0.18    4.43
   8   5 -16   -0.16    2.90
  -8  -5  16    0.22   13.09
  -8  -5  16   11.75    4.17
  -4   8 -16    7.96    4.43
   8   4 -16    1.22    5.19
   8   4 -16   10.95    3.82
  -8  -4  16    2.42   13.02
   4  -8  16   14.98    4.40
  -8  -4  16   10.37    4.76
   8   3 -16   -0.18    4.39
  -3   8 -16    3.86    3.77
   8   3 -16    5.04    3.31
  -3   8 -16    4.80    2.16
   3  -8  16    2.98    3.34
  -8  -3  16   -3.39   12.87
  -2   8 -16   25.32    6.24
  -2   8 -16   33.91    7.12
   8   2 -16   20.57    7.66
   8   2 -16   17.56    6.71
   2  -8  16   28.10    7.34
  -8  -2  16   -0.95   14.81
   8   1 -16    0.97    4.38
   8   1 -16    3.45    3.79
  -1   8 -16   -0.97    3.41
  -1   8 -16    0.73    1.97
   1  -8  16   -1.17    3.12
  -8  -1  16    0.49   11.90
   8   1  16   -6.68    8.17
   8   0 -16    5.01    4.33
  -8   0 -16    0.91    5.75
   0   8 -16    2.40    3.62
   0   8 -16    5.25    2.33
   8   0  16    6.70    9.16
  -8   0  16    3.20   12.09
   0  -8  16    3.73    3.70
  -8   1 -16   -0.40    5.63
   1   8 -16    1.27    1.93
   1   8 -16    0.28    3.52
   8  -1  16   -1.54   10.13
  -1  -8  16    1.77    3.57
   8  -1  16    2.62    4.56
  -8   2 -16   20.70    8.25
   2   8 -16   24.93    5.91
   2   8 -16   24.57    6.86
   8  -2  16   15.91    7.05
  -2  -8  16   23.31    6.99
   8  -2  16   24.19   13.07
  -8   3 -16    4.12    5.20
   3   8 -16    7.25    2.60
  -8   3 -16    4.39    2.09
   3   8 -16    8.93    3.98
  -3  -8  16    0.62    3.65
   8  -3  16    4.06    3.88
   8  -3  16    4.06   11.12
   4   8 -16   11.97    4.84
   4   8 -16   16.22    3.67
  -8   4 -16   13.88    3.41
   8  -4  16   13.78    4.57
   8  -4  16   14.14   10.84
  -4  -8  16    0.22    4.79
   5   8 -16    0.16    4.10
  -5  -8  16    1.56   11.51
   7   8 -16   -0.18    3.70
   7   8 -16   -0.60    2.56
  -7  -8  16   -6.27    4.54
   8   8 -16   -1.53    4.84
   8   8 -16    0.16    2.58
  -8  -8  16   -4.49   14.21
  -8  -8  16   -2.91    5.06
   9   8 -16    0.33    2.85
   9   8 -16    0.20    5.30
  -9  -8  16    0.84    5.00
  -9  -8  16    0.48   14.90
   9   7 -16    0.15    2.73
   9   7 -16    2.38    5.18
  -9  -7  16  -11.69   15.52
  -9  -7  16    1.81    4.84
   9   6 -16   -0.16    2.68
  -9  -6  16   -0.23    4.14
   9   4 -16    0.56    4.81
  -4   9 -16    2.08    3.76
   9   4 -16    1.64    3.02
  -9  -4  16   -0.71   13.84
  -9  -4  16   15.16    4.19
  -3   9 -16   29.04    6.02
   9   3 -16   12.69    5.22
   9   3 -16    0.56    6.73
  -9  -3  16    4.13   14.91
   9   2 -16    1.52    3.55
   9   2 -16    4.49    4.31
  -2   9 -16   -1.30    3.58
  -9  -2  16    1.50   13.48
   2  -9  16    3.46    3.77
  -1   9 -16    4.24    2.32
  -1   9 -16    8.13    3.73
   9   1 -16    3.00    4.04
   9   1 -16    2.45    4.52
  -9  -1  16   -1.03   12.52
   9   1  16   -3.79   10.03
   1  -9  16   -0.92    4.04
   9   0 -16    2.74    4.32
  -9   0 -16   -1.70    6.36
   0   9 -16    0.72    2.47
   0   9 -16   -3.63    3.89
   9   0  16  -28.42   10.53
   9   0  16    1.30    4.83
   0  -9  16   -1.63    3.82
  -9   0  16    0.56   12.21
   1   9 -16    5.78    2.55
  -9   1 -16    0.43    6.17
   1   9 -16    1.55    3.90
   9  -1  16    5.52    4.49
   9  -1  16  -10.64   11.66
  -1  -9  16    3.47    3.95
   2   9 -16    5.17    2.53
  -9   2 -16    3.38    5.96
   2   9 -16   -3.89    4.21
   9  -2  16    5.73    4.20
  -2  -9  16    5.90    4.20
   9  -2  16    6.47   12.48
   3   9 -16   24.77    7.63
  -9   3 -16   28.72    6.77
  -9   3 -16   25.20    9.34
   9  -3  16   28.24    7.68
   9  -3  16   40.86   14.37
  -9   4 -16   -0.48    2.03
  -9   4 -16   -2.29    6.43
   9  -4  16   -2.89    4.11
   9  -4  16    9.95   11.39
   6   9 -16   -1.97    4.61
   6   9 -16    0.17    2.70
  -6  -9  16   -8.30    4.32
   7   9 -16    1.30    4.76
   7   9 -16   -3.79    2.79
  -7  -9  16    1.11   13.54
  -7  -9  16    0.28    4.91
   8   9 -16    0.59    5.00
   8   9 -16    1.97    2.97
  -8  -9  16    4.42   14.23
  -8  -9  16    2.08    5.72
   9   9 -16   -0.84    5.45
   9   9 -16    0.19    3.15
  -9  -9  16    8.81    5.91
  -9  -9  16   -1.71   14.85
  10   9 -16    4.65    3.41
  10   9 -16    0.22    5.58
 -10  -9  16   -0.26   15.94
 -10  -9  16    0.67    6.10
  10   8 -16    5.64    3.07
  10   8 -16   -3.01    5.35
 -10  -8  16   -8.15    5.36
 -10  -8  16   -2.02   15.34
  10   7 -16    3.20    2.95
  10   7 -16    4.21    5.49
 -10  -7  16   -2.76   15.58
 -10  -7  16   -1.64    5.30
  10   6 -16  -22.55    5.88
  10   6 -16   -3.69    2.94
 -10  -6  16   -4.01   16.23
 -10  -6  16  -14.87    5.14
 -10  -5  16    1.88    4.42
  -4  10 -16   14.74    5.25
  10   3 -16   -0.18    2.92
  -3  10 -16   -3.23    3.81
  10   3 -16   -3.40    4.71
 -10  -3  16   -2.31   14.71
  10   2 -16    5.37    5.05
  -2  10 -16    8.75    4.16
  10   2 -16    3.54    3.96
 -10  -2  16   -0.26   14.13
  10   1 -16   -1.53    4.29
  10   1 -16    1.07    4.86
  -1  10 -16    1.86    4.01
  10   1  16    8.74   11.14
 -10  -1  16    5.13   13.34
   0  10 -16    5.72    4.17
 -10   0 -16   -2.83    7.04
  10   0 -16   -1.52    4.44
  10   0  16   23.97   11.88
  10   0  16   -3.34    5.19
   1  10 -16   -2.45    4.07
 -10   1 -16    3.51    6.86
  10  -1  16   -0.76    4.97
  10  -1  16    0.39   13.01
 -10   2 -16    1.06    6.70
  10  -2  16   14.99   13.38
  10  -2  16    6.85    5.10
 -10   3 -16    5.01    7.02
 -10   3 -16    3.28    2.33
   3  10 -16    0.17    2.77
  10  -3  16    1.75   13.42
  10  -3  16   -2.76    4.48
  -3 -10  16   -0.28    4.48
   4  10 -16   15.06    4.40
 -10   4 -16   12.44    4.06
 -10   4 -16   10.47    8.45
   4  10 -16   14.71    5.67
  -4 -10  16    4.56    6.00
  10  -4  16   12.78    5.84
  10  -4  16   38.07   13.47
   5  10 -16    0.18    4.47
  -5 -10  16  -12.38    5.14
  10  -5  16    0.19    4.52
   6  10 -16   -4.97    3.21
   6  10 -16    0.19    4.99
  -6 -10  16    3.93    5.37
   7  10 -16   -0.20    4.81
   7  10 -16    1.15    3.00
  -7 -10  16   -0.32    5.67
   8  10 -16    0.40    3.13
   8  10 -16    0.41    5.04
  -8 -10  16    1.00    5.81
   9  10 -16    1.85    3.38
   9  10 -16    0.22    5.44
  -9 -10  16    0.26   15.03
  -9 -10  16    0.35    6.20
  10  10 -16    0.23    6.07
  10  10 -16   -8.87    3.75
 -10 -10  16  -37.41   17.18
 -10 -10  16   -0.38    6.71
  11  10 -16    0.45    3.85
  11  10 -16    0.24    6.13
 -11 -10  16   -0.40    7.03
 -11 -10  16    7.58   17.53
  11   9 -16   -0.24    6.26
  11   9 -16   -0.40    3.38
 -11  -9  16   43.07   17.34
 -11  -9  16   -3.89    6.77
  11   8 -16   -6.90    6.15
  11   8 -16   -0.55    3.21
 -11  -8  16  -10.84    5.83
 -11  -8  16    2.68   16.27
  11   7 -16    3.13    2.99
  11   7 -16    1.12    5.63
 -11  -7  16    0.29    5.45
 -11  -7  16   -0.81   16.29
  11   6 -16    4.10    3.15
  11   6 -16    5.47    5.55
 -11  -6  16    5.11   16.54
 -11  -6  16    0.27    5.16
  11   5 -16   -6.65    5.61
  11   5 -16    0.50    3.14
 -11  -5  16   -3.76    4.91
 -11  -5  16    4.27   15.62
  11   4 -16    3.81    3.41
 -11  -4  16    0.24    4.56
  11   2 -16   -1.52    5.01
 -11  -2  16  -11.28   14.51
  11   1 -16    3.58    5.35
  11   1 -16   -0.22    3.33
 -11  -1  16   -1.41   13.88
  11   0 -16   12.40    4.68
 -11   0 -16   10.94    8.11
  11   0  16  -23.64    6.02
 -11   2 -16    1.44    7.83
 -11   2 -16    0.55    2.33
  11  -2  16  -27.02   15.48
  11  -2  16   -3.33    5.52
 -11   3 -16    8.41    8.40
  11  -3  16    8.15    6.16
 -11   4 -16    1.54    9.07
 -11   4 -16   -0.62    2.68
  11  -4  16    2.80    5.00
 -11   5 -16    2.75    9.77
 -11   5 -16   -0.22    2.67
   5  11 -16   -0.61    4.66
  -5 -11  16    0.33    5.13
  11  -5  16    1.95    5.04
   6  11 -16    0.21    5.18
   7  11 -16   -0.21    5.19
  -7 -11  16    0.36    5.85
   8  11 -16    0.22    5.54
  -8 -11  16   -8.28    6.57
   9  11 -16    0.23    5.52
  -9 -11  16   -3.17    7.07
  10  11 -16    0.24    5.82
 -10 -11  16    2.51    7.16
 -10 -11  16    1.13   17.01
  11  11 -16    3.31    6.27
 -11 -11  16    4.42   18.69
  12  11 -16    0.27    6.91
 -12 -11  16   33.80   19.47
  12  10 -16   -0.26    6.71
  12  10 -16    0.69    3.82
 -12 -10  16  -10.17    7.25
 -12 -10  16  -22.46   18.69
  12   9 -16    6.74    6.49
  12   9 -16    0.21    3.36
 -12  -9  16   -0.38    6.47
 -12  -9  16   10.10   18.07
  12   8 -16   -2.67    3.54
  12   8 -16  -16.06    6.83
 -12  -8  16  -18.17    6.63
  12   7 -16    2.23    3.02
  12   7 -16   -9.09    5.95
 -12  -7  16   -0.29   17.27
 -12  -7  16   -3.12    5.91
  12   6 -16    0.69    5.78
  12   6 -16   -2.82    2.96
 -12  -6  16    4.80    5.52
 -12  -6  16   -6.61   17.35
  12   5 -16    2.20    3.14
  12   5 -16    3.63    5.81
 -12  -5  16    2.84   16.52
 -12  -5  16    4.45    4.98
  12   4 -16    8.71    5.98
  12   4 -16    2.28    3.40
 -12  -4  16    4.51    4.95
 -12  -4  16   15.51   16.12
  12   3 -16   -2.52    3.61
 -12  -3  16   -0.49    4.81
  12   2  16   -5.00   13.36
 -12  -1 -16    3.28    8.72
  12   1  16  -12.26   14.21
  12   1  16    0.35    6.67
 -12   0 -16   71.34   17.44
  12   0  16   57.70   14.79
  12   0  16   19.86   22.18
  12  -1  16  -11.26   16.39
 -12   2 -16   -0.20    2.56
  12  -2  16    6.21   16.57
  12  -3  16    8.03   15.78
 -12   4 -16   -0.23    2.84
  12  -4  16    7.95   14.78
 -12   5 -16    2.20    3.16
  12  -5  16   -3.18   14.28
  13  11 -16    3.96    7.02
 -13 -11  16   -0.32   20.23
  13  10 -16   -6.44    4.02
  13  10 -16    0.27    6.87
 -13 -10  16    0.45    7.62
  13   9 -16   16.55    6.85
  13   9 -16    0.87    3.50
 -13  -9  16  -19.31    7.47
 -13  -9  16   32.32   19.58
  13   8 -16   12.87    6.66
  13   8 -16   -1.37    3.19
 -13  -8  16  -10.42   18.97
 -13  -8  16   -0.36    6.59
  13   7 -16   -7.41    3.15
  13   7 -16   -5.55    6.58
 -13  -7  16   -9.46   19.03
 -13  -7  16    0.33    5.88
  13   6 -16  123.97   17.64
  13   6 -16   55.43   13.56
 -13  -6  16    7.97   15.76
  13   5 -16   -4.30    6.15
  13   5 -16    1.54    2.91
 -13  -5  16    6.37   17.69
 -13  -5  16    0.28    5.33
  13   4 -16   -1.42    3.41
  13   4 -16  -12.82    5.95
 -13  -4  16    6.32   17.39
 -13  -4  16   -4.19    5.32
  13   3 -16   -2.19    3.56
  13   3 -16    0.24    5.57
 -13  -3  16   32.63   16.44
 -13  -3  16    4.77    4.97
  13   2 -16   -0.19    3.70
  13   2 -16   11.31    5.71
  13   2  16   19.86   14.94
 -13  -1 -16    9.72    9.60
  13   1 -16    4.17    3.86
  13   1  16   -2.97   15.94
  13   1  16   -9.22    7.42
 -13   0 -16   -1.68    9.93
  13   0 -16   12.71    4.81
  13   0  16   17.23   17.09
  13   0  16    2.82    6.98
 -13   1 -16   -5.72    9.43
  13  -1  16   14.36    6.87
  13  -1  16   -6.75   17.20
 -13   2 -16   -6.52    9.75
 -13   2 -16   -0.69    3.06
  13  -2  16   -0.32    6.49
  13  -2  16   38.60   17.52
 -13   3 -16    1.22    3.24
 -13   3 -16    3.15   10.48
  13  -3  16   -0.30    6.09
  13  -3  16   17.77   16.82
 -13   4 -16   -2.01   11.33
 -13   4 -16    1.29    3.13
  13  -4  16  -20.83   16.40
  13  -4  16   -2.04    6.12
 -13   5 -16    2.99    3.61
 -13   5 -16   15.30   12.30
  13  -5  16    3.77   15.38
  13  -5  16    1.99    6.07
  14  11 -16   -3.24    7.34
 -14 -11  16  -21.86   21.25
  14  10 -16   -4.58    7.15
 -14 -10  16   23.45   20.82
 -14 -10  16   -0.47    7.95
  14   9 -16   19.56    8.70
  14   9 -16   50.69   11.77
 -14  -9  16  112.61   23.85
 -14  -9  16   13.12   11.73
  14   8 -16   -4.27    3.28
  14   8 -16    0.27    6.86
 -14  -8  16   -6.09    6.90
 -14  -8  16   12.69   20.04
  14   7 -16   -9.76    6.98
  14   7 -16    7.59    3.47
 -14  -7  16    8.07   19.49
 -14  -7  16    3.42    5.97
 -14  -6  16   12.11   19.30
 -14  -6  16    6.32    5.90
 -14  -5  16    0.86    5.70
  14   2  16  -26.39   17.04
 -14  -1 -16    2.78   10.71
  14   1  16  -30.40   17.52
  14   1  16   12.63    8.35
 -14   0 -16   -9.01   11.05
  14   0  16    9.55   18.34
  14   0  16  -14.02    7.92
 -14   1 -16    0.96    3.35
 -14   1 -16  -21.18   11.14
  14  -1  16  -26.81   18.97
  14  -1  16    0.37    7.61
 -14   2 -16  -24.06   11.69
 -14   2 -16    1.55    3.59
  14  -2  16  -19.98    8.00
 -14   3 -16   25.84   13.07
 -14   3 -16    1.35    4.71
  14  -3  16   28.93    8.42
 -14   4 -16   -1.14    3.42
 -14   4 -16   -3.41   12.62
  14  -4  16   -8.72    6.98
  14  -4  16   -0.27   17.77
 -14   5 -16    5.26   13.52
 -14   5 -16    0.31    3.91
  14  -5  16   17.37   17.55
  14  -5  16   -1.87    6.43
  14  -6  16   -3.58    6.22
  14  -6  16  -30.03   18.56
 -15  -2 -16  -17.12   11.60
  15   2  16    0.60   18.25
 -15  -1 -16    4.43   11.94
  15   1  16  -11.12    8.90
  15   1  16   27.77   19.03
 -15   0 -16   20.28   12.74
  15   0  16   12.76   19.62
  15   0  16   -0.43    8.51
 -15   1 -16  -14.66   12.57
 -15   1 -16    2.93    3.28
  15  -1  16    4.53    8.35
  15  -1  16   21.00   20.31
 -15   2 -16   -2.29    3.70
 -15   2 -16    7.64   12.24
  15  -2  16  -13.10    8.06
  15  -2  16   28.11   19.94
 -15   3 -16   -1.20    4.02
 -15   3 -16   17.09   13.02
  15  -3  16    4.46   18.92
  15  -3  16    0.38    7.74
 -15   4 -16    0.95    3.87
 -15   4 -16   -1.71   14.68
  15  -4  16    0.36    7.40
  15  -4  16  -15.34   19.47
 -15   5 -16    1.69    4.09
 -15   5 -16  -19.88   15.44
  15  -5  16   -0.34    7.06
  15  -5  16    2.84   19.31
 -15   6 -16    6.07    4.43
  15  -6  16   18.96   20.12
  15  -6  16   -0.32    7.02
 -16  -2 -16   15.02   13.00
  16   2  16    9.20   20.46
 -16  -1 -16  -19.36   13.86
  16   1  16   24.51   10.10
  16   1  16  -16.27   20.86
 -16   0 -16    1.67    3.46
 -16   0 -16   18.12   14.11
  16   0  16  -21.87   20.91
  16   0  16    0.48    9.38
 -16   1 -16    4.42    4.02
 -16   1 -16    7.86   13.33
  16  -1  16    1.37    8.94
  16  -1  16   -0.66   21.31
 -16   2 -16   -1.26    4.14
 -16   2 -16  -14.61   14.61
  16  -2  16    6.60    8.87
  16  -2  16    2.94   21.03
 -16   3 -16   -1.65    4.17
 -16   3 -16   20.84   14.87
  16  -3  16   -3.58   20.75
  16  -3  16    4.66    8.86
 -16   4 -16   -8.11    5.52
 -16   5 -16   -7.48    5.47
 -16   6 -16    3.15    4.84
 -16   6 -16  -15.42   17.24
  16  -6  16   21.96   22.20
  16  -6  16    9.86    7.84
 -17  -2 -16    9.52   14.57
  17   2  16    7.52   22.44
 -17  -1 -16   23.47   16.35
  17   1  16   -8.46   10.60
  17   1  16   34.82   23.16
 -17   0 -16  -19.45   16.19
 -17   0 -16    2.49    4.06
  17   0  16    0.53   10.05
  17   0  16  -40.80   23.62
 -17   1 -16  -18.35   15.87
 -17   1 -16    3.31    4.68
  17  -1  16   -0.51    9.88
  17  -1  16   29.80   23.31
 -17   2 -16   -0.69    4.31
 -17   2 -16   -6.72   16.59
  17  -2  16   -6.48   23.68
  17  -2  16   -6.33    9.38
 -17   3 -16    8.35   16.82
 -17   3 -16    5.87    5.06
  17  -3  16   18.65   22.58
  17  -3  16   14.95    9.84
 -17   4 -16   -0.54   17.68
 -17   4 -16   -3.11    5.03
  17  -4  16   -9.47    9.40
  17  -4  16   -5.39   21.98
 -17   5 -16    9.52    5.91
 -17   5 -16   -0.55   18.76
  17  -5  16   30.27    9.43
  17  -5  16  -12.85   24.41
 -17   6 -16   21.12   19.40
 -17   6 -16    4.78    4.93
  17  -6  16   15.11   23.85
  17  -6  16  -14.51    8.17
 -18  -2 -16  -11.96   16.50
 -18  -1 -16  -46.05   18.25
 -18  -1 -16   -3.63    4.50
  18   1  16   -8.74   11.55
  18   1  16   20.08   24.79
 -18   0 -16   -0.69    4.89
 -18   0 -16    4.29   17.80
  18   0  16   18.22   25.63
  18   0  16   11.52   11.41
 -18   1 -16   22.63   17.98
 -18   1 -16   -1.10    5.13
  18  -1  16   20.01   24.76
  18  -1  16   20.71   11.14
 -18   2 -16   -1.53    5.23
 -18   2 -16  -29.86   18.31
  18  -2  16  -37.21   24.59
  18  -2  16   10.22   10.28
 -18   3 -16    3.64    5.27
 -18   3 -16   -2.34   18.76
  18  -3  16   -2.57   10.15
  18  -3  16   40.05   24.77
 -18   4 -16   -0.86    5.33
 -18   4 -16   10.14   19.10
  18  -4  16    9.86   10.63
  18  -4  16   -3.93   24.28
 -18   5 -16    2.74    5.70
 -18   5 -16  -16.49   20.01
  18  -5  16  -14.82    9.69
  18  -5  16   27.35   26.32
 -18   6 -16   -2.40    5.45
 -18   6 -16  -19.39   21.69
  18  -6  16   -8.25    9.26
   0  -1  17  142.86   44.73
  -1   1 -17    1.32    3.17
  -1   1 -17    0.49    3.34
   1   1 -17   -1.85    3.43
   1   1 -17    0.34    3.32
   1  -1  17    5.48    8.08
  -1  -1  17    3.75    8.96
   2   1 -17    2.12    3.61
  -1   2 -17   -1.38    2.60
  -1   2 -17    0.90    3.23
   2   1 -17   -0.17    3.48
   1  -2  17    1.87    8.42
  -2  -1  17    3.25    9.25
   0   2 -17    0.15    3.29
   0   2 -17   -0.16    2.67
   0  -2  17    9.16    8.70
   1   2 -17    1.37    3.05
   1   2 -17    1.22    3.23
  -2   1 -17   -0.18    2.99
  -1  -2  17   -7.89    8.98
   2  -1  17    2.25    8.00
   2   2 -17   -0.89    3.09
  -2   2 -17    1.62    3.08
  -2   2 -17    0.71    2.54
   2   2 -17    2.03    3.36
   2  -2  17   -7.58    8.01
  -2  -2  17    5.92    9.53
   3   2 -17   27.55    6.65
  -2   3 -17   17.80    7.09
   3   2 -17   35.02    7.23
  -2   3 -17   22.70    6.24
   2  -3  17   28.41   10.66
  -3  -2  17   13.12   11.92
   3   1 -17    8.71    4.57
   3   1 -17   13.41    4.58
  -1   3 -17   10.72    4.22
  -1   3 -17   13.60    3.43
  -3  -1  17   14.52   10.33
   1  -3  17   -2.19    8.56
   0   3 -17    9.16    4.12
   0   3 -17    6.25    3.44
   3   0 -17   12.73    4.72
   0  -3  17   17.60    9.12
   1   3 -17    7.81    4.05
  -3   1 -17   11.71    3.85
   1   3 -17    9.78    3.38
  -1  -3  17    3.20    9.17
   2   3 -17   25.19    6.35
  -3   2 -17   15.01    6.58
   2   3 -17   23.00    5.72
  -3   2 -17   21.94    5.87
   3  -2  17   12.65    9.81
  -2  -3  17   19.56   11.14
   3   3 -17    0.79    2.65
  -3   3 -17    1.66    1.95
  -3   3 -17    0.39    3.12
   3   3 -17   -1.48    3.33
  -3  -3  17   -5.54    9.70
   3  -3  17    3.08    8.02
   4   3 -17   11.35    4.44
  -3   4 -17   11.08    3.00
  -3   4 -17    8.47    4.09
   4   3 -17    9.44    3.77
  -4  -3  17   11.64   10.93
   3  -4  17    9.28    3.26
   3  -4  17    4.02    8.33
  -2   4 -17   51.95   11.15
   4   2 -17   56.15   12.33
  -2   4 -17   46.62   12.30
   2  -4  17   36.75   15.43
  -4  -2  17   30.74   16.96
  -1   4 -17    6.34    3.58
  -1   4 -17    7.62    2.42
   4   1 -17    2.17    4.21
  -4  -1  17   -2.63   10.54
   1  -4  17    3.24    8.47
   0   4 -17   -0.93    3.14
   0   4 -17   -0.12    2.01
  -4   0 -17    2.04    3.51
  -4   0  17   -1.21   10.17
   0  -4  17    2.78    8.57
  -4   1 -17    4.02    3.23
   1   4 -17    8.19    2.74
   1   4 -17   16.46    3.89
  -1  -4  17   -7.94    9.11
   4  -1  17    1.43    6.27
  -4   2 -17   40.94   10.94
   2   4 -17   35.08   10.50
   2   4 -17   36.33   11.41
  -4   2 -17   44.95   12.07
  -2  -4  17   42.36   15.91
   4  -2  17   55.47   14.57
  -4   3 -17    7.17    4.39
  -4   3 -17    9.43    3.16
   3   4 -17    6.83    4.37
   3   4 -17   14.62    3.59
  -3  -4  17   29.13   10.41
   4  -3  17   13.43    8.52
  -4   4 -17   -2.50    3.19
  -4   4 -17   -0.08    1.54
   4   4 -17    0.15    2.70
   4   4 -17   -0.15    3.73
   4  -4  17    5.28    7.59
  -4  -4  17    3.19   10.14
   4  -4  17    1.46    1.88
  -4   5 -17    3.35    1.57
   5   4 -17   -3.17    3.74
  -4   5 -17    2.28    3.24
   4  -5  17    0.70    2.24
   4  -5  17   -3.74    7.77
  -5  -4  17    4.56   11.18
  -3   5 -17   25.65    8.56
  -3   5 -17   29.78    7.25
   5   3 -17   27.24    7.64
   5   3 -17   36.10    8.48
   3  -5  17   20.35    7.79
   3  -5  17   32.98   11.86
  -5  -3  17   33.10   14.01
   5   2 -17    2.91    4.00
   5   2 -17    1.34    3.34
  -2   5 -17    2.75    1.86
  -2   5 -17    1.80    3.28
   2  -5  17   -0.28    8.31
   2  -5  17    3.44    2.45
  -5  -2  17   17.20   11.35
  -1   5 -17   29.49    6.21
   5   1 -17   21.74    6.87
   5   1 -17   27.01    7.64
  -1   5 -17   27.76    7.20
   1  -5  17   19.79    6.60
  -5  -1  17   35.90   13.16
   1  -5  17   13.66   11.18
   0   5 -17   -1.93    2.05
   0   5 -17    1.89    3.34
   5   0 -17    2.89    4.34
  -5   0 -17    0.72    3.24
   0  -5  17   11.74    8.94
  -5   0  17    0.50   10.56
   5   0  17    2.87    5.93
   0  -5  17    0.99    2.57
   1   5 -17   22.43    5.62
  -5   1 -17   14.04    6.25
   1   5 -17   28.39    6.61
   5  -1  17    4.60    9.47
  -1  -5  17   24.43   11.44
  -1  -5  17   26.76    6.06
  -5   2 -17    2.31    2.08
   2   5 -17    3.47    2.42
   2   5 -17    4.00    3.48
   5  -2  17   -4.14    8.12
  -2  -5  17   11.36    9.86
  -2  -5  17    7.02    3.18
   3   5 -17   39.50    8.75
   3   5 -17   40.19    7.78
  -3  -5  17   15.62   13.53
  -3  -5  17   22.27    8.40
   4   5 -17    2.70    2.56
   4   5 -17    0.77    3.94
  -4  -5  17    0.36    3.38
  -4  -5  17    4.67   10.69
   6   5 -17   -6.87    4.47
   6   5 -17   -1.55    3.03
  -6  -5  17   -2.52   12.10
  -6  -5  17   -3.37    3.90
  -4   6 -17    4.38    3.66
  -4   6 -17    6.47    1.91
   6   4 -17   -8.34    5.09
   6   4 -17    2.09    3.34
   4  -6  17    2.44    8.31
   4  -6  17    8.43    2.82
   6   3 -17   -4.22    4.33
  -3   6 -17    0.09    1.67
  -3   6 -17   -1.82    3.73
   6   3 -17   -2.60    3.30
   3  -6  17    1.27    2.53
   3  -6  17    5.15    8.42
   6   2 -17   24.88    6.88
  -2   6 -17   23.31    6.30
  -2   6 -17   24.44    7.65
   6   2 -17   17.58    7.93
  -6  -2  17   29.49   13.97
   2  -6  17   19.23    7.03
   2  -6  17   46.26   11.98
  -1   6 -17   -0.41    1.80
   6   1 -17   -1.58    3.52
  -1   6 -17    0.68    3.46
   6   1 -17   -2.30    3.99
  -6  -1  17   -7.87   11.42
   1  -6  17  -25.89    9.25
   1  -6  17   -1.02    2.65
   6   0 -17   -0.78    4.25
   0   6 -17    1.26    3.33
   0   6 -17   -0.33    1.89
   0  -6  17   -0.61    2.89
   6   0  17    1.10    7.00
  -6   0  17    7.01   11.05
   0  -6  17   -4.40    9.49
   1   6 -17   -1.99    1.97
   1   6 -17    5.15    3.49
  -1  -6  17    1.80    9.56
  -1  -6  17   -2.39    2.81
   6  -1  17  -14.09    8.30
  -6   2 -17   26.35    8.99
   2   6 -17   29.75    7.80
   2   6 -17   36.11    6.85
   6  -2  17   17.21   12.34
   6  -2  17   22.40    7.85
  -2  -6  17   12.14   12.66
  -2  -6  17   32.31    7.44
  -3  -6  17  -14.05    4.72
   4   6 -17   -5.17    2.99
  -4  -6  17   -8.45    4.87
   5   6 -17   -0.16    4.15
  -5  -6  17   -7.73   11.82
   6   6 -17    4.62    2.48
   6   6 -17   -2.07    4.37
  -6  -6  17    1.67    3.68
  -6  -6  17    0.21   12.65
   7   5 -17   -0.18    4.61
   7   5 -17    5.18    2.91
  -7  -5  17    9.18    4.06
  -7  -5  17    2.22   13.48
  -4   7 -17    3.58    3.68
   7   4 -17   -1.57    4.12
   7   4 -17    3.50    3.15
  -4   7 -17   -0.82    1.84
  -7  -4  17   -0.89   12.83
   4  -7  17    3.18    3.04
   4  -7  17   10.26    9.09
  -3   7 -17   26.17    6.97
   7   3 -17   29.73    7.42
   7   3 -17   28.05    8.41
  -3   7 -17   32.84    8.28
   3  -7  17   28.34    7.93
   3  -7  17   35.30   12.62
  -7  -3  17   -2.07   15.17
   7   2 -17    2.17    3.49
  -2   7 -17    3.47    3.63
  -2   7 -17    2.60    1.92
   7   2 -17    1.69    4.32
  -7  -2  17   -0.24   12.73
   2  -7  17    1.17    2.92
   2  -7  17   -2.29    9.44
   7   1 -17   12.12    4.98
   7   1 -17   10.76    5.66
  -1   7 -17    7.09    3.63
  -1   7 -17    9.04    5.08
   1  -7  17   37.05   10.68
   1  -7  17   17.01    4.79
  -7  -1  17    4.22   12.96
   0   7 -17   10.63    4.36
   7   0 -17    0.27    5.83
   0   7 -17   17.28    5.72
   0  -7  17   48.01   11.77
   7   0  17   40.99    9.76
   0  -7  17   10.92    5.21
  -7   0  17   -4.32   12.99
   1   7 -17   17.93    4.26
   1   7 -17   22.71    5.57
  -7   1 -17    3.74    6.81
   7  -1  17    9.56   10.31
  -1  -7  17   16.74    5.37
   2   7 -17   -8.04    4.10
   2   7 -17    1.34    2.41
  -7   2 -17    2.77    5.06
  -2  -7  17   -5.87    4.02
   7  -2  17    3.40    3.70
   7  -2  17   -2.84   10.29
   3   7 -17   28.66    6.51
   3   7 -17   34.00    7.76
  -3  -7  17   17.50    7.35
  -3  -7  17   14.33   13.86
   4   7 -17    0.16    3.90
   4   7 -17    1.61    2.43
  -4  -7  17    5.17   11.98
  -4  -7  17    7.06    4.20
   5   7 -17    1.70    4.30
  -5  -7  17   -1.00   12.29
   7   7 -17   -0.61    2.45
  -7  -7  17    0.24    4.38
   8   7 -17    0.20    4.72
   8   7 -17   -1.75    2.89
  -8  -7  17    0.25    4.70
  -8  -7  17   -7.85   14.85
   8   6 -17   -0.16    2.83
  -8  -6  17   -3.94    4.43
  -4   8 -17    2.73    3.95
   8   4 -17   -1.11    4.43
   8   4 -17   16.41    3.36
  -8  -4  17   -0.71   13.43
   4  -8  17   -0.20    3.38
   8   3 -17    3.54    3.61
  -3   8 -17    7.37    3.94
  -3   8 -17    6.32    2.41
   8   3 -17    0.19    4.84
   3  -8  17    8.98    3.86
  -8  -3  17   -0.49   13.56
   8   2 -17    8.78    4.22
  -2   8 -17    9.31    4.31
  -2   8 -17    8.60    3.02
   8   2 -17    2.96    5.10
   2  -8  17   11.86    4.08
  -8  -2  17    0.76   13.54
   8   1 -17   -1.04    4.66
  -1   8 -17   -0.76    2.01
   8   1 -17    0.69    4.31
  -1   8 -17    2.48    3.61
   8   1  17    4.72    8.29
   1  -8  17    1.99    3.54
  -8  -1  17    1.30   12.69
   8   0 -17    1.33    4.56
   0   8 -17   -2.68    2.05
   0   8 -17    2.97    3.87
   8   0  17    8.72    9.46
   0  -8  17   -2.97    3.48
   1   8 -17    5.76    2.28
  -8   1 -17    1.48    5.67
   1   8 -17    2.40    3.80
   8  -1  17    1.15    4.60
  -1  -8  17   -4.29    3.48
   8  -1  17    2.62   10.22
   2   8 -17    4.32    4.42
   2   8 -17    7.55    3.01
  -8   2 -17    6.07    5.93
   8  -2  17    9.69   11.47
  -2  -8  17   14.54    4.42
   8  -2  17    5.64    4.77
  -2  -8  17   15.97   11.57
   3   8 -17    7.83    2.65
   3   8 -17    7.18    4.41
  -3  -8  17    8.25   11.50
  -3  -8  17    0.22    4.08
   8  -3  17    9.60   11.67
   8  -3  17    5.70    4.21
   4   8 -17    1.99    4.25
  -4  -8  17    0.99   11.96
   6   8 -17   -0.15    2.73
   6   8 -17   -0.18    3.93
  -6  -8  17    0.25    4.16
   7   8 -17   -2.48    4.99
   7   8 -17    3.17    2.70
  -7  -8  17    4.99    4.93
  -7  -8  17   -0.91   13.44
   8   8 -17    0.20    5.42
   8   8 -17   -0.17    2.83
  -8  -8  17   -0.28    5.21
  -8  -8  17   -4.78   14.85
   9   8 -17    0.21    5.45
   9   8 -17   -5.16    3.07
  -9  -8  17    1.52   15.27
  -9  -8  17    4.69    5.49
   9   7 -17   -0.21    5.22
   9   7 -17    4.95    3.06
  -9  -7  17    0.26    5.00
  -9  -7  17   -2.27   15.30
   9   6 -17   -4.03    3.13
   9   6 -17  -23.57    5.76
  -9  -6  17    0.75   16.38
  -9  -6  17   -0.25    5.17
   9   5 -17   -0.17    3.11
  -9  -5  17   -3.97    4.51
  -4   9 -17   19.44    6.36
  -3   9 -17    7.35    3.89
   9   3 -17    0.20    5.11
  -9  -3  17    0.52   14.33
   9   2 -17    3.76    4.82
  -2   9 -17    1.05    3.89
   9   2 -17    9.57    3.85
  -9  -2  17    1.06   14.54
   2  -9  17    3.50    3.71
  -1   9 -17   -1.37    3.84
  -1   9 -17    0.43    2.22
   9   1 -17   -0.23    4.07
   9   1 -17    0.22    4.75
  -9  -1  17   -2.72   13.12
   1  -9  17   -0.47    4.20
   9   1  17    7.39    9.45
  -9   0 -17    2.73    6.24
   9   0 -17    2.38    5.08
   0   9 -17    1.60    2.58
   0   9 -17    7.33    4.17
   9   0  17   16.82   10.84
   0  -9  17    2.11    4.14
  -9   1 -17    0.22    6.20
   1   9 -17    4.31    2.46
   1   9 -17    8.30    4.03
   9  -1  17   -2.09   12.56
  -1  -9  17    0.95    3.84
   9  -1  17   -3.20    4.77
  -9   2 -17   -0.39    5.67
   2   9 -17   -2.90    3.79
   9  -2  17    0.22    4.48
   9  -2  17   -5.22   12.45
  -9   3 -17    8.13    6.08
  -9   3 -17    6.98    2.56
   9  -3  17    6.05    4.44
   9  -3  17   -6.41   12.38
   4   9 -17   24.41    4.64
  -4  -9  17   -1.27    6.07
   5   9 -17    2.84    4.54
  -5  -9  17    0.26    4.37
  -5  -9  17   -1.08   12.70
   6   9 -17    3.41    2.84
   6   9 -17   -0.19    4.80
  -6  -9  17   -0.45   13.52
  -6  -9  17   -0.27    4.56
   7   9 -17    1.42    2.74
   7   9 -17    2.35    4.91
  -7  -9  17    3.74   14.07
  -7  -9  17    0.29    4.93
   8   9 -17    0.18    3.14
   8   9 -17    0.21    5.18
  -8  -9  17    0.30    5.33
  -8  -9  17    0.25   14.92
   9   9 -17    0.19    3.13
   9   9 -17    0.22    5.55
  -9  -9  17  -14.32    5.99
  -9  -9  17   13.96   15.67
  10   9 -17    0.47    6.03
  10   9 -17    3.23    3.56
 -10  -9  17   12.57   16.92
 -10  -9  17    0.34    6.35
  10   8 -17    4.54    5.86
  10   8 -17    0.18    3.09
 -10  -8  17   -1.07   16.52
 -10  -8  17   -3.72    6.07
  10   7 -17    1.19    3.02
  10   7 -17   -0.22    5.95
 -10  -7  17   -0.81   16.45
 -10  -7  17   -0.29    5.46
  10   6 -17    2.60    5.50
  10   6 -17    3.96    3.20
 -10  -6  17   -1.08   16.22
 -10  -6  17    0.26    4.61
  10   5 -17  -12.13    5.94
  10   5 -17   -1.60    3.27
 -10  -5  17   -6.94   17.82
 -10  -5  17    0.25    4.76
  10   4 -17   -5.63    3.75
 -10  -4  17  -10.16    4.98
  -3  10 -17   10.60    4.93
  -2  10 -17    7.66    4.39
  -1  10 -17   -0.65    3.99
  10   1 -17    2.73    5.22
 -10  -1  17    0.28   13.90
  10   1  17   11.70   11.10
  10   0 -17   -0.27    4.15
 -10   0 -17   -0.27    6.92
   0  10 -17    1.17    4.19
  10   0  17  -11.59   11.90
  10   0  17    2.61    5.60
 -10   1 -17   -1.20    7.16
  10  -1  17   -2.69    5.59
  10  -1  17  -18.25   12.97
   2  10 -17    2.56    2.69
 -10   2 -17    1.98    6.68
  10  -2  17    0.79   13.77
  10  -2  17    0.48    4.86
  -2 -10  17   -0.28    4.49
 -10   3 -17    7.03    7.32
   3  10 -17   23.46    5.12
   3  10 -17    7.95    3.89
 -10   3 -17   11.19    3.55
  -3 -10  17   -0.28    5.37
  10  -3  17   31.79   14.03
  10  -3  17    3.97    5.35
   4  10 -17  -14.91    4.62
   4  10 -17   -0.18    3.05
  -4 -10  17    1.15    5.03
   5  10 -17    0.19    4.58
   5  10 -17   -2.39    3.04
  -5 -10  17    0.30    5.01
   6  10 -17    2.75    4.93
   7  10 -17   -0.61    4.93
   7  10 -17    0.20    3.07
  -7 -10  17   -7.82    5.82
  -7 -10  17   -2.70   14.16
   8  10 -17   -0.21    5.35
   8  10 -17   -1.43    3.33
  -8 -10  17    0.26   15.33
  -8 -10  17    0.34    6.00
   9  10 -17   -2.98    3.48
   9  10 -17    0.23    5.63
  -9 -10  17    0.36    6.35
  -9 -10  17  -12.58   16.44
  10  10 -17    1.93    6.22
  10  10 -17   -3.75    3.92
 -10 -10  17   -5.36    6.66
 -10 -10  17   -3.37   17.19
  11  10 -17    1.37    3.85
  11  10 -17   -0.26    6.27
 -11 -10  17    0.41    7.12
 -11 -10  17    3.26   18.48
  11   9 -17    0.25    5.99
  11   9 -17   -0.42    3.62
 -11  -9  17    6.09   18.00
 -11  -9  17   -0.36    6.62
  11   8 -17    0.24    6.24
  11   8 -17    4.64    3.28
 -11  -8  17  -22.14   18.25
 -11  -8  17    0.33    5.99
  11   7 -17    0.24    5.98
  11   7 -17    1.58    3.04
 -11  -7  17   -3.63    5.53
 -11  -7  17   -6.89   17.30
  11   6 -17    0.18    3.37
  11   6 -17   11.65    5.87
 -11  -6  17   -1.44   16.69
 -11  -6  17    0.82    4.91
  11   5 -17   -2.25    5.72
  11   5 -17    5.29    3.57
 -11  -5  17   -7.42   17.36
 -11  -5  17    0.26    4.67
  11   4 -17    0.22    5.57
  11   4 -17   -0.19    3.54
 -11  -4  17    3.26    5.22
 -11  -4  17   -0.58   16.58
  11   3 -17   -0.19    3.67
  11   3 -17   -0.23    4.47
  11   0  17   41.95   12.82
   1  11 -17    4.35    4.47
 -11   1 -17   -3.44    8.23
  11  -1  17    8.00    6.43
   2  11 -17   -6.41    4.78
 -11   2 -17    7.65    8.00
  11  -2  17   -5.38    5.94
 -11   3 -17   -2.13    7.90
  -3 -11  17    2.87    5.36
   5  11 -17    4.28    4.90
  -5 -11  17    0.34    5.28
   6  11 -17    0.85    5.12
   7  11 -17   -0.22    5.27
  -7 -11  17   10.58    6.07
   8  11 -17    0.46    5.69
  -8 -11  17   -0.38    6.22
   9  11 -17    2.38    5.83
  -9 -11  17    0.81    6.95
  -9 -11  17   -2.26   16.81
  10  11 -17   -0.25    6.21
 -10 -11  17    2.16    7.45
 -10 -11  17   10.90   18.11
  11  11 -17   -0.27    6.46
 -11 -11  17   16.64   19.14
 -11 -11  17    0.46    7.66
  12  11 -17    0.28    9.32
 -12 -11  17   35.49   11.71
  12  10 -17   -2.88    4.07
  12  10 -17   -0.27    6.63
 -12 -10  17    0.44    7.52
 -12 -10  17   21.30   19.32
  12   9 -17   -1.95    3.71
  12   9 -17  -10.40    6.98
 -12  -9  17  -14.56   19.57
 -12  -9  17    0.39    6.68
  12   8 -17    0.25    6.53
  12   8 -17   -2.19    3.25
 -12  -8  17    0.35    6.58
 -12  -8  17   33.61   19.29
  12   7 -17   84.35   21.15
 -12  -7  17  114.89   29.24
  12   6 -17   -3.02    3.34
  12   6 -17    1.96    6.06
 -12  -6  17    0.59    5.67
 -12  -6  17   -1.83   18.27
  12   5 -17   -6.00    3.44
  12   5 -17    1.19    5.97
 -12  -5  17   -0.28    5.12
 -12  -5  17   -4.89   18.08
  12   4 -17   12.86    5.84
  12   4 -17   -4.94    3.79
 -12  -4  17    7.58    5.06
 -12  -4  17   23.13   17.17
  12   3 -17   -0.20    3.81
  12   3 -17   -0.24    5.57
 -12  -3  17    0.91   16.53
  12   2 -17    0.20    3.87
  12   2 -17   -6.25    5.57
 -12  -2  17  -19.31   15.76
  12   1 -17   -0.46    5.83
 -12  -1 -17   -1.00   10.06
 -12  -1  17   55.89   15.38
  12   1  17   -6.61   15.19
 -12   0 -17   -1.26    8.73
  12   0 -17   -1.30    4.98
  12   0  17    3.74    6.43
  12   0  17  -12.47   15.55
 -12   1 -17   60.32   15.97
  12  -1  17   86.62   14.40
  12  -1  17   16.17   21.24
 -12   2 -17   -2.47    2.82
  12  -2  17  -15.95   16.51
 -12   3 -17    1.56    2.97
  12  -3  17   19.61   16.16
 -12   4 -17    3.49    3.13
  12  -4  17  -10.26   15.14
  13  11 -17    0.30    7.57
 -13 -11  17  -23.44   21.44
  13  10 -17    4.27    7.66
  13  10 -17   -0.25    4.51
 -13 -10  17  -12.89    8.31
 -13 -10  17  -48.52   21.45
  13   9 -17  -12.45    7.39
  13   9 -17   -0.89    3.65
 -13  -9  17    0.83    7.46
 -13  -9  17   23.25   20.52
  13   8 -17    1.36    7.00
  13   8 -17   -1.03    3.64
 -13  -8  17   -4.88   19.55
 -13  -8  17    0.37    6.50
  13   7 -17    1.86    3.21
  13   7 -17   -1.05    6.69
 -13  -7  17  -10.12   19.95
 -13  -7  17    0.34    6.34
  13   6 -17    5.78    3.40
  13   6 -17    0.52    6.42
 -13  -6  17   -5.59    5.57
 -13  -6  17   37.48   19.78
  13   5 -17   96.92   13.81
  13   5 -17   39.43   10.29
 -13  -5  17    1.44   11.97
  13   4 -17   -1.77    6.14
  13   4 -17   -5.34    3.51
 -13  -4  17  -51.72   19.43
 -13  -4  17    0.28    5.53
  13   3 -17   -7.58    5.82
  13   3 -17    0.59    3.87
 -13  -3  17    1.33    5.27
 -13  -3  17    4.10   17.36
  13   2 -17   -1.86    4.06
  13   2 -17    8.28    5.63
  13   2  17  -12.23   15.07
 -13  -2  17    0.94   15.71
  13   1 -17    1.80    4.40
 -13  -1 -17   27.66    9.83
 -13  -1  17    6.44   14.78
  13   1  17  -10.04   16.09
  13   0 -17    6.83    4.95
 -13   0 -17   15.64    9.82
  13   0  17    5.60    7.41
  13   0  17   -9.92   16.62
 -13   1 -17  -11.89    9.83
  13  -1  17   17.24   17.19
  13  -1  17  -14.73    7.28
 -13   2 -17   -1.84    3.13
 -13   2 -17    7.73    9.79
  13  -2  17  -12.55   17.01
  13  -2  17   10.08    6.43
 -13   3 -17    1.24    9.92
 -13   3 -17    2.96    3.15
  13  -3  17   10.35    6.63
  13  -3  17   -8.38   17.17
 -13   4 -17   13.02   10.97
 -13   4 -17   -1.03    3.42
  13  -4  17  -18.19    6.92
  13  -4  17  -15.89   16.92
  14  11 -17   16.69   10.01
 -14 -11  17   41.28   23.25
  14  10 -17   -0.25    4.20
  14  10 -17    0.60    7.42
 -14 -10  17  -11.21   22.04
 -14 -10  17   -4.83    8.23
  14   9 -17   -2.91    7.40
  14   9 -17    3.70    3.98
 -14  -9  17   11.35    8.56
 -14  -9  17  -15.97   21.59
  14   8 -17  -14.83    8.05
 -14  -8  17  -24.90    8.66
  14   7 -17    0.19    3.46
  14   7 -17  -27.06    7.43
 -14  -7  17   26.65   20.84
 -14  -7  17    3.22    6.61
  14   6 -17   -0.18    3.19
  14   6 -17  -12.15    6.87
 -14  -6  17    0.33    6.30
 -14  -6  17   11.65   20.04
  14   5 -17  -11.51    6.92
 -14  -5  17   29.08   20.05
 -14  -5  17  -11.49    5.71
 -14  -4  17   18.44   18.89
 -14  -4  17   -1.72    5.64
  14   2  17  -40.49   16.83
 -14  -1 -17  -20.87   11.18
  14   1  17  -28.93   17.81
 -14   0 -17  -25.97   12.47
  14   0  17  -18.09    9.07
  14   0  17  -32.70   19.80
 -14   1 -17  -20.49   11.69
 -14   1 -17    1.44    3.50
  14  -1  17  -20.26    8.43
  14  -1  17  -33.47   19.09
 -14   2 -17    0.25    3.34
 -14   2 -17  -16.19   11.30
  14  -2  17    1.45    7.39
  14  -2  17  -50.12   19.47
 -14   3 -17   -4.90    3.63
 -14   3 -17    1.42   11.32
  14  -3  17    3.51    7.21
  14  -3  17   22.14   18.74
 -14   4 -17    4.61    4.04
 -14   4 -17   12.58   12.33
  14  -4  17   10.95   18.25
  14  -4  17    1.03    7.29
  14  -5  17  -16.11   17.59
  15   2  17   -8.54   18.42
 -15  -1 -17   22.75   12.48
  15   1  17    0.47    9.18
  15   1  17   12.60   19.49
 -15   0 -17   14.35   12.21
  15   0  17    1.80   19.81
  15   0  17  -34.53    9.39
 -15   1 -17   14.34   13.04
 -15   1 -17   -0.26    3.70
  15  -1  17   19.05    8.62
  15  -1  17    7.94   20.07
 -15   2 -17    5.61   12.20
 -15   2 -17   -1.43    3.73
  15  -2  17   23.02   19.61
  15  -2  17   -6.06    7.89
 -15   3 -17   -2.11    3.84
  15  -3  17    0.78    7.97
  15  -3  17  -30.74   20.33
 -15   4 -17    4.78    4.17
 -15   4 -17   -0.42   13.61
  15  -4  17   31.25   19.55
  15  -4  17  -18.95    7.90
  15  -5  17  -20.37   19.62
  15  -5  17   -1.09    7.17
 -16  -1 -17  -34.96   14.49
  16   1  17  -17.12   10.18
  16   1  17  -22.25   21.61
 -16   0 -17  -19.61   14.34
 -16   0 -17   -3.62    3.90
  16   0  17  -22.65    9.89
  16   0  17  -26.72   21.26
 -16   1 -17  -15.29   14.88
 -16   1 -17   -0.88    4.21
  16  -1  17  -32.23    9.82
  16  -1  17  -35.62   22.58
 -16   2 -17   -2.52    4.21
 -16   3 -17  374.39   90.81
  16  -3  17  413.22   84.84
 -16   4 -17   -4.97    5.03
 -16   5 -17    3.39    4.70
 -16   5 -17   29.38   16.60
  16  -5  17    0.79    8.38
  16  -5  17   -8.73   21.76
  17   2  17  -35.70   22.30
 -17  -1 -17    1.68   15.48
  17   1  17  -10.61   22.57
  17   1  17  -18.92   10.59
 -17   0 -17    4.44   16.15
 -17   0 -17   -2.77    4.18
  17   0  17   21.18   10.68
  17   0  17   -2.84   22.76
 -17   1 -17   13.57   16.16
 -17   1 -17    0.99    4.34
  17  -1  17    0.53   10.54
  17  -1  17    2.45   22.43
 -17   2 -17    2.42    4.34
 -17   2 -17  -35.04   16.69
  17  -2  17   -5.13    9.93
  17  -2  17   -2.13   22.87
 -17   3 -17   -2.21    4.58
 -17   3 -17   43.70   17.83
  17  -3  17  -12.41   22.74
  17  -3  17  -27.06   10.19
 -17   4 -17    5.28   17.13
 -17   4 -17   -1.56    4.94
  17  -4  17   -9.88    9.42
  17  -4  17   -7.16   22.18
 -17   5 -17   -4.14    5.46
 -17   5 -17    6.53   18.22
  17  -5  17  -10.06   23.75
  17  -5  17    3.02    8.72
 -18  -1 -17   13.95   17.34
 -18  -1 -17   -4.60    4.15
  18   1  17    0.63   11.48
  18   1  17   55.90   24.24
 -18   0 -17   -6.86    4.63
 -18   0 -17   18.26   18.10
  18   0  17    6.80   11.38
  18   0  17   16.41   25.77
 -18   1 -17    0.73    4.81
 -18   1 -17   10.49   18.08
  18  -1  17   -5.90   11.77
  18  -1  17   -9.67   24.46
 -18   2 -17   19.87   18.89
 -18   2 -17   11.09    5.90
  18  -2  17   25.14   24.47
  18  -2  17    0.57   11.46
 -18   3 -17   37.99   19.37
 -18   3 -17    0.81    5.01
  18  -3  17  -18.94   10.92
  18  -3  17  -14.49   23.58
 -18   4 -17    6.87    5.96
 -18   4 -17   13.08   19.00
  18  -4  17  -13.66   23.90
  18  -4  17   37.70   11.12
 -18   5 -17   -2.29    5.46
 -18   5 -17   28.41   20.50
  18  -5  17  -15.37   10.16
   0   1 -18   -1.49    3.54
   0   1 -18    0.18    3.69
   0  -1  18  -12.83    9.22
  -1   1 -18   33.17   11.21
   1   1 -18   41.68   11.80
   1   1 -18   52.34   11.06
  -1  -1  18   54.26   15.48
   1  -1  18   33.22   15.06
  -1   2 -18   -1.79    3.58
  -1   2 -18    0.50    2.86
   2   1 -18    1.29    3.90
   2   1 -18    1.76    3.87
  -2  -1  18   -2.83   10.29
   1  -2  18   -5.87    9.23
   0   2 -18   -3.30    3.67
   0   2 -18    4.05    3.05
   0  -2  18   -1.90    9.47
   1   2 -18    2.03    3.28
  -2   1 -18    1.74    3.34
   1   2 -18    0.17    3.64
  -1  -2  18    0.20    9.60
   2   2 -18    2.71    3.83
   2   2 -18   12.64    3.66
  -2   2 -18    3.58    3.08
  -2   2 -18    4.82    3.83
  -2  -2  18    1.84   10.06
   2  -2  18   -3.02    8.88
  -2   3 -18    3.08    2.31
   3   2 -18    0.20    3.62
  -2   3 -18   -0.88    3.67
   3   2 -18    2.94    3.91
   2  -3  18   -3.99    9.01
  -3  -2  18    6.80   10.62
   3   1 -18   25.92    8.18
  -1   3 -18   23.24    7.77
  -1   3 -18   33.81    8.62
   3   1 -18   34.79    8.85
  -3  -1  18   43.13   13.67
   1  -3  18   28.60   12.50
   0   3 -18    2.21    2.69
   0   3 -18   -2.70    3.69
   0  -3  18    6.73    9.30
  -3   1 -18   26.03    8.24
   1   3 -18   37.17    7.71
   1   3 -18   25.31    8.40
  -1  -3  18   28.80   12.83
  -3   2 -18    3.19    2.78
   2   3 -18    4.41    3.16
   2   3 -18    4.21    3.96
  -3   2 -18    4.80    3.98
  -2  -3  18   14.06    9.99
   3  -2  18    6.07    8.36
  -3   3 -18   30.04    9.26
  -3   3 -18   32.68    8.13
   3   3 -18   30.77    9.04
   3   3 -18   34.94    8.15
   3  -3  18   26.28   12.49
  -3  -3  18   32.66   13.77
   4   3 -18   46.68    9.51
   4   3 -18   39.69   10.38
  -3   4 -18   33.15   10.50
  -3   4 -18   39.37    9.31
   3  -4  18   47.68   13.81
  -4  -3  18   21.31   15.59
   3  -4  18   32.03    9.74
  -2   4 -18   52.03   16.48
  -2   4 -18   55.93   14.96
   4   2 -18   78.18   14.87
   4   2 -18   76.55   16.37
   2  -4  18   49.84   19.82
  -4  -2  18   40.55   21.20
   4   1 -18    8.86    6.98
   4   1 -18    1.87    6.64
  -1   4 -18   24.88    6.68
  -1   4 -18   31.50    5.67
  -4  -1  18   10.25   12.36
   1  -4  18   32.71   11.30
   0   4 -18   29.30    7.53
   0   4 -18   38.29    8.45
   0  -4  18   10.14   12.85
   1   4 -18   27.59    7.75
   1   4 -18   29.12    7.01
  -4   1 -18   22.00    7.57
  -1  -4  18   38.38   12.59
   2   4 -18   62.23   16.26
   2   4 -18   79.16   15.08
  -4   2 -18   59.84   15.77
  -2  -4  18   43.32   20.90
   4  -2  18   58.33   19.45
   3   4 -18   47.06    8.95
   3   4 -18   43.15    9.87
  -4   3 -18   17.11   10.29
  -4   3 -18   36.02    9.04
   4  -3  18   31.30   13.24
  -3  -4  18   28.08   15.16
  -4   4 -18   26.47    7.11
  -4   4 -18   22.72    5.95
   4   4 -18   24.61    6.42
   4   4 -18   20.05    7.48
   4  -4  18   25.24    6.29
   4  -4  18   12.68   10.67
  -4   5 -18    4.51    1.88
  -4   5 -18    5.58    3.60
   4  -5  18    8.09    2.61
   4  -5  18  -17.46    8.52
  -3   5 -18    7.18    3.93
   5   3 -18    3.11    4.95
  -3   5 -18    6.40    2.39
   3  -5  18   21.45    9.03
   3  -5  18    9.19    3.07
   5   2 -18   38.70   10.10
  -2   5 -18   26.90    9.99
  -2   5 -18   30.94    8.59
   2  -5  18   33.49    9.17
  -5  -2  18   27.76   15.70
   2  -5  18   43.48   14.06
   5   1 -18   -4.75    4.43
   5   1 -18   -0.47    4.48
  -1   5 -18    3.82    3.77
  -1   5 -18    8.61    2.29
   1  -5  18    5.47    9.49
   1  -5  18    3.41    2.79
  -5  -1  18   11.13   11.47
   0   5 -18   -0.12    2.15
   0   5 -18   -0.58    3.64
  -5   0 -18    2.73    3.38
   0  -5  18  -19.43    9.79
   5   0  18   -2.99    6.05
   0  -5  18   -1.51    2.71
  -5   1 -18    1.74    3.09
   1   5 -18    4.32    2.53
   1   5 -18    5.34    3.79
  -1  -5  18    6.29   10.30
  -1  -5  18    7.40    3.22
   2   5 -18   47.26   11.06
   2   5 -18   46.18   10.14
  -2  -5  18   45.37   10.60
  -2  -5  18   20.47   15.68
   3   5 -18    4.57    4.95
   3   5 -18  -11.72    4.08
  -3  -5  18   -7.28    4.41
   4   5 -18   -9.68    3.69
  -4  -5  18   -9.17    4.32
   5   5 -18    0.17    4.20
  -5  -5  18   -5.54   12.86
   6   5 -18   11.02    3.61
   6   5 -18   -0.90    5.01
  -6  -5  18   15.76    4.47
  -6  -5  18    2.24   13.43
   6   4 -18    7.27    4.47
  -4   6 -18    2.56    3.77
  -4   6 -18    2.32    1.77
   6   4 -18    4.53    3.30
   4  -6  18    2.98    2.81
  -6  -4  18    0.45   13.05
   4  -6  18   -1.53    8.95
  -3   6 -18   54.72   12.32
   6   3 -18   69.21   12.51
   6   3 -18   55.13   13.89
  -3   6 -18   49.94   14.17
   3  -6  18   54.83   18.05
   3  -6  18   47.14   13.39
  -6  -3  18    2.33   19.72
   6   2 -18   -2.53    3.88
   6   2 -18   -8.84    4.82
  -2   6 -18    3.41    1.79
  -2   6 -18    1.72    3.80
   2  -6  18    1.91    2.63
   2  -6  18  -10.29    9.67
  -1   6 -18   32.64    9.09
   6   1 -18   36.48    9.48
  -1   6 -18   18.29    7.52
   6   1 -18   28.32    8.47
   1  -6  18   24.95    8.22
   1  -6  18   65.05   13.99
  -6  -1  18   10.84   16.16
   0   6 -18   12.85    4.93
   6   0 -18    1.66    5.51
   0   6 -18    9.49    3.26
   0  -6  18   48.16   11.26
   6   0  18    8.38    7.73
   0  -6  18    3.53    3.94
   1   6 -18   57.66    9.44
   6  -1  18   15.58   13.42
   2   6 -18  -17.57    5.26
   2   6 -18   -6.22    3.03
  -2  -6  18   -8.25    4.32
   3   6 -18   67.34   12.76
   3   6 -18   43.19   11.33
  -3  -6  18   43.49   18.73
  -3  -6  18   26.47   12.20
   4   6 -18    2.35    4.34
   4   6 -18    6.45    2.97
  -4  -6  18   24.14   12.71
  -4  -6  18   -0.20    3.50
   5   6 -18    0.18    4.55
  -5  -6  18   -6.38   12.76
   7   6 -18    1.00    2.95
  -7  -6  18    0.23    4.32
  -4   7 -18    6.69    2.12
   7   4 -18   -0.18    3.08
   7   4 -18    0.19    4.71
  -4   7 -18    6.11    3.98
  -7  -4  18   -1.19   13.47
   7   3 -18    1.54    3.55
   7   3 -18   -0.19    4.65
  -3   7 -18   -0.87    1.98
  -3   7 -18   -2.80    3.89
  -7  -3  18   -0.25   13.35
   3  -7  18   19.69    9.80
   3  -7  18    2.40    3.01
   7   2 -18   23.34    8.79
  -2   7 -18   32.93    6.89
   7   2 -18   23.19    7.49
  -2   7 -18   24.79    8.59
  -7  -2  18    0.25   15.99
   2  -7  18   36.20   13.69
   2  -7  18   23.73    7.89
   7   1 -18    0.43    4.59
   7   1 -18    2.39    4.23
  -1   7 -18    3.05    3.94
  -1   7 -18    2.12    1.99
  -7  -1  18    0.26   12.57
   1  -7  18    7.49   10.61
   1  -7  18    1.75    3.18
   0   7 -18   -0.35    2.07
   0   7 -18   -2.80    4.01
   7   0 -18   -3.12    4.98
   0  -7  18    2.36    3.37
   0  -7  18   -4.77   10.90
   7   0  18   -6.09    8.13
   1   7 -18   -1.49    2.15
   1   7 -18    1.27    4.08
   7  -1  18   -1.21    9.38
  -1  -7  18   -2.75   11.31
  -1  -7  18   -1.85    3.26
   2   7 -18   39.57    8.91
   2   7 -18   28.02    9.99
  -2  -7  18   34.59    9.69
  -2  -7  18   64.47   15.95
   3   7 -18   -2.52    4.38
   3   7 -18    1.91    2.42
  -3  -7  18   -1.01    3.81
  -3  -7  18   -3.36   12.34
   4   7 -18   13.05    4.92
  -4  -7  18    8.02   12.77
   6   7 -18    0.47    2.76
  -6  -7  18   -0.23    4.26
   7   7 -18   -1.95    5.22
   7   7 -18    2.14    2.89
  -7  -7  18   -0.48   14.57
  -7  -7  18   -2.74    4.99
   8   7 -18    0.17    3.28
   8   7 -18  -15.73    5.72
  -8  -7  18  -10.77    5.56
  -8  -7  18   -3.04   16.30
   8   6 -18    4.84    3.11
   8   6 -18    2.82    5.11
  -8  -6  18    2.55   14.99
  -8  -6  18   -0.25    4.16
   8   5 -18    0.72    3.43
  -8  -5  18    1.39    4.64
  -4   8 -18    3.92    2.22
  -3   8 -18   10.82    4.50
   8   3 -18    0.20    5.07
  -3   8 -18    6.48    2.75
  -8  -3  18   -1.04   14.37
   3  -8  18   10.17    3.98
   3  -8  18   11.75   10.79
  -2   8 -18    5.80    4.24
   8   2 -18    3.60    4.91
   8   2 -18   17.19    4.21
  -2   8 -18    0.63    2.14
   2  -8  18   -2.62    3.66
   2  -8  18    5.19   10.67
  -8  -2  18    3.20   13.84
  -1   8 -18    7.46    4.03
  -1   8 -18    3.73    2.32
   8   1 -18   -0.24    4.34
   8   1 -18   -0.22    5.06
  -8  -1  18   -0.28   13.52
   1  -8  18    8.07   11.12
   1  -8  18    4.41    3.67
   0   8 -18   -4.10    4.04
   0   8 -18   -0.66    2.32
   8   0 -18   -3.68    5.36
   0  -8  18    3.91    3.78
   8   0  18   -4.52    9.77
   0  -8  18  -20.55   11.49
   1   8 -18    2.10    2.30
  -8   1 -18    5.86    5.81
   1   8 -18    1.93    4.30
   8  -1  18    1.23   10.67
  -1  -8  18    6.48    3.92
  -1  -8  18   -3.62   11.40
   2   8 -18   -3.64    4.08
   2   8 -18    3.81    2.19
  -2  -8  18   -6.30    4.00
  -2  -8  18  -10.04   11.75
   8  -2  18   -1.29    4.40
   8  -2  18    7.48   11.82
   3   8 -18   13.12    5.27
   5   8 -18    5.32    2.99
   5   8 -18   11.19    4.59
  -5  -8  18   -1.46    4.95
   6   8 -18   -0.19    4.80
   6   8 -18    1.43    2.60
  -6  -8  18   -0.23   14.10
   7   8 -18    1.40    5.45
   7   8 -18    0.83    2.80
  -7  -8  18   -4.59   15.52
  -7  -8  18    0.27    5.00
   8   8 -18    9.47    3.67
   8   8 -18    0.21    5.87
  -8  -8  18   -3.06   15.72
  -8  -8  18   10.21    5.32
   9   8 -18    0.22    5.98
   9   8 -18    2.15    3.16
  -9  -8  18    0.31    5.90
  -9  -8  18   -2.73   16.41
   9   7 -18    0.18    3.06
   9   7 -18   -0.22    5.72
  -9  -7  18    3.06    5.30
  -9  -7  18    2.98   16.56
   9   6 -18   -0.54    3.13
   9   6 -18    0.21    5.37
  -9  -6  18   27.81   16.42
  -9  -6  18    0.26    4.95
   9   5 -18   -5.21    3.52
  -9  -5  18   -3.24   16.82
  -9  -5  18    2.44    4.97
   9   4 -18   -0.38    3.50
  -3   9 -18   12.06    4.63
   3  -9  18    5.98    4.41
  -2   9 -18    8.48    4.29
  -2   9 -18    2.17    2.73
   2  -9  18    8.36    4.45
  -1   9 -18    8.31    4.13
   9   1 -18    1.16    5.21
  -1   9 -18    4.68    2.57
   1  -9  18    0.47    4.02
   9   1  18  -14.62    9.69
  -9  -1  18   -2.87   14.12
   0   9 -18   -4.28    2.47
   0   9 -18   -0.98    4.11
   9   0  18   -7.31   10.52
   0  -9  18   -0.72    4.19
   1   9 -18    2.83    4.06
  -9   1 -18    3.04    6.38
   9  -1  18   -2.25   11.54
   9  -1  18   -0.26    5.17
  -9   2 -18    2.08    6.15
   9  -2  18    2.74    4.65
   9  -2  18    8.84   13.02
   3   9 -18    4.77    2.86
  -3  -9  18    0.74    4.47
   4   9 -18   -0.18    4.42
   4   9 -18    1.65    2.81
  -4  -9  18   -3.61    4.81
  -4  -9  18   -0.44   12.77
   5   9 -18   -4.14    4.71
   5   9 -18    1.37    3.02
  -5  -9  18    0.27    4.31
  -5  -9  18    0.45   13.57
   6   9 -18   -7.28    5.01
  -6  -9  18   -2.13   14.28
   7   9 -18   -0.21    5.02
   7   9 -18    1.85    3.16
  -7  -9  18    0.25   14.86
  -7  -9  18    0.30    5.57
   8   9 -18    1.93    3.11
   8   9 -18    1.75    5.54
  -8  -9  18    0.31    5.76
  -8  -9  18    1.56   15.87
   9   9 -18    3.01    3.52
   9   9 -18    1.86    5.72
  -9  -9  18    3.97    5.92
  -9  -9  18    1.37   16.82
  10   9 -18    5.84    4.01
  10   9 -18    0.49    6.75
 -10  -9  18   26.93    7.46
 -10  -9  18    1.74   18.52
  10   8 -18   -6.88    5.91
  10   8 -18    1.88    3.25
 -10  -8  18   -6.80    5.83
 -10  -8  18    3.18   17.31
  10   7 -18    0.23    5.58
  10   7 -18    0.18    3.08
 -10  -7  18   -0.29   16.68
 -10  -7  18    0.29    5.58
  10   6 -18    0.19    3.24
  10   6 -18    0.68    5.82
 -10  -6  18    0.27    5.07
 -10  -6  18    2.02   17.09
  10   5 -18    0.95    3.46
  10   5 -18    7.15    5.72
 -10  -5  18    0.26    5.08
 -10  -5  18   -3.43   17.03
  10   4 -18    0.19    3.64
  10   4 -18    0.22    5.54
 -10  -4  18   -7.25   16.60
 -10  -4  18   -0.25    5.01
  -3  10 -18   16.40    5.13
  10   3 -18   -0.81    4.32
 -10  -3  18  -19.39   16.52
  -2  10 -18   -9.68    4.41
  10   2 -18   -0.22    4.11
  10   1  18   56.11   15.63
  10   0  18   -1.46   12.04
 -10   1 -18    0.25    7.03
   1  10 -18    0.17    2.76
  10  -1  18   -8.12   13.06
  10  -1  18    2.76    5.30
  -1 -10  18    1.12    4.84
   2  10 -18   -0.54    4.56
 -10   2 -18    0.46    7.13
   2  10 -18    0.87    3.05
  10  -2  18  -35.68   14.33
  10  -2  18   -7.09    5.61
  -2 -10  18   -0.28    4.75
   3  10 -18   17.54    5.61
   3  10 -18    6.96    4.19
  -3 -10  18    3.45    5.88
   4  10 -18    2.57    3.07
   4  10 -18   -0.19    4.80
  -4 -10  18    6.22    5.30
   5  10 -18    4.54    4.99
   5  10 -18   -1.90    3.07
  -5 -10  18   -0.31    4.77
   6  10 -18   -1.02    5.22
  -6 -10  18    7.41   14.61
   7  10 -18   -0.64    5.19
   7  10 -18   -8.88    3.34
  -7 -10  18  -15.17   15.16
  -7 -10  18   11.46    6.40
   8  10 -18   -0.45    5.63
   8  10 -18    3.78    3.70
  -8 -10  18    1.34   16.20
  -8 -10  18    0.71    6.27
   9  10 -18    8.13    6.52
   9  10 -18    4.86    3.93
  -9 -10  18    3.67   17.85
  -9 -10  18    2.62    7.09
  10  10 -18    0.25    6.25
  10  10 -18   -8.26    3.81
 -10 -10  18   -3.27   18.35
 -10 -10  18    0.40    7.04
  11  10 -18    5.47    4.36
  11  10 -18    0.27    7.00
 -11 -10  18    0.42    7.24
 -11 -10  18   38.99   19.80
  11   9 -18    0.65    3.83
  11   9 -18    0.26    6.48
 -11  -9  18   14.00   19.10
 -11  -9  18   -0.38    7.25
  11   8 -18   -3.01    6.57
  11   8 -18   -5.46    3.75
 -11  -8  18  -27.70    6.79
 -11  -8  18  -35.85   19.56
  11   7 -18    2.81    3.55
  11   7 -18   14.04    6.44
 -11  -7  18    0.31    5.82
 -11  -7  18   -3.70   18.57
  11   6 -18    0.76    3.42
  11   6 -18    1.21    6.28
 -11  -6  18   14.36   18.06
 -11  -6  18    0.29    5.21
  11   5 -18   -1.18    5.63
  11   5 -18    1.56    3.79
 -11  -5  18   -1.54   18.03
 -11  -5  18    0.27    5.01
  11   4 -18    6.90    5.95
  11   4 -18   -6.61    3.71
 -11  -4  18  -15.85    5.17
 -11  -4  18  -15.92   17.44
  -3  11 -18   -0.17    4.46
  11   3 -18   -2.16    5.61
  11   3 -18    5.97    3.90
 -11  -3  18    1.84   16.67
  11   2 -18    0.45    4.15
  11   2 -18   -3.20    5.62
 -11  -2  18    0.61   15.96
  11   1 -18    4.70    6.16
  11   1 -18   47.30    7.47
 -11  -1  18   15.74   15.47
  11   1  18   -2.35   13.29
   0  11 -18   -4.99    4.58
  11   0 -18    1.98    5.13
   1  11 -18    4.94    5.28
  11  -1  18    5.44    6.69
   2  11 -18    7.23    4.83
 -11   2 -18   -3.74    7.56
  11  -2  18    1.63    5.78
  -2 -11  18    2.56    4.97
   3  11 -18   -4.33    4.41
  -3 -11  18   -8.22    5.62
  11  -3  18   -8.04    5.60
   4  11 -18   -0.20    3.09
   4  11 -18    0.20    4.86
  -4 -11  18    0.33    5.48
   5  11 -18   -0.42    5.20
   5  11 -18    0.21    3.34
  -5 -11  18    0.69    5.48
   6  11 -18    0.22    5.25
   7  11 -18    0.22    5.65
   7  11 -18    4.05    3.97
  -7 -11  18    0.38    6.33
   8  11 -18   -5.14    4.06
   8  11 -18   -0.71    6.03
  -8 -11  18    3.67   16.64
  -8 -11  18   -0.40    6.34
   9  11 -18    0.48    4.12
   9  11 -18    1.49    6.21
  -9 -11  18  -20.93   17.73
  -9 -11  18    0.42    7.10
  10  11 -18    0.25    4.04
  10  11 -18    0.26    6.57
 -10 -11  18   30.90   18.93
 -10 -11  18    0.44    7.20
  11  11 -18   -8.08    4.51
  11  11 -18   -0.28    6.65
 -11 -11  18  -25.65   20.43
 -11 -11  18    0.46    7.89
  12  11 -18    0.29    7.53
 -12 -11  18    0.50    7.96
 -12 -11  18   14.71   21.71
  12  10 -18   -8.86    4.24
  12  10 -18   -0.56    7.20
 -12 -10  18   -2.21    7.44
  12   9 -18    1.92    6.67
  12   9 -18    0.23    3.76
 -12  -9  18   -0.40    7.03
 -12  -9  18  -10.87   20.07
  12   8 -18    0.61    3.73
  12   8 -18  -15.58    7.08
 -12  -8  18   -6.21   19.66
 -12  -8  18    2.16    6.90
  12   7 -18    0.96    3.38
  12   7 -18   -5.29    6.79
 -12  -7  18    4.00    6.38
 -12  -7  18   15.94   20.02
 -12  -6  18    6.37    6.65
  12   5 -18   -0.25    6.29
  12   5 -18    0.19    3.72
 -12  -5  18    4.95    5.51
 -12  -5  18  -15.23   18.96
  12   4 -18    0.25    5.85
  12   4 -18   -0.20    3.93
 -12  -4  18   25.82   18.67
 -12  -4  18    2.48    5.50
  12   3 -18   -5.10    6.48
  12   3 -18    4.84    4.30
 -12  -3  18   -1.92   17.20
  12   2 -18   -2.81    6.12
  12   2 -18    5.94    4.36
 -12  -2  18    4.45   16.22
  12   1 -18   -4.88    4.70
 -12  -1  18    1.31   15.70
  12   1  18   18.56   14.07
 -12   0 -18    6.76    9.27
  12   0 -18   -1.66    5.77
  12   0  18   18.96    7.27
  12   0  18   24.93   15.42
 -12   1 -18   -0.31    9.01
  12  -1  18    7.32   15.80
  12  -1  18    0.33    6.60
 -12   2 -18   -1.04    4.45
 -12   2 -18   44.36    9.62
  12  -2  18   11.87   16.27
  12  -2  18   46.80    7.19
 -12   3 -18   59.15   11.87
  12  -3  18    0.71   17.65
  10  12 -18    0.28    6.72
 -10 -12  18  -23.51   19.85
  11  12 -18    0.29    7.10
 -11 -12  18    4.09   21.06
  12  12 -18    0.31    7.55
 -12 -12  18   26.41   22.55
  13  11 -18   -0.31    7.90
 -13 -11  18    7.31    9.20
 -13 -11  18    0.72   22.60
  13  10 -18    0.51    4.35
  13  10 -18   -5.04    7.66
 -13 -10  18    0.47    8.18
 -13 -10  18  -21.20   21.85
 -13  -9  18  -10.87   22.69
 -13  -9  18  -10.56    8.63
  13   8 -18   -2.37    3.77
  13   8 -18   -0.28    7.11
 -13  -8  18   -2.31    7.16
 -13  -8  18  -31.05   21.98
  13   7 -18    2.54    3.52
  13   7 -18   -6.94    6.91
 -13  -7  18   43.56   20.99
 -13  -7  18   -0.35    6.35
  13   6 -18    4.65    3.68
  13   6 -18    4.09    6.91
 -13  -6  18   11.62   20.70
 -13  -6  18    4.55    6.13
  13   5 -18    2.15    6.55
  13   5 -18   -4.76    3.59
 -13  -5  18  -10.65   19.30
 -13  -5  18   -5.45    5.55
  13   4 -18  -13.21    4.04
  13   4 -18    0.54    6.70
 -13  -4  18   -0.29    5.85
  13   3 -18    5.06    3.91
  13   3 -18   -7.74    6.48
 -13  -3  18   -0.28    5.56
  13   2 -18   -2.65    4.21
  13   2 -18    2.13    6.13
 -13  -2  18   11.22   16.66
  13   1 -18    9.96    5.88
  13   1  18   37.31   16.69
 -13   0 -18    8.52    9.85
  13   0 -18   -1.36    5.11
  13   0  18   11.18    7.49
  13   0  18    4.03   16.74
 -13   1 -18   15.02   10.26
  13  -1  18    9.19   17.54
  13  -1  18    2.49    7.40
 -13   2 -18   -4.40    3.05
 -13   2 -18    7.30    9.68
  13  -2  18    6.45    6.92
  13  -2  18  -31.08   17.44
 -13   3 -18   -8.09   10.04
 -13   3 -18   -1.25    3.22
  13  -3  18   -9.81    7.33
  14  11 -18    0.32    8.25
 -14 -11  18   20.97   24.33
 -14 -11  18   10.37   10.01
  14  10 -18    0.31    7.90
  14  10 -18    0.53    4.14
 -14 -10  18   -6.99    8.65
 -14 -10  18   23.63   23.34
  14   9 -18   -8.12    4.19
  14   9 -18   -0.30    7.72
 -14  -9  18    1.78    7.92
 -14  -9  18   33.51   23.37
  14   8 -18  -13.07    4.90
 -14  -8  18   -8.85    8.17
  14   7 -18   -1.01    3.75
  14   7 -18  -11.08    7.55
 -14  -7  18  -17.21    7.33
 -14  -7  18  -31.39   23.04
  14   6 -18   -6.07    3.59
  14   6 -18  -17.50    7.57
 -14  -6  18   -7.47    6.56
 -14  -6  18  -17.40   21.49
  14   5 -18    1.00    3.63
  14   5 -18   -5.69    6.74
 -14  -5  18   14.64    6.14
 -14  -5  18  -14.31   20.79
  14   4 -18    0.41    3.92
  14   4 -18  -23.88    6.76
 -14  -4  18    9.52   19.35
 -14  -4  18   -2.11    5.93
 -14  -3  18  -14.32    6.02
 -14  -3  18   21.62   18.40
 -14  -1 -18  -13.34   10.48
  14   1  18   20.58   17.37
 -14   0 -18   -1.58   11.06
  14   0  18   -8.07    8.16
  14   0  18   20.00   17.61
 -14   1 -18  -16.52   11.00
  14  -1  18    9.10    7.84
  14  -1  18   10.69   17.97
 -14   2 -18   -0.26    3.27
 -14   2 -18    7.94   11.05
  14  -2  18   -2.81   18.72
  14  -2  18    0.38    7.69
 -14   3 -18    3.56    3.34
 -14   3 -18   -9.96   11.37
  14  -3  18  -17.87   18.48
  14  -3  18    3.29    7.55
 -15  -1 -18  -10.76   11.74
  15   1  18  -40.32   19.26
 -15   0 -18   -6.12   12.16
  15   0  18   -0.47    9.07
  15   0  18   10.94   19.23
 -15   1 -18   -7.22   12.13
 -15   1 -18    1.06    3.73
  15  -1  18  -22.41    8.86
  15  -1  18   12.38   20.06
 -15   2 -18   -4.01    3.68
 -15   2 -18   18.46   12.36
  15  -2  18   12.68    8.61
  15  -2  18  -31.52   19.92
 -15   3 -18    0.91    3.91
 -15   3 -18  -14.59   12.94
  15  -3  18  -28.47   20.30
  15  -3  18   -4.90    8.06
  15  -4  18    9.60   19.64
 -16   0 -18   44.36   18.47
  16   0  18   52.75   14.08
  16   0  18   -4.76   24.57
 -16   1 -18  -59.16   16.97
 -16   1 -18    4.11    4.04
  16  -1  18  -24.40   11.09
 -16   2 -18   -6.96    4.84
 -16   3 -18   21.19   14.74
 -16   3 -18    0.33    4.19
  16  -3  18   -8.14    8.94
  16  -3  18  -29.00   21.46
  16  -4  18  -12.64    9.11
  16  -4  18   -7.87   21.38
 -17  -1 -18    0.56   14.74
  17   1  18  -14.64   22.14
 -17   0 -18   -6.68   15.98
 -17   0 -18    2.76    3.88
  17   0  18  -37.83   23.00
  17   0  18    2.27   10.61
 -17   1 -18   10.90   16.65
 -17   1 -18    1.97    4.25
  17  -1  18  -31.37   23.05
  17  -1  18   -6.50   10.51
 -17   2 -18   -3.71   16.71
 -17   2 -18   -6.92    4.46
  17  -2  18  -10.55   22.87
  17  -2  18   -7.80   10.62
 -17   3 -18    2.56    4.72
 -17   3 -18   -5.75   16.82
  17  -3  18    0.50    9.74
  17  -3  18   14.41   22.91
 -17   4 -18   31.98   17.49
 -17   4 -18   -3.53    4.96
  17  -4  18   13.89   22.46
  17  -4  18   -7.70    9.89
 -18  -1 -18   27.31   17.83
 -18   0 -18  -22.71   19.23
  18   0  18  -17.24   12.47
 -18   1 -18   -1.46    4.76
 -18   1 -18   -0.62   18.13
  18  -1  18    3.00   11.45
 -18   2 -18   -2.29    5.16
 -18   2 -18   -3.62   18.73
  18  -2  18  -25.32   11.78
 -18   3 -18    3.64    4.85
 -18   3 -18   25.45   18.79
  18  -3  18  -20.45   10.75
 -18   4 -18    4.73    5.53
 -18   4 -18  -21.78   19.11
  18  -4  18   23.22   10.71
   0   1 -19   32.25   12.19
   0  -1  19   66.74   16.36
   1   1 -19   -1.38    4.28
  -1   1 -19    1.31    3.64
   1   1 -19    0.68    3.76
  -1  -1  19    1.36   10.07
   2   1 -19    0.24    3.89
   2   1 -19   -3.58    4.01
  -1   2 -19    1.08    3.21
  -1   2 -19   -0.53    3.94
  -2  -1  19   -3.02   10.87
   1  -2  19   -4.34    9.59
   0   2 -19   -0.72    3.93
   0   2 -19   -3.22    3.36
   0  -2  19   -3.87    9.71
  -2   1 -19    3.12    3.55
   1   2 -19   -0.72    4.06
   1   2 -19    5.14    3.49
  -1  -2  19  -11.98   10.36
   2   2 -19    2.26    3.38
  -2   2 -19   -2.46    4.00
   2   2 -19   -0.37    3.89
  -2   2 -19   -1.35    3.02
   2  -2  19    8.03    9.28
  -2  -2  19    1.31   10.85
   3   2 -19   51.25   14.15
  -2   3 -19   46.47   14.39
   3   2 -19   78.36   13.04
  -2   3 -19   51.28   13.05
   2  -3  19   36.44   17.67
  -3  -2  19   38.05   18.95
  -1   3 -19    2.77    3.82
  -1   3 -19    6.44    2.82
   3   1 -19    2.03    4.31
   3   1 -19   -3.39    4.26
   1  -3  19   -4.49    9.70
  -3  -1  19  -16.06   11.23
   0   3 -19   44.08    7.60
   0   3 -19   19.41    8.39
   0  -3  19   12.24   13.02
  -3   1 -19    2.28    3.56
   1   3 -19    3.52    3.13
   1   3 -19    3.51    3.86
  -1  -3  19   -0.80   10.90
  -3   2 -19   45.62   13.56
   2   3 -19   67.13   14.21
  -3   2 -19   48.21   14.73
   2   3 -19   75.73   13.15
   3  -2  19   38.99   17.30
  -2  -3  19   34.22   18.81
  -3   3 -19    0.62    2.39
   3   3 -19    2.37    3.30
  -3   3 -19   -1.44    3.77
   3   3 -19   -6.99    4.13
   3  -3  19  -10.33    9.23
  -3  -3  19    6.92   11.23
  -3   4 -19   52.83   17.06
  -3   4 -19   51.78   19.38
   4   3 -19   85.81   16.82
   3  -4  19   63.88   22.71
   4   2 -19   17.61    5.42
  -2   4 -19   19.07    5.74
  -2   4 -19   17.83    4.64
   4   2 -19   17.34    6.08
   2  -4  19    3.88   10.65
  -4  -2  19    0.71   13.67
  -1   4 -19   42.08   11.25
   4   1 -19   51.31   11.48
   4   1 -19   48.61   12.66
  -1   4 -19   48.15   12.42
  -4  -1  19   22.05   17.53
   1  -4  19   53.95   16.55
   0   4 -19    3.37    2.55
   0   4 -19    3.13    3.73
   0  -4  19   -9.30   10.29
  -4   1 -19   42.67   11.72
   1   4 -19   36.45   11.80
   1   4 -19   54.56   10.82
  -1  -4  19   32.42   16.59
   2   4 -19   23.92    4.95
   2   4 -19   11.80    5.85
  -4   2 -19   16.80    4.94
   4  -2  19    8.02    9.78
   3   4 -19  177.23   31.65
   3   4 -19  111.75   30.57
   4   4 -19    2.27    4.27
  -4   4 -19    0.39    1.77
   4   4 -19   -0.69    3.29
  -4   4 -19   -0.88    3.67
  -4  -4  19  -18.12   12.38
   4  -4  19  -22.30    9.26
   4  -4  19    0.35    2.17
  -4   5 -19   20.51    5.45
  -4   5 -19   12.91    3.85
   5   4 -19   23.28    6.03
   4  -5  19    6.01    4.36
  -5  -4  19    9.62   13.79
  -3   5 -19   44.18   11.81
   5   3 -19   34.98   11.51
  -3   5 -19   45.75   10.04
  -5  -3  19   14.45   17.89
   3  -5  19   34.65   15.67
   3  -5  19   41.68   10.70
  -2   5 -19   43.23    9.74
  -2   5 -19   28.73    8.41
   5   2 -19   27.05    9.94
   2  -5  19   28.57   13.97
   2  -5  19   35.64    8.87
   5   1 -19   56.07    8.51
  -1   5 -19   12.01    7.84
  -1   5 -19   20.26    6.72
   1  -5  19   24.41    7.15
   1  -5  19   34.31   13.02
   0   5 -19   65.18   13.79
   0   5 -19   42.14   12.26
   0  -5  19   38.66   12.85
   1   5 -19   17.27    7.03
   1   5 -19   15.32    5.78
  -1  -5  19   26.10    6.49
   2   5 -19   29.64   10.14
   2   5 -19   36.08    8.83
  -2  -5  19   37.69    9.35
   3   5 -19   50.04   12.06
   3   5 -19   62.30   13.16
  -3  -5  19   45.67   12.64
  -3  -5  19   39.50   18.89
   4   5 -19   28.67    7.86
   4   5 -19   28.51    6.93
  -4  -5  19   32.72   14.85
   5   5 -19    0.18    4.61
  -5  -5  19   11.51   13.36
  -4   6 -19   17.47    4.69
   6   4 -19   -0.19    5.00
  -4   6 -19    8.60    2.70
  -6  -4  19    2.20   14.12
  -3   6 -19   14.75    4.88
   6   3 -19   17.40    5.33
   6   3 -19    7.57    4.43
  -3   6 -19    5.59    2.96
   3  -6  19    7.81    3.74
   3  -6  19   16.15   10.24
  -6  -3  19    3.23   13.83
   6   2 -19   23.56    9.58
  -2   6 -19   23.61    7.62
   6   2 -19   36.56    8.16
  -2   6 -19   38.98    9.34
   2  -6  19   31.70   14.21
   2  -6  19   30.20    8.44
  -6  -2  19    2.05   16.25
   6   1 -19    6.62    4.86
  -1   6 -19    9.42    4.46
   6   1 -19    4.16    4.98
  -1   6 -19    7.65    2.74
   1  -6  19   14.61   10.88
  -6  -1  19   -0.27   12.88
   1  -6  19    7.39    3.64
   0   6 -19   -0.32    4.15
   0   6 -19   -2.92    2.33
   6   0  19   -3.78    7.33
   0  -6  19    1.71    3.06
   0  -6  19   -5.41   11.20
   1   6 -19   -5.39    4.35
   1   6 -19    8.61    2.55
  -1  -6  19  -10.31   11.90
  -1  -6  19    2.71    3.57
   2   6 -19   43.16   10.44
   2   6 -19   55.64   11.53
  -2  -6  19   39.48   11.00
  -2  -6  19   40.28   17.15
   3   6 -19    7.93    5.03
   3   6 -19   18.40    3.77
  -3  -6  19  -18.15   13.41
  -3  -6  19    7.09    4.53
   4   6 -19   10.53    4.88
  -4  -6  19   -0.21    4.06
  -4  -6  19   21.14   13.39
   6   6 -19   -2.63    3.11
  -6  -6  19   -0.23    3.91
   7   6 -19    2.38    3.62
   7   6 -19    8.70    5.36
  -7  -6  19    3.34   15.47
  -7  -6  19    6.05    5.07
   7   5 -19   -0.93    3.54
  -7  -5  19    0.70    4.78
   7   3 -19    0.62    7.90
  -3   7 -19   38.64    8.01
  -3   7 -19   23.69    6.09
  -7  -3  19    1.33   16.26
   3  -7  19   29.91    7.22
   3  -7  19   33.20   13.05
  -2   7 -19    5.61    4.46
   7   2 -19   -0.22    3.70
  -2   7 -19    4.25    2.29
   7   2 -19    0.21    5.25
   2  -7  19    7.73    3.39
   2  -7  19   16.61   11.01
  -7  -2  19    2.15   13.78
  -1   7 -19   11.73    3.73
  -1   7 -19   11.57    5.39
   7   1 -19   26.38    5.83
   7   1 -19    3.18    6.34
   1  -7  19   11.86    4.77
   1  -7  19   16.07   11.93
  -7  -1  19   -0.84   13.84
   0   7 -19   -1.66    4.26
   0   7 -19    2.38    2.30
   0  -7  19   14.26   11.53
   0  -7  19    1.49    3.48
   7   0  19    0.89    8.29
   1   7 -19   24.16    6.14
   1   7 -19   18.09    4.62
  -1  -7  19   -4.34   12.89
  -1  -7  19   16.51    5.57
   2   7 -19   11.25    3.26
   2   7 -19   10.03    4.83
  -2  -7  19  -18.18   12.56
  -2  -7  19   12.14    4.45
   3   7 -19   39.09    9.44
  -3  -7  19   26.94   15.65
   5   7 -19    0.49    2.87
  -5  -7  19    5.31    4.55
   6   7 -19   -0.20    5.22
  -6  -7  19   -2.68   15.29
   7   7 -19   11.02    7.27
   7   7 -19   -2.30    3.34
  -7  -7  19    1.28   16.22
  -7  -7  19   -9.99    7.35
   8   7 -19    6.10    6.18
   8   7 -19    6.97    3.85
  -8  -7  19   10.54    5.98
  -8  -7  19   -1.64   16.21
   8   6 -19    0.64    5.82
   8   6 -19   -2.22    3.50
  -8  -6  19   -3.11    5.15
  -8  -6  19   10.32   17.27
   8   5 -19   -0.21    5.60
   8   5 -19    0.19    3.46
  -8  -5  19    0.24    4.89
  -8  -5  19   -0.81   15.93
   8   4 -19    2.77    3.80
  -3   8 -19    1.14    2.14
  -3   8 -19   -3.41    4.39
   3  -8  19   -3.67    3.46
   3  -8  19   14.94   11.17
  -2   8 -19    4.61    4.70
  -2   8 -19    5.15    2.42
   2  -8  19    7.35   11.47
   2  -8  19    5.86    4.00
  -1   8 -19    2.01    4.45
  -1   8 -19    0.27    2.49
   1  -8  19   -3.43   11.70
   1  -8  19   -1.04    3.80
   0   8 -19    1.33    2.35
   0   8 -19    4.43    4.32
   8   0  19    7.28    9.58
   0  -8  19    9.07   12.14
   0  -8  19    0.42    3.81
   1   8 -19   -0.17    4.74
   1   8 -19    9.48    3.01
  -1  -8  19    6.72   12.64
  -1  -8  19   18.13    4.36
   4   8 -19    0.93    2.70
   4   8 -19    6.98    4.89
  -4  -8  19    3.40    4.76
   5   8 -19   -0.97    2.63
   5   8 -19   -0.39    4.89
  -5  -8  19    0.94   14.02
  -5  -8  19   -5.09    5.11
   6   8 -19   -0.20    5.19
  -6  -8  19    1.72   15.88
   7   8 -19    4.67    6.38
   7   8 -19   11.79    3.84
  -7  -8  19    7.05    5.79
  -7  -8  19    2.58   15.90
   8   8 -19   -0.18    3.29
   8   8 -19    0.44    5.80
  -8  -8  19    0.30    5.62
  -8  -8  19   -3.57   16.44
   9   8 -19    5.89    6.14
   9   8 -19    2.66    3.41
  -9  -8  19    2.61   17.12
  -9  -8  19    9.11    6.20
   9   7 -19    0.23    5.92
   9   7 -19   -4.18    3.50
  -9  -7  19    0.29    5.48
  -9  -7  19   -1.15   16.99
   9   6 -19   -3.83    3.69
   9   6 -19    0.22    5.90
  -9  -6  19   -0.27    5.32
  -9  -6  19    0.29   16.80
   9   5 -19    2.59    3.79
   9   5 -19   -2.89    5.67
  -9  -5  19    1.72   16.86
  -9  -5  19   -5.65    4.92
   9   4 -19   17.98    4.70
   9   4 -19    0.22    5.97
  -9  -4  19    0.29   17.05
   9   3 -19    2.06    5.25
  -3   9 -19   -0.99    4.52
  -3   9 -19    0.43    2.37
   9   3 -19    2.85    4.06
  -9  -3  19   11.51   15.64
   3  -9  19   -0.96    4.30
   3  -9  19    2.78   11.84
  -2   9 -19   -1.03    2.48
   9   2 -19    9.69    4.19
  -2   9 -19    5.52    4.48
   2  -9  19   -0.24    4.24
   2  -9  19   10.61   11.96
  -1   9 -19    8.87    3.22
  -1   9 -19    0.34    4.78
   1  -9  19   36.68   12.62
   1  -9  19    6.29    4.88
   0   9 -19    9.49    5.08
   0  -9  19    0.21   12.57
   9   0  19   15.02   11.07
   9  -1  19    0.52   12.13
   2   9 -19   -2.09    2.75
  -2  -9  19   -0.25    4.17
   3   9 -19   -0.17    2.77
   3   9 -19  -10.76    4.75
  -3  -9  19    0.26    4.32
  -3  -9  19   -2.69   13.65
   4   9 -19    0.69    3.15
   4   9 -19    3.07    5.23
  -4  -9  19    2.78   14.69
  -4  -9  19    7.01    5.15
   5   9 -19    3.75    3.19
   5   9 -19   -0.20    5.08
  -5  -9  19    1.69    5.28
  -5  -9  19    3.85   14.64
   6   9 -19   -0.21    5.35
  -6  -9  19    7.54   15.25
   7   9 -19   -1.53    5.47
   7   9 -19   -3.92    3.32
  -7  -9  19   -0.31    5.36
  -7  -9  19   -2.89   15.50
   8   9 -19    7.46    3.67
   8   9 -19    6.62    5.99
  -8  -9  19   -2.77   16.74
  -8  -9  19    0.33    6.30
   9   9 -19   -2.73    3.71
   9   9 -19   -1.21    6.30
  -9  -9  19   -7.01   17.86
  -9  -9  19   -9.34    6.60
  10   9 -19    0.25    6.41
  10   9 -19   -0.22    3.76
 -10  -9  19   -9.67   19.16
 -10  -9  19    0.36    6.55
  10   8 -19   -3.54    3.79
  10   8 -19   -0.25    6.71
 -10  -8  19  -57.41   19.68
 -10  -8  19    0.66    6.57
  10   7 -19   -3.66    6.10
  10   7 -19    0.19    3.45
 -10  -7  19    4.33   18.52
 -10  -7  19    0.31    5.35
  10   6 -19    2.16    5.84
  10   6 -19    0.20    3.58
 -10  -6  19    0.29    5.26
 -10  -6  19   10.41   18.04
  10   5 -19    2.66    3.90
  10   5 -19   -0.23    5.73
 -10  -5  19    0.31   17.68
 -10  -5  19    0.54    5.37
  10   4 -19   -0.95    6.05
  10   4 -19    2.29    3.67
 -10  -4  19   -3.68   17.66
 -10  -4  19    0.26    5.06
  10   3 -19   -6.28    5.69
  10   3 -19    0.22    3.98
  -3  10 -19   -3.20    4.33
 -10  -3  19   -0.31   16.61
  10   2 -19   -8.46    5.76
  -2  10 -19   -3.08    4.46
  10   2 -19    0.24    4.42
 -10  -2  19   -2.16   16.28
  10   1 -19   -0.51    6.20
  10   1 -19    0.26    4.79
 -10  -1  19  -24.16   15.57
   0  10 -19    1.04    2.99
   0 -10  19   -1.41    5.17
  10   0  19   -4.77   12.23
   1  10 -19    2.97    3.29
   1  10 -19   20.96    4.95
 -10   1 -19   -0.52    7.86
  10  -1  19    1.14    5.98
  -1 -10  19    5.91    5.22
  10  -1  19   11.76   13.54
   2  10 -19   -3.23    3.04
   2  10 -19    2.43    4.48
  -2 -10  19    6.33    4.81
   3  10 -19   -0.92    3.20
   3  10 -19   -1.34    4.67
  -3 -10  19    0.30    5.05
  -3 -10  19    3.74   14.40
   4  10 -19    0.38    3.26
   4  10 -19   -0.59    4.95
  -4 -10  19    2.11    5.35
  -4 -10  19   -3.62   14.33
   5  10 -19   -1.76    3.18
   5  10 -19    0.21    5.13
  -5 -10  19   -0.31    5.36
  -5 -10  19    0.75   14.74
   6  10 -19    0.21    5.29
  -6 -10  19   -0.26   15.72
   7  10 -19    0.21    3.70
   7  10 -19    0.45    5.75
  -7 -10  19    2.71   16.04
  -7 -10  19    6.87    6.13
   8  10 -19    0.22    3.90
   8  10 -19    0.24    6.04
  -8 -10  19    9.41    6.99
  -8 -10  19    1.14   17.24
   9  10 -19   -5.01    3.92
   9  10 -19    0.25    6.23
  -9 -10  19   -0.30   18.15
  -9 -10  19    0.76    7.00
  10  10 -19    0.26    6.31
  10  10 -19    0.24    3.96
 -10 -10  19    0.40    7.07
 -10 -10  19   -1.26   18.42
  11  10 -19    1.74    4.41
  11  10 -19    0.28    7.24
 -11 -10  19   13.34   20.38
 -11 -10  19   -0.43    7.85
  11   9 -19    4.77    4.02
  11   9 -19    2.17    6.60
 -11  -9  19    7.26   20.21
 -11  -9  19  -17.34    7.05
  11   8 -19    0.27    6.98
  11   8 -19    4.12    3.80
 -11  -8  19  -18.71   19.85
 -11  -8  19    0.36    7.00
  11   7 -19   16.18    5.77
  11   7 -19   36.58    8.44
 -11  -7  19    0.32    7.66
 -11  -7  19   62.36   21.07
  11   6 -19    0.25    6.12
  11   6 -19    0.20    3.75
 -11  -6  19    8.82   19.29
 -11  -6  19    0.30    5.69
  11   5 -19   -2.76    6.30
  11   5 -19   -1.26    3.83
 -11  -5  19   21.46   18.72
 -11  -5  19    0.57    5.24
  11   4 -19   -1.77    6.04
  11   4 -19    0.21    4.00
 -11  -4  19  -37.13   19.21
 -11  -4  19    0.27    5.25
  11   3 -19   -6.02    4.40
  11   3 -19   -5.64    6.30
 -11  -3  19  -19.10   17.37
  11   2 -19    9.28    5.00
  11   2 -19    6.22    6.33
 -11  -2  19    5.47   16.29
  11   1 -19    6.05    5.14
  -1  11 -19    1.65    4.69
 -11  -1  19    0.66   15.69
  11   1  19   -3.31   12.36
  11   0 -19   15.01    7.76
   0  11 -19   26.72    7.57
   1  11 -19   -3.48    4.76
  -1 -11  19    1.94    5.57
   2  11 -19    6.36    5.34
  -2 -11  19    7.60    5.78
   3  11 -19    4.03    5.18
   3  11 -19    2.46    3.29
  -3 -11  19    0.33    5.78
   4  11 -19    2.50    5.28
   4  11 -19   -0.84    3.37
  -4 -11  19   -0.34    6.32
   5  11 -19    0.22    5.46
   5  11 -19    0.22    3.42
  -5 -11  19    1.07    5.99
   6  11 -19   -0.22    5.48
  -6 -11  19   -0.27   16.13
   7  11 -19    2.57    4.14
   7  11 -19   -0.24    6.04
  -7 -11  19   -6.62    7.02
  -7 -11  19    2.83   17.51
   8  11 -19    9.22    4.04
   8  11 -19    0.25    6.29
  -8 -11  19    0.30   18.00
  -8 -11  19    0.41    7.54
   9  11 -19    3.02    4.03
   9  11 -19    0.26    7.02
  -9 -11  19  -23.85   19.12
  -9 -11  19  -14.21    7.89
  10  11 -19   -4.97    4.36
  10  11 -19   -0.28    6.67
 -10 -11  19  -42.02   20.25
 -10 -11  19  -13.19    8.49
  11  11 -19   46.37   11.17
  11  11 -19    3.21   13.79
 -11 -11  19   61.45   15.31
  12  11 -19    0.28    4.41
  12  11 -19    0.31    7.94
 -12 -11  19   -1.81   22.18
 -12 -11  19   -0.51    8.73
  12  10 -19   10.29    5.21
  12  10 -19    0.88    8.37
 -12 -10  19   -7.12   24.19
 -12 -10  19   -0.92    9.01
  12   9 -19   -0.23    3.87
  12   9 -19    0.29    7.35
 -12  -9  19   -5.64   21.73
 -12  -9  19    1.62    7.91
  12   8 -19    0.28    6.93
  12   8 -19    0.21    3.84
 -12  -8  19  -18.95   21.35
 -12  -8  19   -3.77    7.21
  12   7 -19    2.25    3.60
  12   7 -19    0.27    6.85
 -12  -7  19   -0.35    6.33
 -12  -7  19  -48.70   21.39
  12   6 -19   -0.21    3.56
  12   6 -19    0.81    6.84
 -12  -6  19  -16.53    6.03
 -12  -6  19  -22.02   20.79
  12   4 -19  -10.77    6.37
  12   4 -19    0.22    3.88
 -12  -4  19  -39.76   20.07
 -12  -4  19    0.29    5.74
  12   3 -19   -2.48    4.30
  12   3 -19   -7.01    6.32
 -12  -3  19    7.42   18.12
  12   2 -19    0.27    6.25
  12   2 -19   -3.18    4.64
 -12  -2  19   -3.35   16.45
  12   1 -19    2.60    4.87
 -12  -1  19   32.55   16.80
  12   1  19  -16.67   14.39
 -12   0 -19   -1.62    8.54
  12   0 -19   13.59    5.84
  12   0  19   -9.98   14.84
 -12   1 -19   16.65    9.08
  12  -1  19    7.27   15.82
  12  -1  19    6.79    7.09
  12  -2  19    1.18   15.66
  12  -2  19   -4.45    6.11
   5  12 -19    0.92    5.86
   6  12 -19    0.72    5.85
  -6 -12  19   -0.41    6.56
   7  12 -19    6.04    6.42
  -7 -12  19   13.74    7.97
   8  12 -19    0.26    6.57
  -8 -12  19    0.45    7.52
  -8 -12  19  -11.89   18.50
   9  12 -19   -4.39    6.67
  -9 -12  19  -11.10   19.71
  -9 -12  19    4.73    8.20
  10  12 -19    4.05    8.27
 -10 -12  19   19.93   10.20
 -10 -12  19   51.92   22.50
  11  12 -19    0.30    7.34
 -11 -12  19  -22.92   22.36
  12  12 -19   -5.16    7.94
 -12 -12  19    5.27   23.22
  13  12 -19    1.34    8.37
 -13 -12  19   -3.56   24.58
  13  11 -19    1.73    4.82
  13  11 -19   -2.24    7.91
 -13 -11  19   -8.09   23.84
 -13 -11  19    4.27    8.81
  13  10 -19    0.31    7.99
  13  10 -19   -1.06    4.49
 -13 -10  19   -3.79   23.78
 -13 -10  19  -22.23    8.91
  13   9 -19  -12.76    5.12
  13   9 -19  -30.21    9.11
 -13  -9  19  -57.22   24.13
 -13  -9  19   -0.44    8.59
  13   8 -19   -4.17    4.41
  13   8 -19  -28.58    8.18
 -13  -8  19  -52.57   23.91
 -13  -8  19   -7.90    7.49
  13   7 -19   -3.13    3.73
  13   7 -19    1.16    7.24
 -13  -7  19    8.42    7.35
 -13  -7  19   -1.11   22.52
  13   6 -19   -9.44    7.19
  13   6 -19    1.68    3.67
 -13  -6  19   -8.34    6.32
 -13  -6  19   25.32   21.57
  13   5 -19   -5.10    3.95
  13   5 -19    1.71    6.83
 -13  -5  19    8.72   20.50
 -13  -5  19  -11.81    6.09
  13   4 -19    4.54    6.74
  13   4 -19    6.22    4.54
 -13  -4  19    0.60    5.75
 -13  -4  19   -8.99   20.24
  13   3 -19   -9.51    4.29
  13   3 -19   -0.28    6.66
 -13  -3  19   -8.77   19.00
 -13  -3  19   -2.34    5.84
  13   2 -19   15.82    6.70
  13   2 -19    0.24    4.33
 -13  -2  19  -41.05   18.07
  13   1 -19   10.12    5.96
  13   1  19    6.00   16.43
 -13   0 -19   39.68   19.34
  13   0  19   81.86   24.10
 -13   1 -19   12.36   11.74
  13  -1  19   45.38   10.02
  13  -1  19   14.67   18.74
 -13   2 -19   -1.40    3.27
 -13   2 -19   10.48   10.24
  13  -2  19  -38.79   17.81
  13  -2  19  -21.28    7.29
  14  11 -19    5.41    8.71
 -14 -11  19   10.11   25.28
 -14 -11  19    3.40   10.43
  14  10 -19   -0.33    8.30
  14  10 -19    0.27    4.95
 -14 -10  19   15.10   24.44
 -14 -10  19  -41.21    9.62
  14   9 -19   -1.51    4.33
  14   9 -19   -5.45    7.56
 -14  -9  19    5.52   24.85
 -14  -9  19    0.46    8.44
  14   8 -19   -0.94    7.66
  14   8 -19    3.97    4.10
 -14  -8  19   -0.42    7.54
 -14  -8  19  -30.44   24.14
  14   7 -19   15.73    8.53
  14   7 -19    0.21    4.42
 -14  -7  19  -23.72    7.58
  14   6 -19   10.90    7.53
  14   6 -19   -1.89    3.77
 -14  -6  19  -22.09   22.84
 -14  -6  19   -0.36    6.71
  14   5 -19  -11.01    4.28
  14   5 -19  -15.08    7.26
 -14  -5  19    0.33    6.24
 -14  -5  19    3.84   22.00
  14   4 -19   -4.23    3.91
  14   4 -19   -0.60    7.08
 -14  -4  19    0.32    6.08
 -14  -4  19  -25.59   20.54
  14   3 -19   -9.67    6.73
  14   3 -19    3.67    4.28
 -14  -3  19  -11.81    5.89
 -14  -3  19   10.82   18.85
  14   2 -19   14.55    5.99
 -14  -2  19   33.47   18.08
  14   1  19  -13.10   17.55
 -14   0 -19    3.97   10.60
  14   0  19   -1.29    8.30
  14   0  19    5.69   17.77
 -14   1 -19  -24.64   11.66
  14  -1  19    0.42    8.03
  14  -1  19   13.85   18.19
 -14   2 -19   -2.82    3.27
 -14   2 -19   -5.94   11.40
  14  -2  19   -3.35   18.59
  14  -2  19  -17.81    8.28
 -15 -10  19    2.71    9.52
 -15  -9  19    5.89    8.47
  15   1  19   -4.11   18.90
 -15   0 -19  -18.19   11.95
  15   0  19   21.02   19.29
  15   0  19   -2.38    9.07
 -15   1 -19   -0.79    3.56
 -15   1 -19    9.56   12.62
  15  -1  19   -6.57   19.33
  15  -1  19    2.31    8.61
 -15   2 -19    3.37   12.76
 -15   2 -19    0.29    3.85
  15  -2  19   -8.39    8.90
  15  -2  19  -49.11   20.15
  16   1  19   -2.55   20.45
 -16   0 -19   -4.49   13.25
  16   0  19   -7.10   21.61
  16   0  19   17.37   10.07
 -16   1 -19    2.05    3.59
 -16   1 -19    0.98   14.36
  16  -1  19  -14.99   21.56
  16  -1  19  -21.02   10.42
 -16   2 -19    1.27    4.41
 -16   2 -19   12.48   14.25
  16  -2  19   -0.98    9.72
  16  -2  19   57.94   22.04
  16  -3  19  -17.30   21.84
  17   1  19  -14.10   22.51
 -17   0 -19    0.61    3.74
 -17   0 -19    9.02   15.63
  17   0  19  -28.01   11.42
  17   0  19   23.15   22.61
 -17   1 -19    7.26   15.90
 -17   1 -19    3.61    4.33
  17  -1  19    1.70   22.03
  17  -1  19   -5.70   10.78
 -17   2 -19  -20.22   16.32
 -17   2 -19    1.38    4.50
  17  -2  19  -15.28   11.11
  17  -2  19  -47.24   22.97
  17  -3  19  -10.50   10.74
  17  -3  19   -7.67   22.52
 -18   1 -19    0.63   18.39
  18  -1  19  -20.22   11.86
 -18   2 -19    0.76    4.92
 -18   2 -19   24.84   18.42
  18  -2  19    5.44   12.34
 -18   3 -19   -2.42   17.98
  18  -3  19    1.16   11.16
   0   1 -20   -1.88    4.15
   0  -1  20   -1.91   10.44
  -1   1 -20    6.35    4.32
   1   1 -20    5.60    4.59
  -1  -1  20    4.85   10.84
  -1   2 -20   -2.11    4.41
  -1   2 -20   -4.44    3.68
   2   1 -20    4.07    4.41
   2   1 -20    2.76    4.46
   1  -2  20   -0.21    9.99
  -2  -1  20    4.96   11.09
   0   2 -20    2.84    3.52
   0   2 -20    0.38    4.43
   0  -2  20    0.22   10.41
   1   2 -20    2.54    3.89
   1   2 -20    1.57    4.44
  -2   1 -20   -0.22    3.66
  -1  -2  20   -0.22   10.98
   2   2 -20   26.68    6.38
  -2   2 -20   21.98    6.12
  -2   2 -20   14.85    6.86
   2   2 -20   15.47    7.01
   2  -2  20   28.30   11.59
   3   2 -20   52.06    9.56
   2  -3  20   15.97   13.01
  -1   3 -20   27.11    7.39
  -1   3 -20   21.01    6.40
   3   1 -20   15.64    7.72
   3   1 -20   32.97    6.99
   1  -3  20   21.07   12.67
  -3  -1  20    4.33   14.05
   0   3 -20   -3.24    4.39
   0   3 -20   -0.34    3.14
   0  -3  20  -36.01   11.67
   1   3 -20   28.73    7.38
  -3   1 -20   21.17    7.87
   1   3 -20   32.57    8.30
  -1  -3  20   31.52   14.55
   2   3 -20   11.10    4.79
  -3   2 -20    2.28    4.32
   2   3 -20   12.96    5.63
   3  -2  20    9.51   10.39
  -3   3 -20   62.45   14.54
   3   3 -20   65.79   14.26
   3   3 -20   60.76   15.53
  -3   3 -20   44.52   16.21
  -3  -3  20   56.92   21.16
   3  -3  20   52.37   18.96
  -3   4 -20    1.78    3.88
  -3   4 -20   -0.36    2.23
   4   3 -20   -0.81    3.85
   4   3 -20    1.56    4.53
   3  -4  20    0.70    9.94
  -4  -3  20    8.34   13.36
  -2   4 -20   29.07    9.24
   4   2 -20   32.42   10.69
   4   2 -20   56.25    9.57
  -2   4 -20   35.82   10.65
   2  -4  20   35.17   14.81
  -4  -2  20    6.26   16.67
  -1   4 -20   -0.14    2.75
   4   1 -20  -11.06    4.99
   4   1 -20   -7.14    4.95
  -1   4 -20    0.33    4.11
  -4  -1  20  -10.51   12.88
   1  -4  20  -14.31   10.39
   0   4 -20   43.07    9.03
   0   4 -20   42.70   10.19
   0  -4  20   -0.20   15.45
  -4   1 -20    3.20    3.60
   1   4 -20   -7.57    4.14
   1   4 -20    0.16    2.91
  -1  -4  20  -36.23   12.31
   2   4 -20   55.58   12.26
  -4   2 -20   39.82   11.65
   2   4 -20   60.68   11.35
  -2  -4  20   20.21   17.49
  -4   3 -20    0.69    4.21
   3   4 -20   -4.88    4.44
   3   4 -20    2.48    3.17
  -4   3 -20    0.36    2.37
   4  -3  20    7.48    9.28
  -3  -4  20   18.61   12.85
  -4   4 -20    7.22    4.72
   4   4 -20   15.11    3.92
  -4   4 -20   10.31    3.06
   4   4 -20    0.93    5.25
  -4  -4  20    1.66   13.63
   5   4 -20   -0.97    4.75
  -5  -4  20    3.23   14.03
  -3   5 -20   36.95   10.83
   5   3 -20   20.56   10.49
  -3   5 -20   36.16    9.05
  -5  -3  20   19.24   18.04
   3  -5  20   34.02    9.63
   3  -5  20   55.13   15.05
  -2   5 -20   40.43   11.20
   5   2 -20   32.32   11.30
  -2   5 -20   43.64    9.67
   2  -5  20   36.46   10.12
   2  -5  20   32.25   15.71
  -5  -2  20   33.06   17.42
  -1   5 -20   47.12   12.65
   5   1 -20   50.31   12.94
  -1   5 -20   47.11   11.11
   1  -5  20   32.34   17.66
  -5  -1  20   19.86   18.67
   1  -5  20   43.97   11.71
   0   5 -20   -1.01    2.59
   0   5 -20    0.84    4.16
   0  -5  20    3.06    3.36
   0  -5  20   10.65   11.59
   1   5 -20   62.99   13.76
   1   5 -20   65.87   12.53
  -1  -5  20   27.02   19.12
  -1  -5  20   39.64   12.99
   2   5 -20   33.63   11.57
   2   5 -20   49.08   10.54
  -2  -5  20   42.47   11.02
  -2  -5  20   41.58   17.91
   3   5 -20   49.81   12.48
   3   5 -20   57.28   11.55
  -3  -5  20   50.37   12.05
  -3  -5  20   23.38   18.55
   4   5 -20   14.59    5.44
  -4  -5  20    3.05   14.17
  -3   6 -20   29.20    8.63
  -3   6 -20   27.78    6.90
   3  -6  20   22.72    7.55
   3  -6  20   32.74   13.44
   6   2 -20    0.22    5.94
  -2   6 -20   19.77    5.48
  -2   6 -20   12.90    3.85
   2  -6  20   21.69   11.87
   2  -6  20   14.47    4.67
  -6  -2  20    0.27   14.42
  -1   6 -20   14.67    3.46
   6   1 -20    1.87    5.80
  -1   6 -20   21.47    5.30
   6   1 -20   -0.27    5.33
  -6  -1  20    1.69   13.80
   1  -6  20    8.36    4.06
   1  -6  20   -8.71   11.88
   0   6 -20    3.67    3.14
   0   6 -20   15.60    5.03
   0  -6  20    7.81   12.06
   0  -6  20    8.69    4.19
   1   6 -20   16.29    4.32
   1   6 -20   21.93    5.84
  -1  -6  20   -5.43   13.04
  -1  -6  20   12.22    4.93
   2   6 -20   18.99    6.00
   2   6 -20   14.55    4.70
  -2  -6  20    5.00   13.77
  -2  -6  20   18.23    5.54
   3   6 -20   34.22    9.04
  -3  -6  20   23.98   16.02
   5   6 -20    6.32    3.43
  -5  -6  20   -0.23    4.48
   6   6 -20    0.21    5.43
  -6  -6  20    0.78   15.87
   7   6 -20   14.04    6.37
   7   6 -20    0.20    3.76
  -7  -6  20    0.55   17.42
  -7  -6  20    5.35    5.78
   7   5 -20   -1.39    3.66
   7   5 -20    2.96    5.31
  -7  -5  20    0.24    4.56
  -7  -5  20    0.27   15.56
   7   4 -20    2.88    3.84
   7   4 -20   -0.21    4.55
  -3   7 -20    2.34    2.19
  -3   7 -20    7.88    4.76
   7   3 -20   -0.22    4.06
   3  -7  20    2.46    3.28
   3  -7  20   26.02   11.37
  -2   7 -20   14.29    4.76
  -2   7 -20   22.76    6.59
   2  -7  20   44.86   13.30
   2  -7  20   11.87    5.85
  -1   7 -20   10.44    4.72
  -1   7 -20    4.77    2.41
   1  -7  20   -3.57   12.13
   1  -7  20   -1.12    3.68
   0   7 -20    1.60    2.38
   0   7 -20   -3.89    4.44
   0  -7  20    4.33   12.80
   0  -7  20    1.56    3.42
   1   7 -20    1.00    2.48
   1   7 -20    0.18    4.46
  -1  -7  20    3.60    3.82
  -1  -7  20    1.71   12.92
   2   7 -20   25.90    7.05
  -2  -7  20    7.10   14.74
   4   7 -20    6.50    2.97
  -4  -7  20    0.23    4.64
   5   7 -20    2.09    3.24
   5   7 -20    2.00    5.14
  -5  -7  20   -2.00   15.27
  -5  -7  20    0.24    4.83
   6   7 -20    0.21    6.07
  -6  -7  20    5.80   17.00
   8   7 -20  -16.20    6.75
   8   7 -20    3.54    3.63
  -8  -7  20   -4.12   17.43
  -8  -7  20   -1.99    5.86
   8   6 -20    0.22    5.45
   8   6 -20    1.62    3.89
  -8  -6  20   -0.29   17.37
  -8  -6  20    0.27    4.93
   8   5 -20    0.22    5.90
   8   5 -20    1.65    3.75
  -8  -5  20   -0.86   17.18
  -8  -5  20   -0.26    4.91
   8   4 -20   -8.22    4.17
   8   4 -20   -0.67    5.72
  -8  -4  20  -11.98   17.27
  -3   8 -20    2.09    2.29
   8   3 -20   -0.90    4.12
  -3   8 -20    1.90    4.69
   8   3 -20    0.23    5.00
   3  -8  20  -12.19   11.86
   3  -8  20   -0.41    3.67
  -8  -3  20    0.30   16.12
  -2   8 -20   -0.13    2.37
  -2   8 -20    5.98    4.65
   8   2 -20    3.44    4.61
   2  -8  20    4.58    3.80
   2  -8  20    8.85   12.62
  -1   8 -20    0.80    2.37
   8   1 -20    4.96    4.91
  -1   8 -20    3.07    4.79
   1  -8  20    4.23    3.79
   1  -8  20   -4.08   12.83
   0   8 -20   -0.14    2.11
   0   8 -20    1.47    4.85
   0  -8  20   21.08    4.11
   0  -8  20    8.04   13.58
   2   8 -20   -0.15    2.66
   3   8 -20   38.73    6.19
  -3  -8  20   -0.24    5.86
  -3  -8  20   21.25   15.03
   4   8 -20    0.20    5.14
   4   8 -20   -0.83    3.19
  -4  -8  20   -1.78    5.10
  -4  -8  20   -8.95   15.51
   5   8 -20    0.21    5.39
   5   8 -20   -6.73    3.30
  -5  -8  20   -2.77   15.78
  -5  -8  20   -3.21    5.39
   6   8 -20   -0.21    5.69
  -6  -8  20   -2.13   16.45
   7   8 -20    0.22    5.76
   7   8 -20   -2.81    3.44
  -7  -8  20    1.67   16.90
  -7  -8  20   -9.17    6.24
   8   8 -20   14.42    4.09
   8   8 -20    0.24    6.17
  -8  -8  20    0.31    6.16
  -8  -8  20    0.29   17.79
   9   8 -20    0.25    6.19
   9   8 -20   -2.63    3.57
  -9  -8  20    4.68   18.49
  -9  -8  20    0.33    6.29
   9   7 -20    0.24    6.44
   9   7 -20    9.55    4.27
  -9  -7  20   11.96    5.87
  -9  -7  20    0.93   18.73
   9   6 -20   -0.24    6.03
   9   6 -20    2.05    3.53
  -9  -6  20   -1.54   18.15
  -9  -6  20    1.43    5.52
   9   5 -20   -1.28    4.01
   9   5 -20    0.23    5.96
  -9  -5  20    7.55    5.27
  -9  -5  20   -0.31   17.24
   9   4 -20   -0.71    5.75
   9   4 -20    1.09    4.24
  -9  -4  20   -4.31   16.69
   9   3 -20    2.57    4.26
   9   3 -20    0.24    5.94
  -3   9 -20   -2.49    4.61
  -3   9 -20    0.59    2.60
  -9  -3  20   -1.24   16.55
   3  -9  20  -39.22   13.36
   3  -9  20   -5.15    4.55
   9   2 -20    8.63    5.37
   9   2 -20    1.01    6.82
  -2   9 -20   10.84    3.43
  -2   9 -20    3.60    5.38
  -9  -2  20    1.56   16.64
   2  -9  20   13.42    5.38
   9   1 -20   -6.60    5.45
  -1   9 -20   -2.01    4.69
   9   1 -20   -1.57    5.90
  -9  -1  20    0.64   15.17
   9   0  20   -7.34   11.26
   1   9 -20    4.21    2.72
  -1  -9  20   -2.50    4.63
   2   9 -20   -4.34    3.11
   2   9 -20   12.16    5.27
  -2  -9  20   13.76    5.48
  -2  -9  20    8.09   15.09
   3   9 -20    5.33    5.11
   3   9 -20    6.53    3.13
  -3  -9  20   -5.97   14.97
  -3  -9  20   -1.08    4.91
   4   9 -20    0.20    5.19
   4   9 -20    4.17    3.20
  -4  -9  20    1.11    5.12
  -4  -9  20    0.74   15.15
   5   9 -20    0.21    5.28
   5   9 -20   -4.88    3.03
  -5  -9  20   -6.67    5.75
  -5  -9  20    1.54   15.60
   6   9 -20    0.22    5.80
  -6  -9  20   -1.34   16.51
   7   9 -20   13.94    4.61
   7   9 -20    6.42    6.29
  -7  -9  20    0.28   16.90
  -7  -9  20   17.61    6.82
   8   9 -20    0.48    6.02
   8   9 -20    4.91    3.59
  -8  -9  20   -2.95   17.13
  -8  -9  20   -8.43    6.07
   9   9 -20    0.25    6.44
   9   9 -20    1.70    3.92
  -9  -9  20   -2.51   19.61
  -9  -9  20    0.36    6.34
  10   9 -20    3.91    4.16
  10   9 -20    0.27    6.85
 -10  -9  20    0.38    6.77
 -10  -9  20   18.92   20.23
  10   8 -20   -7.37    6.82
  10   8 -20    0.21    3.84
 -10  -8  20    6.59    6.76
 -10  -8  20    9.56   19.91
  10   7 -20    0.63    3.77
  10   7 -20   -3.82    6.19
 -10  -7  20  -30.78   19.74
 -10  -7  20    0.32    5.60
  10   6 -20    3.38    3.99
  10   6 -20   -0.25    6.25
 -10  -6  20    6.02    5.96
 -10  -6  20    0.65   19.03
  10   5 -20   -4.39    4.27
  10   5 -20    0.25    5.98
 -10  -5  20    6.21    5.81
 -10  -5  20   -0.33   18.76
  10   4 -20    0.76    5.99
  10   4 -20    0.89    4.13
 -10  -4  20    7.91   18.47
  10   3 -20   -0.26    5.91
  -3  10 -20   -0.18    4.77
  10   3 -20    2.30    4.30
 -10  -3  20   13.02   17.36
  10   2 -20   -0.26    5.64
  10   2 -20   -2.79    4.73
 -10  -2  20    6.81   16.07
  10   1 -20   -3.65    5.37
  -1  10 -20   -1.39    2.85
   1 -10  20    4.56    4.91
 -10  -1  20    2.35   15.32
   0  10 -20   18.27    6.21
   0  10 -20   27.43    7.51
   0 -10  20   18.74   15.61
   0 -10  20   24.16    7.94
   1  10 -20    1.34    4.97
   1  10 -20   -1.99    2.92
  -1 -10  20   -7.20   14.30
  -1 -10  20   -6.94    5.12
   2  10 -20    6.98    3.33
   2  10 -20   -4.72    5.11
  -2 -10  20    2.92    5.17
  -2 -10  20    4.54   14.51
   3  10 -20  -10.72    5.33
   3  10 -20   -1.33    3.33
  -3 -10  20   12.32   14.86
  -3 -10  20   -9.93    5.47
   4  10 -20    3.93    3.27
   4  10 -20   -0.21    5.20
  -4 -10  20   -3.82   15.72
  -4 -10  20   -0.31    5.77
   5  10 -20   -3.04    5.70
   5  10 -20    2.65    3.50
  -5 -10  20    0.97    5.99
  -5 -10  20    3.17   15.95
   6  10 -20    1.59    5.63
  -6 -10  20   -0.34    6.06
  -6 -10  20   -8.51   16.78
   7  10 -20   -0.24    5.87
   7  10 -20   -6.62    3.83
  -7 -10  20   -4.27    6.35
  -7 -10  20   -0.57   17.81
   8  10 -20    8.49    4.23
   8  10 -20    0.25    6.26
  -8 -10  20   -0.91   17.98
  -8 -10  20    8.25    7.19
   9  10 -20    4.30    3.93
   9  10 -20    0.52    6.59
  -9 -10  20    2.77    7.07
  -9 -10  20   20.33   19.82
  10  10 -20    1.24    4.03
  10  10 -20   -0.28    7.07
 -10 -10  20    4.69   19.90
 -10 -10  20    4.18    7.43
  11  10 -20   -6.69    4.69
  11  10 -20   -2.62    7.49
 -11 -10  20   -1.77    8.58
  11   9 -20    0.24    3.96
  11   9 -20  -11.32    7.30
 -11  -9  20   -6.43    7.23
 -11  -9  20   -2.13   21.16
  11   8 -20    0.28    6.94
  11   8 -20    3.45    4.02
 -11  -8  20   32.77   21.21
 -11  -8  20    0.37    6.67
  11   7 -20   -3.20    3.75
  11   7 -20    0.27    6.88
 -11  -7  20    2.71    6.34
 -11  -7  20   13.26   21.03
  11   6 -20    4.30    8.65
  11   6 -20   17.87    6.00
 -11  -6  20  122.58   22.89
 -11  -6  20   11.32    7.55
  11   5 -20   -3.45    6.41
  11   5 -20   -2.02    4.09
 -11  -5  20    8.00   19.69
 -11  -5  20    2.39    5.86
  11   4 -20    1.60    4.25
  11   4 -20   -4.30    6.16
 -11  -4  20  -15.64   19.82
 -11  -4  20  -12.31    5.73
  11   3 -20   -0.24    4.52
  11   3 -20    0.27    6.14
 -11  -3  20   27.56   18.25
  -2  11 -20   -5.77    4.88
  11   2 -20    4.12    5.88
  11   2 -20    0.25    4.76
 -11  -2  20   12.89   17.42
  -1  11 -20   29.65    6.61
  11   1 -20   11.46    6.36
 -11  -1  20    6.66   17.66
  11   1  20  -11.44   13.53
   0  11 -20   -5.25    5.05
  11   0  20  -18.35   13.76
   0 -11  20    0.33    5.36
   1  11 -20   27.94    7.32
  -1 -11  20   12.46    7.87
   2  11 -20    1.64    5.36
   2  11 -20    4.32    3.60
  -2 -11  20    6.04    5.27
   3  11 -20  -10.68    5.23
   3  11 -20   -2.96    3.44
  -3 -11  20    0.34    5.69
   4  11 -20   -4.16    3.74
   4  11 -20    0.65    5.50
  -4 -11  20    4.62    6.45
  -4 -11  20    0.27   15.97
   5  11 -20   -0.23    5.52
   5  11 -20   -8.26    3.68
  -5 -11  20    0.36    5.92
  -5 -11  20   -4.40   16.71
   6  11 -20    5.78    4.11
   6  11 -20   -1.18    6.07
  -6 -11  20    1.89    7.12
  -6 -11  20    2.57   17.72
   7  11 -20    9.13    6.16
   7  11 -20   -9.12    3.89
  -7 -11  20    1.49   17.92
   8  11 -20   -0.52    6.63
   8  11 -20    0.75    4.12
  -8 -11  20    0.42    7.55
  -8 -11  20   18.05   18.90
   9  11 -20    0.27    6.62
   9  11 -20    1.04    4.27
  -9 -11  20   -3.95    8.12
  10  11 -20   -7.55    4.59
  10  11 -20   -0.29    7.36
 -10 -11  20  -45.50   21.79
 -10 -11  20    7.88    8.92
  11  11 -20   -0.28    4.67
  11  11 -20   -2.12    7.44
 -11 -11  20  -16.00   22.31
 -11 -11  20   -0.50    9.56
  12  11 -20   -0.59    4.96
  12  11 -20   -3.17    8.12
 -12 -11  20   27.14   24.35
 -12 -11  20   -0.53    9.22
  12  10 -20    7.99    4.61
  12  10 -20    1.86    7.89
 -12 -10  20    4.91   22.80
 -12 -10  20    7.03    8.64
  12   8 -20    0.30    7.82
  12   8 -20    0.45    4.07
 -12  -8  20   14.12   22.68
 -12  -8  20    3.94    7.46
  12   7 -20   -0.29    7.07
  12   7 -20   -6.79    4.10
 -12  -7  20   -7.13    6.83
 -12  -7  20   21.92   21.44
  12   6 -20    0.28    6.68
  12   6 -20    4.66    4.03
 -12  -6  20    7.76   21.65
 -12  -6  20  -11.66    6.67
  12   5 -20   -0.28    6.85
  12   5 -20    8.70    4.31
 -12  -5  20  -17.20   20.75
 -12  -5  20  -14.16    6.27
  12   4 -20   -7.67    6.77
  12   4 -20  -15.00    4.44
 -12  -4  20  -39.64   20.92
 -12  -4  20    0.30    5.82
  12   3 -20  -13.16    7.11
  12   3 -20   -1.69    4.91
 -12  -3  20   -6.40   19.46
  12   2 -20    8.33    6.52
  12   2 -20    5.99    4.81
 -12  -2  20  -13.77   18.18
  12   1 -20   -1.66    5.30
  12   1  20  -21.11   14.32
  12   0  20   10.60   15.31
   1  12 -20   -5.95    5.80
  12  -1  20  -15.38   15.89
  12  -1  20    4.87    6.68
   2  12 -20    0.22    5.34
   3  12 -20   -8.01    5.60
   4  12 -20   -0.23    5.78
  -4 -12  20    0.39    6.79
   5  12 -20   -1.68    5.89
  -5 -12  20   -0.41    6.79
   6  12 -20   -0.25    6.36
  -6 -12  20    0.43    7.42
  -6 -12  20    0.90   17.94
   7  12 -20    5.72    6.27
  -7 -12  20    0.31   18.37
   8  12 -20    1.91    6.56
  -8 -12  20   -0.47    7.48
  -8 -12  20    8.50   19.74
   9  12 -20   -0.29    7.53
  -9 -12  20  -48.91   22.07
  10  12 -20   -0.30    7.73
 -10 -12  20    1.55    8.96
 -10 -12  20  -17.97   22.15
  11  12 -20    6.40    8.06
 -11 -12  20   -0.55    9.07
 -11 -12  20    3.02   23.26
  12  12 -20    0.33    7.99
 -12 -12  20  -10.36   24.56
  13  11 -20  -21.20    8.62
  13  11 -20    1.21    5.29
 -13 -11  20    3.27   25.40
 -13 -11  20    1.11    9.83
  13  10 -20    1.11    4.72
  13  10 -20    0.33    8.28
 -13 -10  20   -0.50    9.26
 -13 -10  20  -18.89   25.34
  13   9 -20    2.04    4.20
  13   9 -20    2.86    7.75
 -13  -9  20  -19.10   24.72
 -13  -9  20    1.78    8.41
  13   8 -20   -0.62    9.64
  13   7 -20    0.89    4.00
  13   7 -20   -9.81    7.76
 -13  -7  20  -32.77   23.75
 -13  -7  20   -1.91    7.17
  13   6 -20   -2.73    7.52
  13   6 -20    1.35    4.06
 -13  -6  20   -0.35    6.59
 -13  -6  20   46.54   22.34
  13   5 -20    0.91    4.19
  13   5 -20    0.30    7.04
 -13  -5  20   10.38    6.91
 -13  -5  20    1.56   22.21
  13   4 -20    0.24    4.25
  13   4 -20   -3.32    7.10
 -13  -4  20  -17.96    6.43
 -13  -4  20   41.56   21.34
  13   3 -20    3.19    4.92
  13   3 -20    9.23    7.00
 -13  -3  20    9.20   19.38
  13   2 -20    0.30    6.65
  13   2 -20   -0.51    4.86
 -13  -2  20   11.40   18.23
  13   1 -20   -3.13    5.26
  13   1  20    0.24   15.61
  13   0  20    0.50   16.14
  13  -1  20    0.39    7.38
  13  -1  20    3.26   16.64
  14  10 -20   -3.43    4.95
  14  10 -20    1.36    8.56
 -14 -10  20    0.53    9.47
 -14 -10  20  -31.53   26.80
  14   9 -20   -1.86    4.49
  14   9 -20   -0.33    8.41
 -14  -9  20    5.27    8.71
 -14  -9  20   -3.37   25.64
  14   8 -20    3.81    4.40
  14   8 -20   -5.89    8.34
 -14  -8  20    7.50   25.36
 -14  -8  20    4.75    7.98
  14   7 -20    4.75    4.35
  14   7 -20   17.75    8.48
 -14  -7  20    6.21   24.53
 -14  -7  20    0.40    7.43
  14   6 -20    4.06    4.63
  14   6 -20   35.04    9.10
 -14  -6  20  -19.74    7.36
  14   5 -20    1.85    4.30
  14   5 -20    7.05    7.82
 -14  -5  20  -25.68    7.35
  14   4 -20    0.32    7.39
  14   4 -20    3.12    4.47
 -14  -4  20  -21.48   21.57
 -14  -4  20   -4.63    6.39
  14   3 -20   -2.21    4.50
  14   3 -20   -0.31    6.83
 -14  -3  20   -9.88   19.70
 -14  -3  20    1.59    5.99
  14   2 -20    4.91    4.81
 -14  -2  20  -39.56   19.01
  14   1 -20   -0.56    5.06
  14   1  20   10.34   17.41
 -14   0 -20   16.28   10.32
  14   0  20  -23.09   17.20
 -14   1 -20    4.68   11.04
  14  -1  20   -6.83    8.33
  14  -1  20    6.38   18.60
  15  10 -20    1.81    8.93
  15   9 -20    2.11    8.90
 -15  -9  20    0.50    9.17
 -15  -9  20    7.01   26.82
 -15  -8  20    0.46    7.81
 -15  -7  20    9.39    8.74
  15   1  20  148.16   36.65
 -15   0 -20  -47.43   16.53
 -15   1 -20    0.44   14.67
  16   1  20   -0.32   20.48
 -16   0 -20  -14.43   13.48
  16   0  20   -9.58   20.81
 -16   1 -20   -2.94   13.72
 -16   1 -20   -2.05    3.83
  16  -1  20   13.24   21.13
  16  -1  20    1.58   10.54
  17   1  20   18.02   22.91
 -17   0 -20    3.05    4.14
 -17   0 -20   10.67   15.11
  17   0  20    4.78   22.21
 -17   1 -20   12.79   15.27
 -17   1 -20    1.64    4.68
  17  -1  20   29.78   23.32
  17  -1  20    5.86   11.63
  17  -2  20   13.73   22.68
   0   1 -21   11.79    5.30
   1   1 -21   -1.04    4.55
  -1   1 -21    2.66    4.21
  -1  -1  21  -22.00   12.18
  -1   2 -21    7.03    4.13
  -1   2 -21    7.86    4.89
   2   1 -21    6.92    4.81
  -2  -1  21    9.79   12.00
   1  -2  21  -10.56   11.00
   0   2 -21    1.08    4.02
   0   2 -21   -6.45    4.49
   0  -2  21   -9.49   11.55
   1   2 -21    6.09    4.08
  -2   1 -21    2.54    4.24
   1   2 -21    0.84    4.59
  -1  -2  21   10.03   11.71
   2   2 -21   -0.70    4.08
  -2   2 -21   -2.68    4.70
  -2   2 -21    0.78    3.84
   2   2 -21   -2.57    4.77
  -2  -2  21   -3.96   11.96
   2  -2  21   -8.37   10.49
  -2   3 -21   34.04    8.70
   3   2 -21   39.79    8.71
  -2   3 -21   24.22    7.45
   3   2 -21   24.24    7.76
   2  -3  21   22.41   13.18
  -3  -2  21    4.10   14.73
  -1   3 -21    3.65    3.23
  -1   3 -21    0.97    4.51
   3   1 -21   -3.55    4.80
   1  -3  21    2.78   10.85
  -3  -1  21   -6.51   12.12
   0   3 -21   20.23    6.19
   0   3 -21   20.07    7.24
   0  -3  21   27.17   13.14
   1   3 -21    2.40    3.71
   1   3 -21   -6.10    4.71
  -3   1 -21    1.31    4.09
  -1  -3  21    6.26   12.44
   2   3 -21   33.50    7.64
  -3   2 -21   20.86    7.64
   2   3 -21   35.15    8.57
  -2  -3  21   25.37   15.15
   3  -2  21   17.61   12.48
   3   3 -21   -1.04    3.77
  -3   3 -21   -0.30    2.93
  -3   3 -21   -3.58    4.45
   3   3 -21   -0.41    4.64
   3  -3  21  -10.90   10.30
  -3  -3  21    1.01   13.34
  -3   4 -21   22.36    4.67
  -3   4 -21   17.23    6.19
   4   3 -21   10.31    6.24
   4   3 -21   -0.22    5.07
  -4  -3  21   23.60   14.93
   3  -4  21   23.22   11.71
   4   2 -21    2.88    4.35
  -2   4 -21    3.23    4.26
  -2   4 -21    3.23    2.56
   4   2 -21   -8.88    4.74
   2  -4  21   13.46   11.57
  -4  -2  21    0.27   13.52
   4   1 -21   33.88   10.98
  -1   4 -21   44.91   10.72
   4   1 -21   45.72    9.98
  -1   4 -21   40.34    9.57
   1  -4  21   31.90   15.66
  -4  -1  21   13.70   16.55
   0   4 -21   -0.16    3.01
   0   4 -21    4.23    4.42
   0  -4  21   12.99   11.98
  -4   1 -21   25.16   10.13
   1   4 -21   36.02    9.36
   1   4 -21   49.46   10.63
  -1  -4  21   28.01   16.36
   2   4 -21    8.18    3.55
   2   4 -21   -2.28    4.95
  -4   2 -21    2.38    3.11
  -2  -4  21  -19.55   12.84
   3   4 -21   28.45    6.20
  -4   3 -21   20.94    5.93
  -4   3 -21   22.27    7.32
   3   4 -21   17.90    7.23
  -3  -4  21   19.40   14.79
   4   4 -21   -0.20    4.76
  -3   5 -21   13.29    3.39
  -3   5 -21   10.53    5.31
   3  -5  21    4.45   11.26
   3  -5  21    7.64    3.91
   5   2 -21    4.34    7.19
  -2   5 -21   14.40    5.27
  -2   5 -21   26.58    6.80
  -5  -2  21   15.46   15.14
   2  -5  21   19.41   12.97
   2  -5  21   23.22    5.78
   5   1 -21   -3.63    5.02
  -1   5 -21   10.98    3.14
  -1   5 -21    6.40    4.60
  -5  -1  21    1.73   13.22
   1  -5  21    2.20    3.29
   1  -5  21  -16.07   11.91
   0   5 -21   29.64    6.83
   0   5 -21   24.05    7.99
   0  -5  21   24.10    7.36
   0  -5  21   16.42   14.65
   1   5 -21    4.42    3.08
   1   5 -21    5.53    4.90
  -1  -5  21    9.63    3.99
  -1  -5  21   -0.89   12.80
   2   5 -21   24.53    6.83
   2   5 -21   33.85    7.88
  -2  -5  21    3.96   14.92
  -2  -5  21   27.25    7.22
   3   5 -21   12.16    5.46
  -3  -5  21    4.61   14.81
   5   5 -21   -0.21    4.01
   5   5 -21    0.20    3.79
  -5  -5  21    0.23    4.35
   6   5 -21   -1.29    5.20
  -6  -5  21    4.71   15.84
   6   4 -21   23.41    7.87
   6   3 -21   16.40    5.17
  -3   6 -21   23.22    5.77
  -3   6 -21   12.14    3.73
   3  -6  21    3.36   11.70
   3  -6  21    7.38    4.46
  -2   6 -21   28.97    7.43
  -2   6 -21   49.06    9.20
   2  -6  21   32.14   14.95
   2  -6  21   15.05    7.94
  -1   6 -21    6.68    2.64
  -1   6 -21    2.69    4.67
   1  -6  21  -10.15   12.39
   1  -6  21    1.63    3.42
   0   6 -21   -2.69    2.69
   0   6 -21    3.52    4.76
   0  -6  21   -0.38    3.47
   0  -6  21    5.64   12.97
   1   6 -21    9.06    4.93
   1   6 -21    1.91    3.23
  -1  -6  21    7.76    3.99
  -1  -6  21    7.01   13.99
   2   6 -21   41.99    9.29
  -2  -6  21    3.06   17.26
   4   6 -21   19.07    5.51
  -4  -6  21   12.49    6.27
   5   6 -21    6.96    3.94
   5   6 -21    0.21    5.27
  -5  -6  21   -0.24    4.76
  -5  -6  21   -2.68   16.46
   6   6 -21   14.93    7.07
  -6  -6  21    9.55   17.83
   7   6 -21    0.23    6.11
   7   6 -21    4.59    4.01
  -7  -6  21    3.53   17.31
  -7  -6  21   -0.27    5.43
   7   5 -21   -0.21    4.09
   7   5 -21   -1.78    5.87
  -7  -5  21   -2.36   18.28
  -7  -5  21    3.06    4.81
   7   4 -21    0.23    5.65
   7   4 -21  -13.98    4.30
  -7  -4  21    0.88   16.96
   7   3 -21  -10.52    4.65
   7   3 -21    0.23    5.62
  -3   7 -21    4.66    2.21
  -3   7 -21    7.71    4.97
  -7  -3  21    0.60   15.39
   3  -7  21   -7.72   12.21
   3  -7  21    3.09    3.51
   7   2 -21    2.78    4.66
  -2   7 -21    1.46    5.02
   7   2 -21   18.12    5.69
   2  -7  21    2.41    3.63
   2  -7  21  -10.01   12.67
  -1   7 -21    3.60    2.49
  -1   7 -21   -2.60    4.75
   7   1 -21    4.26    5.06
   1  -7  21   10.51   13.18
   1  -7  21   -2.73    3.65
   0   7 -21   -1.51    5.20
   0   7 -21   10.91    3.05
   0  -7  21    0.22   13.39
   0  -7  21    7.01    4.01
   1   7 -21   -0.19    4.99
   3   7 -21   -1.19    3.11
  -3  -7  21    0.47    4.56
  -4  -7  21  -13.48   18.41
  -4  -7  21   -8.33    5.02
   5   7 -21   -4.70    5.92
   5   7 -21   -4.14    3.80
  -5  -7  21    0.25    5.12
  -5  -7  21  -12.67   18.39
   6   7 -21    0.22    5.93
  -6  -7  21   -1.42   17.34
   7   7 -21    1.82    3.71
   7   7 -21   -5.53    6.25
  -7  -7  21    2.09   17.87
  -7  -7  21    1.13    6.19
   8   7 -21    8.27    6.33
   8   7 -21   15.12    4.32
  -8  -7  21   -0.31   18.92
  -8  -7  21    0.30    6.47
   8   6 -21    0.24    6.01
   8   6 -21    2.81    4.05
  -8  -6  21    2.16   17.80
  -8  -6  21    3.66    5.65
   8   5 -21    4.62    4.04
   8   5 -21    5.18    5.84
  -8  -5  21    0.27    5.24
  -8  -5  21   -9.00   17.82
   8   4 -21    0.22    4.22
   8   4 -21   -0.24    5.76
  -8  -4  21   -4.96   17.58
  -3   8 -21   -1.33    2.46
   8   3 -21    2.16    4.38
  -3   8 -21   -3.87    5.23
   8   3 -21    0.25    5.77
  -8  -3  21    2.18   16.78
   3  -8  21   -2.08    3.88
   8   2 -21   -4.05    5.71
   8   2 -21    2.34    4.76
  -2   8 -21    6.26    2.52
  -2   8 -21    2.81    4.99
   2  -8  21    2.96    3.87
  -8  -2  21   -2.19   15.60
   2  -8  21  -22.26   13.96
  -1   8 -21   -0.19    5.29
   8   1 -21    2.04    5.14
  -8  -1  21  -29.23   15.20
   1  -8  21   -0.22    3.20
   1   8 -21   -0.61    2.72
  -1  -8  21   -1.17    4.37
   2   8 -21    6.39    3.33
   2   8 -21    9.06    5.53
  -2  -8  21   11.46    5.01
  -2  -8  21   -5.33   15.43
   3   8 -21    0.17    3.10
   3   8 -21    0.20    5.08
  -3  -8  21  -10.22    4.72
  -3  -8  21   -0.25   16.20
   4   8 -21   -2.10    5.33
   4   8 -21    0.18    3.20
  -4  -8  21    0.26    4.85
  -4  -8  21    7.08   16.55
   5   8 -21    1.52    5.49
   5   8 -21   -4.41    3.31
  -5  -8  21    0.27    5.15
  -5  -8  21    1.36   16.79
   6   8 -21   -0.23    5.74
  -6  -8  21   -0.28   17.35
   7   8 -21    1.64    6.46
   7   8 -21    4.79    3.99
  -7  -8  21    0.30    6.02
  -7  -8  21   -0.90   18.08
   8   8 -21   -0.21    3.83
   8   8 -21   -7.18    6.45
  -8  -8  21    0.96    6.35
  -8  -8  21   -0.32   18.59
   9   8 -21   12.71    4.57
   9   8 -21    3.41    7.34
  -9  -8  21    1.03    7.05
  -9  -8  21    6.97   20.60
   9   7 -21    0.25    6.54
   9   7 -21    3.92    4.13
  -9  -7  21    1.57    6.15
  -9  -7  21    2.66   19.54
   9   6 -21    8.51    4.31
   9   6 -21    2.76    6.15
  -9  -6  21    0.33   18.96
  -9  -6  21    0.30    5.65
   9   5 -21    8.84    4.69
   9   5 -21    0.25    6.24
  -9  -5  21   -0.65   18.24
  -9  -5  21    0.57    5.48
   9   4 -21    1.27    5.75
   9   4 -21  -10.87    4.39
  -9  -4  21    0.33   18.61
   9   3 -21    0.25    4.93
   9   3 -21    0.78    6.15
  -3   9 -21    8.40    5.03
  -3   9 -21   -0.15    2.05
  -9  -3  21   -0.98   17.36
   9   2 -21    0.26    5.71
   9   2 -21  -13.71    5.01
  -9  -2  21    1.31   15.79
   9   1 -21    0.29    5.35
  -9  -1  21    2.71   15.85
   0   9 -21   61.87   13.90
   1   9 -21   -4.85    5.25
   1   9 -21   -0.67    2.83
  -1  -9  21  -13.71   15.20
  -1  -9  21    0.78    4.48
   2   9 -21   -0.41    5.43
   2   9 -21    0.17    2.97
  -2  -9  21   -4.53    4.77
  -2  -9  21    1.24   15.73
   3   9 -21   15.23    5.67
   3   9 -21    3.34    3.16
  -3  -9  21   -9.21   15.80
  -3  -9  21    3.06    5.21
   4   9 -21    0.91    3.24
   4   9 -21   -0.22    5.49
  -4  -9  21    0.53   16.22
  -4  -9  21    1.74    5.26
   5   9 -21    0.22    5.74
   5   9 -21   10.85    3.63
  -5  -9  21   -6.70    5.93
  -5  -9  21    1.10   16.56
   6   9 -21    2.09    5.94
  -6  -9  21    0.29   16.82
  -6  -9  21    1.28    6.11
   7   9 -21    3.52    3.67
   7   9 -21    0.24    6.17
  -7  -9  21    6.38    6.31
  -7  -9  21    2.12   18.13
   8   9 -21   15.53    4.58
   8   9 -21   13.39    7.44
  -8  -9  21    5.08   20.09
  -8  -9  21   -5.66    7.15
   9   9 -21   -3.59    3.97
   9   9 -21    0.80    6.61
  -9  -9  21    6.03   19.95
  -9  -9  21   -0.37    7.06
  10   9 -21   -0.28    6.89
  10   9 -21    0.23    4.21
 -10  -9  21    4.63   21.35
 -10  -9  21   -0.39    7.02
  10   8 -21    0.27    7.05
  10   8 -21   -0.22    4.00
 -10  -8  21   -9.91   20.98
 -10  -8  21  -19.96    6.86
  10   7 -21    2.02    4.17
  10   7 -21    0.27    7.60
 -10  -7  21   -0.33    6.43
 -10  -7  21   -2.10   20.76
  10   6 -21  -11.26    4.21
  10   6 -21   -5.60    6.58
 -10  -6  21   -0.32    5.94
 -10  -6  21  -49.51   21.27
  10   5 -21    0.26    6.28
  10   5 -21    5.62    4.74
 -10  -5  21    1.18    5.74
 -10  -5  21   -0.35   18.93
  10   4 -21    1.67    4.44
  10   4 -21   -6.45    6.69
 -10  -4  21    5.23   18.93
  10   3 -21    0.27    6.48
  10   3 -21  -10.78    4.58
 -10  -3  21   -0.68   17.88
  -2  10 -21   -1.90    2.79
  10   2 -21   -8.34    5.12
  10   2 -21    0.28    6.35
 -10  -2  21    3.42   17.29
   2 -10  21   -4.86    4.82
  10   1 -21    9.23    6.13
  -1  10 -21   17.77    4.37
  -1  10 -21   10.07    6.04
 -10  -1  21    0.35   16.82
   1 -10  21   19.73   14.95
   1 -10  21   12.30    6.01
   0  10 -21    0.20    5.16
   0  10 -21    1.27    2.87
   0 -10  21  -25.36   14.98
   0 -10  21   -9.32    5.22
   1  10 -21    0.61    5.60
   1  10 -21    7.39    3.75
  -1 -10  21    0.25   15.52
  -1 -10  21   14.10    5.85
   2  10 -21    1.05    5.32
   2  10 -21    7.64    3.44
  -2 -10  21    1.01   15.17
  -2 -10  21   -7.84    5.67
   3  10 -21    1.29    5.32
   3  10 -21   -0.40    3.37
  -3 -10  21    0.93    5.36
  -3 -10  21    3.92   15.56
   4  10 -21    0.62    3.53
   4  10 -21   -2.00    5.47
  -4 -10  21   -0.27   16.29
  -4 -10  21   -0.32    6.04
   5  10 -21   -2.07    5.85
   5  10 -21    0.21    3.67
  -5 -10  21    2.24   16.83
  -5 -10  21    4.61    6.19
   6  10 -21    0.22    3.76
   6  10 -21   -5.52    6.04
  -6 -10  21    1.17   17.91
  -6 -10  21    3.45    6.45
   7  10 -21    8.68    4.13
   7  10 -21    0.25    6.23
  -7 -10  21   -6.11   18.58
   8  10 -21    0.26    6.59
   8  10 -21    1.90    4.22
  -8 -10  21    2.67    7.00
  -8 -10  21  -32.09   19.51
   9  10 -21    2.97    4.46
   9  10 -21    0.28    6.94
  -9 -10  21   26.66   19.81
  -9 -10  21    4.12    7.44
  10  10 -21   -1.04    4.61
  10  10 -21  -22.51    7.43
 -10 -10  21    0.87    7.93
 -10 -10  21  -19.79   21.86
  11  10 -21  -10.29    5.46
  11   9 -21    0.30    7.72
  11   9 -21    1.70    4.20
 -11  -9  21   18.06   22.34
 -11  -9  21    5.47    7.92
  11   8 -21    5.87    7.29
  11   8 -21    4.13    4.20
 -11  -8  21  -29.11   22.56
 -11  -8  21    3.06    6.79
  11   7 -21   -2.84    6.93
  11   7 -21    1.37    4.18
 -11  -7  21   23.13   22.04
 -11  -7  21   -0.35    6.67
  11   6 -21   -0.28    6.81
  11   6 -21   -1.39    4.43
 -11  -6  21    7.78   21.31
 -11  -6  21   -0.33    6.18
  11   5 -21    0.28    7.12
  11   5 -21   -0.24    4.38
 -11  -5  21  -15.32    6.53
 -11  -5  21  -66.15   22.55
  11   4 -21   -3.40    4.66
  11   4 -21   -0.28    6.57
 -11  -4  21  -25.31   20.54
  11   3 -21   -3.77    5.08
  11   3 -21    2.30    6.80
 -11  -3  21    0.36   18.88
  11   2 -21    2.95    5.95
  -2  11 -21   15.10    6.23
  11   2 -21   17.73    7.50
   2 -11  21   31.94   15.45
 -11  -2  21   13.91   18.20
  -1  11 -21    3.00    5.26
  11   1 -21    2.08    5.66
   1 -11  21    1.31    5.49
   1 -11  21   26.08   15.06
   0  11 -21   36.14   10.12
   0 -11  21   27.79   10.68
   0 -11  21   40.71   18.41
   1  11 -21   -0.21    5.16
   1  11 -21   -6.42    3.51
  -1 -11  21   15.25   15.08
  -1 -11  21   -0.34    5.64
   2  11 -21    6.82    3.90
   2  11 -21    1.07    5.72
  -2 -11  21    4.84    6.22
  -2 -11  21    9.95   16.00
   3  11 -21   -6.73    3.45
   3  11 -21   -7.09    5.58
  -3 -11  21   -5.13   15.89
  -3 -11  21    0.70    6.31
   4  11 -21    0.22    3.96
   4  11 -21    0.23    5.80
  -4 -11  21   -0.84   17.00
  -4 -11  21  -16.27    6.59
   5  11 -21    1.86    4.03
   5  11 -21    0.24    5.98
  -5 -11  21   -3.38    6.46
  -5 -11  21    0.29   17.70
   6  11 -21    0.24    4.01
   6  11 -21   -0.25    6.40
  -6 -11  21    1.57    7.06
  -6 -11  21    1.81   17.90
   7  11 -21    0.26    6.33
  -7 -11  21   10.07   18.98
   8  11 -21    2.35    4.42
   8  11 -21    4.09    7.11
  -8 -11  21    0.43    7.59
  -8 -11  21   20.14   20.19
   9  11 -21    0.28    7.15
   9  11 -21    1.90    4.32
  -9 -11  21  -24.66   21.60
  -9 -11  21   -6.38    8.37
  10  11 -21  -22.57    5.14
  10  11 -21   -0.60    8.53
  11  11 -21    0.31    8.07
  11  11 -21   -7.33    4.77
 -11 -11  21  -14.42   23.67
 -11 -11  21    0.51    8.65
  12  11 -21    3.34    5.19
  12  11 -21   -0.33    8.10
 -12 -11  21  -28.81   25.57
 -12 -11  21    3.75    9.69
  12  10 -21   -5.61    5.01
  12  10 -21    4.52    7.86
 -12 -10  21  -36.43   24.22
 -12 -10  21    0.49    8.84
  12   9 -21   -0.31    7.91
  12   9 -21   -8.60    5.06
 -12  -9  21  -42.09   25.40
 -12  -9  21   -0.44    7.88
  12   8 -21  -11.40    8.33
  12   7 -21    1.82    7.47
  12   7 -21   -1.63    4.33
 -12  -7  21   19.23   23.23
 -12  -7  21    0.37    6.86
  12   6 -21   -0.60    7.18
  12   6 -21   -3.34    4.13
 -12  -6  21   -0.34    6.43
 -12  -6  21    3.12   22.23
  12   5 -21    1.22    4.43
  12   5 -21   -0.30    7.00
 -12  -5  21    0.33    6.87
 -12  -5  21  -12.16   21.42
  12   4 -21   -0.30    7.02
  12   4 -21    2.50    4.82
 -12  -4  21    2.50    6.33
 -12  -4  21   16.04   20.05
  12   3 -21   -0.26    4.69
  12   3 -21   -0.30    6.88
 -12  -3  21   -7.12   19.57
  -2  12 -21   10.29    5.63
  12   2 -21   -0.30    6.45
  12   2 -21  -19.40    5.63
 -12  -2  21   -0.75   19.17
  -1  12 -21    5.38    5.69
  12   1 -21    3.24    5.91
   0  12 -21   -5.74    5.84
   1  12 -21   20.34    7.35
   2  12 -21   -0.23    5.52
   3  12 -21    8.53    5.88
  -3 -12  21   -1.13   16.70
  -3 -12  21    0.40    6.45
   4  12 -21    0.24    5.99
  -4 -12  21   -2.92   17.29
  -4 -12  21   -2.04    7.00
   5  12 -21    1.49    6.12
  -5 -12  21   -8.79   17.59
  -5 -12  21    0.42    6.75
   6  12 -21   -0.26    6.29
   6  12 -21    0.26    4.32
  -6 -12  21   -3.92    7.62
  -6 -12  21  -13.22   18.94
   7  12 -21   -5.71    6.74
  -7 -12  21    1.97   19.72
   8  12 -21    0.28    4.95
   8  12 -21   -0.57    7.60
  -8 -12  21  -15.31    9.37
   9  12 -21   -0.30    7.41
   9  12 -21   -6.21    5.00
  -9 -12  21  -22.17    9.17
  -9 -12  21  -34.60   21.96
  10  12 -21   -0.32    7.97
 -10 -12  21  -19.75   23.83
 -10 -12  21   -0.53    9.68
  11  12 -21   -0.33    8.35
 -11 -12  21   -6.81    9.96
 -11 -12  21    2.80   24.52
  13  11 -21   -0.70    9.01
  13  10 -21    2.03    8.36
  13  10 -21   -2.31    4.95
 -13 -10  21   -0.51    9.19
 -13 -10  21    7.75   25.96
  13   9 -21   -2.16    4.71
  13   9 -21    0.33    8.17
 -13  -9  21    3.72    8.51
 -13  -9  21   21.27   25.92
  13   8 -21    0.32    8.31
  13   8 -21   -1.23    4.42
 -13  -8  21   -0.86    7.78
 -13  -8  21    0.84   25.26
  13   7 -21   30.79    8.10
  13   7 -21   16.33   12.54
  13   6 -21    0.32    7.92
  13   6 -21   -1.94    4.57
 -13  -6  21  -74.14   25.07
 -13  -6  21   -5.47    7.53
  13   5 -21   -0.25    4.40
  13   5 -21   -2.88    7.69
 -13  -5  21   -8.63   22.89
 -13  -5  21    0.34    6.41
  13   4 -21  -10.88    7.71
  13   4 -21   -3.05    4.96
 -13  -4  21   -1.59   21.68
 -13  -4  21  -12.86    6.72
  13   3 -21  -15.80    7.04
  13   3 -21    1.31    4.84
 -13  -3  21    0.78   20.23
  13   2 -21    3.26    5.59
 -13  -2  21    7.38   19.23
  13   1 -21  -16.64    6.35
  13   0  21   33.46   19.66
  14  10 -21   -0.72    8.86
 -14 -10  21   28.87   27.80
  14   9 -21    5.25    4.77
  14   9 -21   -0.70    8.89
 -14  -9  21    4.86    9.03
 -14  -9  21  -13.81   27.08
  14   8 -21   -2.77    8.51
  14   8 -21    2.78    4.53
 -14  -8  21   14.08   26.52
 -14  -8  21   11.30    8.79
  14   7 -21   -3.63    4.37
  14   7 -21   -7.52    8.34
 -14  -7  21    0.42    7.91
 -14  -7  21   55.57   26.30
  14   6 -21    0.34    8.00
  14   6 -21    3.42    4.57
 -14  -6  21    0.43   25.63
 -14  -6  21    1.91    7.13
  14   5 -21  -19.05    5.33
 -14  -5  21  -10.20    7.76
  14   4 -21  -16.74    8.82
  14   4 -21  -13.16    5.35
 -14  -4  21   -8.57    7.38
 -14  -4  21  -38.69   24.14
  14   3 -21   11.22    7.77
  14   3 -21   -3.42    4.99
 -14  -3  21   17.66   20.80
 -14  -3  21    1.00    6.95
  14   2 -21   -1.38    5.25
 -14  -2  21  -12.47   19.47
  14   1 -21   -5.38    5.53
  14   0  21  -22.91   18.76
  15   9 -21    0.29    4.24
  15   9 -21   -5.89    9.32
 -15  -9  21  -30.40   28.29
  15   8 -21   -8.82    4.70
  15   8 -21    0.36    8.88
 -15  -8  21    5.11   27.89
 -15  -8  21    5.74    8.46
  15   7 -21   12.63    8.99
 -15  -7  21  -22.95   26.96
 -15  -7  21    0.44    8.22
 -15  -6  21    2.44    8.06
  15   0  21   11.44   18.78
  16   0  21   -3.47   21.13
 -17   0 -21    2.75    4.33
  17   0  21   12.47   22.64
   0   1 -22    1.33    4.59
  -1   1 -22    3.34    4.71
   1   1 -22    7.70    5.00
  -1   2 -22    1.55    4.14
   2   1 -22   -1.41    4.82
  -1   2 -22    0.89    4.95
   1  -2  22    4.09   11.25
  -2  -1  22    5.35   12.63
   0   2 -22   -2.69    5.13
   0   2 -22    0.23    4.24
   0  -2  22   -8.86   12.15
   1   2 -22   -4.52    5.26
  -2   1 -22   -0.25    4.47
   1   2 -22    0.48    4.26
  -1  -2  22   -3.05   12.46
   2   2 -22    7.18    4.92
   2   2 -22   10.26    5.26
  -2   2 -22    8.71    4.23
   2  -2  22    5.42   11.10
  -2  -2  22    2.10   12.77
   3   2 -22   -9.48    5.32
  -2   3 -22    1.75    3.46
   3   2 -22   27.76    4.58
  -2   3 -22    2.05    5.01
   2  -3  22    6.58   11.12
  -3  -2  22   -7.31   13.49
  -1   3 -22   33.61    7.11
   3   1 -22   24.91    6.79
  -1   3 -22    8.95    5.73
  -3  -1  22    6.35   14.03
   1  -3  22    7.75   12.89
   0   3 -22    3.54    3.94
   0   3 -22    3.99    5.24
   0  -3  22   21.56   12.55
   1   3 -22   23.05    7.62
   1   3 -22   28.82    6.80
  -3   1 -22   23.42    7.25
  -1  -3  22    9.11   14.28
   2   3 -22    0.22    5.12
   2   3 -22   -0.67    4.10
  -3   2 -22    2.44    3.58
  -2  -3  22   22.27   13.74
  -3   3 -22    8.20    3.80
   3   3 -22   13.21    5.69
  -3   3 -22    8.37    5.25
   3  -3  22    2.74   10.88
  -3  -3  22   -7.45   14.12
  -3   4 -22    5.26    2.84
  -3   4 -22    3.08    4.71
   3  -4  22    0.61   11.09
  -2   4 -22   23.69    5.93
  -2   4 -22   24.88    7.30
   2  -4  22   14.21   13.20
  -1   4 -22    2.37    4.79
  -1   4 -22    4.44    3.10
  -4  -1  22   -0.30   13.72
   1  -4  22  -10.59   12.59
   0   4 -22   23.39    6.58
   0   4 -22   28.39    7.81
   0  -4  22    9.64   14.73
  -4   1 -22    0.83    3.73
   1   4 -22    3.45    4.65
   1   4 -22    0.19    3.36
  -1  -4  22   -3.14   13.30
   2   4 -22   -0.19    4.34
   2   4 -22   21.48    6.15
  -2  -4  22   28.20   14.45
   4   4 -22    6.09    4.14
   5   4 -22    0.22    6.21
   5   4 -22    7.60    4.54
  -5  -4  22   -1.71   16.43
  -3   5 -22    7.45    2.85
   5   3 -22    2.37    4.43
  -3   5 -22    3.68    5.08
   3  -5  22    5.33    3.42
   3  -5  22   17.04   11.81
   5   2 -22    3.91    4.74
  -2   5 -22   10.72    3.07
  -2   5 -22   -0.19    5.12
   2  -5  22    3.74    3.52
   2  -5  22    6.08   11.74
  -1   5 -22   13.94    5.56
  -1   5 -22    8.83    3.68
   1  -5  22    8.83   13.06
   1  -5  22    1.80    4.26
   0   5 -22    2.15    3.01
   0   5 -22    2.91    4.66
   0  -5  22    1.74    3.86
   0  -5  22    8.57   13.25
   1   5 -22   28.99    5.16
   1   5 -22   11.03    6.58
  -1  -5  22   14.73    5.73
  -1  -5  22    2.66   14.60
   4   5 -22   49.92   11.43
  -4  -5  22   46.33   19.02
   5   5 -22   -0.22    5.38
   5   5 -22   -6.08    4.15
  -5  -5  22   -2.29   16.72
  -5  -5  22    1.97    5.00
   6   5 -22   -6.15    5.98
  -6  -5  22   -6.88   17.25
   6   4 -22   -6.06    5.85
  -6  -4  22   -0.30   17.27
  -3   6 -22    5.88    5.30
  -3   6 -22    7.07    2.90
   6   3 -22   -1.92    5.90
  -6  -3  22   -0.30   15.68
   3  -6  22    5.73    3.85
   3  -6  22   10.24   12.19
  -2   6 -22    8.27    5.26
   6   2 -22   18.19    6.01
  -2   6 -22    6.63    3.36
   2  -6  22   28.18   13.07
  -6  -2  22   14.83   14.55
   2  -6  22    4.64    3.85
  -1   6 -22    7.18    2.99
   6   1 -22    0.30    5.46
  -1   6 -22   -0.19    5.04
   1  -6  22    4.87    3.57
  -6  -1  22  -29.84   13.99
   1  -6  22   16.06   13.43
   0   6 -22    1.57    5.75
   0   6 -22   15.69    4.12
   0  -6  22   14.53    4.77
   0  -6  22   15.20   14.58
   1   6 -22   -0.20    4.93
   3   6 -22    6.65    3.95
  -3  -6  22    2.76    4.60
   4   6 -22  -11.17    5.87
   4   6 -22   -3.78    4.22
  -4  -6  22  -17.88    4.66
  -4  -6  22  -11.81   18.94
   5   6 -22   -2.67    6.03
   5   6 -22   -3.94    3.95
  -5  -6  22   -5.06    5.01
  -5  -6  22  -10.59   18.67
   6   6 -22    0.23    5.74
  -6  -6  22    0.30   17.83
   7   6 -22   -5.78    4.15
   7   6 -22    0.48    5.86
  -7  -6  22   -1.96    5.72
  -7  -6  22   -0.32   18.06
   7   5 -22    0.45    4.32
   7   5 -22    0.24    5.92
  -7  -5  22    1.34    5.31
  -7  -5  22   -1.25   17.37
   7   4 -22   -5.09    4.49
   7   4 -22   -2.19    5.80
  -7  -4  22    3.17   17.51
   7   3 -22   15.78    6.15
   7   3 -22    0.76    4.68
  -3   7 -22  -11.45    5.44
  -3   7 -22   -0.86    2.37
  -7  -3  22    3.45   16.90
   7   2 -22    1.33    5.15
  -2   7 -22    8.20    2.73
  -2   7 -22    4.28    5.61
   7   2 -22   -0.26    6.01
   2  -7  22   -0.97    3.71
  -7  -2  22   -2.84   15.55
   7   1 -22    0.30    5.59
  -1   7 -22   -6.53    5.26
   1  -7  22   11.83    3.71
   1  -7  22  -28.72   14.92
  -7  -1  22   -1.65   15.35
   1   7 -22    2.29    2.92
   2   7 -22    4.19    3.40
   2   7 -22   16.80    5.19
  -2  -7  22    9.27   15.90
  -2  -7  22   -5.85    4.77
   3   7 -22   -3.11    3.73
   3   7 -22    8.70    5.89
  -3  -7  22   -8.91   17.59
  -3  -7  22    1.21    4.68
   4   7 -22   41.65   11.18
   5   7 -22   -2.26    5.69
   5   7 -22    0.20    4.02
  -5  -7  22    0.27    4.90
  -5  -7  22  -10.77   19.75
   6   7 -22   -0.23    6.05
  -6  -7  22    4.78    5.50
  -6  -7  22   -2.73   18.18
   7   7 -22   -0.24    5.95
   7   7 -22    0.22    3.85
  -7  -7  22    1.59   18.60
  -7  -7  22    0.59    6.22
   8   7 -22    0.25    6.35
   8   7 -22    0.90    3.94
  -8  -7  22    0.31    5.78
  -8  -7  22   -2.01   19.97
   8   6 -22    0.25    6.41
   8   6 -22    6.91    4.28
  -8  -6  22    3.64   19.49
  -8  -6  22   -0.29    5.78
   8   5 -22    2.52    6.21
   8   5 -22    0.23    4.43
  -8  -5  22   -2.52    5.16
  -8  -5  22    3.62   17.89
   8   4 -22    6.39    6.20
   8   4 -22    0.47    4.31
  -8  -4  22   -4.67   18.30
   8   3 -22   -3.94    6.23
   8   3 -22   -0.25    5.01
  -3   8 -22    4.11    2.44
  -8  -3  22   -1.64   17.12
  -2   8 -22    5.44    5.37
   8   2 -22    0.27    6.26
   8   2 -22    3.03    4.96
  -8  -2  22   -1.32   16.28
   2  -8  22   28.57   14.47
   8   1 -22   -4.31    5.50
  -8  -1  22    3.09   16.06
   0   8 -22    1.22    2.72
   0  -8  22   -6.08    4.57
   1   8 -22   -2.42    2.99
   1   8 -22   14.49    5.77
  -1  -8  22    4.32   16.17
  -1  -8  22    4.64    4.63
   2   8 -22    1.50    5.26
   2   8 -22   -0.17    3.08
  -2  -8  22    7.25    4.90
  -2  -8  22    4.47   16.54
   3   8 -22   -4.65    3.29
   3   8 -22   -6.55    5.72
  -3  -8  22   -4.46    5.20
  -3  -8  22    5.43   16.68
   4   8 -22    6.93    3.62
   4   8 -22   -2.22    5.75
  -4  -8  22   10.97   18.19
  -4  -8  22    3.03    5.78
   5   8 -22    4.60    5.98
   5   8 -22    2.35    3.59
  -5  -8  22   -5.60   17.52
  -5  -8  22    0.29    5.61
   6   8 -22   -0.24    6.17
   6   8 -22    6.75    3.71
  -6  -8  22   -2.15   18.76
  -6  -8  22    0.91    5.89
   7   8 -22    0.21    3.95
   7   8 -22    1.00    6.63
  -7  -8  22    0.32   19.04
   8   8 -22   39.59    7.46
   8   8 -22    1.04    9.93
  -8  -8  22    4.76   23.53
  -8  -8  22   27.82    9.49
   9   8 -22   -0.82    6.77
   9   8 -22   -3.21    4.02
  -9  -8  22   31.40   21.21
  -9  -8  22   -5.99    7.01
   9   7 -22   17.77    8.06
   9   7 -22    9.27    5.38
  -9  -7  22   15.10    7.51
  -9  -7  22    4.58   21.98
   9   6 -22    9.59    6.85
   9   6 -22    5.24    4.63
  -9  -6  22    0.31    5.90
  -9  -6  22    3.13   20.00
   9   5 -22   -0.27    6.72
   9   5 -22    0.24    4.62
  -9  -5  22    2.37    5.85
  -9  -5  22    1.05   19.21
   9   4 -22    1.23    4.40
   9   4 -22    0.27    6.40
  -9  -4  22    0.35   19.12
   9   3 -22   -0.27    6.44
   9   3 -22    0.26    4.62
  -9  -3  22    1.03   18.06
  -2   9 -22    1.27    2.54
   9   2 -22    4.55    5.49
   9   2 -22   -2.81    6.29
  -9  -2  22    0.69   16.46
  -1   9 -22   33.11    7.59
  -9  -1  22   -0.36   17.12
   0   9 -22    1.05    5.53
   0   9 -22   -5.08    3.00
   0  -9  22   -6.53    4.63
   0  -9  22  -23.79   15.53
   1   9 -22    5.35    5.69
   1   9 -22    0.17    3.10
  -1  -9  22   -3.74    4.64
  -1  -9  22   -3.87   16.13
   2   9 -22   -2.31    3.15
   2   9 -22   10.46    5.73
  -2  -9  22   -4.73    4.94
  -2  -9  22    6.11   15.92
   3   9 -22    2.01    5.66
   3   9 -22    2.59    3.28
  -3  -9  22    0.87    4.90
  -3  -9  22   -0.82   16.65
   4   9 -22   -1.15    6.06
   4   9 -22    5.40    3.45
  -4  -9  22    7.66   16.86
  -4  -9  22    5.48    5.85
   5   9 -22   -3.82    3.54
   5   9 -22   -6.33    6.07
  -5  -9  22    4.79    5.95
  -5  -9  22   -0.30   17.74
   6   9 -22    0.24    6.38
   6   9 -22    7.34    3.82
  -6  -9  22   -0.62   18.91
  -6  -9  22    0.67    6.41
   7   9 -22    0.25    7.43
  -7  -9  22   12.94   20.46
   8   9 -22    2.28    4.20
   8   9 -22   -0.27    6.71
  -8  -9  22   -2.74   20.91
  -8  -9  22   -6.67    6.88
   9   9 -22   16.12    4.86
   9   9 -22    0.28    7.48
  -9  -9  22   12.23   21.75
  -9  -9  22    5.85    7.82
  10   9 -22    0.29    7.33
  10   9 -22    0.74    4.20
 -10  -9  22  -23.36   23.15
 -10  -9  22    0.41    7.28
  10   8 -22    2.01    7.14
  10   8 -22    6.18    4.29
 -10  -8  22   11.37   22.46
 -10  -8  22    3.42    7.20
  10   7 -22    0.28    6.77
  10   7 -22    0.72    4.17
 -10  -7  22   -7.58    6.55
 -10  -7  22   -3.37   22.12
  10   6 -22   -6.16    7.09
  10   6 -22    0.99    4.48
 -10  -6  22   -0.37   21.41
 -10  -6  22    0.33    6.11
  10   5 -22    2.74    4.79
  10   5 -22    0.28    6.84
 -10  -5  22    2.21   20.86
 -10  -5  22    5.57    6.16
  10   4 -22    0.25    4.78
  10   4 -22   -0.28    6.86
 -10  -4  22   -0.37   19.72
  10   3 -22    0.29    6.42
  10   3 -22   -7.01    4.94
 -10  -3  22    0.72   18.55
  10   2 -22    2.28    5.08
  10   2 -22    0.29    6.56
  -2  10 -22    1.95    2.76
  -2  10 -22  -11.49    5.56
   2 -10  22    7.89   15.40
 -10  -2  22   -2.16   17.72
   2 -10  22   -0.29    5.08
  -1  10 -22   -1.27    2.99
  -1  10 -22   -2.33    5.38
  10   1 -22    5.04    5.99
   1 -10  22   -4.70   15.77
   1 -10  22    8.47    5.11
   0  10 -22    3.89    3.65
   0  10 -22    2.58    5.80
   0 -10  22   31.39   15.74
   0 -10  22   14.37    5.78
   1  10 -22    1.97    5.73
   1  10 -22   -2.88    3.30
  -1 -10  22    0.30    5.10
  -1 -10  22   -7.88   16.29
   2  10 -22   -3.80    5.72
   2  10 -22    2.40    3.21
  -2 -10  22    4.87   16.59
  -2 -10  22   -7.17    5.58
   3  10 -22    0.61    3.53
   3  10 -22   -0.23    5.60
  -3 -10  22    7.26   17.26
  -3 -10  22   -5.37    5.87
   4  10 -22    5.20    6.11
   4  10 -22    2.13    3.37
  -4 -10  22   -1.32    6.18
  -4 -10  22   -0.29   17.19
   5  10 -22    2.66    3.88
   5  10 -22    4.10    6.30
  -5 -10  22   -4.13    6.34
  -5 -10  22   -0.30   18.17
   6  10 -22    0.23    4.15
   6  10 -22    0.25    6.32
  -6 -10  22    0.36    6.47
  -6 -10  22   -1.25   18.82
   7  10 -22   -1.05    6.57
  -7 -10  22    0.33   18.96
   8  10 -22    1.76    4.37
   8  10 -22    0.27    6.63
  -8 -10  22  -16.59   20.65
  -8 -10  22    0.40    7.32
   9  10 -22   -1.73    7.04
   9  10 -22   -0.26    4.42
  -9 -10  22   -0.42    7.58
  -9 -10  22  -11.61   21.69
  11  10 -22   -3.15    4.74
  11  10 -22   -6.73    7.97
 -11 -10  22  -10.99   24.44
 -11 -10  22    0.48    8.85
 -11  -9  22   42.79   13.75
  11   8 -22   -0.92    7.63
  11   8 -22    2.69    4.38
 -11  -8  22   -7.99    7.26
 -11  -8  22   17.56   23.52
  11   7 -22    3.19    4.65
  11   7 -22    0.60    7.46
 -11  -7  22    5.44    6.83
 -11  -7  22   18.53   22.65
  11   6 -22    2.72    4.46
  11   6 -22   -0.30    7.22
 -11  -6  22    1.04    6.61
 -11  -6  22   -0.39   22.15
  11   5 -22    0.30    7.14
  11   5 -22    7.68    5.05
 -11  -5  22   33.10   22.50
 -11  -5  22   -0.32    6.24
  11   4 -22   -7.74    4.74
  11   4 -22    0.30    7.26
 -11  -4  22  -29.99   20.69
 -11  -4  22    0.31    5.98
  11   3 -22    3.99    5.38
  11   3 -22    0.30    7.11
 -11  -3  22   21.13   20.38
  11   2 -22   -3.39    7.25
  -2  11 -22  -16.76    5.97
  11   2 -22    0.29    6.12
 -11  -2  22  -39.53   19.97
   2 -11  22  -21.27   15.73
  11   1 -22    3.14    6.53
  -1  11 -22   21.11    6.40
   1 -11  22   12.42    6.65
   1 -11  22    4.04   16.44
   0  11 -22   -8.48    5.82
   0  11 -22  -11.61    3.59
   0 -11  22    4.17   16.14
   0 -11  22   -2.71    6.05
   1  11 -22   -2.00    6.14
   1  11 -22    4.28    3.85
  -1 -11  22    9.13   16.73
  -1 -11  22   23.25    6.83
   2  11 -22   -7.52    6.01
   2  11 -22   -0.22    3.84
  -2 -11  22    3.60   17.25
  -2 -11  22   -5.26    6.47
   3  11 -22  -11.97    6.09
   3  11 -22    2.26    3.86
  -3 -11  22   -2.29   17.98
  -3 -11  22    0.36    6.43
   4  11 -22    0.24    6.02
   4  11 -22    0.23    3.73
  -4 -11  22    3.37    6.95
  -4 -11  22    2.07   17.95
   5  11 -22   -1.50    6.08
   5  11 -22   -4.13    3.89
  -5 -11  22    0.78    7.10
  -5 -11  22  -13.20   18.75
   6  11 -22  -13.13    4.22
   6  11 -22    0.26    6.54
  -6 -11  22    4.07    7.29
  -6 -11  22   -3.20   18.95
   7  11 -22    0.27    7.05
  -7 -11  22   -9.37   20.38
   8  11 -22   -0.28    7.23
   8  11 -22   -3.28    4.50
  -8 -11  22    0.45    8.65
  -8 -11  22    3.86   21.61
   9  11 -22   29.92    7.97
   9  11 -22    0.30   10.63
  -9 -11  22   41.66   12.01
  10  11 -22   -0.30    5.13
  10  11 -22    0.31    7.92
 -10 -11  22   -3.00    9.24
 -10 -11  22   58.81   23.82
  11  11 -22   -0.33    8.17
  11  11 -22    4.93    5.13
 -11 -11  22  -20.70   25.60
 -11 -11  22    8.45    9.59
  12  11 -22   -0.35    8.85
  12  10 -22   -0.59    5.07
  12  10 -22   -0.34    8.65
 -12 -10  22    0.51    9.24
 -12 -10  22   10.42   26.24
  12   9 -22    0.33    8.45
  12   9 -22    2.66    4.72
 -12  -9  22  -14.57   26.08
 -12  -9  22    0.46    7.85
 -12  -8  22  -32.80    8.98
  12   7 -22   -0.32    8.39
  12   7 -22   -1.25    4.94
  12   6 -22    0.51    4.45
  12   6 -22    0.32    8.03
 -12  -6  22   -0.36    6.90
 -12  -6  22   18.34   23.49
  12   5 -22   -1.31    4.90
  12   5 -22    1.92    7.82
 -12  -5  22    0.34    6.79
 -12  -5  22    9.11   22.20
  12   4 -22    0.32    7.67
  12   4 -22   -4.51    5.01
 -12  -4  22  -15.66   22.13
 -12  -4  22    0.33    6.10
  12   3 -22   -1.27    7.11
  12   3 -22   -3.54    5.28
 -12  -3  22  -14.90   20.61
  -2  12 -22   -7.20    5.48
  12   2 -22  -29.36    7.58
  12   2 -22   14.41    8.51
 -12  -2  22  -36.22   23.83
  -1  12 -22    0.22    5.81
  12   1 -22   -3.75    6.44
   1 -12  22   21.30   16.38
   0  12 -22   13.78    7.91
   0 -12  22   40.27   17.59
   1  12 -22   -2.97    6.12
  -1 -12  22   19.96   16.96
   2  12 -22    0.47    6.17
  -2 -12  22    0.40    7.11
  -2 -12  22    3.15   17.24
   3  12 -22   -0.24    6.07
  -3 -12  22    7.78    6.77
  -3 -12  22   -1.48   17.93
   4  12 -22   -3.07    4.35
   4  12 -22  -11.80    6.37
  -4 -12  22   -7.94    7.12
  -4 -12  22   -0.92   18.45
   5  12 -22    1.83    6.62
   5  12 -22   -3.45    4.27
  -5 -12  22   -8.59   19.11
  -5 -12  22  -31.68    7.64
   6  12 -22    1.64    6.69
   6  12 -22   -0.28    4.65
  -6 -12  22   12.92   19.70
  -6 -12  22    0.45    7.99
   7  12 -22   -1.99    7.20
   8  12 -22   -8.03    5.84
  -8 -12  22  -26.89   10.29
   9  12 -22    0.31    5.17
   9  12 -22   -1.56    7.86
  -9 -12  22  -10.48    9.16
  -9 -12  22  -23.69   23.22
  10  12 -22    7.09    5.60
  10  12 -22   -0.33    8.82
 -10 -12  22  -33.38   24.37
 -10 -12  22    0.55    9.57
  13  10 -22   -0.36    8.99
  13  10 -22    0.31    4.52
 -13 -10  22   15.50   27.72
  13   9 -22    2.27    4.93
  13   9 -22    0.35    8.37
 -13  -9  22    1.80   26.76
 -13  -9  22    1.94    8.92
  13   8 -22    0.26    4.66
  13   8 -22    2.06    8.55
 -13  -8  22  -11.12   26.74
 -13  -8  22    0.45    8.54
  13   7 -22  -12.75    4.64
  13   7 -22   -0.34    8.69
 -13  -7  22   -0.41    7.77
 -13  -7  22    7.96   26.02
  13   6 -22   11.56    9.58
  13   6 -22  -17.06    5.74
 -13  -6  22  -21.74    8.88
  13   5 -22    0.34    8.29
  13   5 -22  -11.72    5.49
 -13  -5  22  -18.69    7.17
  13   4 -22    0.67    7.67
  13   4 -22    2.17    5.17
 -13  -4  22   -8.27    7.06
 -13  -4  22  -32.17   22.26
  13   3 -22    7.25    5.58
  13   3 -22   -0.33    7.49
 -13  -3  22    5.72   20.90
  13   2 -22    1.16    5.29
 -13  -2  22    9.43   20.45
  13   1 -22    0.32    6.08
  14   9 -22    3.67    9.18
 -14  -9  22   -1.90   29.00
  14   8 -22   -0.27    4.64
  14   8 -22    1.45    8.66
 -14  -8  22   13.70    8.81
 -14  -8  22  -20.78   27.78
  14   7 -22    2.88    8.70
  14   7 -22    0.26    4.59
 -14  -7  22  -13.55   27.24
 -14  -7  22    4.81    8.67
  14   6 -22    0.26    4.77
  14   6 -22    2.89    8.79
 -14  -6  22   18.06   26.52
 -14  -6  22    0.40    7.47
  14   5 -22   -1.32    4.80
  14   5 -22   -5.01    8.59
 -14  -5  22   25.04   24.65
 -14  -5  22  -20.98    7.41
  14   4 -22    0.35    8.00
  14   4 -22    1.38    5.10
 -14  -4  22  -52.01   23.79
 -14  -4  22    0.36    6.74
  14   3 -22   -6.46    5.66
  14   3 -22   -6.28    8.45
 -14  -3  22  -28.57    7.33
  14   2 -22   -1.18    5.71
  14   1 -22   -9.24    6.61
  15   8 -22    3.07    9.60
 -15  -8  22   30.44   28.57
  15   7 -22   -0.79    4.69
  15   7 -22   -0.38    9.03
 -15  -7  22   43.15   28.87
 -15  -7  22    0.46    8.53
  15   6 -22    1.91    9.06
  15   6 -22    6.27    4.83
 -15  -6  22    0.42    7.86
 -15  -6  22   10.06   27.23
 -15  -5  22    0.79    7.14
 -15  -5  22  -25.75   25.67
 -15  -4  22    1.13    7.06
   0   1 -23    7.07    5.20
   1   1 -23   -0.29    5.07
  -1   1 -23   -2.46    4.73
  -1   2 -23    3.29    4.21
   1  -2  23  -11.04   11.72
   0   2 -23    0.74    4.39
   0   2 -23   -1.93    5.14
   0  -2  23   17.33   12.43
   1   2 -23   -3.06    4.72
  -2   1 -23   -0.78    4.68
   1   2 -23   -3.88    5.37
  -1  -2  23   -1.89   13.28
  -2   2 -23   -2.59    4.42
   2   2 -23   -6.61    5.66
  -2  -2  23    0.28   13.36
  -2   3 -23   18.86    6.14
  -2   3 -23    6.73    4.90
   2  -3  23   24.42   12.34
  -1   3 -23   -1.80    3.61
  -1   3 -23   -0.22    5.15
   1  -3  23  -10.67   12.54
   0   3 -23    1.59    5.58
   0   3 -23   10.93    4.27
   0  -3  23   15.85   13.26
   1   3 -23   -5.96    5.52
  -3   1 -23   -2.39    4.40
   1   3 -23   15.47    4.11
  -1  -3  23   -0.26   13.61
   2   3 -23   -0.23    5.97
  -3   2 -23   15.62    4.61
  -3   3 -23   -4.84    5.02
  -3   3 -23   -3.11    3.40
   3  -3  23  -21.99   11.25
  -3   4 -23    8.11    5.79
  -3   4 -23    9.05    3.78
   4   3 -23    7.53    4.84
   3  -4  23    4.33   12.04
  -2   4 -23    9.00    3.63
   4   2 -23    1.88    5.09
  -2   4 -23    4.02    5.26
   2  -4  23   10.03   12.40
   4   1 -23    8.82    6.19
  -1   4 -23   13.94    4.17
  -1   4 -23    3.84    5.69
   1  -4  23   21.56   13.28
   0   4 -23    6.73    5.42
   0   4 -23    0.75    3.40
   0  -4  23    1.01   13.73
   1   4 -23    7.25    5.39
  -1  -4  23   -9.16   14.42
   3   4 -23    0.22    4.38
   4   4 -23    0.22    4.10
   4   4 -23   -0.23    5.47
  -4  -4  23    4.14   16.06
   5   4 -23   13.37    4.87
   5   4 -23    2.65    6.33
  -5  -4  23    0.62   17.11
   5   3 -23    5.02    4.93
  -3   5 -23    6.80    5.42
  -3   5 -23    9.09    2.89
   5   3 -23   -1.25    5.73
   3  -5  23    4.80    3.30
  -5  -3  23   -1.22   15.77
  -2   5 -23    4.13    2.97
   5   2 -23   -0.28    4.93
   5   2 -23    0.26    5.93
  -2   5 -23   -2.04    5.08
   2  -5  23   -0.90   12.78
  -5  -2  23    0.31   14.98
   2  -5  23    5.22    3.58
  -1   5 -23    0.33    3.15
   5   1 -23    4.05    5.37
  -1   5 -23    4.75    5.17
  -5  -1  23    3.57   14.41
   1  -5  23    7.28    4.00
   1  -5  23   11.91   13.73
   0   5 -23    6.91    5.32
   0  -5  23   -0.20    3.45
   0  -5  23    4.70   14.15
   2   5 -23    2.00    3.70
   3   5 -23    2.51    4.02
   3   5 -23   -2.44    5.27
  -3  -5  23  -15.15   16.18
   4   5 -23    7.40    4.85
   4   5 -23    8.89    6.36
  -4  -5  23   14.02   17.90
   5   5 -23    0.24    5.83
   5   5 -23    6.47    4.45
  -5  -5  23    3.65   17.19
   6   5 -23   -9.97    6.49
  -6  -5  23   -5.09   17.36
   6   4 -23    0.25    5.99
  -6  -4  23   -0.32   17.02
   6   3 -23   -0.26    6.19
  -3   6 -23  -10.02    5.69
  -3   6 -23   -2.26    2.65
  -6  -3  23   -8.88   16.43
   6   2 -23   -1.06    7.55
  -2   6 -23   31.09    7.78
  -6  -2  23   -1.92   16.53
   2  -6  23   89.39   16.19
  -1   6 -23   -5.99    5.85
  -6  -1  23    1.34   15.39
   1  -6  23   16.60    4.04
   1   6 -23    1.10    3.45
  -1  -6  23   -0.22    4.03
   2   6 -23    9.13    6.12
   2   6 -23    8.52    4.28
  -2  -6  23   19.42   17.33
  -2  -6  23    4.63    5.29
   3   6 -23    1.33    5.65
   3   6 -23    0.20    4.00
  -3  -6  23   -6.82   18.63
  -3  -6  23    0.24    4.81
   4   6 -23    1.37    5.55
   4   6 -23   -5.31    4.36
  -4  -6  23   -1.27    5.05
  -4  -6  23   -4.43   19.13
   5   6 -23    3.54    4.39
   5   6 -23   -0.24    5.80
  -5  -6  23    4.30   18.51
  -5  -6  23   -7.46    5.14
   6   6 -23    5.38    5.99
   6   6 -23   -0.23    4.16
  -6  -6  23   -0.28    5.57
  -6  -6  23   -0.64   18.58
   7   6 -23    6.64    4.48
   7   6 -23   -3.06    6.13
  -7  -6  23   -2.64    6.00
  -7  -6  23   -0.33   18.96
   7   5 -23    1.91    4.50
   7   5 -23   -0.25    6.15
  -7  -5  23    4.22    5.44
  -7  -5  23   -8.08   18.41
   7   4 -23    6.12    4.77
   7   4 -23   -5.46    6.15
  -7  -4  23    1.68   18.51
   7   3 -23    0.27    6.35
   7   3 -23    0.80    5.08
  -7  -3  23    0.33   17.00
  -2   7 -23    3.10    5.43
   7   2 -23    0.27    5.88
   7   2 -23   -0.28    5.35
  -7  -2  23   -0.33   15.96
   2  -7  23   30.94   14.68
   7   1 -23    2.85    5.62
  -7  -1  23    0.35   15.69
   0   7 -23   -1.48    3.11
   0  -7  23   -6.19    4.63
   1   7 -23    0.22    5.73
   1   7 -23    2.11    3.26
  -1  -7  23    0.47    4.50
  -1  -7  23    2.15   17.02
   2   7 -23    8.50    5.61
   2   7 -23   -2.60    3.31
  -2  -7  23    1.22    4.68
  -2  -7  23    6.96   17.26
   3   7 -23  -14.16    5.73
   3   7 -23    3.91    3.63
  -3  -7  23    1.28    4.85
  -3  -7  23   -4.90   17.90
   4   7 -23    3.28    6.88
   4   7 -23  -17.39    5.95
   5   7 -23   -0.24    6.13
   5   7 -23   -4.27    4.52
  -5  -7  23    0.63   20.77
  -5  -7  23   -1.13    5.46
   6   7 -23   -4.67    4.20
   6   7 -23    5.68    6.28
  -6  -7  23    0.30    5.60
  -6  -7  23   -0.33   18.95
   7   7 -23    1.03    6.36
  -7  -7  23    2.72   20.07
   8   7 -23   20.88    5.42
   8   7 -23    0.27    7.77
  -8  -7  23    1.62    7.00
  -8  -7  23    2.85   22.85
   8   6 -23    0.27    6.43
   8   6 -23    5.88    4.57
  -8  -6  23    2.50   20.61
  -8  -6  23    0.31    5.55
   8   5 -23    0.50    4.82
   8   5 -23    1.34    6.57
  -8  -5  23   -9.95    5.65
  -8  -5  23    0.35   19.03
   8   4 -23    0.27    6.55
   8   4 -23    5.60    4.84
  -8  -4  23    2.12   19.14
   8   3 -23    0.28    6.58
   8   3 -23    0.27    5.15
  -8  -3  23   -0.69   17.53
   8   2 -23   -4.95    5.56
   8   2 -23    0.29    6.49
  -8  -2  23   -2.78   16.50
  -1   8 -23   -1.97    2.73
   8   1 -23    0.65    5.91
   1  -8  23   -0.93    4.38
   0   8 -23    0.88    5.56
   0   8 -23   -2.42    2.86
   0  -8  23    3.66    4.56
   0  -8  23   -0.53   15.88
   1   8 -23   -4.92    5.81
   1   8 -23   -4.62    3.19
  -1  -8  23    8.01    4.87
  -1  -8  23   -2.75   16.41
   2   8 -23    2.35    3.37
   2   8 -23    0.23    5.58
  -2  -8  23    4.84   17.44
  -2  -8  23    6.58    4.89
   3   8 -23    5.71    3.88
   3   8 -23    6.96    6.14
  -3  -8  23    5.80    5.64
  -3  -8  23    2.06   17.89
   4   8 -23   -0.71    6.20
   4   8 -23    1.60    3.76
  -4  -8  23   -7.59   18.48
  -4  -8  23   -2.32    5.73
   5   8 -23    3.68    6.36
   5   8 -23    0.42    3.86
  -5  -8  23   -0.32   19.26
  -5  -8  23    5.46    5.79
   6   8 -23    0.25    6.32
   6   8 -23    0.65    4.16
  -6  -8  23    8.28    6.17
  -6  -8  23    1.32   19.70
   7   8 -23    0.26    7.57
  -7  -8  23    2.76   22.73
   8   8 -23    3.59    7.08
   8   8 -23   -8.24    4.21
  -8  -8  23   -0.35    6.42
  -8  -8  23    5.78   21.20
   9   8 -23   -2.44    4.41
   9   8 -23    0.29    7.10
  -9  -8  23    0.37    6.53
  -9  -8  23    2.68   22.21
   9   7 -23    7.16    4.72
   9   7 -23   -0.85    7.29
  -9  -7  23    7.91    6.96
  -9  -7  23    0.75   21.93
   9   6 -23   -3.36    6.99
   9   6 -23   -6.83    5.00
  -9  -6  23  -16.80    6.65
  -9  -6  23   -0.37   22.62
   9   5 -23    6.16    4.92
   9   5 -23   -0.85    6.73
  -9  -5  23    5.19   21.24
  -9  -5  23    9.15    6.39
   9   4 -23    2.60    5.11
   9   4 -23    0.29    6.82
  -9  -4  23   -0.37   19.26
   9   3 -23   -8.05    5.05
   9   3 -23   -5.54    6.75
  -9  -3  23    9.07   18.74
   9   2 -23  -12.03    5.95
  -2   9 -23    6.07    2.89
   9   2 -23   -2.38    6.58
  -2   9 -23   11.36    5.71
   2  -9  23   14.06   15.97
   2  -9  23    7.44    4.81
  -9  -2  23   -4.71   17.79
  -1   9 -23   -8.40    6.01
   9   1 -23   -4.54    5.74
  -1   9 -23   -2.88    2.94
   1  -9  23   -1.82    4.54
   1  -9  23   -6.81   16.38
   0   9 -23    0.90    5.72
   0   9 -23    6.31    3.28
   0  -9  23   -4.53    4.61
   0  -9  23   13.81   16.77
   1   9 -23    0.23    5.64
   1   9 -23    3.75    3.36
  -1  -9  23   11.98    5.23
  -1  -9  23  -21.24   17.70
   2   9 -23    0.37    3.27
   2   9 -23    2.08    5.80
  -2  -9  23   -4.03   18.16
  -2  -9  23    3.79    5.24
   3   9 -23   -2.15    3.56
   3   9 -23   -9.91    5.93
  -3  -9  23   -9.20   18.53
  -3  -9  23   -2.75    5.83
   4   9 -23    6.46    3.62
   4   9 -23   -3.63    6.00
  -4  -9  23  -13.42    6.24
  -4  -9  23   -0.31   18.60
   5   9 -23    0.21    3.84
   5   9 -23    5.99    6.58
  -5  -9  23   -0.96   19.87
  -5  -9  23    2.62    6.22
   6   9 -23    0.26    6.86
   6   9 -23  -17.59    4.26
  -6  -9  23   -0.34    6.84
  -6  -9  23   -2.67   21.12
   7   9 -23    0.27    6.61
  -7  -9  23    4.87   20.52
   8   9 -23    1.41    7.24
   8   9 -23    5.25    4.26
  -8  -9  23    0.76    6.99
  -8  -9  23   -3.28   21.56
   9   9 -23    0.29    7.48
   9   9 -23  -10.55    4.66
  -9  -9  23  -19.19    7.85
  -9  -9  23   -9.67   22.85
  10   9 -23   -9.94    8.94
  10   8 -23   -0.30    7.35
  10   8 -23    5.05    4.70
 -10  -8  23   -2.33    7.95
 -10  -8  23   -2.41   23.48
  10   7 -23   -0.30    7.21
  10   7 -23   -5.35    4.65
 -10  -7  23  -18.38    7.16
 -10  -7  23   13.48   23.12
  10   6 -23    0.30    7.02
  10   6 -23   -4.45    4.54
 -10  -6  23    0.68    6.22
 -10  -6  23   11.02   21.94
  10   5 -23    5.55    4.94
  10   5 -23    4.49    7.13
 -10  -5  23   12.66   21.80
 -10  -5  23   -0.32    5.69
  10   4 -23   13.00    7.09
  10   4 -23    0.27    4.97
 -10  -4  23    0.39   20.97
  10   3 -23  -14.42    7.14
  10   3 -23   -5.22    5.38
 -10  -3  23   10.24   19.81
  -2  10 -23   -2.70    3.09
  10   2 -23   -5.60    6.98
  10   2 -23    3.61    5.52
  -2  10 -23  -13.06    5.73
   2 -10  23    4.67    5.08
   2 -10  23    0.51   16.44
 -10  -2  23   -9.11   18.80
  -1  10 -23    8.43    3.45
  -1  10 -23    0.22    5.75
  10   1 -23    6.66    6.07
   1 -10  23    0.30    5.35
   1 -10  23    3.18   16.74
   0  10 -23   -1.14    6.00
   0  10 -23   10.01    3.60
   0 -10  23    7.66   16.84
   0 -10  23    2.42    5.58
   1  10 -23    2.31    5.86
   1  10 -23   -3.41    3.33
  -1 -10  23  -17.18   17.41
  -1 -10  23    0.31    5.66
   2  10 -23   -4.95    5.72
   2  10 -23    0.21    3.56
  -2 -10  23    9.81    6.07
  -2 -10  23   -6.96   17.89
   3  10 -23  -13.02    6.35
   3  10 -23    0.43    3.83
  -3 -10  23  -10.47   19.31
  -3 -10  23    0.33    5.63
   4  10 -23    0.22    4.04
   4  10 -23    0.25    6.22
  -4 -10  23    5.85    6.15
  -4 -10  23   12.67   19.30
   5  10 -23   12.82    4.35
   5  10 -23    0.26    6.97
  -5 -10  23    0.32   19.57
  -5 -10  23    0.72    6.58
   6  10 -23    6.32    6.59
   6  10 -23    3.40    4.35
  -6 -10  23    0.34   19.68
  -6 -10  23    0.38    7.15
   7  10 -23    8.25    7.17
  -7 -10  23  -28.47   21.40
   8  10 -23    0.29    7.31
   8  10 -23    5.28    4.76
  -8 -10  23    0.42    7.38
  -8 -10  23   -8.10   21.93
   9  10 -23  -10.18    5.49
   9  10 -23    0.30    7.85
  10  10 -23    2.29    5.08
  10  10 -23   -0.32    7.79
 -10 -10  23  -31.60   24.33
 -10 -10  23    0.46    8.52
  11  10 -23   -0.33    8.29
  11  10 -23   -0.30    5.04
 -11 -10  23    0.49    8.20
 -11 -10  23   20.12   26.38
  11   9 -23   -4.61    4.92
  11   9 -23    3.90    7.86
 -11  -9  23    3.16    8.29
 -11  -9  23  -25.03   25.35
  11   7 -23    0.63    7.35
  11   7 -23    1.31    4.68
 -11  -7  23   21.59   24.48
 -11  -7  23    0.38    6.74
  11   6 -23    5.52    5.02
  11   6 -23   -6.63    7.74
 -11  -6  23    0.72    6.70
 -11  -6  23    3.35   22.88
  11   5 -23   -6.26    5.31
  11   5 -23    0.32    7.50
 -11  -5  23   -2.50   22.83
 -11  -5  23   -3.71    6.51
  11   4 -23   -8.76    5.31
  11   4 -23    0.32    7.70
 -11  -4  23   -0.33    6.45
 -11  -4  23   -0.40   22.48
  11   3 -23   -0.32    7.32
  11   3 -23   12.42    5.71
 -11  -3  23  -17.39   20.21
  11   2 -23  -22.45    6.40
  -2  11 -23    2.46    5.83
  11   2 -23   -3.59    7.24
 -11  -2  23   13.52   19.78
  -1  11 -23  -15.03    6.11
  -1  11 -23    7.43    3.57
   1 -11  23  -28.79   17.24
   1 -11  23    0.34    6.00
   0  11 -23    4.06    3.63
   0  11 -23   -0.23    6.03
   0 -11  23    0.70    6.04
   0 -11  23   28.04   17.36
   1  11 -23   -9.69    6.05
   1  11 -23    0.22    3.53
  -1 -11  23  -14.03   17.91
  -1 -11  23    0.35    6.06
   2  11 -23    1.21    6.14
   2  11 -23   -1.14    3.80
  -2 -11  23   -0.36    6.29
  -2 -11  23  -12.68   18.60
   3  11 -23   -5.19    3.96
   3  11 -23   13.68    6.44
  -3 -11  23    0.30   18.40
  -3 -11  23    0.37    6.55
   4  11 -23    1.03    6.39
   4  11 -23   -3.14    4.21
  -4 -11  23   -4.28    6.92
  -4 -11  23   -6.30   19.62
   5  11 -23    0.27    6.87
   5  11 -23    1.76    4.23
  -5 -11  23   42.52   20.48
  -5 -11  23    0.40    7.15
   6  11 -23    5.24    4.54
   6  11 -23   -5.47    6.50
  -6 -11  23    2.09    7.84
  -6 -11  23    0.34   19.85
   7  11 -23    2.28    7.37
  -7 -11  23    3.20   21.75
   9  11 -23   -8.88    5.10
   9  11 -23   -0.31    7.66
  -9 -11  23    0.49    8.35
  -9 -11  23    2.77   24.61
  10  11 -23   -4.62    5.15
  10  11 -23   -0.33    8.36
 -10 -11  23   29.61   25.15
 -10 -11  23   -0.52    9.75
  11  11 -23   -3.12    8.43
 -11 -11  23   23.08   26.90
  12  10 -23    0.36    8.92
 -12 -10  23   -0.53    7.42
 -12 -10  23   -8.28   27.65
  12   9 -23    0.35    8.63
  12   9 -23    6.46    5.06
 -12  -9  23    1.81   27.35
 -12  -9  23  -37.99    9.25
  12   8 -23    0.34    8.08
  12   8 -23    2.95    4.92
 -12  -8  23    0.44    8.20
 -12  -8  23   -7.17   26.09
 -12  -7  23  -20.72    8.79
  12   6 -23  -19.91    9.49
  12   6 -23  -24.90    6.54
 -12  -6  23  -29.05    9.28
  12   5 -23   -0.28    5.33
  12   5 -23    0.34    7.86
 -12  -5  23    0.36    6.48
 -12  -5  23    8.27   24.30
  12   4 -23   -0.28    5.15
  12   4 -23    0.34    8.00
 -12  -4  23    1.27   22.35
 -12  -4  23    0.34    6.52
  12   3 -23    0.29    5.61
  12   3 -23    0.34    7.47
 -12  -3  23   23.54   21.17
  12   2 -23  -14.97    7.06
 -12  -2  23   29.89   26.66
  -1  12 -23   10.81    6.58
   1 -12  23   -2.19   17.66
   0  12 -23    8.00    6.99
   0 -12  23   22.09   17.73
   1  12 -23    8.69    7.07
  -1 -12  23    9.94    7.71
  -1 -12  23   38.58   18.18
   2  12 -23   -6.21    6.23
  -2 -12  23   27.79   18.59
  -2 -12  23    0.40    6.82
   3  12 -23    0.26    6.32
   3  12 -23    0.51    4.34
  -3 -12  23   -8.12   18.95
  -3 -12  23   -0.42    7.31
   4  12 -23    1.33    4.51
   4  12 -23    2.13    6.66
  -4 -12  23  -10.03   19.50
  -4 -12  23    2.60    7.62
   5  12 -23  -12.47    4.68
   5  12 -23    1.92    6.79
  -5 -12  23   -1.35   20.54
  -5 -12  23   -6.76    7.63
   6  12 -23   -7.78    5.69
   6  12 -23    0.29    8.07
  -6 -12  23  -30.61   10.25
   7  12 -23   -0.30    8.21
  -7 -12  23  -17.75   10.20
   8  12 -23    0.62    5.23
   8  12 -23    0.31    7.85
  -8 -12  23   -2.31   23.98
  -8 -12  23    0.52    8.91
   9  12 -23   -5.57    8.85
   9  12 -23   -6.18    5.43
  -9 -12  23    0.55    9.64
  -9 -12  23    9.73   24.46
  13   9 -23   -1.09    9.10
  13   9 -23   -4.22    5.36
 -13  -9  23   -0.51    8.75
 -13  -9  23   27.40   29.59
  13   8 -23   -0.27    4.61
 -13  -8  23   16.23   28.50
 -13  -8  23   -5.07    8.12
  13   7 -23   -6.80    4.97
  13   7 -23    0.36    8.52
 -13  -7  23    4.27    8.52
 -13  -7  23  -35.42   27.16
  13   6 -23   -1.95    5.06
  13   6 -23   -2.52    8.60
 -13  -6  23  -15.92   26.74
 -13  -6  23    4.79    8.21
  13   5 -23  -11.83    9.29
  13   5 -23    0.28    5.74
 -13  -5  23   -7.12    7.71
  13   3 -23    2.12    8.29
  13   3 -23   -0.30    6.09
 -13  -3  23  -10.31   21.83
  13   2 -23    3.38    5.92
   3  13 -23   -4.81    6.88
  -3 -13  23  -25.68   19.95
   5  13 -23    2.31    7.32
   6  13 -23   -0.30    7.46
  -6 -13  23  -16.11   22.43
  -6 -13  23    1.55    8.98
   7  13 -23    0.32    7.69
  -7 -13  23    0.54    8.91
  -7 -13  23    1.15   24.11
   8  13 -23   -5.31    8.45
  -8 -13  23   -4.83   24.80
  14   8 -23    3.83    9.49
  14   8 -23    2.28    5.07
 -14  -8  23   23.96   29.41
 -14  -8  23   -0.49    8.16
  14   7 -23   10.80    5.31
  14   7 -23   -1.15    9.19
 -14  -7  23    0.45    8.92
 -14  -7  23   18.25   28.03
  14   6 -23    0.28    4.99
  14   6 -23   -0.38    9.17
 -14  -6  23  -22.47   27.83
 -14  -6  23   -0.42    7.63
  14   5 -23   -5.22    5.51
  14   5 -23   -9.06    8.99
 -14  -5  23   30.50   26.09
 -14  -5  23    0.40    7.83
  14   4 -23    8.56    8.73
  14   4 -23   -2.06    5.57
 -14  -4  23   19.54   22.83
 -14  -4  23   -0.37    6.79
  14   3 -23   -2.69    5.54
  14   3 -23    3.33    8.38
 -14  -3  23  -10.27   21.56
 -14  -3  23   -0.36    6.84
  14   2 -23   -3.13    5.81
  15   7 -23    6.08    9.93
  15   7 -23    0.28    5.10
 -15  -7  23   43.63   30.81
  15   6 -23    2.01    9.37
  15   6 -23    4.24    5.34
 -15  -6  23  -38.16   28.02
 -15  -6  23   -0.43    8.33
  15   5 -23    8.73    9.36
  15   5 -23    5.45    5.54
 -15  -5  23   16.94   26.30
 -15  -5  23    4.95    7.95
  15   4 -23   -1.94    9.01
  15   4 -23    5.34    5.42
 -15  -4  23  -15.45   24.31
 -15  -4  23   -0.39    7.63
 -15  -3  23    6.39    7.60
  -1   1 -24   11.26    5.85
  -1   2 -24   -2.67    4.74
   1  -2  24   12.03   12.25
   0   2 -24   21.41    5.89
   0  -2  24   -8.67   13.33
   1   2 -24   -0.26    5.50
  -2   1 -24   -1.61    4.87
  -2   2 -24    5.50    4.49
  -2   3 -24    4.05    5.80
  -2   3 -24   -2.00    3.95
   3   2 -24    5.27    5.36
   2  -3  24    1.23   12.46
  -3  -2  24   20.97   13.48
  -1   3 -24    1.20    5.43
  -1   3 -24   -0.21    4.13
   1  -3  24   20.00   13.09
   0   3 -24   -0.48    5.40
   0  -3  24  -26.59   13.67
  -3   1 -24    1.26    4.92
   2   3 -24    1.45    4.74
  -3   2 -24    0.21    4.20
  -3   3 -24    7.75    3.64
   3   3 -24    5.33    6.13
   3   3 -24    2.25    4.88
  -3  -3  24   -0.30   15.18
   3  -3  24   -1.20   12.03
  -3   4 -24    4.45    3.83
  -3   4 -24   35.95    6.85
   4   3 -24    1.04    6.63
   4   3 -24    6.44    5.52
  -4  -3  24   11.16   16.76
  -2   4 -24    6.60    5.72
   4   2 -24   -6.19    6.02
  -2   4 -24   -1.05    3.39
   4   2 -24   -0.28    5.17
  -4  -2  24   -5.97   15.35
   2  -4  24  -24.36   13.75
  -1   4 -24   -2.78    5.64
  -1   4 -24   15.66    4.20
   1  -4  24   -3.04   13.73
   0   4 -24    4.67    5.63
   2   4 -24   -0.24    4.89
   2   4 -24   -2.07    4.57
  -2  -4  24   45.52   14.93
   3   4 -24    7.41    4.97
   3   4 -24    6.13    6.30
  -3  -4  24    1.21   17.45
   4   4 -24  -13.06    6.22
   4   4 -24    0.24    4.34
  -4  -4  24    1.26   17.42
   5   4 -24   -0.26    5.79
   5   4 -24   -0.24    4.69
  -5  -4  24    5.89   18.04
   5   3 -24    0.27    5.16
   5   3 -24    1.33    6.27
  -5  -3  24    0.32   16.50
   5   2 -24    0.28    5.97
  -2   5 -24   -3.12    3.40
   5   2 -24   -6.98    5.26
  -2   5 -24   -1.76    5.79
   2  -5  24   -2.63    3.81
  -5  -2  24    0.65   16.10
  -1   5 -24   68.24   16.23
   1   5 -24    0.80    5.84
   2   5 -24   -2.14    4.14
   2   5 -24    0.47    5.70
  -2  -5  24    6.96   16.67
   3   5 -24    0.22    4.35
   3   5 -24    3.34    5.73
  -3  -5  24   -3.02   17.03
   4   5 -24    0.49    6.01
   4   5 -24   -0.23    4.33
  -4  -5  24    5.66   17.79
   5   5 -24    0.48    4.56
   5   5 -24   -0.25    6.12
  -5  -5  24   -0.98   18.72
   6   5 -24   -0.25    4.58
   6   5 -24   -2.09    6.23
  -6  -5  24    1.02   18.64
   6   4 -24   -2.92    6.38
  -6  -4  24   12.62   18.18
   6   3 -24   -0.27    6.43
  -6  -3  24    6.37   17.28
  -2   6 -24   -1.52    5.64
   6   2 -24    0.28    6.38
  -6  -2  24   -3.71   16.21
   2  -6  24   -1.47   14.36
   0   6 -24    1.10    3.45
   0  -6  24    1.77    4.13
   1   6 -24    3.91    3.60
   1   6 -24   -4.14    5.73
  -1  -6  24    0.70    4.30
  -1  -6  24   -0.28   16.31
   2   6 -24   -0.21    3.87
   2   6 -24    0.23    5.48
  -2  -6  24   15.14   17.68
  -2  -6  24    0.98    4.65
   3   6 -24    4.78    4.40
   3   6 -24    0.96    5.82
  -3  -6  24   -0.26    4.45
  -3  -6  24   -7.87   18.34
   4   6 -24   -0.24    5.92
   4   6 -24   -2.27    4.44
  -4  -6  24   -2.20   18.60
  -4  -6  24    0.27    5.00
   5   6 -24    1.65    4.48
   5   6 -24   -0.25    6.20
  -5  -6  24    6.45    5.45
  -5  -6  24    6.97   20.06
   6   6 -24    0.77    6.42
   6   6 -24   21.98    5.27
  -6  -6  24    6.43    6.55
  -6  -6  24    1.04   19.67
   7   6 -24   -0.27    6.52
  -7  -6  24    0.36   20.39
   7   5 -24   -4.56    4.50
   7   5 -24   -2.72    6.23
  -7  -5  24   -0.36   19.77
   7   4 -24    0.26    4.75
   7   4 -24   -0.83    6.72
  -7  -4  24    8.16   19.02
   7   3 -24    7.92    5.27
   7   3 -24   -1.99    6.52
  -7  -3  24    0.35   17.65
   7   2 -24   11.02    5.96
   7   2 -24    0.29    6.31
  -7  -2  24    0.35   17.04
  -1   7 -24   -2.44    2.81
   1  -7  24    3.94    4.25
   0   7 -24    1.75    3.01
   0   7 -24   -9.87    6.03
   0  -7  24    3.73    4.48
   0  -7  24   21.05   16.69
   1   7 -24   -6.52    5.91
   1   7 -24   -5.62    3.31
  -1  -7  24    2.68    4.57
  -1  -7  24   15.29   17.18
   2   7 -24    3.17    3.49
   2   7 -24    0.71    5.84
  -2  -7  24    5.99   18.06
  -2  -7  24    0.52    4.77
   3   7 -24    1.21    6.18
   3   7 -24   -1.67    3.92
  -3  -7  24    5.97    5.19
  -3  -7  24  -12.41   18.69
   4   7 -24   -0.25    6.32
   4   7 -24    0.22    4.25
  -4  -7  24    2.85    5.29
  -4  -7  24   -1.61   19.41
   5   7 -24    0.23    4.44
   5   7 -24   -0.76    6.12
  -5  -7  24    0.30    5.51
  -5  -7  24   -4.00   20.14
   6   7 -24   -0.24    4.39
   6   7 -24   -0.26    6.54
  -6  -7  24   -6.59   20.18
  -6  -7  24    0.31    5.80
   7   7 -24   23.62    9.82
  -7  -7  24   24.10   25.34
   8   7 -24    0.25    4.73
   8   7 -24    0.28    6.91
  -8  -7  24    0.34    6.45
  -8  -7  24    0.38   22.50
   8   6 -24    0.26    4.78
   8   6 -24    0.28    7.21
  -8  -6  24    0.32    6.09
  -8  -6  24   16.25   21.95
   8   5 -24    0.26    4.98
   8   5 -24    0.29    6.58
  -8  -5  24    0.31    5.76
  -8  -5  24   -3.03   21.35
   8   4 -24    1.16    6.82
   8   4 -24    1.34    5.03
  -8  -4  24    0.37   19.42
   8   3 -24    1.13    5.27
   8   3 -24    0.30    6.77
  -8  -3  24    0.73   18.68
   8   2 -24   -0.30    7.68
  -2   8 -24   65.85    7.29
   8   2 -24   -0.31    7.11
   2  -8  24    7.80    5.98
  -8  -2  24    4.76   18.37
  -1   8 -24   -4.17    2.92
  -1   8 -24   11.10    6.03
   1  -8  24    3.15    4.60
   1  -8  24    7.70   16.64
   0   8 -24    5.48    3.15
   0   8 -24    1.64    6.00
   0  -8  24    0.57   17.25
   0  -8  24   -6.72    4.72
   1   8 -24    0.91    3.23
   1   8 -24    5.92    5.97
  -1  -8  24    4.76   17.99
  -1  -8  24    0.26    4.83
   2   8 -24    0.24    6.12
   2   8 -24    2.70    3.90
  -2  -8  24    2.48    5.45
  -2  -8  24    3.07   19.13
   3   8 -24  -17.84    3.98
   3   8 -24    0.25    6.21
  -3  -8  24    7.53    5.81
  -3  -8  24    2.86   18.85
   4   8 -24    0.25    6.12
   4   8 -24    2.77    3.95
  -4  -8  24    6.89   20.13
  -4  -8  24    2.43    5.84
   5   8 -24    6.74    4.35
   5   8 -24   -0.26    6.06
  -5  -8  24    1.02   20.93
  -5  -8  24   -0.32    5.94
   6   8 -24   17.19    7.25
   6   8 -24    1.41    4.66
  -6  -8  24    0.35   22.35
  -6  -8  24    0.67    6.26
   7   8 -24    0.28    6.51
  -7  -8  24    0.37   21.01
   8   8 -24   -3.25    4.50
   8   8 -24    0.29    7.21
  -8  -8  24    1.16   22.34
  -8  -8  24   -6.25    6.97
   9   8 -24   -0.30    7.30
   9   8 -24   -2.60    4.78
  -9  -8  24    0.39    7.09
  -9  -8  24    6.89   23.45
   9   7 -24    3.70    4.87
   9   7 -24    0.30    7.31
  -9  -7  24   13.98   23.04
  -9  -7  24    0.71    6.85
   9   6 -24   -6.99    5.06
   9   6 -24    0.30    7.40
  -9  -6  24   -0.34    6.60
  -9  -6  24   15.63   22.39
   9   5 -24   -8.69    5.29
   9   5 -24    0.30    6.87
  -9  -5  24   -0.32    5.65
  -9  -5  24   -1.59   22.16
   9   4 -24   -1.52    7.54
   9   4 -24    4.95    5.55
  -9  -4  24    1.94   21.25
   9   3 -24    5.83    7.01
   9   3 -24   -1.47    5.65
  -9  -3  24   -1.90   19.17
  -2   9 -24    3.19    2.72
  -2   9 -24    1.63    6.25
   9   2 -24   -3.15    6.78
   9   2 -24    1.23    5.77
  -9  -2  24    2.30   18.01
   2  -9  24   -2.83    4.54
  -1   9 -24   -9.42    6.12
  -1   9 -24   -4.23    3.27
   1  -9  24   -5.65   17.46
   1  -9  24   -5.93    4.97
   0   9 -24  -10.18    3.59
   0   9 -24   -1.67    6.27
   0  -9  24  -26.65   18.34
   0  -9  24    0.83    4.91
   1   9 -24    3.13    6.11
   1   9 -24    1.87    3.41
  -1  -9  24    1.75    5.30
  -1  -9  24  -26.93   18.62
   2   9 -24   -1.47    6.33
   2   9 -24    1.18    3.62
  -2  -9  24    4.58    5.68
  -2  -9  24   12.47   19.30
   3   9 -24    7.75    6.58
   3   9 -24    4.49    3.96
  -3  -9  24    0.94    6.32
  -3  -9  24    7.07   18.99
   4   9 -24    6.66    7.75
   4   9 -24   16.67    5.12
  -4  -9  24   34.17   21.78
  -4  -9  24    9.82    7.36
   5   9 -24    2.11    6.73
   5   9 -24    9.61    4.21
  -5  -9  24    0.34    6.65
  -5  -9  24    6.18   20.59
   6   9 -24    6.08    4.36
   6   9 -24   -2.19    6.91
  -6  -9  24   -8.64    7.10
  -6  -9  24    5.70   20.92
   7   9 -24   -3.09    7.08
  -7  -9  24   -1.88   21.78
   8   9 -24    0.29    7.30
   8   9 -24    6.58    4.78
  -8  -9  24   -4.31   23.93
  -8  -9  24    3.57    7.43
   9   9 -24   -0.31    7.88
   9   9 -24   -4.21    4.84
  -9  -9  24  -41.88   25.59
  -9  -9  24    6.26    7.70
  10   9 -24    6.56    5.13
  10   9 -24    1.30    8.24
 -10  -9  24  -39.59   25.96
 -10  -9  24    1.80    8.43
  10   8 -24  -11.46    9.13
  10   7 -24    0.31    7.68
  10   7 -24   -4.88    4.79
 -10  -7  24    3.83   24.42
 -10  -7  24    5.65    7.23
  10   6 -24   -1.58    7.79
  10   6 -24    2.22    5.28
 -10  -6  24   -0.84   23.20
 -10  -6  24   -9.19    6.74
  10   5 -24    3.92    5.09
  10   5 -24    0.32    7.63
 -10  -5  24   -0.34    6.62
 -10  -5  24   -2.51   22.65
  10   4 -24    1.61    7.36
  10   4 -24    0.28    5.18
 -10  -4  24  -13.38   21.39
  10   3 -24   -1.16    5.55
  10   3 -24    1.93    6.98
 -10  -3  24   26.66   19.59
  -2  10 -24    1.85    3.18
  10   2 -24   -2.55    5.95
 -10  -2  24    2.81   19.25
  -1  10 -24  -14.51    6.45
  -1  10 -24   -3.45    3.33
   1 -10  24   -4.88   18.27
   1 -10  24   -7.26    5.68
   0  10 -24    6.51    6.47
   0  10 -24    1.40    3.64
   0 -10  24    7.61   18.49
   0 -10  24    9.65    5.95
   1  10 -24    0.24    6.50
   1  10 -24   -0.83    3.67
  -1 -10  24   -2.84    5.91
  -1 -10  24   -5.73   18.99
   2  10 -24  -11.20    6.30
   2  10 -24    1.30    3.55
  -2 -10  24    4.09   19.05
  -2 -10  24  -10.56    6.00
   3  10 -24    7.00    4.16
   3  10 -24  -10.69    6.49
  -3 -10  24   -6.55    6.21
  -3 -10  24    0.65   19.95
   4  10 -24    0.26    6.28
   4  10 -24    4.24    4.18
  -4 -10  24   11.36   20.32
  -4 -10  24    2.52    6.60
   5  10 -24   -0.27    6.77
   5  10 -24    8.11    4.65
  -5 -10  24    9.70   20.89
  -5 -10  24   11.34    7.20
   6  10 -24    4.48    6.96
   6  10 -24    0.26    4.51
  -6 -10  24    1.19    7.60
  -6 -10  24   12.61   21.56
   7  10 -24    0.29    7.23
  -7 -10  24  -16.66   23.15
   8  10 -24    0.28    5.20
   8  10 -24   -0.91    8.27
  -8 -10  24  -20.11    8.92
   9  10 -24    1.16    5.19
   9  10 -24    1.28    8.49
  -9 -10  24  -17.84   25.31
  -9 -10  24  -26.21    8.70
  10  10 -24    3.94    5.21
  10  10 -24   -0.33    8.17
 -10 -10  24  -42.34   27.20
 -10 -10  24    6.29    9.43
  11  10 -24    0.71    9.13
 -11 -10  24    3.57    9.18
 -11 -10  24   43.10   28.51
  11   9 -24    2.01    4.98
  11   9 -24    6.54    8.44
 -11  -9  24   -7.56    9.19
 -11  -9  24    2.29   27.28
  11   8 -24    3.72    8.27
  11   8 -24  -11.65    5.23
 -11  -8  24    2.55    8.44
 -11  -8  24  -15.79   26.56
 -11  -7  24 1000.00  203.26
  11   6 -24    0.34    8.12
  11   6 -24    2.58    5.49
 -11  -6  24    4.15    7.52
 -11  -6  24   24.77   24.25
  11   5 -24   -5.49    5.16
  11   5 -24   -0.34    7.81
 -11  -5  24    0.44   24.02
 -11  -5  24    4.93    6.80
  11   4 -24    0.34    7.73
  11   4 -24   -5.21    5.56
 -11  -4  24   -5.52   22.40
  11   3 -24   -3.58    5.90
  11   3 -24    0.34    7.80
 -11  -3  24   -2.91   21.52
  11   2 -24    9.56    6.52
 -11  -2  24  -21.80   20.99
  -1  11 -24  -14.44    6.28
  -1  11 -24    4.25    3.33
   1 -11  24   -2.77    6.22
   1 -11  24   20.11   18.61
   0  11 -24    5.03    3.66
   0  11 -24   -5.39    6.36
   0 -11  24   -6.31    6.28
   0 -11  24   -0.89   18.34
   1  11 -24   -2.05    3.88
   1  11 -24  -13.46    6.61
  -1 -11  24   -8.27   19.17
  -1 -11  24   -1.81    6.31
   2  11 -24   -0.25    6.53
   2  11 -24    0.47    4.21
  -2 -11  24   11.24    7.21
  -2 -11  24   32.84   19.90
   3  11 -24   -2.68    4.24
   3  11 -24   -9.93    6.50
  -3 -11  24  -16.47    7.39
  -3 -11  24   -0.65   19.90
   4  11 -24    4.82    4.16
   4  11 -24   -0.27    6.71
  -4 -11  24    0.40    7.33
  -4 -11  24   -7.74   20.09
   5  11 -24   -0.28    6.98
   5  11 -24    0.26    4.43
  -5 -11  24   16.20    7.64
  -5 -11  24   -0.70   21.02
   6  11 -24    0.28    4.75
   6  11 -24    0.29    7.27
  -6 -11  24  -29.54    8.21
  -6 -11  24  -29.79   22.04
   8  11 -24    0.31    7.96
   8  11 -24   -6.89    5.17
  -8 -11  24    0.48    8.37
  -8 -11  24   28.91   25.04
   9  11 -24    0.31    5.18
   9  11 -24   -0.98    8.56
  -9 -11  24  -10.22   25.70
  -9 -11  24   -0.51    9.65
  10  11 -24   -0.35    8.83
 -10 -11  24    3.13   27.31
  12   9 -24    7.45    5.57
  12   9 -24    1.45    9.01
 -12  -9  24    3.88   28.49
  12   8 -24   -9.26    8.91
  12   8 -24    8.85    5.50
 -12  -8  24    6.87    9.18
 -12  -8  24   12.50   28.35
  12   7 -24    1.42    8.74
  12   7 -24  -12.87    5.35
 -12  -7  24   20.45   26.83
 -12  -7  24    0.41    7.65
  12   6 -24   -6.61    5.55
  12   6 -24  -11.09    8.91
 -12  -6  24  -28.29   26.81
 -12  -6  24    0.79    7.45
  12   4 -24   11.05    5.94
  12   4 -24    0.36    8.18
 -12  -4  24  -16.88   23.74
 -12  -4  24    0.71    6.84
  12   3 -24    0.36    8.02
  12   3 -24    1.24    5.85
 -12  -3  24  -15.19   22.37
  12   2 -24    0.33    6.25
 -12  -2  24   11.84   21.03
  -1  12 -24    0.24    6.40
   1 -12  24  -25.60   18.72
   0  12 -24    9.99    7.12
   0 -12  24   18.65   19.12
   0 -12  24    9.52    7.51
   1  12 -24   -5.38    6.38
  -1 -12  24   -0.62   18.84
  -1 -12  24   -0.41    6.77
   2  12 -24    3.88    4.64
   2  12 -24   11.83    7.20
  -2 -12  24    9.61    7.13
  -2 -12  24   22.46   19.52
   3  12 -24    0.27    6.79
   3  12 -24    7.24    4.63
  -3 -12  24    8.30   20.39
  -3 -12  24    2.16    7.94
   4  12 -24    2.51    4.63
   4  12 -24    0.28    7.49
  -4 -12  24   34.12   20.97
  -4 -12  24    0.90    7.67
   6  12 -24   -0.30    7.36
   6  12 -24    0.30    5.10
  -6 -12  24    0.48    8.59
  -6 -12  24  -50.81   24.27
   7  12 -24   -0.31    5.29
   7  12 -24    0.31    8.00
  -7 -12  24   -0.50    9.48
  -7 -12  24    8.59   24.30
   8  12 -24   -0.32    5.40
   8  12 -24   -1.64    8.69
  -8 -12  24    4.91   25.03
  13   8 -24    0.29    5.26
  13   8 -24    1.52    9.22
 -13  -8  24  -20.68   29.11
  13   7 -24    2.28    9.24
  13   7 -24   -8.98    5.60
 -13  -7  24    0.89    8.30
 -13  -7  24   19.94   28.12
  13   6 -24   -1.48    5.58
  13   6 -24    5.72    9.05
 -13  -6  24    1.23    7.92
 -13  -6  24   22.24   27.72
  13   5 -24    0.91    5.54
  13   5 -24  -13.68    9.13
 -13  -5  24   -6.66   25.80
 -13  -5  24    0.39    7.34
  13   4 -24    0.37    8.55
  13   4 -24   -0.31    5.56
 -13  -4  24  -60.39   24.36
 -13  -4  24   -0.37    6.89
  13   3 -24   -3.78    6.22
  13   3 -24    0.37    8.72
 -13  -3  24  -19.05   23.34
  13   2 -24    1.95    6.74
  -1  13 -24   57.38   18.49
   1 -13  24   92.55   28.61
   0  13 -24   11.24    7.47
   0 -13  24   13.19   20.73
  -1 -13  24  121.48   35.57
   3  13 -24  -31.53    7.65
   4  13 -24    0.29    7.33
  -4 -13  24    5.33   21.51
  -4 -13  24  -14.34    9.16
   5  13 -24    0.30    7.60
  -5 -13  24    0.52    8.95
  -5 -13  24  -39.70   23.05
   6  13 -24   -2.22    8.11
  -6 -13  24   24.02   24.40
  -6 -13  24   -5.39    9.74
   7  13 -24    1.66    8.42
  -7 -13  24  -19.09   25.60
  14   7 -24    4.45    9.99
 -14  -7  24   33.81   30.44
  14   6 -24   -2.40    5.33
  14   6 -24    1.61    9.31
 -14  -6  24   -0.43    8.42
 -14  -6  24   24.59   28.40
  14   5 -24    0.62    5.95
  14   5 -24   -3.20    9.38
 -14  -5  24   45.95   26.80
 -14  -5  24    4.49    7.79
  14   4 -24    0.39    8.95
  14   4 -24   -8.80    6.13
 -14  -4  24   -1.91   24.77
 -14  -4  24    0.39    7.39
  14   3 -24    3.82    5.82
 -14  -3  24   -0.47   22.77
 -14  -3  24    0.76    7.47
  14   2 -24  -21.94    6.90
  15   6 -24   -3.83   10.18
 -15  -6  24    5.28   28.76
  15   5 -24  -11.33    5.79
  15   5 -24    5.04    9.94
 -15  -5  24  -28.54   27.35
 -15  -5  24   -5.61    8.81
  15   4 -24   -9.83    5.94
  15   4 -24    0.41    9.09
 -15  -4  24   11.33   25.58
 -15  -4  24    3.69    7.87
  15   3 -24    0.32    6.15
 -15  -3  24  -22.92   23.54
 -15  -3  24  -14.54    7.80
   1   2 -25    2.22    5.43
  -2   2 -25   14.09    5.70
   2   2 -25   -4.29    5.11
  -2  -2  25   -0.31   14.40
  -2   3 -25    7.03    4.15
   3   2 -25   -2.34    5.45
  -2   3 -25  -14.60    6.16
   3   2 -25  -24.36    6.36
  -3  -2  25   -1.61   15.30
  -1   3 -25   23.47   10.08
   1  -3  25   61.03   16.58
   1   3 -25    1.24    5.47
  -3   2 -25   -4.52    4.88
   2   3 -25    3.34    4.62
   2   3 -25    0.53    6.25
  -2  -3  25   -5.16   15.47
   3   3 -25    0.26    4.88
  -3   3 -25    2.16    3.90
   3   3 -25  -15.08    6.29
  -3  -3  25   -6.64   16.42
   4   3 -25    0.28    6.55
   4   3 -25    0.27    4.92
  -4  -3  25   -1.31   16.62
   4   2 -25   -5.75    6.36
  -2   4 -25   -1.72    6.10
   4   2 -25   -4.50    5.64
   2  -4  25   -0.77   13.97
  -4  -2  25   -0.33   15.54
   0   4 -25    0.21    3.85
   1   4 -25   44.39    7.12
   1   4 -25   -3.15    5.39
  -1  -4  25  -10.85   16.53
   2   4 -25    1.81    6.36
   2   4 -25    0.24    4.68
  -2  -4  25   -6.12   16.37
   3   4 -25    1.01    4.59
   3   4 -25   -9.99    6.22
  -3  -4  25    1.59   17.32
   4   4 -25   -5.03    4.44
   4   4 -25   -8.31    6.39
  -4  -4  25    0.33   17.64
   5   4 -25   -2.48    6.45
   5   4 -25    3.37    4.88
  -5  -4  25    7.58   17.79
   5   3 -25    0.85    6.62
   5   3 -25    4.77    5.32
  -5  -3  25    3.74   17.19
   5   2 -25    0.29    6.21
   5   2 -25    4.61    5.65
  -5  -2  25   -6.89   16.16
  -1   5 -25   -0.19    3.46
   0   5 -25   71.32   16.46
   1   5 -25   -8.19    5.95
   1   5 -25    3.68    4.25
  -1  -5  25  -15.61   16.93
   2   5 -25    3.86    4.25
   2   5 -25   -6.05    6.06
  -2  -5  25    2.78   17.17
   3   5 -25    1.54    6.09
   3   5 -25   -2.13    4.66
  -3  -5  25    0.32   17.97
   4   5 -25    0.26    6.06
   4   5 -25   -4.43    4.77
  -4  -5  25    0.33   18.61
   5   5 -25    4.32    6.28
   5   5 -25    0.51    4.59
  -5  -5  25   -4.17   19.23
   6   5 -25    3.64    4.89
   6   5 -25   -3.07    6.55
  -6  -5  25    0.74   20.05
   6   4 -25   17.05    5.47
   6   4 -25    0.28    7.07
  -6  -4  25    3.23   19.15
   6   3 -25    0.29    6.37
   6   3 -25    0.29    5.36
  -6  -3  25   -1.06   18.20
   6   2 -25    5.11    6.47
  -6  -2  25   -1.43   16.78
  -1   6 -25   80.12   17.32
   0   6 -25   -0.24    5.95
   0   6 -25    3.13    3.73
   0  -6  25   25.11   16.69
   0  -6  25    2.57    4.46
   1   6 -25    0.21    4.27
   1   6 -25   -7.12    6.68
  -1  -6  25   -3.92   17.74
  -1  -6  25   14.69    5.32
   2   6 -25    1.74    6.01
   2   6 -25    1.10    4.21
  -2  -6  25   -3.14   17.87
  -2  -6  25    5.94    5.05
   3   6 -25    0.51    5.97
   3   6 -25   -9.71    4.21
  -3  -6  25    4.58   19.30
  -3  -6  25   -0.27    5.11
   4   6 -25   14.48    4.94
   4   6 -25    0.26    6.54
  -4  -6  25    4.52    5.81
  -4  -6  25    2.04   19.52
   5   6 -25   11.52    4.84
   5   6 -25    1.07    6.82
  -5  -6  25    0.35   19.74
  -5  -6  25    4.13    5.74
   6   6 -25    0.28    7.10
   6   6 -25   -6.48    5.13
  -6  -6  25    0.31    6.23
  -6  -6  25   -0.37   20.87
   7   6 -25    0.29    7.19
  -7  -6  25   13.56   22.47
   7   5 -25   -4.94    7.20
  -7  -5  25    0.38   21.70
   7   4 -25    0.30    7.14
  -7  -4  25  -11.58   20.16
   7   3 -25    2.99    6.59
   7   3 -25   -0.30    5.67
  -7  -3  25    1.10   18.48
   7   2 -25    0.31    6.99
  -2   7 -25   10.81    3.85
  -7  -2  25   -1.12   18.04
  -1   7 -25    1.04    3.02
  -1   7 -25   -0.24    5.99
   1  -7  25   -1.84    4.40
   1  -7  25    0.28   16.77
   0   7 -25   -4.39    6.35
   0   7 -25    1.50    3.37
   0  -7  25    9.66    4.79
   0  -7  25   30.56   17.47
   1   7 -25    0.25    6.09
   1   7 -25    0.20    3.64
  -1  -7  25    9.91   18.67
  -1  -7  25   -4.11    4.87
   2   7 -25    0.21    4.47
   2   7 -25    0.50    6.86
  -2  -7  25   -1.63    5.45
  -2  -7  25    4.18   19.33
   3   7 -25   -6.91    6.60
   3   7 -25    4.21    4.32
  -3  -7  25   12.68   19.72
  -3  -7  25   10.01    5.51
   4   7 -25    0.46    4.29
   4   7 -25   -1.57    6.61
  -4  -7  25   -1.38   20.38
  -4  -7  25    0.30    5.88
   5   7 -25   -4.58    6.75
   5   7 -25  -19.08    4.85
  -5  -7  25   -2.51   21.79
  -5  -7  25    0.31    6.06
   6   7 -25    4.18    7.18
   6   7 -25    2.51    4.71
  -6  -7  25   -0.37   23.50
  -6  -7  25    0.33    5.50
   7   7 -25    4.64    7.12
  -7  -7  25   -0.39   22.71
   8   7 -25    0.30    7.50
   8   7 -25   -0.27    5.03
  -8  -7  25    0.36    6.28
  -8  -7  25    2.05   23.53
   8   6 -25   -0.28    5.28
   8   6 -25    2.41    7.36
  -8  -6  25    3.03    6.56
  -8  -6  25    2.02   22.17
   8   5 -25   -0.30    7.52
   8   5 -25    3.88    5.01
  -8  -5  25    0.32    5.48
  -8  -5  25   -1.61   22.25
   8   4 -25    0.28    5.56
   8   4 -25    4.01    7.18
  -8  -4  25    0.39   20.81
   8   3 -25   -0.31    7.16
   8   3 -25   10.46    5.81
  -8  -3  25    1.53   18.82
  -2   8 -25   10.59    6.44
  -2   8 -25    0.63    2.81
   8   2 -25    0.32    7.18
   8   2 -25    3.89    6.13
  -8  -2  25   -0.78   17.80
  -1   8 -25   11.35    3.81
  -1   8 -25    9.54    6.90
   1  -8  25    6.47   18.27
   1  -8  25    7.82    5.28
   0   8 -25    8.68    6.50
   0   8 -25   -4.90    3.22
   0  -8  25  -18.76   18.76
   0  -8  25   -3.39    4.84
   1   8 -25    2.51    6.65
   1   8 -25    8.70    4.13
  -1  -8  25    4.41    5.55
  -1  -8  25   34.49   19.38
   2   8 -25    2.55    6.50
   2   8 -25    1.23    3.71
  -2  -8  25   18.01   19.82
  -2  -8  25   -0.58    5.64
   3   8 -25    1.81    6.69
   3   8 -25   10.69    4.15
  -3  -8  25    3.04   20.13
  -3  -8  25    0.30    5.73
   4   8 -25   13.05    4.90
   4   8 -25    7.42    7.42
  -4  -8  25    1.41   22.15
  -4  -8  25    2.50    6.86
   5   8 -25    0.48    4.37
   5   8 -25    0.27    7.00
  -5  -8  25    0.33    5.78
  -5  -8  25   -1.46   21.62
   6   8 -25   -2.82    7.10
   6   8 -25    1.99    4.65
  -6  -8  25   -0.38   21.95
  -6  -8  25    2.40    6.59
   7   8 -25   -1.47    7.32
  -7  -8  25    0.39   23.31
   8   8 -25    1.82    7.75
   8   8 -25   -0.27    4.50
  -8  -8  25  -11.62   24.15
  -8  -8  25    0.38    7.24
   9   8 -25    2.76    5.23
   9   8 -25    0.32    8.29
  -9  -8  25    0.40    7.74
   9   7 -25    0.32    7.82
   9   7 -25    0.28    4.94
  -9  -7  25  -52.87   25.16
  -9  -7  25    0.37    6.92
   9   6 -25    0.29    5.43
   9   6 -25    5.07    7.64
  -9  -6  25  -36.05   24.09
  -9  -6  25   -9.84    6.65
   9   5 -25    4.30    5.75
   9   5 -25    3.21    7.42
  -9  -5  25   10.00    6.86
  -9  -5  25    8.42   22.53
   9   4 -25    0.29    5.51
   9   4 -25    0.32    7.97
  -9  -4  25   17.52   21.29
   9   3 -25  -10.09    7.28
   9   3 -25    2.17    6.00
  -9  -3  25    0.80   20.21
   9   2 -25    4.86    5.99
  -2   9 -25    2.61    3.18
  -9  -2  25   -0.40   18.92
  -1   9 -25   55.54   15.54
   1  -9  25   93.17   24.29
   0   9 -25   26.85    8.34
   0   9 -25    8.80    5.25
   0  -9  25    6.07    6.63
   0  -9  25  105.32   21.24
   1   9 -25    9.08    6.42
   1   9 -25   34.18    9.05
  -1  -9  25   29.80    8.34
   2   9 -25  -20.23    7.32
   2   9 -25   -7.20    3.57
  -2  -9  25   -1.33   19.71
  -2  -9  25   -8.73    6.09
   3   9 -25    4.98    3.89
   3   9 -25   -0.27    6.49
  -3  -9  25   -6.18   20.39
  -3  -9  25   -9.82    6.55
   4   9 -25   10.92    4.27
   4   9 -25    1.62    6.87
  -4  -9  25  -21.52   21.84
  -4  -9  25    2.41    6.43
   5   9 -25    4.52    4.34
   5   9 -25    5.00    7.19
  -5  -9  25    7.05   22.16
  -5  -9  25   -0.36    6.82
   6   9 -25    0.29    7.16
  -6  -9  25  -15.37   22.95
  -6  -9  25    1.13    6.93
   7   9 -25    2.10    7.62
  -7  -9  25   24.37   24.12
  -7  -9  25   -3.17    7.82
   8   9 -25    4.57    4.91
   8   9 -25    0.31    8.04
  -8  -9  25    0.42    8.04
  -8  -9  25  -63.10   27.00
   9   9 -25  -20.66    6.00
   9   9 -25    0.33    9.78
  -9  -9  25  -10.47    9.02
  10   9 -25   -5.22    5.22
  10   9 -25    0.34    8.54
 -10  -9  25    4.15   27.33
 -10  -9  25  -10.08    8.83
  10   8 -25   -4.57    5.36
  10   8 -25   -0.34    8.94
 -10  -8  25  -39.56   27.92
 -10  -8  25  -18.64    8.47
  10   7 -25   -9.87    6.18
  10   6 -25    0.29    5.48
  10   6 -25    1.01    7.96
 -10  -6  25   -0.45   24.84
 -10  -6  25    0.37    6.94
  10   5 -25   -0.30    5.66
  10   5 -25    0.34    7.73
 -10  -5  25   -4.93    6.59
 -10  -5  25    9.67   23.63
  10   4 -25   -4.07    7.48
  10   4 -25  -10.81    5.78
 -10  -4  25    8.11   22.34
  10   3 -25    0.34    7.79
  10   3 -25    0.92    6.06
 -10  -3  25   22.62   21.20
  10   2 -25    4.37    6.09
 -10  -2  25    6.34   19.94
  -1  10 -25   -0.99    3.34
  -1  10 -25   11.21    6.75
   1 -10  25    7.35   18.99
   1 -10  25   -3.71    5.55
   0  10 -25    7.23    6.81
   0  10 -25   -6.28    3.67
   0 -10  25    2.90    5.65
   0 -10  25   -8.24   19.47
   1  10 -25    1.52    3.41
   1  10 -25   -4.45    6.55
  -1 -10  25    3.29    5.88
  -1 -10  25   11.12   20.41
   2  10 -25   -8.25    6.74
   2  10 -25   -1.59    3.99
  -2 -10  25  -11.70    6.07
  -2 -10  25    1.01   20.50
   3  10 -25    1.36    7.09
   3  10 -25   10.68    4.30
  -3 -10  25   -6.13    6.61
  -3 -10  25   -4.16   20.58
   4  10 -25   14.13    4.74
   4  10 -25    2.21    7.25
  -4 -10  25   22.05   22.47
  -4 -10  25    2.27    7.57
   5  10 -25   -0.28    7.06
   5  10 -25    2.75    4.54
  -5 -10  25    0.39    7.00
  -5 -10  25   27.66   21.77
   6  10 -25   -0.26    4.77
   6  10 -25  -11.79    7.42
  -6 -10  25  -16.68   23.71
  -6 -10  25    2.45    7.06
   7  10 -25  -14.99    5.46
   7  10 -25   -5.22    8.79
  -7 -10  25  -22.27    9.23
   8  10 -25    0.32    8.38
   8  10 -25   -0.28    5.12
  -8 -10  25    7.68   26.05
   9  10 -25   -1.23    5.68
   9  10 -25   -1.00    8.35
  -9 -10  25   -6.26    8.86
  -9 -10  25    4.91   27.01
 -10 -10  25   51.94   30.12
  11   9 -25    1.22    5.32
  11   9 -25    1.44    8.90
 -11  -9  25  -48.85   28.68
  11   8 -25    0.35    8.66
  11   8 -25    2.65    5.33
 -11  -8  25    3.55    8.89
 -11  -8  25   46.98   28.10
  11   7 -25   -0.35    8.82
  11   7 -25   -4.45    5.28
 -11  -7  25    9.09   26.73
 -11  -7  25   -0.41    7.81
  11   6 -25   23.50   10.66
  11   6 -25    8.81    6.95
 -11  -6  25   70.66   31.53
  11   5 -25    0.31    5.90
  11   5 -25    0.36    8.43
 -11  -5  25   -0.37    7.36
 -11  -5  25  -64.31   25.69
  11   4 -25    0.93    5.64
  11   4 -25   -1.43    7.90
 -11  -4  25   -6.25   22.90
  11   3 -25    0.95    5.99
  11   3 -25    0.36    7.76
 -11  -3  25  -15.31   21.76
  11   2 -25    4.04    6.44
 -11  -2  25  -11.96   20.40
  -1  11 -25   -4.63    6.52
  -1  11 -25   -1.54    3.75
   1 -11  25    0.35    6.38
   1 -11  25   -4.31   19.06
   0  11 -25   -0.26    6.86
   0  11 -25    7.26    4.04
   0 -11  25    7.93    6.68
   0 -11  25  -10.48   19.60
   1  11 -25   -5.85    6.99
   1  11 -25   -8.53    4.07
  -1 -11  25    0.37    6.67
  -1 -11  25  -60.59   20.62
   2  11 -25    2.17    6.94
   2  11 -25    0.49    3.98
  -2 -11  25  -35.46   20.88
  -2 -11  25   -6.88    6.61
   3  11 -25   -7.97    6.90
   3  11 -25    3.83    4.47
  -3 -11  25    1.59    6.55
  -3 -11  25   -7.31   20.70
   4  11 -25    0.28    7.00
   4  11 -25   -6.67    4.38
  -4 -11  25    8.00   21.70
  -4 -11  25    0.41    7.26
   5  11 -25   -3.34    4.89
   5  11 -25    0.29    7.29
  -5 -11  25   -9.96    8.27
  -5 -11  25  -32.04   24.01
   6  11 -25   11.92    5.68
   6  11 -25    0.30    8.10
  -6 -11  25  -18.04   27.03
  -6 -11  25    6.80    9.23
   7  11 -25   -1.82    4.88
   7  11 -25    0.32    8.33
  -7 -11  25   22.50   25.27
  -7 -11  25    0.48    9.05
   8  11 -25    0.33    8.56
  -8 -11  25   -3.89   26.09
   9  11 -25   -0.35    8.45
  -9 -11  25    6.34   27.32
  12   8 -25    0.38    9.35
  12   8 -25  -12.16    5.58
 -12  -8  25   -2.03   29.12
  12   7 -25  -10.97    8.89
  12   7 -25    0.30    5.55
 -12  -7  25   -0.43    8.21
 -12  -7  25   -0.50   28.27
  12   6 -25   -1.22    5.87
  12   6 -25    0.38    8.83
 -12  -6  25   -7.40    8.02
 -12  -6  25   11.95   26.75
  12   5 -25   -0.38    9.02
  12   5 -25    0.31    5.92
 -12  -5  25  -14.96    7.53
 -12  -5  25  -48.96   26.57
  12   4 -25  -26.55    6.48
  12   4 -25   -0.37   10.14
 -12  -4  25  -27.80    7.83
  12   2 -25    0.35    6.87
  -1  12 -25   -6.71    6.89
   1 -12  25  -56.77   20.48
   1 -12  25    5.50    6.65
   0  12 -25   -1.07    6.86
   0 -12  25    5.78   19.81
   0 -12  25   -0.41    6.61
   1  12 -25   -3.35    4.26
   1  12 -25    7.00    7.11
  -1 -12  25  -26.86   21.09
  -1 -12  25  -15.84    7.36
   2  12 -25  -26.78    7.53
   2  12 -25  -13.44    5.20
  -2 -12  25    0.43    8.35
   4  12 -25  -15.86    5.70
   4  12 -25  -21.09    8.20
  -4 -12  25   -0.46    8.77
   5  12 -25    1.50    4.78
   5  12 -25    2.43    7.64
  -5 -12  25    0.48    8.23
  -5 -12  25   21.76   23.09
   6  12 -25    0.32    8.21
   6  12 -25  -12.86    5.64
  -6 -12  25    0.50    8.19
  -6 -12  25   -5.17   24.31
   7  12 -25    7.52    5.43
   7  12 -25    0.33    8.26
  -7 -12  25    4.21    9.75
  -7 -12  25  -20.14   25.95
  13   7 -25  -13.28    9.05
 -13  -7  25  -11.21   31.54
 -13  -7  25   -0.46    7.25
  13   6 -25   -5.65    6.07
  13   6 -25    0.40    9.85
 -13  -6  25  -41.96   29.04
 -13  -6  25    0.43    7.78
  13   5 -25    8.04    6.37
  13   5 -25    9.20    9.20
 -13  -5  25    5.50   26.59
 -13  -5  25    0.41    8.00
  13   4 -25    4.90    6.21
  13   4 -25    0.40    8.87
 -13  -4  25    1.93    7.07
 -13  -4  25    8.24   25.36
  13   3 -25   -0.33    6.18
 -13  -3  25  -11.50   23.32
  13   2 -25    2.42    6.57
  -1  13 -25   -9.73    6.91
   0  13 -25    1.62    6.85
   0 -13  25   -4.23   20.47
   1  13 -25   -1.94    7.17
  -1 -13  25   -5.06   21.00
  -2 -13  25   57.34   24.74
   3  13 -25   -0.30    7.36
  -3 -13  25  -30.61    9.09
  -3 -13  25   25.06   22.42
   4  13 -25    0.31    7.63
  -4 -13  25  -23.15    8.94
  -4 -13  25  -27.95   23.33
   5  13 -25    0.32    8.00
  -5 -13  25  -11.80   23.88
  -5 -13  25   -4.84    8.88
   6  13 -25   -5.93    8.17
  -6 -13  25   49.74   25.69
  14   6 -25    0.43   10.19
 -14  -6  25  -52.67   31.19
  14   5 -25   -0.85    9.79
  14   5 -25    0.33    6.03
 -14  -5  25    2.13    8.41
 -14  -5  25  -12.99   27.71
  14   4 -25   -0.83    9.42
  14   4 -25  -16.70    6.35
 -14  -4  25    9.77    8.39
 -14  -4  25  -20.61   25.79
  14   3 -25   -0.34    6.50
 -14  -3  25   -9.92    7.84
 -14  -3  25  -40.39   24.55
  14   2 -25  -18.71    7.38
  15   4 -25    6.52    9.78
 -15  -4  25  -33.35   26.91
  15   3 -25    4.15    6.36
 -15  -3  25  -11.09    7.68
   0   2 -26    2.55    5.36
   2   2 -26    1.21    6.09
  -2  -2  26   -0.33   15.21
   3   2 -26   -1.24    5.94
  -3  -2  26   -0.68   15.54
  -1   3 -26    3.13    4.91
   0   3 -26   34.83   12.27
   0  -3  26   87.66   18.26
   1   3 -26    8.94    5.72
   1   3 -26   13.80    6.73
  -1  -3  26    3.41   15.87
   2   3 -26   -9.67    6.67
   2   3 -26    1.90    5.04
  -2  -3  26    0.64   16.08
   3   3 -26    8.97    5.61
   3   3 -26   -0.29    6.52
  -3  -3  26   12.64   16.72
   4   3 -26   -0.88    6.70
   4   3 -26   -8.07    5.72
  -4  -3  26   10.35   16.89
   4   2 -26   -0.32    5.85
  -4  -2  26    2.47   16.58
  -1   4 -26    7.92    4.25
   0   4 -26    5.94    6.35
   0   4 -26    0.46    4.02
   0  -4  26   -6.23   15.51
   1   4 -26   -3.11    4.34
   1   4 -26   -2.73    6.46
  -1  -4  26  -18.28   16.41
   2   4 -26    5.53    6.62
   2   4 -26    0.26    4.63
  -2  -4  26   -5.81   17.47
   3   4 -26   -2.96    5.17
   3   4 -26    1.40    6.48
  -3  -4  26   12.43   17.87
   4   4 -26    3.99    4.99
   4   4 -26    0.29    6.93
  -4  -4  26   -2.44   18.08
   5   4 -26    3.25    6.97
   5   4 -26    5.75    5.24
  -5  -4  26   -0.36   19.16
   5   3 -26    7.72    5.67
   5   3 -26   -0.30    6.71
  -5  -3  26   -2.15   17.32
   5   2 -26  -12.32    5.80
  -2   5 -26    0.74    3.51
   2  -5  26    5.03    3.99
  -5  -2  26   13.52   16.63
  -1   5 -26   -3.89    6.05
  -1   5 -26    5.44    3.68
   1  -5  26   -4.90   15.80
   1  -5  26   -0.91    4.26
   0   5 -26   -0.86    4.04
   0   5 -26   -5.78    6.23
   0  -5  26  -32.87   17.02
   1   5 -26    5.07    4.36
   1   5 -26   -1.61    6.62
  -1  -5  26   -3.19   17.38
   2   5 -26    0.27    6.36
   2   5 -26    6.04    4.93
  -2  -5  26   -9.65   18.64
   3   5 -26  -13.27    6.72
   3   5 -26   -4.53    4.66
  -3  -5  26   -2.42   19.55
   4   5 -26    0.28    6.95
   4   5 -26   14.34    5.03
  -4  -5  26    0.72   20.27
   5   5 -26   17.78    5.31
   5   5 -26   -4.93    7.30
  -5  -5  26   -0.75   20.39
   6   5 -26    0.30    7.20
   6   5 -26   -6.67    5.41
  -6  -5  26   -7.41   22.44
   6   4 -26    2.42    7.01
   6   4 -26    1.13    5.15
  -6  -4  26   -0.38   19.48
   6   3 -26    0.31    7.18
   6   3 -26   17.44    5.98
  -6  -3  26   -0.37   18.50
  -2   6 -26    1.95    3.45
   6   2 -26  -10.66    6.07
  -2   6 -26   -5.78    6.07
   2  -6  26   -4.72    4.24
  -6  -2  26    0.38   17.66
  -1   6 -26    0.26    6.56
  -1   6 -26    5.03    3.74
   1  -6  26   37.03   16.54
   1  -6  26    5.07    4.54
   0   6 -26   -8.84    6.55
   0   6 -26   -9.82    3.97
   0  -6  26   18.87   17.43
   0  -6  26   -9.01    4.79
   1   6 -26    1.58    6.56
   1   6 -26    1.78    4.32
  -1  -6  26    2.84    5.21
  -1  -6  26   19.76   18.43
   2   6 -26   -5.17    4.35
   2   6 -26    4.28    6.86
  -2  -6  26    3.04   18.70
  -2  -6  26    0.27    5.25
   3   6 -26    9.53    7.03
   3   6 -26    5.90    5.14
  -3  -6  26    3.42    5.91
  -3  -6  26    6.67   19.85
   4   6 -26    0.26    5.10
   4   6 -26   12.80    7.31
  -4  -6  26    3.28   20.19
  -4  -6  26   -8.03    5.86
   5   6 -26   -0.29    7.38
   5   6 -26    3.99    5.31
  -5  -6  26   -0.31    6.51
  -5  -6  26  -12.12   22.53
   6   6 -26    0.27    5.21
   6   6 -26   -2.07    7.08
  -6  -6  26   -3.55   22.85
  -6  -6  26    2.57    6.36
   7   6 -26    0.31    7.19
  -7  -6  26   -1.23   22.98
   7   5 -26   -2.80    7.38
  -7  -5  26   -0.41   21.76
   7   4 -26   -0.31    9.37
  -7  -4  26    3.54   22.75
   7   3 -26    0.32    7.05
  -7  -3  26    2.33   19.32
  -2   7 -26    2.76    6.51
  -2   7 -26    1.86    3.11
   7   2 -26   -0.33    6.00
  -7  -2  26   -7.48   18.01
  -1   7 -26   15.07    3.91
  -1   7 -26    0.77    6.88
   1  -7  26    6.27    5.06
   1  -7  26  -32.49   18.28
   0   7 -26   -6.22    6.67
   0   7 -26    5.98    3.73
   0  -7  26    3.82    4.87
   0  -7  26   23.31   18.84
   1   7 -26   18.62    6.95
   1   7 -26    4.24    4.12
  -1  -7  26   22.34   19.86
  -1  -7  26   -2.44    5.19
   2   7 -26  -14.35    4.16
   2   7 -26    0.81    6.62
  -2  -7  26    2.01    5.32
  -2  -7  26  -30.40   20.43
   3   7 -26   -2.83    4.70
   3   7 -26  -11.55    7.25
  -3  -7  26  -16.65   21.97
  -3  -7  26   -3.31    5.83
   4   7 -26   95.70   20.24
  -4  -7  26   66.42   30.93
   5   7 -26    7.43    4.85
   5   7 -26   -0.28    7.23
  -5  -7  26    2.30    6.40
  -5  -7  26    2.71   22.83
   6   7 -26    2.13    4.67
   6   7 -26    0.29    7.32
  -6  -7  26   -1.20   22.59
  -6  -7  26    0.34    6.70
   7   7 -26   -0.31    7.49
  -7  -7  26    7.09   23.69
   8   7 -26   -6.59    5.29
   8   7 -26    0.32    7.93
  -8  -7  26   31.79   24.60
  -8  -7  26   -2.61    7.03
   8   6 -26   10.55    5.65
   8   6 -26    4.50    7.92
  -8  -6  26    0.70    6.97
  -8  -6  26   -0.43   24.08
   8   5 -26   -0.32    7.47
   8   5 -26    0.88    5.20
  -8  -5  26    4.02    6.99
  -8  -5  26   -1.69   23.35
   8   4 -26   20.98    6.18
   8   4 -26    0.33    7.77
  -8  -4  26   -0.82   21.52
   8   3 -26    2.65    7.40
   8   3 -26  -13.26    6.11
  -8  -3  26    7.68   19.56
   8   2 -26    0.34    6.32
  -8  -2  26    0.41   19.05
  -1   8 -26   75.79   12.40
   1  -8  26   88.12   22.98
   1  -8  26   11.80   10.68
   0   8 -26   31.38    7.24
   0   8 -26   47.39   10.14
   0  -8  26   -1.91    8.33
   1   8 -26   60.96   13.84
  -1  -8  26   30.60   12.76
  -1  -8  26  125.28   25.32
   2   8 -26    6.83    7.36
   2   8 -26   -1.76    4.21
  -2  -8  26  -61.22   22.36
  -2  -8  26    3.87    5.78
   3   8 -26    0.47    4.19
   3   8 -26   -7.51    7.12
  -3  -8  26    5.82   22.10
  -3  -8  26    0.31    5.87
   4   8 -26    8.52    7.84
   4   8 -26   25.39    5.48
  -4  -8  26    1.64    7.12
  -4  -8  26  -11.27   22.19
   5   8 -26   -0.29    7.22
   5   8 -26    1.02    4.71
  -5  -8  26   -1.55   22.27
  -5  -8  26    0.34    6.73
   6   8 -26   -2.98    7.32
   6   8 -26    1.59    4.60
  -6  -8  26    2.52    6.90
  -6  -8  26  -21.96   23.79
   7   8 -26    1.10    4.89
   7   8 -26   -0.31    7.68
  -7  -8  26   -6.34   24.76
  -7  -8  26   -0.38    7.66
   8   8 -26    0.32    8.08
   8   8 -26    0.29    5.26
  -8  -8  26  -74.36   26.74
  -8  -8  26   -0.39    7.59
   9   8 -26  -27.82    6.15
   9   8 -26   -0.34    9.71
   9   7 -26    0.34    8.84
   9   7 -26   -9.79    5.96
  -9  -7  26    0.39    7.15
   9   6 -26  -14.18    5.77
   9   6 -26   -8.44    7.83
  -9  -6  26    4.77    7.21
  -9  -6  26    8.65   24.98
   9   5 -26    9.70    5.93
   9   5 -26    0.34    7.56
  -9  -5  26  -49.91   24.24
  -9  -5  26    0.35    6.50
   9   4 -26    0.34    7.59
   9   4 -26   -4.91    5.77
  -9  -4  26   -0.86   21.97
   9   3 -26    0.35    7.98
   9   3 -26    7.51    6.59
  -9  -3  26   18.59   20.77
   9   2 -26   -1.03    6.55
  -9  -2  26  -25.65   19.87
  -1   9 -26   12.05    3.74
  -1   9 -26   15.53    7.20
   1  -9  26   -9.36   20.13
   1  -9  26   -5.13    5.47
   0   9 -26    2.56    3.61
   0   9 -26    0.27    6.65
   0  -9  26   12.77   20.61
   0  -9  26    5.12    5.90
   1   9 -26   17.28    7.23
   1   9 -26    2.27    4.05
  -1  -9  26   19.50   20.62
  -1  -9  26    0.31    6.04
   2   9 -26    3.05    3.99
   2   9 -26   11.12    6.72
  -2  -9  26   12.58   21.70
  -2  -9  26  -16.66    6.57
   3   9 -26    0.85    7.20
   3   9 -26    9.20    4.50
  -3  -9  26   37.08   22.85
  -3  -9  26    0.34    6.79
   4   9 -26   -0.73    4.30
   4   9 -26    0.29    7.00
  -4  -9  26   -2.29   22.38
  -4  -9  26    2.16    7.09
   5   9 -26   11.38    4.81
   5   9 -26    3.57    7.64
  -5  -9  26   -0.40   23.47
  -5  -9  26    0.38    6.53
   6   9 -26   -0.30    7.73
   6   9 -26    6.61    4.87
  -6  -9  26    0.79    7.41
  -6  -9  26   26.86   24.90
   7   9 -26  -17.60    5.60
   7   9 -26   -4.72    8.29
  -7  -9  26  -11.60    8.46
   8   9 -26   -5.26    9.54
   9   9 -26    1.48    5.02
   9   9 -26    2.73    8.20
  -9  -9  26   -0.46    8.55
  -9  -9  26  -14.00   27.47
  10   9 -26    2.46    5.69
  10   9 -26   -5.41    8.77
 -10  -9  26   29.10   29.60
  10   8 -26    0.35    8.81
  10   8 -26   -3.94    5.63
 -10  -8  26   -0.44    8.45
 -10  -8  26    3.42   28.36
  10   7 -26    0.35    8.28
  10   7 -26    0.31    5.30
 -10  -7  26    0.41    7.67
 -10  -7  26  -14.47   27.81
  10   5 -26    3.22    8.38
  10   5 -26    0.31    5.95
 -10  -5  26   -0.37    7.76
 -10  -5  26   30.47   24.74
  10   4 -26    9.83    5.96
  10   4 -26    0.36    8.25
 -10  -4  26  -13.47   23.37
  10   3 -26   -1.44    7.99
  10   3 -26    0.65    6.19
 -10  -3  26    5.29   21.40
  10   2 -26    5.33    6.69
  -1  10 -26    1.62    6.86
  -1  10 -26    1.24    3.41
   1 -10  26    1.59    5.34
   1 -10  26    1.97   19.96
   0  10 -26    0.27    7.09
   0  10 -26    3.24    3.76
   0 -10  26    7.51   20.90
   0 -10  26   10.75    6.10
   1  10 -26  -21.69    7.18
   1  10 -26    0.45    3.99
  -1 -10  26    6.50    6.39
  -1 -10  26  -47.63   21.83
   2  10 -26    1.19    4.17
   2  10 -26   -5.36    6.86
  -2 -10  26  -15.63   21.65
  -2 -10  26    3.59    6.53
   3  10 -26    4.61    7.21
   3  10 -26    7.73    4.35
  -3 -10  26    0.37    6.48
  -3 -10  26    2.25   21.82
   4  10 -26   14.15    4.72
   4  10 -26    0.29    7.58
  -4 -10  26    8.11   23.00
  -4 -10  26   -0.39    7.17
   5  10 -26    1.82    7.75
   5  10 -26   12.95    4.90
  -5 -10  26   -7.34    7.59
  -5 -10  26  -34.35   24.20
   7  10 -26    0.29    5.21
   7  10 -26    3.55    7.84
  -7 -10  26   12.61   26.77
  -7 -10  26    0.45    8.27
   8  10 -26   -4.73    8.76
  -8 -10  26  -41.29   28.54
   9  10 -26   -0.35    8.65
   9  10 -26   -7.82    5.68
  -9 -10  26    4.95    9.00
  -9 -10  26   11.48   28.20
  11   8 -26   -0.75    9.20
  11   8 -26   -0.31    5.76
 -11  -8  26  -20.51   29.36
  11   7 -26   -0.38    9.00
  11   7 -26    4.09    5.46
 -11  -7  26  -37.44   28.38
 -11  -7  26    0.43    8.38
  11   6 -26    9.47    8.52
  11   6 -26    0.64    6.10
 -11  -6  26   -5.51   27.05
 -11  -6  26    1.21    7.73
  11   5 -26    0.32    6.11
  11   5 -26   -6.44    9.47
 -11  -5  26    0.38    7.32
 -11  -5  26  -51.62   26.80
  11   3 -26   -4.67    6.32
  11   3 -26    0.76    8.26
  11   2 -26   -0.36    6.45
  -1  11 -26   -3.59    3.90
  -1  11 -26   -4.35    7.06
   1 -11  26   -1.00   20.77
   1 -11  26    2.50    6.30
   0  11 -26    2.59    3.95
   0  11 -26   -0.28    7.17
   0 -11  26   14.42   21.43
   0 -11  26    7.04    6.66
   1  11 -26  -16.85    4.27
   1  11 -26    0.56    7.13
  -1 -11  26   17.01   22.40
  -1 -11  26  -10.82    6.80
   2  11 -26   -4.35    4.04
   2  11 -26    0.86    7.33
  -2 -11  26  -32.14   22.84
  -2 -11  26    0.40    7.35
   3  11 -26  -14.23    4.88
   3  11 -26  -21.97    8.00
  -3 -11  26   -0.41    7.66
   5  11 -26    4.71    5.20
   5  11 -26    2.77    7.80
  -5 -11  26  -35.21    8.80
  -5 -11  26  -53.29   25.34
   6  11 -26    7.02    7.92
   6  11 -26    0.31    5.29
  -6 -11  26   -6.76   25.38
  -6 -11  26  -15.15    8.76
   7  11 -26    0.33    8.42
   7  11 -26   -0.32    5.51
  -7 -11  26  -25.52   27.65
  -7 -11  26    1.49    9.73
   8  11 -26    0.35    9.03
  -8 -11  26    8.74   27.68
  12   7 -26   -0.40    9.39
 -12  -7  26   30.14   30.87
 -12  -7  26   -0.45    7.37
  12   6 -26    2.26    6.12
  12   6 -26    1.20    9.46
 -12  -6  26    0.43    7.68
 -12  -6  26   22.44   29.32
  12   5 -26    3.67    6.07
  12   5 -26    0.40    9.44
 -12  -5  26  -15.99    7.89
 -12  -5  26    9.58   26.92
  12   4 -26   -7.93    8.54
  12   4 -26    0.33    6.29
 -12  -4  26    7.83   25.09
 -12  -4  26    3.48    7.75
  12   3 -26   -5.89    6.08
 -12  -3  26  -27.12   23.36
   0  12 -26  -10.37    7.42
   1  12 -26    0.54    4.61
   1  12 -26  -30.91    7.96
  -1 -12  26   -9.89    8.44
   2  12 -26  -13.47    4.61
   2  12 -26    0.88    7.33
  -2 -12  26   20.50   22.71
  -2 -12  26   -0.45    8.00
   3  12 -26   18.96    7.99
   3  12 -26   -8.69    4.99
  -3 -12  26    0.46    7.73
  -3 -12  26   26.89   22.59
   4  12 -26    0.30    5.35
   4  12 -26   -0.31    8.03
  -4 -12  26   35.26   24.39
  -4 -12  26    9.55    8.23
   5  12 -26    1.91    7.89
   5  12 -26   -4.74    5.34
  -5 -12  26   16.87   25.34
  -5 -12  26   -3.99    9.15
   6  12 -26   -1.98    8.19
  -6 -12  26    2.61    9.44
  -6 -12  26    6.42   27.76
  13   6 -26    1.28    9.99
 -13  -6  26    8.15   29.78
  13   5 -26   -2.12    9.30
  13   5 -26    3.75    6.28
 -13  -5  26   -9.47   27.79
 -13  -5  26    1.69    8.49
  13   4 -26  -26.65    6.85
  13   4 -26    2.09    9.18
 -13  -4  26    0.40    7.91
 -13  -4  26  -15.33   26.61
  13   3 -26   -7.43    6.75
 -13  -3  26    0.51   24.06
   0  13 -26  -12.75    7.77
   0 -13  26  -29.76   22.09
   1  13 -26   -6.11    7.74
  -1 -13  26  -15.78   22.91
   2  13 -26    0.30    7.56
  -2 -13  26    0.49    8.89
  -2 -13  26   -2.61   23.21
   3  13 -26    0.31    7.56
  -3 -13  26   21.66   23.58
  -3 -13  26    1.03    8.53
   4  13 -26   -0.32    7.95
  -4 -13  26  -51.07   24.88
  -4 -13  26   -0.54    8.81
   5  13 -26    0.33    8.29
  14   4 -26    7.47    9.86
  14   4 -26    0.71    6.61
 -14  -4  26  -11.69   26.98
  14   3 -26   -0.36    7.00
  -1   2 -27    8.02    6.03
   0   2 -27   -3.59    5.71
   1   2 -27    9.59    6.44
   2   2 -27    3.18    6.33
  -2   2 -27   -4.07    5.12
  -2   3 -27   11.04    4.98
   3   2 -27    0.98    6.05
  -1   3 -27  -13.54    4.74
   1  -3  27  -11.30   14.47
   0   3 -27    6.43    5.64
   0   3 -27   12.53    7.18
   0  -3  27   16.46   15.55
   1   3 -27    1.95    5.03
   1   3 -27   -5.11    6.92
  -1  -3  27    8.84   15.85
   2   3 -27   10.08    5.80
   2   3 -27    4.56    6.95
  -2  -3  27   -3.73   16.98
   3   3 -27    0.30    5.31
   3   3 -27    0.62    6.83
  -3  -3  27    1.06   17.40
   4   3 -27   -3.66    5.27
   4   3 -27    2.82    7.06
  -4  -3  27   -4.38   17.64
   4   2 -27   -0.33    6.71
  -2   4 -27   16.66    5.01
  -4  -2  27    1.50   17.00
  -1   4 -27    5.68    4.29
  -1   4 -27    1.70    6.55
   1  -4  27   -8.64   14.92
   0   4 -27    1.21    4.33
   0   4 -27    0.57    6.66
   0  -4  27   -8.11   15.73
   1   4 -27    4.57    4.92
   1   4 -27    0.88    7.04
  -1  -4  27    5.89   16.80
   2   4 -27   15.72    7.74
   2   4 -27  -15.04    5.45
  -2  -4  27   -2.39   17.66
   3   4 -27   -1.09    5.17
   3   4 -27    1.51    7.05
  -3  -4  27    3.55   18.73
   4   4 -27    0.92    7.25
   4   4 -27   -0.28    5.28
  -4  -4  27   11.44   19.12
   5   4 -27   -3.46    7.18
   5   4 -27    0.29    5.18
  -5  -4  27    7.29   19.77
   5   3 -27    4.08    5.90
   5   3 -27    9.28    7.22
  -5  -3  27    6.44   18.49
  -2   5 -27    5.18    6.85
   5   2 -27   -8.89    6.30
  -2   5 -27   -3.56    3.82
  -5  -2  27   -1.93   16.99
  -1   5 -27    6.70    7.00
  -1   5 -27   16.26    4.62
   1  -5  27   -3.94   16.63
   1  -5  27   -2.15    4.68
   0   5 -27    1.83    4.41
   0   5 -27   -3.68    6.61
   0  -5  27   -9.26   17.38
   1   5 -27    7.17    6.94
   1   5 -27    3.92    4.82
  -1  -5  27   -8.05   18.08
   2   5 -27    3.08    5.18
   2   5 -27  -11.63    6.74
  -2  -5  27    8.42   18.82
   3   5 -27    4.53    5.02
   3   5 -27    0.30    6.81
  -3  -5  27    2.56   19.71
   4   5 -27    1.93    4.95
   4   5 -27   -0.30    7.05
  -4  -5  27    7.61   21.21
   5   5 -27    0.31    7.20
   5   5 -27    0.28    5.56
  -5  -5  27    0.79   22.28
   6   5 -27    4.78    7.54
   6   5 -27    2.06    5.30
  -6  -5  27    0.82   21.90
   6   4 -27   -4.53    7.60
   6   4 -27    4.45    5.73
  -6  -4  27   -0.40   20.72
   6   3 -27    0.32    6.03
   6   3 -27   -1.64    7.36
  -6  -3  27    3.54   19.56
  -2   6 -27   -0.19    3.52
   6   2 -27    0.34    6.14
  -6  -2  27    3.61   18.44
  -1   6 -27    2.67    3.68
  -1   6 -27  -11.03    7.23
   1  -6  27   17.03   18.33
   1  -6  27   -4.84    4.48
   0   6 -27   -8.96    6.62
   0   6 -27    4.67    4.44
   0  -6  27  -10.51    4.97
   0  -6  27    1.99   19.32
   1   6 -27   -6.39    4.17
   1   6 -27    0.28    6.93
  -1  -6  27    4.35    5.22
  -1  -6  27    4.46   19.39
   2   6 -27   -8.65    6.88
   2   6 -27    3.25    4.77
  -2  -6  27  -50.88   21.21
  -2  -6  27  -17.20    5.67
   3   6 -27    0.26    4.81
   3   6 -27  -17.91    7.38
  -3  -6  27   16.40   22.10
  -3  -6  27    0.30    5.84
   4   6 -27  -29.06    7.81
   4   6 -27    2.72    5.35
  -4  -6  27  -28.65   23.54
  -4  -6  27   -0.31    6.24
   5   6 -27   -2.15    7.13
   5   6 -27    3.94    5.52
  -5  -6  27    0.32    6.05
  -5  -6  27    0.40   22.94
   6   6 -27   -5.06    7.10
   6   6 -27    0.29    5.49
  -6  -6  27   -0.42   23.40
  -6  -6  27    0.34    6.32
   7   6 -27    0.33    7.49
  -7  -6  27  -23.84   24.72
  -7  -6  27    7.00    7.00
   7   5 -27   -4.63    7.73
  -7  -5  27   -0.43   22.59
   7   4 -27    8.70    7.69
  -7  -4  27   -0.83   21.09
   7   3 -27    6.76    7.71
  -7  -3  27    0.41   19.64
  -7  -2  27   -4.16   18.95
  -1   7 -27  -15.60    7.60
  -1   7 -27  -12.39    3.73
   1  -7  27  -23.74   19.35
   1  -7  27   12.40    5.28
   0   7 -27   38.59   10.54
   0  -7  27   18.73    8.81
   0  -7  27  103.79   22.34
   1   7 -27   -4.51    4.48
   1   7 -27  -19.82    7.83
  -1  -7  27   -8.28    5.43
  -1  -7  27   50.23   21.21
   2   7 -27  -15.79    7.48
   2   7 -27    2.38    4.34
  -2  -7  27   -0.30    6.04
   3   7 -27    0.88    7.18
   3   7 -27   15.02    4.66
  -3  -7  27    4.58   21.99
  -3  -7  27  -12.35    6.41
   4   7 -27   11.76    4.81
   4   7 -27    0.30    7.35
  -4  -7  27    0.33    6.11
  -4  -7  27    1.19   22.41
   5   7 -27    0.31    7.36
   5   7 -27   -3.54    5.27
  -5  -7  27  -48.02   23.68
  -5  -7  27    0.35    6.37
   6   7 -27    9.15    7.61
   6   7 -27    2.82    5.05
  -6  -7  27    0.36    6.94
  -6  -7  27  -20.87   24.22
   7   7 -27    0.33    8.12
   7   7 -27   -5.56    5.47
  -7  -7  27  -46.58   25.35
  -7  -7  27  -10.50    7.27
   8   7 -27    0.34    8.96
   8   7 -27  -17.27    6.21
   8   6 -27    6.17    8.40
   8   6 -27    5.27    5.77
  -8  -6  27    2.91    7.33
  -8  -6  27    5.07   25.43
   8   5 -27    8.34    6.04
   8   5 -27    0.34    7.97
  -8  -5  27    0.35    6.52
  -8  -5  27   -8.01   23.76
   8   4 -27   -1.04    8.21
   8   4 -27  -12.02    6.18
  -8  -4  27   -0.43   21.96
   8   3 -27    0.35    7.76
   8   3 -27    5.00    6.48
  -8  -3  27    2.98   20.67
  -1   8 -27    3.34    7.33
  -1   8 -27   15.14    4.11
   1  -8  27   -7.97   19.99
   1  -8  27    7.77    5.67
   0   8 -27   -0.82    3.67
   0   8 -27   -1.70    7.25
   0  -8  27    6.57    5.52
   0  -8  27   29.28   21.08
   1   8 -27    5.46    4.34
   1   8 -27    1.43    7.23
  -1  -8  27    2.72    6.00
  -1  -8  27    4.36   21.61
   2   8 -27    0.70    4.07
   2   8 -27   -5.80    7.26
  -2  -8  27   -0.31    5.89
  -2  -8  27    1.89   22.32
   3   8 -27   16.50    7.88
   3   8 -27    8.41    4.70
  -3  -8  27  -16.38   22.45
  -3  -8  27    0.33    6.31
   4   8 -27    0.30    7.27
   4   8 -27   -9.35    4.84
  -4  -8  27    5.64   24.03
  -4  -8  27    0.34    6.91
   5   8 -27    2.77    8.41
   5   8 -27   17.39    5.44
  -5  -8  27   22.11   24.56
  -5  -8  27    5.04    7.22
   6   8 -27    0.28    5.12
   6   8 -27    6.68    7.87
  -6  -8  27    0.38    7.18
  -6  -8  27   12.95   25.05
   7   8 -27   -0.33    8.39
   7   8 -27  -11.15    5.75
  -7  -8  27   -0.39    7.50
   8   8 -27   -8.85    9.69
  -8  -8  27  -57.35   29.36
   9   8 -27   -0.31    5.79
   9   8 -27    0.36    8.75
  -9  -8  27    4.73    8.34
  -9  -8  27   10.39   28.87
   9   7 -27    0.31    5.88
   9   7 -27    1.43    8.97
  -9  -7  27  -14.63   27.80
  -9  -7  27    0.41    6.67
   9   6 -27    0.36    9.78
   9   6 -27   -8.30    6.77
  -9  -6  27  -22.20    7.87
  -9  -6  27  -62.67   30.80
   9   5 -27    0.32    6.04
   9   5 -27    2.17    8.38
  -9  -5  27    1.46    6.93
  -9  -5  27   19.05   24.37
   9   4 -27   22.66    6.76
   9   4 -27    0.36    8.85
  -9  -4  27    2.25   22.68
   9   3 -27   10.34    6.40
   9   3 -27    0.37    8.20
  -9  -3  27    6.68   21.66
  -1   9 -27    0.28    7.18
  -1   9 -27    0.78    3.47
   1  -9  27   22.73   20.93
   1  -9  27   -0.30    5.60
   0   9 -27   24.03    7.89
   0   9 -27    6.41    4.28
   0  -9  27   32.04   22.08
   0  -9  27   -1.88    6.17
   1   9 -27    3.92    4.00
   1   9 -27    0.29    7.52
  -1  -9  27    1.30    6.20
  -1  -9  27   16.07   22.67
   2   9 -27    0.59    7.25
   2   9 -27    3.47    4.15
  -2  -9  27    1.03    6.55
  -2  -9  27    2.32   23.12
   3   9 -27    0.30    7.18
   3   9 -27    1.47    4.36
  -3  -9  27  -50.66   24.12
  -3  -9  27   -3.96    6.61
   4   9 -27   -0.30    7.90
   4   9 -27   12.85    5.18
  -4  -9  27   41.15   24.68
  -4  -9  27    5.67    7.61
   5   9 -27    5.63    7.85
   5   9 -27    0.27    4.63
  -5  -9  27    0.40    7.41
  -5  -9  27   -7.22   24.68
   6   9 -27   -0.28    5.62
   6   9 -27   -5.81    8.94
  -6  -9  27  -26.95    9.03
  -6  -9  27  104.14   28.60
   7   9 -27    0.33    8.55
   7   9 -27    2.34    5.11
  -7  -9  27   -3.91    8.18
  -7  -9  27   -4.56   27.76
   8   9 -27    0.35    8.73
  -8  -9  27   -0.48   29.56
   9   9 -27    0.36    9.13
  -9  -9  27   -1.00   29.50
  10   8 -27    0.38    9.64
 -10  -8  27  -28.49   29.95
  10   7 -27  -12.68    6.23
  10   7 -27   -0.38    9.15
 -10  -7  27  -18.88   28.90
 -10  -7  27    0.42    8.03
  10   6 -27   -9.87    6.27
  10   6 -27   -0.38    8.91
 -10  -6  27    0.40    8.11
 -10  -6  27   44.85   27.69
  10   5 -27    0.33    6.55
  10   5 -27   -0.38   10.57
 -10  -5  27    0.38    7.67
  10   4 -27  -21.42    7.25
  10   4 -27    0.38    9.22
  10   3 -27   -9.58    6.40
  10   3 -27    4.21    8.95
 -10  -3  27   -4.19   22.36
  -1  10 -27   -0.22    3.76
  -1  10 -27    6.87    7.35
   1 -10  27    2.62    5.91
   0  10 -27   18.84    7.75
   0  10 -27    2.26    3.84
   0 -10  27  -19.13   22.63
   0 -10  27    7.43    6.24
   1  10 -27    7.93    7.59
   1  10 -27    4.53    4.27
  -1 -10  27    1.07    6.14
  -1 -10  27    7.23   23.29
   2  10 -27    0.24    4.53
   2  10 -27   -8.05    7.52
  -2 -10  27    1.85    6.60
  -2 -10  27  -25.50   24.21
   3  10 -27   15.50    7.85
   3  10 -27    1.53    4.48
  -3 -10  27  -11.26    6.87
  -3 -10  27   -9.71   24.99
   4  10 -27   -9.88    5.04
   4  10 -27    0.31    8.42
  -4 -10  27  -16.71    8.15
   5  10 -27   -8.32    8.82
   5  10 -27   -6.15    5.34
  -5 -10  27  -11.12    9.00
   6  10 -27    0.99    8.10
   6  10 -27    2.34    5.40
  -6 -10  27    5.83    8.15
  -6 -10  27   48.15   27.40
   7  10 -27    0.30    5.58
   7  10 -27   -0.34    8.32
  -7 -10  27  -28.50   29.28
  -7 -10  27    7.53    9.11
   8  10 -27   -0.35    8.77
  -8 -10  27  -41.36   30.53
  11   7 -27    0.40    9.41
 -11  -7  27  -51.55   31.47
 -11  -7  27    0.45    6.93
  11   6 -27    0.40    9.56
  11   6 -27    0.68    6.35
 -11  -6  27  -20.97    8.42
 -11  -6  27    6.82   28.18
  11   5 -27   -9.57    6.52
  11   5 -27   -0.80    9.59
 -11  -5  27   14.72   26.92
 -11  -5  27    4.79    8.11
  11   4 -27    0.40    9.04
  11   4 -27   -0.35    6.67
 -11  -4  27    6.90   24.81
  11   3 -27  -18.68    6.81
 -11  -3  27  -29.30   23.14
  -1  11 -27   -8.12    4.94
   0  11 -27  125.12   27.25
   0 -11  27  101.18   26.83
   1  11 -27   56.88   15.34
  -1 -11  27   64.85   15.04
   2  11 -27   -4.30    4.88
   3  11 -27    1.41    4.93
   3  11 -27  -23.85    8.01
  -3 -11  27  -12.89    7.94
  -3 -11  27   -0.41   24.64
   4  11 -27    0.59    5.04
   4  11 -27    0.95    7.99
  -4 -11  27    3.60    8.24
  -4 -11  27    2.52   24.72
   5  11 -27    3.67    5.36
   5  11 -27   -0.33    7.88
  -5 -11  27   15.68    9.00
  -5 -11  27  -45.63   26.34
   6  11 -27   -0.34    8.30
   6  11 -27    1.92    5.29
  -6 -11  27  -10.16    9.56
  -6 -11  27   41.45   27.46
   7  11 -27   -3.48    8.81
  12   6 -27    0.42   10.49
 -12  -6  27   12.06   29.98
  12   5 -27    6.00    6.89
  12   5 -27    0.42    9.87
 -12  -5  27   28.66   27.82
 -12  -5  27   -2.50    7.76
  12   4 -27    0.42    9.16
  12   4 -27    7.79    6.48
 -12  -4  27    0.40    8.05
 -12  -4  27   -3.09   25.95
  12   3 -27   -1.47    6.94
 -12  -3  27  -13.29   24.62
   0  12 -27    5.84    4.45
   0  12 -27   -0.30    7.51
   0 -12  27  -22.20   23.39
   0 -12  27   -0.85    7.52
   1  12 -27  -14.48    7.53
   1  12 -27    2.23    4.65
  -1 -12  27   10.64    8.05
  -1 -12  27  -29.47   24.52
   2  12 -27   -8.33    7.64
   2  12 -27    0.29    4.87
  -2 -12  27   49.38   25.33
  -2 -12  27    4.55    8.65
   3  12 -27    0.32    7.85
   3  12 -27   -0.30    4.77
  -3 -12  27  -17.15   25.70
  -3 -12  27    0.48    8.27
   4  12 -27   -0.32    5.16
   4  12 -27    0.33    7.82
  -4 -12  27   -4.23   27.20
  -4 -12  27    0.50    9.46
   5  12 -27    5.68    8.29
   5  12 -27   -2.00    4.91
  -5 -12  27   14.51   26.67
  13   4 -27    0.37    6.34
  13   4 -27    0.44    9.80
 -13  -4  27   -5.38   27.53
  13   3 -27    4.49    7.08
   0  13 -27   -4.21    7.66
   0 -13  27  -35.40   23.36
   1  13 -27   -5.24    8.14
  -1 -13  27  -25.29    8.51
  -1 -13  27    2.30   23.60
   2  13 -27    4.76    8.25
  -2 -13  27    6.75   24.53
  -2 -13  27   -0.51    8.98
   3  13 -27    1.31    8.68
  -3 -13  27    1.60    9.53
  -3 -13  27   31.27   25.55
  -1   2 -28  -11.77    5.65
   0   2 -28   25.49    8.38
   1   2 -28    6.52    6.10
   2   2 -28    4.02    6.46
  -2   2 -28    6.00    5.58
  -2   3 -28   -0.25    5.11
  -1   3 -28    7.57    5.23
   0   3 -28   -1.70    5.34
   0  -3  28  -10.05   15.50
   1   3 -28   -2.07    5.53
  -1  -3  28   10.07   16.44
   2   3 -28   -8.44    7.25
   2   3 -28   -0.30    5.66
  -2  -3  28   29.85   17.41
   3   3 -28   -4.70    5.75
   3   3 -28    0.33    7.22
  -3  -3  28   -1.86   17.59
   4   3 -28   13.86    6.19
   4   3 -28    0.33    7.60
  -4  -3  28    4.63   18.70
  -2   4 -28    0.90    4.27
  -1   4 -28    2.11    7.02
  -1   4 -28  -11.54    4.87
   1  -4  28   -0.31   15.94
   0   4 -28    1.28    4.73
   0   4 -28   -2.45    7.01
   0  -4  28   -4.28   16.29
   1   4 -28    5.90    6.91
   1   4 -28   -5.37    5.15
  -1  -4  28   16.52   17.83
   2   4 -28   -6.42    5.39
   2   4 -28    0.31    7.08
  -2  -4  28   33.36   18.47
   3   4 -28    0.29    5.25
   3   4 -28    3.83    7.53
  -3  -4  28    4.85   19.23
   4   4 -28    0.33    7.41
   4   4 -28  -17.81    5.62
  -4  -4  28   -9.35   21.09
   5   4 -28   -0.31    5.40
   5   4 -28    4.98    7.90
  -5  -4  28   -7.69   21.14
   5   3 -28    0.99    6.45
   5   3 -28   -3.06    7.85
  -5  -3  28  -11.20   19.25
  -1   5 -28    9.76    4.36
  -1   5 -28   11.02    7.60
   1  -5  28  -11.15   17.61
   1  -5  28   -5.54    4.99
   0   5 -28  -11.79    7.50
   0   5 -28   -2.43    4.76
   0  -5  28  -32.93   18.79
   1   5 -28    6.23    4.87
   1   5 -28  -12.03    7.39
  -1  -5  28  -34.27   19.23
   2   5 -28    4.08    8.05
   2   5 -28   37.23   10.20
  -2  -5  28   75.66   21.74
   3   5 -28   -8.47    5.55
   3   5 -28  -16.19    7.59
  -3  -5  28  -21.93   21.43
   4   5 -28  -11.01    8.13
   4   5 -28    2.63    5.70
  -4  -5  28   -4.01   20.82
   5   5 -28   -2.41    5.99
   5   5 -28    1.99    7.71
  -5  -5  28   -0.83   21.75
   6   5 -28  -16.13    5.63
   6   5 -28    4.44    8.16
  -6  -5  28    0.43   22.87
   6   4 -28    6.89    5.74
   6   4 -28   -0.34    7.97
  -6  -4  28    2.10   21.16
   6   3 -28   -0.35    7.93
   6   3 -28   15.01    6.52
  -6  -3  28    1.66   20.42
  -1   6 -28    0.29    7.29
  -1   6 -28    4.36    4.27
   1  -6  28  -32.16   18.76
   1  -6  28   -7.12    5.06
   0   6 -28   -1.65    4.60
   0   6 -28   -5.12    7.52
   0  -6  28   -5.40    5.29
   0  -6  28  -35.52   20.45
   1   6 -28  -18.93    7.76
   1   6 -28    1.01    4.79
  -1  -6  28  -18.63    5.70
  -1  -6  28   -4.80   20.39
   2   6 -28   -4.77    5.28
   2   6 -28   -9.91    7.44
  -2  -6  28  -20.42   21.91
  -2  -6  28    0.30    5.85
   3   6 -28   11.64    7.84
   3   6 -28    0.55    5.34
  -3  -6  28    0.80   22.43
  -3  -6  28    9.47    6.35
   4   6 -28    9.78    5.72
   4   6 -28  -12.20    8.02
  -4  -6  28   -3.28    6.25
  -4  -6  28   -7.08   23.56
   5   6 -28    0.33    7.75
   5   6 -28    1.19    5.86
  -5  -6  28    2.16   23.78
  -5  -6  28    0.34    6.36
   6   6 -28    0.34    8.36
   6   6 -28    5.54    5.82
  -6  -6  28   45.43   25.01
  -6  -6  28    0.35    6.99
   7   6 -28   -2.81    8.10
   7   6 -28   -7.00    6.01
  -7  -6  28    2.93    6.98
  -7  -6  28  -14.99   25.03
   7   5 -28    0.35    7.99
   7   5 -28    0.32    5.82
  -7  -5  28   -2.84    7.22
  -7  -5  28   14.85   24.39
   7   4 -28    2.47    7.92
  -7  -4  28   -6.98   21.63
   7   3 -28    3.24    7.95
  -7  -3  28   -1.30   20.78
  -1   7 -28    0.42    3.57
  -1   7 -28   11.50    7.47
   1  -7  28   22.93   19.40
   1  -7  28    0.52    5.08
   0   7 -28   15.26    7.41
   0   7 -28    0.90    4.11
   0  -7  28  -36.85   20.55
   0  -7  28   -6.75    5.24
   1   7 -28   -0.24    4.40
   1   7 -28   -5.46    7.49
  -1  -7  28   -3.30    5.65
  -1  -7  28   37.86   20.92
   2   7 -28    0.92    7.28
   2   7 -28    2.28    4.56
  -2  -7  28   -3.80    6.02
  -2  -7  28  -11.05   22.19
   3   7 -28    5.31    7.71
   3   7 -28  -12.28    5.00
  -3  -7  28   47.97   23.70
  -3  -7  28   -1.00    6.69
   4   7 -28   22.62    7.78
   4   7 -28   -0.28    5.12
  -4  -7  28  -10.60    6.49
  -4  -7  28   -6.38   23.65
   5   7 -28    0.33    7.97
   5   7 -28    5.63    5.82
  -5  -7  28   11.04    7.09
  -5  -7  28   29.51   24.45
   6   7 -28    5.53    5.62
   6   7 -28   -0.34    8.14
  -6  -7  28    0.38    6.58
  -6  -7  28  -13.25   25.69
   7   7 -28   -9.07    9.53
   7   7 -28   -7.12    6.46
  -7  -7  28  -51.29   28.82
  -7  -7  28  -10.99    7.96
   8   7 -28    0.36    8.94
  -8  -7  28    9.89   28.52
   8   5 -28   -0.37    8.32
   8   5 -28    0.33    5.78
  -8  -5  28  -33.25   25.75
   8   4 -28    1.00    6.64
   8   4 -28    0.37    8.36
  -8  -4  28   30.04   22.79
   8   3 -28    0.37    8.28
   8   3 -28    0.35    6.52
  -8  -3  28   -1.35   21.13
  -1   8 -28    6.99    3.66
  -1   8 -28    6.20    7.42
   1  -8  28   -3.63    5.40
   1  -8  28    6.75   21.13
   0   8 -28   17.08    7.65
   0   8 -28    4.75    4.24
   0  -8  28   -1.12   22.16
   0  -8  28   -6.87    5.70
   1   8 -28   -7.48    4.30
   1   8 -28    3.64    7.63
  -1  -8  28   -5.90    6.07
  -1  -8  28    4.30   22.88
   2   8 -28    9.72    4.80
   2   8 -28    9.22    7.76
  -2  -8  28  -31.29   24.02
  -2  -8  28    0.33    6.39
   3   8 -28   -0.53    4.81
   3   8 -28    0.62    7.66
  -3  -8  28   -3.79   24.33
  -3  -8  28  -19.31    6.96
   4   8 -28   11.04    4.99
   4   8 -28    0.96    7.69
  -4  -8  28    7.39   24.53
  -4  -8  28    0.36    6.44
   5   8 -28   -5.87    8.06
   5   8 -28   -6.35    5.19
  -5  -8  28    7.20   25.20
  -5  -8  28    0.76    7.04
   7   8 -28    0.31    5.89
   7   8 -28   -0.35    8.77
  -7  -8  28  -25.10    8.00
  -7  -8  28   -5.32   27.72
   8   8 -28    0.36    9.27
  -8  -8  28   -7.04   29.50
   9   8 -28    0.33    5.70
   9   8 -28   -7.21    9.44
  -9  -8  28   -8.49   29.88
  -9  -8  28   -0.45    8.27
   9   7 -28    0.38    9.09
   9   7 -28   -8.96    6.18
  -9  -7  28   -0.43    8.33
  -9  -7  28   41.90   29.49
   9   6 -28   -0.34    6.10
   9   6 -28   -6.09    8.88
  -9  -6  28    0.40    7.87
  -9  -6  28   -5.07   27.94
   9   5 -28    0.34    6.78
   9   5 -28   -0.38   10.48
  -9  -5  28    0.38    7.53
   9   4 -28   -0.38    9.78
   9   4 -28   -0.34    7.76
   9   3 -28   17.46    7.49
   9   3 -28    0.39    9.35
  -9  -3  28   58.90   22.86
  -1   9 -28   10.76    7.68
  -1   9 -28    3.86    3.81
   0   9 -28    0.22    3.95
   0   9 -28   -6.36    7.74
   0  -9  28    9.91    6.00
   0  -9  28   45.02   22.97
   1   9 -28  -11.36    7.97
   1   9 -28  -12.67    4.18
  -1  -9  28   46.77   23.86
  -1  -9  28    2.04    6.51
   2   9 -28  -11.82    7.97
   2   9 -28   -0.49    4.57
  -2  -9  28  -62.01   25.08
  -2  -9  28    1.79    7.11
   3   9 -28   -9.80    8.25
   3   9 -28   10.89    4.87
  -3  -9  28    3.77    7.14
  -3  -9  28  -10.18   25.09
   4   9 -28   -6.13    9.02
   4   9 -28  -14.20    5.56
  -4  -9  28  -14.67    8.40
   5   9 -28    2.57    5.49
   5   9 -28   -1.32    9.30
  -5  -9  28    4.86    7.88
   6   9 -28   -0.30    5.27
   6   9 -28   11.25    8.55
  -6  -9  28    1.70    7.93
  -6  -9  28   13.21   27.82
   7   9 -28    0.35    8.71
   7   9 -28   -9.62    5.64
  -7  -9  28    0.91    9.09
  -7  -9  28   14.68   29.03
   8   9 -28    0.37    9.57
  -8  -9  28    9.16   30.54
  10   7 -28    0.40    9.58
 -10  -7  28  -46.57   30.97
  10   6 -28    2.44    6.24
  10   6 -28   14.04    9.31
 -10  -6  28  -26.32    8.98
 -10  -6  28    1.06   28.84
  10   5 -28    0.35    6.56
  10   5 -28    0.40    9.63
 -10  -5  28   -3.58   26.76
 -10  -5  28    0.40    7.91
  10   4 -28   -0.35    6.63
  10   4 -28    0.40    9.20
 -10  -4  28   -8.44   24.86
  10   3 -28   -6.86    7.05
 -10  -3  28  -58.18   25.20
   0  10 -28  124.31   28.89
   0 -10  28  151.65   39.18
  -1 -10  28    6.69    7.64
  -2 -10  28   77.14   18.12
   3  10 -28  -11.30    5.62
  -3 -10  28  -25.20    8.58
   4  10 -28    6.49    5.13
   4  10 -28    2.95    8.23
  -4 -10  28  -11.11    8.00
  -4 -10  28  -28.27   26.92
   5  10 -28    0.30    5.46
   5  10 -28    0.34    8.13
  -5 -10  28   28.71   27.46
  -5 -10  28   -0.45    7.91
   6  10 -28   -0.35    8.76
   6  10 -28    9.58    5.54
  -6 -10  28   -6.58    9.14
  -6 -10  28   -1.92   28.35
   7  10 -28    0.36    8.53
  -7 -10  28   -5.97   29.99
  11   6 -28   -0.42    9.87
 -11  -6  28   35.31   30.15
  11   5 -28    5.93    9.55
  11   5 -28    6.14    6.92
 -11  -5  28    0.42    8.65
 -11  -5  28    3.74   27.52
  11   4 -28   -0.42    9.96
  11   4 -28    2.56    6.75
 -11  -4  28   -3.63   25.88
  11   3 -28  -11.15    7.29
 -11  -3  28   11.35   24.77
   0  11 -28    5.80    4.33
   0  11 -28   -4.02    7.71
   0 -11  28  -25.90   24.45
   0 -11  28    0.39    7.11
   1  11 -28   13.18    8.24
   1  11 -28    0.27    4.65
  -1 -11  28    8.14    7.55
  -1 -11  28  -15.27   25.19
   2  11 -28    2.54    4.84
   2  11 -28    7.35    8.41
  -2 -11  28   11.93   26.10
  -2 -11  28    2.56    8.07
   3  11 -28  -12.71    8.29
   3  11 -28   -5.07    5.19
  -3 -11  28   25.48   26.41
  -3 -11  28   -7.17    8.42
   4  11 -28    0.67    8.05
   4  11 -28   -7.71    5.30
  -4 -11  28   -0.46    8.29
  -4 -11  28   47.15   27.57
   5  11 -28   -0.34    8.34
   5  11 -28    0.32    5.26
  -5 -11  28   23.91   28.29
  -5 -11  28    0.48    8.98
  12   4 -28   -0.89    9.67
 -12  -4  28  -20.65   27.92
  12   3 -28   -6.21    7.15
   0  12 -28   -1.10    4.48
   0  12 -28    7.18    7.91
   0 -12  28   18.73   24.76
   0 -12  28   -8.73    7.68
   1  12 -28   13.07    8.50
   1  12 -28    2.04    5.20
  -1 -12  28   21.52    8.65
  -1 -12  28   -0.41   25.72
   2  12 -28   -6.06    5.31
   2  12 -28    2.61    8.12
  -2 -12  28    2.13   26.41
  -2 -12  28   -6.13    8.05
   3  12 -28   -0.33    8.36
   3  12 -28   -8.60    5.70
  -3 -12  28  -25.13   26.56
  -3 -12  28   -0.49    9.24
   4  12 -28    0.34    8.75
  -4 -12  28  -43.39   27.47
  -4 -12  28    0.52    7.92
   0  13 -28  -11.05    8.22
   0 -13  28  -20.67   25.07
   1  13 -28    0.32    8.01
  -1 -13  28  -13.06    9.05
  -1 -13  28   35.07   26.10
   2  13 -28    0.67    8.54
  -2 -13  28   16.25   26.96
  -1   3 -29    1.14    5.49
   0   3 -29    2.70    6.06
   1   3 -29   -5.93    5.73
  -1  -3  29   43.77   17.68
   2   3 -29   -0.32    6.38
  -2  -3  29    1.90   17.97
   3   3 -29    0.66    6.35
  -3  -3  29   -0.39   18.85
   4   3 -29    4.77    6.33
  -4  -3  29   -1.64   18.73
  -1   4 -29    5.84    4.72
  -1   4 -29   -0.32    7.12
   1  -4  29   -7.63   16.53
   0   4 -29    1.64    7.69
   0   4 -29    2.97    4.83
   0  -4  29  -38.48   17.66
   1   4 -29    1.98    5.46
   1   4 -29  -28.23    8.34
  -1  -4  29  -35.95   18.89
   2   4 -29    0.29    5.47
   2   4 -29    7.07    8.05
  -2  -4  29  -20.06   19.06
   3   4 -29   -7.51    7.94
   3   4 -29    0.91    5.69
  -3  -4  29    1.18   19.50
   4   4 -29   -3.12    7.83
   4   4 -29    2.50    5.96
  -4  -4  29    4.91   20.04
   5   4 -29   -0.35    8.15
   5   4 -29    0.32    5.89
  -5  -4  29   -0.85   21.17
   5   3 -29    5.95    6.63
  -5  -3  29   -7.63   20.13
  -1   5 -29   18.51    5.14
  -1   5 -29   15.45    7.73
   1  -5  29   -1.06    5.50
   1  -5  29   -2.00   17.48
   0   5 -29   -7.12    7.65
   0   5 -29   -0.51    4.75
   0  -5  29  -10.62   18.99
   1   5 -29    1.10    5.30
   1   5 -29    2.30    7.98
  -1  -5  29    5.20   19.78
   2   5 -29    1.15    5.58
   2   5 -29    0.67    8.19
  -2  -5  29  -36.94   21.22
   3   5 -29   -9.14    7.93
   3   5 -29   10.45    5.39
  -3  -5  29   -3.24   21.44
   4   5 -29    0.34    7.80
   4   5 -29   -0.31    5.90
  -4  -5  29   -2.11   22.02
   5   5 -29    0.32    6.07
   5   5 -29    4.59    8.43
  -5  -5  29    8.78   23.03
   6   5 -29   -3.63    8.22
   6   5 -29    0.33    6.22
  -6  -5  29    4.10   23.78
   6   4 -29    0.36    7.76
   6   4 -29   -0.33    6.30
  -6  -4  29    5.31   21.72
   6   3 -29    8.64    6.85
  -6  -3  29   -3.96   20.71
  -1   6 -29    0.32    7.94
  -1   6 -29   14.55    4.73
   1  -6  29   12.49   18.81
   1  -6  29    4.01    5.51
   0   6 -29  -22.81    7.99
   0   6 -29   -1.00    4.66
   0  -6  29    4.05   20.30
   0  -6  29    0.28    5.48
   1   6 -29    4.80    5.43
   1   6 -29    0.65    7.88
  -1  -6  29    0.30    5.50
  -1  -6  29    8.15   21.08
   2   6 -29    1.12    5.25
   2   6 -29   -0.33    7.75
  -2  -6  29   -9.75   22.63
  -2  -6  29    2.22    6.07
   3   6 -29  -11.09    7.85
   3   6 -29    0.88    5.52
  -3  -6  29    0.33    6.47
  -3  -6  29  -23.77   23.52
   4   6 -29    1.22    5.92
   4   6 -29   -6.20    7.93
  -4  -6  29  -11.91   24.12
  -4  -6  29    1.72    7.00
   5   6 -29    2.10    8.40
   5   6 -29    0.31    6.00
  -5  -6  29    0.36    6.92
  -5  -6  29    8.70   24.44
   6   6 -29    1.08    8.64
   6   6 -29    5.85    6.68
  -6  -6  29    3.71    7.30
  -6  -6  29   62.64   26.57
   7   6 -29   12.42    7.73
   7   6 -29    9.69   10.83
  -7  -6  29    0.38    8.65
  -7  -6  29  112.82   30.53
   7   5 -29    0.37    8.97
   7   5 -29    0.33    6.37
  -7  -5  29    0.37    7.19
  -7  -5  29    2.37   25.56
   7   4 -29    3.00    8.39
   7   4 -29    0.34    6.16
  -7  -4  29  -23.49   23.19
   7   3 -29    1.08    6.46
  -7  -3  29    8.70   21.19
  -1   7 -29    5.68    7.80
  -1   7 -29    7.26    4.01
   1  -7  29   -4.93    5.22
   0   7 -29   -1.93    7.79
   0   7 -29    1.42    4.28
   0  -7  29  -22.83   22.28
   0  -7  29   -2.37    5.88
   1   7 -29    0.25    4.84
   1   7 -29    9.47    7.81
  -1  -7  29   10.41   23.09
  -1  -7  29   -2.84    6.27
   2   7 -29   -3.49    5.09
   2   7 -29    1.66    7.76
  -2  -7  29   -5.00    6.38
  -2  -7  29   32.60   23.85
   3   7 -29   -5.72    7.85
   3   7 -29    0.29    5.47
  -3  -7  29   -5.65   24.44
  -3  -7  29    1.37    7.10
   4   7 -29    6.03    5.84
   4   7 -29   -4.46    8.10
  -4  -7  29   67.18   25.57
  -4  -7  29   -0.36    6.63
   5   7 -29   -1.05    8.75
   5   7 -29    1.25    5.75
  -5  -7  29  -63.55   26.92
  -5  -7  29  -23.55    7.40
   6   7 -29   51.16   11.16
   6   7 -29    7.47    7.66
  -6  -7  29   35.38   30.96
  -6  -7  29    2.33    9.04
   7   7 -29    0.37    8.59
   7   7 -29   -0.33    5.66
  -7  -7  29    0.41    7.61
  -7  -7  29  -15.84   30.12
   8   7 -29    0.39    9.64
  -8  -7  29  -21.27   31.11
   8   6 -29   -0.39    9.34
  -8  -6  29   -0.51   27.84
   8   5 -29    0.39   11.23
   8   4 -29   -0.39   11.14
  -8  -4  29  -16.33   26.79
   8   3 -29    0.37    6.75
  -8  -3  29   -4.78   22.19
  -1   8 -29   -2.95    3.70
   0   8 -29    2.28    4.42
   0   8 -29    5.15    8.21
   0  -8  29  -48.20   23.38
   0  -8  29   16.23    6.38
   1   8 -29   -9.78    8.19
   1   8 -29    0.99    4.43
  -1  -8  29   -0.98    6.18
  -1  -8  29   19.86   24.03
   2   8 -29   -7.41    4.91
   2   8 -29  -15.55    8.27
  -2  -8  29   -1.38    6.41
  -2  -8  29  -18.95   24.85
   3   8 -29    8.10    4.94
   3   8 -29   17.11    8.66
  -3  -8  29   -7.60    6.89
  -3  -8  29  -26.79   26.10
   4   8 -29    2.34    5.90
   4   8 -29  -14.37    9.46
  -4  -8  29  -19.40   29.45
  -4  -8  29  -14.79    7.98
   5   8 -29  -12.83    6.10
   5   8 -29  -12.97    9.38
  -5  -8  29  -11.09    7.87
   6   8 -29    2.16    8.59
   6   8 -29    0.32    5.79
  -6  -8  29    0.41    8.09
  -6  -8  29  -36.12   28.08
   7   8 -29    0.37    9.01
   7   8 -29    4.28    6.14
  -7  -8  29    8.30   30.28
   8   8 -29    6.58    9.41
  -8  -8  29  -39.92   31.67
   9   7 -29   -0.41   10.13
  -9  -7  29  -25.53   30.78
   9   6 -29    0.36    6.76
   9   6 -29    0.41    9.77
  -9  -6  29    0.42    8.34
  -9  -6  29  -16.01   29.36
   9   5 -29    1.63    9.86
   9   5 -29    0.36    6.72
  -9  -5  29    1.55   27.15
  -9  -5  29   -0.40    7.50
   9   4 -29  -15.50    6.84
   9   4 -29   -2.03    9.44
  -9  -4  29    5.02   25.01
   9   3 -29  -13.05    8.13
   0   9 -29  119.85   35.38
   0  -9  29  149.12   48.66
   2   9 -29   83.01   20.11
   3   9 -29  -20.66    5.29
  -3  -9  29   -0.40    8.15
   4   9 -29   -0.35    8.35
   4   9 -29    7.82    5.55
  -4  -9  29    4.87    7.91
  -4  -9  29  -52.56   27.53
   5   9 -29   -0.30    5.72
   5   9 -29    9.55    8.91
  -5  -9  29   -8.93    8.20
  -5  -9  29   22.29   28.37
   6   9 -29    0.32    5.76
   6   9 -29    2.18    8.78
  -6  -9  29   -8.44    7.91
  -6  -9  29  -14.03   29.83
   7   9 -29   -2.24    8.90
  -7  -9  29  -14.77   31.16
  10   6 -29   -0.43   10.29
  10   5 -29   -0.37    6.71
  10   5 -29   10.14    9.87
 -10  -5  29   24.25   28.35
 -10  -5  29  -16.75    8.52
  10   4 -29   -1.27    9.35
  10   4 -29    0.75    7.07
 -10  -4  29  -21.97   26.55
  10   3 -29   -6.47    6.93
 -10  -3  29   -5.74   23.94
   0  10 -29   -7.21    8.40
   0  10 -29    0.49    4.23
   0 -10  29   17.52   25.60
   0 -10  29   -4.37    6.86
   1  10 -29   -7.37    4.63
   1  10 -29    8.97    8.58
  -1 -10  29    1.90    6.45
  -1 -10  29    6.50   26.42
   2  10 -29    0.34    8.41
   2  10 -29    5.65    4.89
  -2 -10  29    2.42    7.71
  -2 -10  29   -7.18   26.62
   3  10 -29    1.03    8.32
   3  10 -29    1.14    5.12
  -3 -10  29    0.43    7.65
  -3 -10  29  -17.59   27.55
   4  10 -29    5.07    5.39
   4  10 -29   -0.35    8.74
  -4 -10  29   -9.40    8.22
  -4 -10  29   -1.43   28.65
   5  10 -29    0.31    5.57
   5  10 -29    0.36    8.63
  -5 -10  29   38.92   29.05
  -5 -10  29   -0.47    8.88
   6  10 -29    0.37    9.07
  11   4 -29   -0.45    9.74
 -11  -4  29    9.87   27.44
  11   3 -29   15.33    7.77
   0  11 -29    1.05    4.43
   0  11 -29   -6.29    8.36
   0 -11  29  -12.80    7.51
   0 -11  29   46.11   25.79
   1  11 -29   14.14    8.84
   1  11 -29    9.25    5.46
  -1 -11  29    2.53    7.37
  -1 -11  29   -6.58   27.57
   2  11 -29    0.89    4.88
   2  11 -29  -15.06    8.50
  -2 -11  29   40.39   28.38
  -2 -11  29   13.32    8.32
   3  11 -29    0.35    8.57
   3  11 -29    2.78    4.96
  -3 -11  29    0.46    8.70
  -3 -11  29    0.47   28.39
   4  11 -29    0.36    9.02
   4  11 -29    2.28    5.48
  -4 -11  29  -29.46   29.39
  -4 -11  29   -9.63    9.27
   0  12 -29   -0.29    4.78
   0  12 -29   12.15    8.55
   1  12 -29   -0.34    8.83
   1  12 -29    0.30    5.13
  -1 -12  29   -0.47    8.48
  -1 -12  29   33.44   27.31
   2  12 -29  -18.50    8.97
   2  12 -29   -2.86    5.70
  -2 -12  29   -0.49    8.66
  -2 -12  29  -49.15   28.65
   3  12 -29    3.51    8.90
   1  13 -29    1.02    8.54
  -1 -13  29  -64.41   28.02
  -1   3 -30    6.03    6.12
   0   3 -30    1.27    5.95
   1   3 -30   -6.92    6.26
   2   3 -30    5.45    6.59
   3   3 -30   -3.15    6.67
  -3  -3  30    9.62   19.29
   4   3 -30  -16.55    7.09
  -4  -3  30  -22.10   20.33
  -1   4 -30   -3.49    5.03
   1  -4  30   -4.55   16.94
   0   4 -30    5.24    8.09
   0   4 -30   -3.42    5.25
   0  -4  30  -16.14   17.78
   1   4 -30    2.39    5.68
   1   4 -30    0.35    9.22
  -1  -4  30  -27.96   19.85
   2   4 -30    6.81    8.45
   2   4 -30    0.31    5.62
  -2  -4  30    0.40   19.22
   3   4 -30    1.09    8.29
   3   4 -30    6.10    5.92
  -3  -4  30   -3.74   20.44
   4   4 -30    8.88    8.58
   4   4 -30   -0.33    5.88
  -4  -4  30    5.20   20.99
   5   4 -30    4.41    6.35
   5   4 -30   -0.38    8.50
  -5  -4  30  -64.79   22.16
   5   3 -30   -7.76    7.15
  -5  -3  30   20.66   20.61
  -1   5 -30    1.68    7.58
  -1   5 -30    7.88    4.77
   1  -5  30  -17.19   17.63
   1  -5  30   -3.06    5.60
   0   5 -30    7.20    8.45
   0   5 -30   13.32    5.89
   0  -5  30   -5.56   19.31
   1   5 -30    3.48    8.54
   1   5 -30    9.01    5.87
  -1  -5  30   10.53   20.34
   2   5 -30    4.86    5.95
   2   5 -30    7.50    8.83
  -2  -5  30   18.86   21.71
   3   5 -30   -3.15    5.98
   3   5 -30    2.90    8.45
  -3  -5  30   12.40   22.09
   4   5 -30   -4.56    6.09
   4   5 -30    0.37    8.33
  -4  -5  30   -5.35   22.66
   5   5 -30    0.34    6.31
   5   5 -30   -1.51    8.74
  -5  -5  30   11.12   23.61
   6   5 -30   19.80    8.05
   6   5 -30  -10.84   10.71
  -6  -5  30   79.88   27.52
   6   4 -30    0.35    6.37
   6   4 -30   -0.39    8.77
  -6  -4  30  -71.13   24.19
   6   3 -30    0.37    7.13
  -6  -3  30  -13.99   21.67
  -1   6 -30   21.17    8.48
  -1   6 -30    2.45    4.76
   0   6 -30   -2.38    5.05
   0   6 -30  -15.07    8.31
   0  -6  30  -64.84   21.45
   0  -6  30   -1.19    6.00
   1   6 -30   10.51    8.46
   1   6 -30    3.67    5.64
  -1  -6  30   27.67   22.52
  -1  -6  30    0.32    6.10
   2   6 -30  -10.66    8.23
   2   6 -30   -6.83    5.85
  -2  -6  30    2.99   22.76
  -2  -6  30   10.34    6.80
   3   6 -30   -3.25    8.76
   3   6 -30   10.23    6.16
  -3  -6  30   22.29   24.05
  -3  -6  30    4.18    6.81
   4   6 -30   -7.08    6.42
   4   6 -30    6.99    8.67
  -4  -6  30  -32.90   25.42
  -4  -6  30   -0.36    6.79
   5   6 -30    0.38   10.34
   5   6 -30   18.96    7.97
  -5  -6  30    0.38    8.11
  -5  -6  30   87.65   28.37
   6   6 -30    3.09    6.63
   6   6 -30   -5.79    9.13
  -6  -6  30    1.94    7.84
  -6  -6  30  -47.97   28.11
   7   6 -30   -9.57    6.98
   7   6 -30    2.39    9.51
  -7  -6  30  -45.19   28.67
  -7  -6  30    0.40    7.77
   7   5 -30    7.39    6.79
   7   5 -30   -0.40    9.36
  -7  -5  30   -0.39    7.88
  -7  -5  30   35.55   26.54
  -7  -4  30  210.23   51.60
   0   7 -30    1.00    4.49
   0   7 -30    1.72    8.51
   0  -7  30  -34.69   23.44
   0  -7  30   -2.48    5.82
   1   7 -30    0.35    8.70
   1   7 -30    1.88    5.11
  -1  -7  30    9.94    6.77
  -1  -7  30   52.80   24.43
   2   7 -30  -11.08    5.50
   2   7 -30   -2.13    8.83
  -2  -7  30   -2.45    6.52
  -2  -7  30  -50.72   26.42
   3   7 -30  -19.59    6.72
  -3  -7  30  -14.08    7.42
   5   7 -30    4.64    5.98
   5   7 -30    0.38    8.93
  -5  -7  30   -2.74    7.78
  -5  -7  30  -49.78   28.96
   6   7 -30    0.34    6.50
   6   7 -30    0.39    9.20
  -6  -7  30  -10.18    7.48
  -6  -7  30    6.78   29.49
   7   7 -30   10.37    6.53
   7   7 -30    0.40    9.54
  -7  -7  30  -20.59   30.36
  -7  -7  30    0.43    8.55
   8   7 -30    0.83   10.08
   8   6 -30    5.39   10.23
  -8  -6  30  -10.80   30.13
   8   5 -30   -0.41    9.68
  -8  -5  30  -22.33   28.06
   8   4 -30    5.37    9.56
  -8  -4  30  -14.69   25.67
  -8  -3  30  -12.64   24.03
   0   8 -30  478.99  101.70
  -2  -8  30  -33.19    9.40
   3   8 -30  -29.07    9.75
   3   8 -30  -11.26    6.03
  -3  -8  30  -18.23    8.53
   4   8 -30   -0.37    8.80
   4   8 -30    6.21    5.65
  -4  -8  30   -3.18    7.80
  -4  -8  30   13.38   27.18
   5   8 -30   -6.80    5.88
   5   8 -30    1.87    8.86
  -5  -8  30    3.08   28.33
  -5  -8  30   -0.42    8.05
   6   8 -30   -7.74    6.17
   6   8 -30    3.08    9.20
  -6  -8  30  -16.98   30.03
  -6  -8  30   -5.20    8.21
   7   8 -30    0.80    9.74
  -7  -8  30   20.38   31.61
   9   5 -30    0.38    7.04
   9   5 -30   -0.43   10.07
  -9  -5  30  -11.37   28.41
  -9  -5  30   11.68    8.45
   9   4 -30    1.52    7.39
   9   4 -30    0.43   10.08
  -9  -4  30    4.23   26.21
   0   9 -30    6.53    8.78
   0   9 -30    4.54    4.54
   0  -9  30   46.14   25.99
   0  -9  30    5.21    6.88
   1   9 -30    0.26    4.66
   1   9 -30   10.46    8.90
  -1  -9  30  -30.50   27.00
  -1  -9  30    7.41    7.00
   2   9 -30    0.35    9.04
   2   9 -30   -9.09    5.17
  -2  -9  30   -8.52   28.15
  -2  -9  30  -15.73    7.47
   3   9 -30    4.09    5.43
   3   9 -30  -11.48    8.49
  -3  -9  30   -9.79   28.56
  -3  -9  30    0.40    8.25
   4   9 -30    0.37    8.94
   4   9 -30    0.31    5.56
  -4  -9  30  -22.77   29.61
  -4  -9  30   -0.43    8.39
   5   9 -30    4.82    5.91
   5   9 -30    0.37    8.90
  -5  -9  30  -42.35   30.65
  -5  -9  30    0.45    7.63
   6   9 -30   -0.39    9.52
  10   4 -30   -0.45   10.30
   0  10 -30    2.07    4.59
   0  10 -30   -3.12    8.58
   0 -10  30   52.47   26.51
   0 -10  30   -7.57    7.42
   1  10 -30    0.27    4.58
   1  10 -30   14.75    9.16
  -1 -10  30  -32.43   28.41
  -1 -10  30   -4.76    6.98
   2  10 -30    2.14    9.29
   2  10 -30    3.41    5.27
  -2 -10  30   51.89   29.57
  -2 -10  30    5.90    8.15
   3  10 -30   -2.70    5.26
   3  10 -30  -13.78    9.19
  -3 -10  30  -14.39   29.84
  -3 -10  30    5.80    8.53
   4  10 -30    1.58    5.36
   4  10 -30    7.77    8.90
  -4 -10  30   35.36   29.99
  -4 -10  30    0.47    8.37
   0  11 -30    1.37    4.73
   1  11 -30    2.06    5.28
   1  11 -30   -7.43    9.06
  -1 -11  30  -10.05    8.29
  -1 -11  30    2.82   28.04
   2  11 -30    5.55    5.31
   2  11 -30    0.36    9.34
  -2 -11  30  -18.98   29.82
  -2 -11  30   -5.87    8.66
   3  11 -30    0.37    9.44
  -3 -11  30  -33.19   30.45
   1  12 -30  -15.67    4.84
   1  12 -30   -2.15    9.27
  -1 -12  30    0.47   29.01
  -1 -12  30    0.48    8.20
  -1   3 -31    7.37    6.51
   0   3 -31  -25.38    7.47
   1   3 -31   -0.35    6.69
   2   3 -31   -2.15    6.95
   3   3 -31    0.37    7.00
   4   3 -31    9.12    7.36
  -1   4 -31    2.55    5.35
   0   4 -31   -1.80    6.03
   0  -4  31  -57.34   19.24
   1   4 -31    5.36    6.02
  -1  -4  31  -10.14   19.20
   2   4 -31   -4.92    6.04
   2   4 -31    3.83    8.59
  -2  -4  31    8.88   20.20
   3   4 -31    9.71    9.28
   3   4 -31    3.72    6.29
  -3  -4  31  -16.73   21.04
   4   4 -31   -0.39    8.56
   4   4 -31    5.22    6.53
  -4  -4  31   31.58   22.52
   5   4 -31  -16.10   11.72
  -5  -4  31   67.06   25.83
  -1   5 -31    4.83    5.17
   0   5 -31   -2.87    5.37
   0   5 -31    1.83    8.53
   0  -5  31  -29.23   20.06
   0  -5  31   -3.44    5.87
   1   5 -31   -2.60    8.73
   1   5 -31    4.55    5.86
  -1  -5  31  -19.69   21.22
   2   5 -31    4.91    8.68
   2   5 -31  -12.50    5.94
  -2  -5  31    6.88   21.84
   3   5 -31   -8.44    9.12
   3   5 -31  -14.65    6.57
   4   5 -31   35.07    9.02
   4   5 -31   -0.39   10.62
  -4  -5  31   57.56   26.91
   5   5 -31  -23.93   10.94
   5   5 -31  -15.58    7.64
   6   5 -31   -0.36    6.86
   6   5 -31    0.41    9.17
  -6  -5  31   19.75   25.83
   6   4 -31    0.37    7.07
   6   4 -31  -24.33   10.67
  -6  -4  31  -32.15   25.18
   0   6 -31  -10.06    5.85
   0  -6  31   -4.70    6.11
   2   6 -31   12.24    6.87
  -2  -6  31  -16.13    7.06
   4   6 -31   -0.78    9.10
   4   6 -31    4.42    6.73
  -4  -6  31   -0.38    6.87
  -4  -6  31  -57.05   27.20
   5   6 -31   10.19    7.34
   5   6 -31   -3.20    9.47
  -5  -6  31    2.76    7.61
  -5  -6  31    0.51   27.63
   6   6 -31    0.41    9.66
   6   6 -31   -9.06    7.22
  -6  -6  31   -6.12    8.08
  -6  -6  31   14.21   28.30
   7   6 -31    1.12    6.96
   7   6 -31    0.42    9.66
  -7  -6  31   -0.42    8.11
  -7  -6  31   22.43   30.14
   7   5 -31   -6.75    9.55
   7   5 -31  -28.58    7.17
  -7  -5  31  -71.62   28.19
  -7  -5  31  -20.07    8.56
   7   4 -31    2.12    9.22
   7   4 -31    0.76    7.05
  -7  -4  31    7.21   25.29
   0   7 -31  -15.13    6.02
   1   7 -31   -9.93    5.84
   2   7 -31   -9.84    9.95
   2   7 -31  -19.53    6.26
  -2  -7  31  -27.20    7.70
   3   7 -31    0.38    8.86
   3   7 -31    0.65    6.07
  -3  -7  31    3.79    7.62
  -3  -7  31   46.91   27.85
   4   7 -31    0.34    5.94
   4   7 -31    0.39    9.26
  -4  -7  31   35.92   28.45
  -4  -7  31   -0.40    7.42
   5   7 -31    3.85    6.62
   5   7 -31    1.20    9.78
  -5  -7  31  -59.10   30.03
  -5  -7  31   -4.94    8.17
   6   7 -31   -7.39    9.91
   6   7 -31   -3.27    6.27
  -6  -7  31   50.11   30.59
  -6  -7  31    2.56    7.37
   8   5 -31    0.44   10.38
  -8  -5  31  -34.54   27.84
   8   4 -31   -5.27   10.21
  -8  -4  31    8.05   26.76
   0   8 -31    5.52    9.16
   0   8 -31   12.89    5.12
   0  -8  31    1.00    6.51
   0  -8  31    2.70   26.02
   1   8 -31   -1.11    5.12
   1   8 -31    0.75    8.99
  -1  -8  31   57.26   28.20
  -1  -8  31    7.50    6.93
   2   8 -31  -12.16    9.16
   2   8 -31   -0.30    5.34
  -2  -8  31  -11.73    7.37
  -2  -8  31  -12.67   28.33
   3   8 -31    2.70    9.08
   3   8 -31   -4.70    5.83
  -3  -8  31    0.40    7.29
  -3  -8  31   29.40   29.49
   4   8 -31    0.33    5.87
   4   8 -31   -0.39    9.33
  -4  -8  31   19.44   30.34
  -4  -8  31   -0.42    7.94
   5   8 -31   -5.61    9.29
   5   8 -31    3.08    6.30
  -5  -8  31    0.44    8.16
  -5  -8  31   15.77   30.89
   0   9 -31    0.25    4.67
   0   9 -31   16.16    9.37
   0  -9  31    3.26    6.89
   1   9 -31    3.54    5.03
   1   9 -31  -14.14    9.46
  -1  -9  31   -0.39    7.58
  -1  -9  31   33.19   27.82
   2   9 -31  -10.63    9.33
   2   9 -31   -0.29    4.98
  -2  -9  31   25.05   28.96
  -2  -9  31    0.41    7.97
   3   9 -31   -0.31    5.49
   3   9 -31   -0.39    9.75
  -3  -9  31   -8.49    8.29
  -3  -9  31   53.51   29.63
   4   9 -31    0.39    9.87
  -4  -9  31   54.28   30.53
  -4  -9  31   -5.80    8.34
   0  10 -31   -1.09    4.89
   1  10 -31   20.07    9.40
   1  10 -31    1.97    5.05
  -1 -10  31   -2.99   29.77
  -1 -10  31    1.66    7.71
   2  10 -31    5.66    9.45
   2  10 -31   -0.90    5.32
  -2 -10  31   18.83   30.33
  -2 -10  31    0.44    8.48
   3  10 -31    6.14    9.63
  -3 -10  31  -30.02   31.35
   1  11 -31  -23.56    9.32
   1  11 -31    2.78    5.33
  -1 -11  31   -0.45    7.98
  -1 -11  31    2.01   30.43
   2  11 -31  -31.57   11.06
  -1   3 -32  -11.31    6.47
   0   4 -32   -7.92    6.07
   1   4 -32   -8.30    6.95
   2   4 -32   46.55   10.54
  -2  -4  32  -19.24   24.08
   4   4 -32   -7.70    7.35
  -4  -4  32  -55.35   24.21
   5   4 -32    3.39    7.13
  -5  -4  32  -15.15   23.98
   0   5 -32  -22.53   10.33
   0   5 -32   -6.06    6.33
   0  -5  32   24.34    7.03
   1   5 -32  -32.62    8.41
  -1  -5  32  -60.81   25.75
   2   5 -32   -1.67    6.53
   3   5 -32    1.40    6.96
   3   5 -32    9.42    9.84
  -3  -5  32   20.86   24.11
   4   5 -32   -5.44    7.15
   4   5 -32    5.00    9.88
  -4  -5  32   -9.39   24.59
   5   5 -32   -0.85    9.66
   5   5 -32    1.48    7.02
  -5  -5  32   10.29   25.86
   6   5 -32   -7.22    7.13
   6   5 -32    0.44    9.93
  -6  -5  32   37.47   26.91
  -6  -5  32    5.84    8.46
   6   4 -32   -5.44    7.36
  -6  -4  32    2.10   25.22
   0   6 -32    0.30    5.62
   0   6 -32    0.39    8.93
   0  -6  32    2.11   22.02
   0  -6  32  -15.11    6.23
   1   6 -32    9.95    9.40
   1   6 -32    1.89    5.66
  -1  -6  32    4.20    6.91
  -1  -6  32  -51.22   24.42
   2   6 -32   -6.88    9.70
   2   6 -32    6.97    6.11
  -2  -6  32   -8.03   24.75
  -2  -6  32    0.37    7.12
   3   6 -32    0.69    6.68
   3   6 -32   -0.41    9.97
  -3  -6  32  -17.34    7.59
  -3  -6  32  -12.35   26.15
   4   6 -32   -2.51    9.61
   4   6 -32  -19.02    7.35
  -4  -6  32  -10.00    7.82
  -4  -6  32   -9.27   27.54
   5   6 -32    0.37    7.49
   5   6 -32    3.00   10.02
  -5  -6  32   -6.22    7.73
  -5  -6  32   -9.10   27.78
   6   6 -32    2.19   10.34
  -6  -6  32   10.57   29.46
   7   5 -32    0.45   10.29
   7   4 -32    3.62    7.96
  -7  -4  32   33.35   27.01
   0   7 -32  -16.78    9.57
   0   7 -32    1.12    5.33
   0  -7  32    4.01   24.58
   0  -7  32   -8.53    6.37
   1   7 -32   10.39    9.78
   1   7 -32    8.39    5.62
  -1  -7  32   -5.47    6.81
  -1  -7  32    1.41   25.60
   2   7 -32    9.34    9.98
   2   7 -32    0.32    5.82
  -2  -7  32   -8.11    7.17
  -2  -7  32  -11.40   27.52
   3   7 -32  -28.88    9.51
   3   7 -32   -4.45    6.10
  -3  -7  32   53.36   28.95
  -3  -7  32   17.93    7.69
   4   7 -32    7.49    7.02
   4   7 -32   -0.84    9.98
  -4  -7  32   74.89   29.97
   5   7 -32   -8.58    9.94
  -5  -7  32   -3.92   30.63
   0   8 -32    4.89    5.25
   0   8 -32  -17.34    9.86
   1   8 -32    0.80    9.60
   1   8 -32   -3.82    5.47
  -1  -8  32    6.73    7.57
  -1  -8  32   10.48   28.50
   2   8 -32   -0.31    5.64
   2   8 -32  -29.71   10.51
  -2  -8  32   -4.76    8.06
  -2  -8  32    2.09   29.84
   3   8 -32    0.33    5.91
   3   8 -32  -35.52   10.06
  -3  -8  32    0.42    8.53
  -3  -8  32  -16.87   30.83
   4   8 -32   -1.68    9.82
  -4  -8  32   14.69   31.62
   1   9 -32    0.29    5.01
   1   9 -32    6.79    9.93
  -1  -9  32    0.81    7.54
  -1  -9  32  -16.41   28.95
   2   9 -32    2.16    5.71
   2   9 -32    0.81    9.83
  -2  -9  32   -0.84    8.00
  -2  -9  32    6.43   30.73
   3   9 -32   23.92   10.44
  -3  -9  32    1.34    8.73
  -3  -9  32  -18.36   32.27
   1  10 -32    6.78    9.69
   1  10 -32   -9.17    5.19
  -1 -10  32   16.41    8.37
  -1 -10  32   47.82   30.68
   2  10 -32    9.31   10.27
  -2 -10  32   12.04   32.25
   0   4 -33    0.33    6.37
   1   4 -33    3.15    6.87
   2   4 -33  -12.71    7.43
   3   4 -33   10.13    7.19
   4   4 -33    3.87    7.87
  -4  -4  33   10.29   23.93
   5   4 -33    0.80    7.77
  -5  -4  33    3.75   25.05
   0   5 -33    0.64    6.42
   0  -5  33   29.41   20.58
   0  -5  33   11.41    7.29
   1   5 -33   20.66    9.90
   1   5 -33    3.03    6.28
  -1  -5  33   -5.49    7.15
  -1  -5  33    0.46   22.09
   2   5 -33   13.39    7.10
   2   5 -33   -0.43    9.78
  -2  -5  33    6.70   23.83
   3   5 -33    0.44    9.68
   3   5 -33    7.32    7.27
  -3  -5  33   20.50   25.38
   4   5 -33    0.38    6.62
   4   5 -33   -0.89    9.86
  -4  -5  33   27.64   26.21
   5   5 -33  -19.48   10.24
   5   5 -33    8.18    7.28
  -5  -5  33    3.26   26.96
  -5  -5  33    0.43    8.36
  -6  -4  33  -30.64   26.97
   0   6 -33    6.22    5.75
   0   6 -33  -18.11    9.43
   0  -6  33    4.83    6.80
   1   6 -33  -10.93    9.55
   1   6 -33    0.33    6.26
  -1  -6  33   -6.25    7.24
  -1  -6  33   55.93   24.94
   2   6 -33  -11.98    9.80
   2   6 -33    0.35    6.65
  -2  -6  33    2.71    7.57
  -2  -6  33   13.37   25.50
   3   6 -33  -10.02   10.53
   3   6 -33    6.21    7.10
  -3  -6  33    3.65    8.17
  -3  -6  33   -5.70   26.61
   4   6 -33   -6.21   10.08
   4   6 -33  -11.73    7.89
  -4  -6  33    0.42    7.61
  -4  -6  33   39.46   28.15
   5   6 -33   12.68   11.01
   0   7 -33   -7.68    5.46
   1   7 -33    3.48    5.97
   1   7 -33  -11.05   10.08
  -1  -7  33    9.39   26.76
  -1  -7  33    8.42    7.52
   2   7 -33  -16.42   10.40
   2   7 -33    7.71    5.87
  -2  -7  33    5.20   28.53
  -2  -7  33   -6.49    8.12
   3   7 -33  -10.98   10.46
   3   7 -33   -0.36    6.14
  -3  -7  33  -14.15   29.44
  -3  -7  33   -0.42    7.95
   4   7 -33    1.79   10.23
  -4  -7  33  -15.88   31.17
   1   8 -33    1.71   10.62
   1   8 -33    3.41    5.59
  -1  -8  33    9.79    7.38
  -1  -8  33   -1.04   28.99
   2   8 -33    0.43   10.11
   2   8 -33    4.64    5.95
  -2  -8  33    0.42    8.35
  -2  -8  33   21.95   30.74
   3   8 -33    0.44   10.28
  -3  -8  33   -9.17   32.37
   1   9 -33    0.43   10.32
  -1  -9  33  -17.35    8.52
  -1  -9  33  -50.45   31.94
   0   4 -34    0.35    6.16
   1   4 -34   12.18    7.46
   2   4 -34    8.44    7.60
   3   4 -34   -9.12    7.56
   0   5 -34    6.71    6.40
   1   5 -34   -7.45    6.45
  -1  -5  34  -27.42   24.11
  -1  -5  34   -5.39    7.71
   2   5 -34   -7.80    6.96
  -2  -5  34  -12.15   25.06
  -2  -5  34   -0.81    8.30
   3   5 -34    5.79    7.51
  -3  -5  34   -0.42    8.69
  -3  -5  34   53.54   26.24
   4   5 -34    0.95   11.13
  -4  -5  34   35.98   26.73
   1   6 -34    0.35    6.11
   1   6 -34   -8.93   10.17
  -1  -6  34  -36.57   25.15
  -1  -6  34   -0.39    7.60
   2   6 -34   -0.46   10.41
   2   6 -34   -1.84    7.07
  -2  -6  34   -9.90   27.05
  -2  -6  34   -2.04    8.04
   3   6 -34    0.46   10.80
  -3  -6  34   16.39   28.08
   1   7 -34    4.00    6.54
   1   7 -34    3.62   10.47
  -1  -7  34   -4.15   28.10
  -1  -7  34    3.21    7.81
   2   7 -34    0.35    4.94
   2   7 -34   -5.54   10.66
  -2  -7  34    2.98    8.35
  -2  -7  34  -14.77   29.56
   1   8 -34    3.20   11.18
  -1  -8  34  -40.90   30.47
  -1  -8  34   20.92    8.30
   1   5 -35   -8.59    7.05
  -1  -5  35    5.26    7.50
   2   5 -35  -28.16    7.07
  -2  -5  35   11.78   25.23
  -2  -5  35    0.43    8.18
   1   6 -35   -3.67    6.69
   1   6 -35   -0.95   10.67
  -1  -6  35   -7.79   25.84
  -1  -6  35    0.41    7.94
   2   6 -35   12.13   11.74
   1   7 -35   -6.20   10.89
  -1  -7  35    1.62   27.73
   0   0   0    0.00    0.00
;
_shelx_hkl_checksum              13150
_shelx_fab_checksum              69593
_shelx_fab_file
;
    0    2    0   -177.00      0.00
    1    2    0    309.44      0.00
    1    3    0     24.74      0.00
    2    3    0    146.59      0.00
    0    4    0     17.31      0.00
    1    4    0     50.26      0.00
    2    4    0     34.61      0.00
    3    4    0      3.72      0.00
    1    5    0    -55.35      0.00
    2    5    0     37.82      0.00
    3    5    0     -0.70      0.00
    0    6    0     26.54      0.00
    1    6    0    -61.62      0.00
    2    6    0     65.67      0.00
    3    6    0     -0.55      0.00
    4    6    0      7.90      0.00
    1    7    0     -0.72      0.00
    2    7    0    -26.41      0.00
    3    7    0     52.24      0.00
    4    7    0     43.06      0.00
    0    8    0    -20.92      0.00
    1    8    0    -14.52      0.00
    2    8    0     -7.29      0.00
    3    8    0    -14.82      0.00
    4    8    0      0.06      0.00
    5    8    0    -19.20      0.00
    1    9    0     17.48      0.00
    2    9    0     16.58      0.00
    3    9    0      1.95      0.00
    4    9    0      7.38      0.00
    5    9    0     -6.34      0.00
    0   10    0     18.18      0.00
    1   10    0     -8.65      0.00
    2   10    0     -1.00      0.00
    3   10    0     -3.45      0.00
    4   10    0     -4.25      0.00
    5   10    0     16.12      0.00
    1   11    0    -10.87      0.00
    2   11    0      0.42      0.00
    3   11    0      4.42      0.00
    4   11    0    -29.84      0.00
    5   11    0      4.10      0.00
    6   11    0     -3.08      0.00
    0   12    0    -31.50      0.00
    1   12    0     -1.08      0.00
    2   12    0     -1.55      0.00
    3   12    0     19.46      0.00
    4   12    0     12.19      0.00
    5   12    0     -2.02      0.00
    6   12    0     -4.00      0.00
    1   13    0     -0.53      0.00
    2   13    0     16.03      0.00
    4   13    0      9.60      0.00
    5   13    0    -27.56      0.00
    0   14    0     20.70      0.00
    1   14    0      6.99      0.00
    2   14    0     28.49      0.00
    3   14    0      2.20      0.00
    4   14    0     11.87      0.00
    5   14    0     11.91      0.00
    6   14    0      1.90      0.00
    1   15    0     -5.56      0.00
    2   15    0     -2.77      0.00
    3   15    0     -2.40      0.00
    4   15    0     -9.46      0.00
    5   15    0      3.34      0.00
    6   15    0    -10.00      0.00
    7   15    0     -2.64      0.00
    0   16    0     17.40      0.00
    1   16    0    -13.01      0.00
    2   16    0     15.56      0.00
    3   16    0      8.77      0.00
    4   16    0      0.63      0.00
    5   16    0     12.29      0.00
    6   16    0    -23.50      0.00
    7   16    0     16.47      0.00
    1   17    0     15.92      0.00
    2   17    0     -3.92      0.00
    3   17    0     -8.40      0.00
    4   17    0     -0.62      0.00
    5   17    0    -19.23      0.00
    6   17    0    -28.88      0.00
    7   17    0    -29.43      0.00
    0   18    0    -23.96      0.00
    1   18    0    -97.81      0.00
    2   18    0      4.08      0.00
    3   18    0     -0.12      0.00
    4   18    0     49.40      0.00
    5   18    0    -45.35      0.00
    6   18    0     58.07      0.00
    7   18    0     20.70      0.00
    2   19    0    -28.65      0.00
    3   19    0     13.94      0.00
    4   19    0      9.13      0.00
    5   19    0    -14.58      0.00
    6   19    0    -37.09      0.00
    7   19    0     42.82      0.00
    0   20    0      1.71      0.00
    1   20    0    -79.69      0.00
    2   20    0     26.60      0.00
    3   20    0      3.70      0.00
    4   20    0    -24.81      0.00
    5   20    0    -19.12      0.00
    6   20    0    -14.25      0.00
    1    2    1     81.92      0.00
    0    3    1    -58.90      0.00
    1    3    1    157.52      0.00
    2    3    1     35.84      0.00
    1    4    1     13.35      0.00
    2    4    1     29.46      0.00
    3    4    1     19.43      0.00
    0    5    1      3.84      0.00
    1    5    1    -12.81      0.00
    2    5    1     32.33      0.00
    3    5    1    -16.14      0.00
    1    6    1     23.34      0.00
    2    6    1    -52.21      0.00
    3    6    1     10.97      0.00
    4    6    1     39.32      0.00
    0    7    1    -19.97      0.00
    1    7    1    -21.99      0.00
    2    7    1     17.63      0.00
    3    7    1     13.74      0.00
    4    7    1      4.78      0.00
    5    7    1    -29.74      0.00
    1    8    1    -14.94      0.00
    2    8    1      5.00      0.00
    3    8    1     -7.24      0.00
    4    8    1      1.33      0.00
    5    8    1      2.07      0.00
    0    9    1     10.05      0.00
    1    9    1     15.19      0.00
    2    9    1     -7.09      0.00
    3    9    1    -10.69      0.00
    4    9    1      9.59      0.00
    5    9    1      5.17      0.00
    1   10    1     11.09      0.00
    2   10    1     -1.30      0.00
    3   10    1     -2.59      0.00
    4   10    1     10.52      0.00
    5   10    1    -13.35      0.00
    6   10    1    -41.53      0.00
    0   11    1     13.67      0.00
    1   11    1      5.75      0.00
    2   11    1     -6.74      0.00
    3   11    1      8.10      0.00
    4   11    1      5.87      0.00
    5   11    1      8.78      0.00
    6   11    1    -31.45      0.00
    1   12    1      2.06      0.00
    2   12    1    -25.02      0.00
    3   12    1      3.89      0.00
    4   12    1     -2.79      0.00
    5   12    1      7.35      0.00
    6   12    1     20.89      0.00
    0   13    1    -15.84      0.00
    1   13    1      4.33      0.00
    2   13    1      5.37      0.00
    3   13    1      7.18      0.00
    4   13    1     17.14      0.00
    5   13    1     -3.70      0.00
    1   14    1      8.00      0.00
    2   14    1      8.91      0.00
    3   14    1    -32.02      0.00
    4   14    1     16.86      0.00
    5   14    1     13.82      0.00
    6   14    1     12.95      0.00
    7   14    1    -18.74      0.00
    0   15    1     12.72      0.00
    1   15    1    -20.49      0.00
    2   15    1      6.76      0.00
    3   15    1    -16.36      0.00
    4   15    1     -2.78      0.00
    5   15    1      6.07      0.00
    6   15    1      8.62      0.00
    7   15    1     18.91      0.00
    1   16    1      5.20      0.00
    2   16    1     -4.78      0.00
    3   16    1      5.71      0.00
    4   16    1     15.17      0.00
    5   16    1      2.11      0.00
    6   16    1      6.72      0.00
    7   16    1     -5.12      0.00
    0   17    1     44.89      0.00
    1   17    1    -21.96      0.00
    2   17    1    -20.95      0.00
    3   17    1     16.21      0.00
    4   17    1      8.53      0.00
    5   17    1    -27.80      0.00
    6   17    1      4.45      0.00
    7   17    1     -1.94      0.00
    1   18    1    -24.13      0.00
    2   18    1    -13.98      0.00
    3   18    1      9.46      0.00
    4   18    1     -4.55      0.00
    5   18    1     -4.10      0.00
    6   18    1    118.71      0.00
    7   18    1     15.41      0.00
    0   19    1    198.87      0.00
    1   19    1    260.30      0.00
    2   19    1     -0.39      0.00
    3   19    1     -9.49      0.00
    4   19    1     -8.96      0.00
    5   19    1    -13.80      0.00
    6   19    1    -26.27      0.00
    7   19    1    -16.34      0.00
    1   20    1      9.97      0.00
    2   20    1    -53.93      0.00
    3   20    1     -2.95      0.00
    4   20    1     35.26      0.00
    5   20    1     -1.13      0.00
    6   20    1      8.62      0.00
    1    1    2   -610.70      0.00
    0    2    2     19.51      0.00
    1    2    2   -122.74      0.00
    2    2    2     53.93      0.00
    1    3    2     14.12      0.00
    2    3    2    -48.31      0.00
    3    3    2    -95.70      0.00
    0    4    2     -3.61      0.00
    1    4    2     50.43      0.00
    2    4    2    -25.46      0.00
    3    4    2    -21.98      0.00
    1    5    2      1.50      0.00
    2    5    2    -25.73      0.00
    3    5    2    -16.41      0.00
    0    6    2    -35.41      0.00
    1    6    2    -11.32      0.00
    2    6    2     26.73      0.00
    3    6    2    -15.46      0.00
    4    6    2     -0.16      0.00
    1    7    2    -39.63      0.00
    2    7    2      3.18      0.00
    3    7    2     -7.10      0.00
    4    7    2     14.09      0.00
    5    7    2    -14.06      0.00
    0    8    2    -13.56      0.00
    1    8    2      4.07      0.00
    2    8    2    -24.16      0.00
    3    8    2      1.25      0.00
    4    8    2      2.38      0.00
    5    8    2    -17.90      0.00
    1    9    2      8.93      0.00
    2    9    2      9.18      0.00
    3    9    2      1.93      0.00
    4    9    2     13.56      0.00
    5    9    2     -2.80      0.00
    6    9    2    -12.50      0.00
    0   10    2      8.21      0.00
    1   10    2      7.93      0.00
    2   10    2    -11.16      0.00
    3   10    2      3.14      0.00
    4   10    2      0.23      0.00
    5   10    2      2.70      0.00
    6   10    2    -14.69      0.00
    1   11    2      6.22      0.00
    2   11    2     -3.49      0.00
    3   11    2     -7.20      0.00
    4   11    2      4.39      0.00
    5   11    2      6.64      0.00
    6   11    2      2.11      0.00
    0   12    2     13.00      0.00
    1   12    2     -9.03      0.00
    2   12    2     -5.89      0.00
    3   12    2    -14.49      0.00
    4   12    2      0.87      0.00
    5   12    2     16.50      0.00
    6   12    2    -17.26      0.00
    7   12    2     23.40      0.00
    1   13    2     -4.51      0.00
    2   13    2    -20.12      0.00
    3   13    2     -4.99      0.00
    4   13    2    -18.18      0.00
    5   13    2    -29.41      0.00
    6   13    2      2.56      0.00
    0   14    2    -43.84      0.00
    1   14    2     20.08      0.00
    2   14    2     24.66      0.00
    3   14    2      6.61      0.00
    4   14    2     -2.28      0.00
    5   14    2      5.44      0.00
    6   14    2     22.73      0.00
    7   14    2     20.79      0.00
    1   15    2    -13.37      0.00
    2   15    2      8.81      0.00
    3   15    2    -27.73      0.00
    4   15    2     -4.53      0.00
    5   15    2     -7.07      0.00
    6   15    2     -8.55      0.00
    7   15    2     43.76      0.00
    0   16    2     17.09      0.00
    1   16    2    -13.51      0.00
    2   16    2     -0.88      0.00
    3   16    2      8.50      0.00
    4   16    2      9.18      0.00
    5   16    2      3.19      0.00
    6   16    2    -14.09      0.00
    7   16    2     14.92      0.00
    1   17    2    -15.52      0.00
    2   17    2      4.23      0.00
    3   17    2     -6.41      0.00
    4   17    2      8.42      0.00
    5   17    2    -16.44      0.00
    6   17    2    -31.69      0.00
    7   17    2     19.42      0.00
    0   18    2      4.25      0.00
    1   18    2     -9.36      0.00
    2   18    2     -7.48      0.00
    3   18    2     -7.10      0.00
    4   18    2     -3.15      0.00
    5   18    2    -28.47      0.00
    6   18    2     86.27      0.00
    7   18    2      1.64      0.00
    2   19    2    -21.20      0.00
    3   19    2     11.85      0.00
    4   19    2     20.01      0.00
    5   19    2     -3.88      0.00
    6   19    2    -34.56      0.00
    7   19    2    -20.96      0.00
    0   20    2      3.29      0.00
    1   20    2    -30.61      0.00
    2   20    2      9.41      0.00
    3   20    2      4.46      0.00
    4   20    2    -17.09      0.00
    5   20    2    -11.94      0.00
    6   20    2    -19.01      0.00
    0    1    3    140.61      0.00
    1    2    3   -108.05      0.00
    0    3    3    143.59      0.00
    1    3    3   -106.75      0.00
    2    3    3    -16.61      0.00
    1    4    3    -24.42      0.00
    2    4    3    -25.49      0.00
    3    4    3    -30.42      0.00
    0    5    3      0.59      0.00
    1    5    3     -0.93      0.00
    2    5    3    -90.15      0.00
    3    5    3    -19.14      0.00
    1    6    3     14.88      0.00
    2    6    3     17.92      0.00
    3    6    3      7.08      0.00
    4    6    3     -0.06      0.00
    5    6    3     -2.17      0.00
    0    7    3     32.23      0.00
    1    7    3     11.13      0.00
    2    7    3      3.95      0.00
    3    7    3      5.62      0.00
    4    7    3    -18.85      0.00
    5    7    3    -11.98      0.00
    1    8    3    -11.13      0.00
    2    8    3      9.17      0.00
    3    8    3     -7.23      0.00
    4    8    3     -0.90      0.00
    5    8    3     -5.95      0.00
    6    8    3    -13.87      0.00
    0    9    3     14.58      0.00
    1    9    3    -11.68      0.00
    2    9    3     -7.56      0.00
    3    9    3     -6.15      0.00
    4    9    3      4.96      0.00
    5    9    3      3.34      0.00
    6    9    3      0.77      0.00
    1   10    3      2.87      0.00
    2   10    3     -0.25      0.00
    3   10    3      8.83      0.00
    4   10    3     -4.53      0.00
    5   10    3      7.86      0.00
    6   10    3    -14.59      0.00
    0   11    3    -14.40      0.00
    1   11    3      2.76      0.00
    2   11    3     -6.90      0.00
    3   11    3      6.65      0.00
    4   11    3     -9.52      0.00
    5   11    3    -11.62      0.00
    6   11    3      6.43      0.00
    7   11    3    -20.13      0.00
    1   12    3      3.75      0.00
    2   12    3     10.65      0.00
    3   12    3     -7.81      0.00
    4   12    3    -12.85      0.00
    5   12    3      1.03      0.00
    6   12    3     11.29      0.00
    7   12    3      2.96      0.00
    0   13    3      2.70      0.00
    1   13    3      6.53      0.00
    2   13    3    -14.26      0.00
    3   13    3    -16.44      0.00
    4   13    3     12.63      0.00
    5   13    3      2.22      0.00
    6   13    3    -17.16      0.00
    1   14    3    -24.36      0.00
    2   14    3      5.42      0.00
    3   14    3     -6.32      0.00
    4   14    3     -8.41      0.00
    5   14    3    -18.86      0.00
    6   14    3    -13.00      0.00
    7   14    3    -16.07      0.00
    0   15    3      1.28      0.00
    1   15    3    -10.60      0.00
    2   15    3      1.15      0.00
    3   15    3     -5.13      0.00
    4   15    3    -13.21      0.00
    5   15    3      0.61      0.00
    6   15    3     -3.04      0.00
    7   15    3     27.39      0.00
    1   16    3     -9.10      0.00
    2   16    3     10.45      0.00
    3   16    3      3.38      0.00
    4   16    3     -4.67      0.00
    5   16    3     -4.91      0.00
    6   16    3      5.73      0.00
    7   16    3      0.81      0.00
    8   16    3    -29.00      0.00
    0   17    3    -23.66      0.00
    1   17    3      4.44      0.00
    2   17    3     -3.72      0.00
    3   17    3      0.81      0.00
    4   17    3     10.43      0.00
    5   17    3      2.22      0.00
    6   17    3    -19.58      0.00
    7   17    3    -61.76      0.00
    8   17    3     -9.43      0.00
    1   18    3     -5.83      0.00
    2   18    3    -14.99      0.00
    3   18    3      9.44      0.00
    4   18    3     27.98      0.00
    5   18    3    -12.32      0.00
    6   18    3     64.61      0.00
    7   18    3     -9.65      0.00
    1   19    3      9.32      0.00
    2   19    3      1.48      0.00
    3   19    3      1.61      0.00
    4   19    3    -11.14      0.00
    5   19    3    -23.10      0.00
    6   19    3    -23.11      0.00
    7   19    3      9.97      0.00
    1   20    3    -19.43      0.00
    2   20    3     -0.31      0.00
    3   20    3      9.80      0.00
    4   20    3      0.04      0.00
    5   20    3      9.39      0.00
    6   20    3    -11.36      0.00
    0    0    4    -29.16      0.00
    1    1    4     53.60      0.00
    0    2    4     70.77      0.00
    1    2    4    -16.13      0.00
    2    2    4     -2.17      0.00
    1    3    4     55.97      0.00
    2    3    4     11.07      0.00
    3    3    4    -53.61      0.00
    0    4    4    -82.61      0.00
    1    4    4    -34.23      0.00
    2    4    4     19.47      0.00
    3    4    4     20.80      0.00
    4    4    4     -7.57      0.00
    1    5    4    -66.49      0.00
    2    5    4    -46.00      0.00
    3    5    4     29.08      0.00
    4    5    4    -13.16      0.00
    5    5    4     -1.83      0.00
    0    6    4     32.20      0.00
    1    6    4     28.38      0.00
    2    6    4    -22.53      0.00
    3    6    4     14.06      0.00
    4    6    4      2.57      0.00
    5    6    4      0.42      0.00
    1    7    4     -2.14      0.00
    2    7    4      7.65      0.00
    3    7    4     -1.59      0.00
    4    7    4      1.03      0.00
    5    7    4     -2.34      0.00
    6    7    4      2.63      0.00
    0    8    4     13.36      0.00
    1    8    4     25.78      0.00
    2    8    4     -0.57      0.00
    3    8    4      3.66      0.00
    4    8    4      7.17      0.00
    5    8    4    -12.20      0.00
    6    8    4    -11.84      0.00
    1    9    4      7.65      0.00
    2    9    4    -19.32      0.00
    3    9    4      4.37      0.00
    4    9    4      2.15      0.00
    5    9    4     -0.82      0.00
    6    9    4      5.31      0.00
    0   10    4     -7.08      0.00
    1   10    4      4.39      0.00
    2   10    4      5.35      0.00
    3   10    4     -8.48      0.00
    4   10    4      8.44      0.00
    5   10    4      7.95      0.00
    6   10    4      3.57      0.00
    7   10    4      2.94      0.00
    1   11    4     -5.15      0.00
    2   11    4      5.76      0.00
    3   11    4     -7.95      0.00
    4   11    4      6.27      0.00
    5   11    4     11.12      0.00
    6   11    4     -8.82      0.00
    7   11    4     14.76      0.00
    0   12    4     -0.39      0.00
    1   12    4     -2.82      0.00
    2   12    4      3.37      0.00
    3   12    4     -0.93      0.00
    4   12    4     -5.25      0.00
    5   12    4      7.08      0.00
    6   12    4     -0.68      0.00
    7   12    4     22.95      0.00
    1   13    4      6.58      0.00
    2   13    4     23.91      0.00
    3   13    4     -3.39      0.00
    4   13    4    -23.44      0.00
    5   13    4      7.09      0.00
    6   13    4     30.05      0.00
    0   14    4     14.27      0.00
    1   14    4     -3.98      0.00
    2   14    4      7.28      0.00
    3   14    4     10.84      0.00
    4   14    4     40.61      0.00
    5   14    4     19.76      0.00
    6   14    4     -9.61      0.00
    7   14    4     44.76      0.00
    8   14    4    -54.09      0.00
    1   15    4      3.00      0.00
    2   15    4      1.96      0.00
    3   15    4      4.40      0.00
    4   15    4      0.33      0.00
    5   15    4      4.56      0.00
    6   15    4    -10.34      0.00
    7   15    4     13.49      0.00
    0   16    4     13.59      0.00
    1   16    4     22.83      0.00
    2   16    4     18.60      0.00
    3   16    4      4.58      0.00
    4   16    4     -9.12      0.00
    5   16    4     -6.91      0.00
    6   16    4      9.97      0.00
    7   16    4     17.73      0.00
    1   17    4     -8.25      0.00
    2   17    4    -18.95      0.00
    3   17    4     -0.26      0.00
    4   17    4     -7.52      0.00
    5   17    4    -17.43      0.00
    6   17    4    -16.08      0.00
    7   17    4     -1.52      0.00
    0   18    4     11.80      0.00
    1   18    4      6.48      0.00
    2   18    4     -1.55      0.00
    3   18    4    -12.13      0.00
    4   18    4     -1.73      0.00
    5   18    4     -0.99      0.00
    6   18    4     12.48      0.00
    7   18    4     -1.84      0.00
    1   19    4     -2.14      0.00
    2   19    4    -15.30      0.00
    3   19    4      2.62      0.00
    4   19    4     12.32      0.00
    5   19    4    -11.70      0.00
    6   19    4    -38.39      0.00
    0   20    4     10.18      0.00
    1   20    4     -3.92      0.00
    2   20    4     -5.33      0.00
    3   20    4     15.97      0.00
    4   20    4      6.66      0.00
    5   20    4      4.26      0.00
    6   20    4    -21.57      0.00
    0    1    5    -48.53      0.00
    1    2    5     85.22      0.00
    0    3    5     36.50      0.00
    1    3    5    -68.40      0.00
    2    3    5     64.09      0.00
    1    4    5     13.68      0.00
    2    4    5     60.91      0.00
    3    4    5    -47.68      0.00
    0    5    5    -21.12      0.00
    1    5    5     13.05      0.00
    2    5    5     40.08      0.00
    3    5    5     -7.52      0.00
    4    5    5     12.44      0.00
    1    6    5     28.67      0.00
    2    6    5     21.68      0.00
    3    6    5      7.91      0.00
    4    6    5      2.12      0.00
    5    6    5     12.48      0.00
    0    7    5     26.83      0.00
    1    7    5     19.50      0.00
    2    7    5      1.47      0.00
    3    7    5     14.50      0.00
    4    7    5    -12.70      0.00
    5    7    5      8.16      0.00
    6    7    5    -13.16      0.00
    1    8    5      8.81      0.00
    2    8    5      3.81      0.00
    3    8    5     -1.35      0.00
    4    8    5    -13.49      0.00
    5    8    5     -3.15      0.00
    6    8    5     -0.62      0.00
    7    8    5     -7.37      0.00
    0    9    5     -0.18      0.00
    1    9    5    -17.44      0.00
    2    9    5     10.52      0.00
    3    9    5    -17.53      0.00
    4    9    5     -6.72      0.00
    5    9    5     -2.26      0.00
    6    9    5      4.59      0.00
    7    9    5      6.92      0.00
    1   10    5     -6.85      0.00
    2   10    5      0.29      0.00
    3   10    5     -4.44      0.00
    4   10    5      5.23      0.00
    5   10    5     -3.95      0.00
    6   10    5      4.74      0.00
    7   10    5     -2.41      0.00
    0   11    5      1.68      0.00
    1   11    5     -6.34      0.00
    2   11    5      9.88      0.00
    3   11    5      6.98      0.00
    4   11    5    -13.86      0.00
    5   11    5      0.54      0.00
    6   11    5     28.36      0.00
    7   11    5     -7.06      0.00
    1   12    5      9.98      0.00
    2   12    5     -4.25      0.00
    3   12    5      3.86      0.00
    4   12    5     -0.79      0.00
    5   12    5      8.01      0.00
    6   12    5      8.33      0.00
    7   12    5    -11.45      0.00
    8   12    5    -15.85      0.00
    0   13    5      2.94      0.00
    1   13    5     -3.98      0.00
    2   13    5      9.82      0.00
    3   13    5     11.52      0.00
    4   13    5      2.07      0.00
    5   13    5    -16.74      0.00
    6   13    5     -1.69      0.00
    1   14    5      6.94      0.00
    2   14    5    -11.59      0.00
    3   14    5     -9.87      0.00
    4   14    5      7.50      0.00
    5   14    5      0.28      0.00
    6   14    5     -0.48      0.00
    7   14    5     11.98      0.00
    0   15    5      1.19      0.00
    1   15    5     -4.20      0.00
    2   15    5     -6.08      0.00
    3   15    5      0.20      0.00
    4   15    5     -2.51      0.00
    5   15    5    -32.87      0.00
    6   15    5     -6.75      0.00
    7   15    5     26.77      0.00
    1   16    5     -1.71      0.00
    2   16    5      1.25      0.00
    3   16    5     16.17      0.00
    4   16    5      2.18      0.00
    5   16    5    -21.82      0.00
    6   16    5     12.96      0.00
    7   16    5      7.79      0.00
    0   17    5     -9.92      0.00
    1   17    5      5.83      0.00
    2   17    5     -1.31      0.00
    3   17    5      3.50      0.00
    4   17    5      1.10      0.00
    5   17    5     -5.32      0.00
    6   17    5     -3.29      0.00
    1   18    5      5.82      0.00
    2   18    5     13.60      0.00
    3   18    5     25.74      0.00
    4   18    5      0.57      0.00
    5   18    5      5.42      0.00
    6   18    5    -26.45      0.00
    0   19    5     -4.29      0.00
    1   19    5     -9.36      0.00
    2   19    5     -0.42      0.00
    3   19    5    -18.62      0.00
    4   19    5    -14.86      0.00
    5   19    5    -30.78      0.00
    6   19    5     17.09      0.00
    1   20    5      7.50      0.00
    2   20    5     -0.22      0.00
    3   20    5      1.06      0.00
    4   20    5      8.58      0.00
    5   20    5     14.05      0.00
    0    0    6    -95.88      0.00
    1    1    6     37.76      0.00
    0    2    6    -69.51      0.00
    1    2    6    -35.12      0.00
    2    2    6    -21.89      0.00
    1    3    6     68.07      0.00
    2    3    6    -56.49      0.00
    3    3    6     53.28      0.00
    0    4    6     56.47      0.00
    1    4    6    -55.93      0.00
    2    4    6     -4.00      0.00
    3    4    6     38.34      0.00
    4    4    6     51.99      0.00
    1    5    6    -12.17      0.00
    2    5    6    -10.19      0.00
    3    5    6     -5.99      0.00
    4    5    6     -5.64      0.00
    5    5    6     77.37      0.00
    0    6    6     41.44      0.00
    1    6    6      0.89      0.00
    2    6    6      0.69      0.00
    3    6    6     13.46      0.00
    4    6    6      1.90      0.00
    5    6    6     -6.19      0.00
    6    6    6      5.31      0.00
    1    7    6      2.66      0.00
    2    7    6     11.40      0.00
    3    7    6     -7.23      0.00
    4    7    6    -16.47      0.00
    5    7    6     -6.34      0.00
    6    7    6      4.11      0.00
    7    7    6     -2.21      0.00
    0    8    6     -2.93      0.00
    1    8    6     -5.14      0.00
    2    8    6     -0.14      0.00
    3    8    6     -4.83      0.00
    4    8    6      1.48      0.00
    5    8    6      0.16      0.00
    6    8    6     -4.61      0.00
    7    8    6      5.93      0.00
    1    9    6     -6.18      0.00
    2    9    6     -7.68      0.00
    3    9    6      9.76      0.00
    4    9    6     -2.82      0.00
    5    9    6     -9.77      0.00
    6    9    6      3.68      0.00
    7    9    6     21.92      0.00
    0   10    6    -10.42      0.00
    1   10    6    -11.99      0.00
    2   10    6      8.44      0.00
    3   10    6     10.90      0.00
    4   10    6     12.07      0.00
    5   10    6      0.37      0.00
    6   10    6      2.54      0.00
    7   10    6     -7.86      0.00
    8   10    6      0.74      0.00
    1   11    6    -14.88      0.00
    2   11    6      6.93      0.00
    3   11    6      9.35      0.00
    4   11    6      3.24      0.00
    5   11    6     -3.53      0.00
    6   11    6      0.19      0.00
    7   11    6      4.92      0.00
    8   11    6     -3.83      0.00
    0   12    6      8.12      0.00
    1   12    6      2.75      0.00
    2   12    6     -6.27      0.00
    3   12    6      3.80      0.00
    4   12    6     -5.98      0.00
    5   12    6      4.84      0.00
    6   12    6    -14.85      0.00
    7   12    6      6.60      0.00
    1   13    6      3.64      0.00
    2   13    6     19.27      0.00
    3   13    6     -5.64      0.00
    4   13    6     -7.50      0.00
    5   13    6    -13.01      0.00
    6   13    6    -26.78      0.00
    7   13    6     15.86      0.00
    0   14    6      2.87      0.00
    1   14    6     -6.31      0.00
    2   14    6     -3.96      0.00
    3   14    6      7.51      0.00
    4   14    6     -0.09      0.00
    5   14    6     -4.95      0.00
    6   14    6    -19.61      0.00
    7   14    6    -13.87      0.00
    1   15    6      4.19      0.00
    2   15    6      2.70      0.00
    3   15    6     -6.40      0.00
    4   15    6    -24.85      0.00
    5   15    6     -9.90      0.00
    6   15    6      9.61      0.00
    7   15    6     24.42      0.00
    0   16    6    -17.75      0.00
    1   16    6      4.38      0.00
    2   16    6     12.11      0.00
    3   16    6      9.97      0.00
    4   16    6     16.32      0.00
    5   16    6    -24.65      0.00
    6   16    6     17.14      0.00
    7   16    6      6.54      0.00
    1   17    6      9.56      0.00
    2   17    6     -0.82      0.00
    3   17    6    -15.93      0.00
    4   17    6     -6.12      0.00
    5   17    6     21.15      0.00
    6   17    6     -7.14      0.00
    0   18    6      5.66      0.00
    1   18    6    -17.33      0.00
    2   18    6     -3.37      0.00
    3   18    6    -13.65      0.00
    4   18    6     -5.13      0.00
    5   18    6    153.28      0.00
    6   18    6    -21.46      0.00
    1   19    6     15.75      0.00
    2   19    6      4.80      0.00
    3   19    6     10.36      0.00
    4   19    6      2.03      0.00
    5   19    6     -2.54      0.00
    6   19    6      2.19      0.00
    0   20    6      9.10      0.00
    1   20    6      3.17      0.00
    2   20    6     14.87      0.00
    3   20    6     23.96      0.00
    4   20    6     11.84      0.00
    0    1    7    -13.34      0.00
    1    2    7    -15.47      0.00
    0    3    7     20.46      0.00
    1    3    7    -50.96      0.00
    2    3    7    -73.66      0.00
    1    4    7     19.82      0.00
    2    4    7     21.35      0.00
    3    4    7    -11.22      0.00
    0    5    7    -77.07      0.00
    1    5    7     20.84      0.00
    2    5    7     12.60      0.00
    3    5    7    -20.08      0.00
    4    5    7      5.63      0.00
    1    6    7      5.35      0.00
    2    6    7     10.22      0.00
    3    6    7     -5.57      0.00
    4    6    7     -1.61      0.00
    5    6    7     -0.52      0.00
    0    7    7     20.84      0.00
    1    7    7     15.99      0.00
    2    7    7     -3.71      0.00
    3    7    7      5.48      0.00
    4    7    7     -9.78      0.00
    5    7    7      0.25      0.00
    6    7    7    -12.68      0.00
    1    8    7     -5.45      0.00
    2    8    7     -7.26      0.00
    3    8    7    -11.21      0.00
    4    8    7    -10.40      0.00
    5    8    7     11.77      0.00
    6    8    7     10.68      0.00
    7    8    7     10.21      0.00
    0    9    7     -8.92      0.00
    1    9    7    -14.55      0.00
    2    9    7     -1.16      0.00
    3    9    7     -7.82      0.00
    4    9    7      4.89      0.00
    5    9    7      7.06      0.00
    6    9    7     -3.29      0.00
    7    9    7      3.38      0.00
    8    9    7    -14.89      0.00
    1   10    7     -9.07      0.00
    2   10    7      8.36      0.00
    3   10    7      7.38      0.00
    4   10    7     -1.23      0.00
    5   10    7     -9.41      0.00
    6   10    7     -6.93      0.00
    7   10    7      0.18      0.00
    8   10    7     10.06      0.00
    0   11    7      8.39      0.00
    1   11    7      1.53      0.00
    2   11    7      7.34      0.00
    3   11    7     -7.12      0.00
    4   11    7     -3.08      0.00
    5   11    7      2.90      0.00
    6   11    7     -2.03      0.00
    7   11    7     10.27      0.00
    8   11    7      5.13      0.00
    1   12    7    -17.86      0.00
    2   12    7      1.77      0.00
    3   12    7     -3.97      0.00
    4   12    7    -12.17      0.00
    5   12    7     13.99      0.00
    6   12    7      3.31      0.00
    7   12    7     -9.68      0.00
    8   12    7     16.20      0.00
    0   13    7     -5.18      0.00
    1   13    7     10.13      0.00
    2   13    7     11.41      0.00
    3   13    7      5.53      0.00
    4   13    7     13.62      0.00
    5   13    7      3.38      0.00
    6   13    7     18.07      0.00
    7   13    7    -16.16      0.00
    1   14    7     26.77      0.00
    2   14    7    -35.84      0.00
    3   14    7      1.74      0.00
    4   14    7     12.23      0.00
    5   14    7     19.28      0.00
    6   14    7      8.79      0.00
    7   14    7     -1.93      0.00
    0   15    7    -16.95      0.00
    1   15    7     -7.74      0.00
    2   15    7    -13.23      0.00
    3   15    7    -14.56      0.00
    4   15    7     -5.66      0.00
    5   15    7      2.59      0.00
    6   15    7    -19.82      0.00
    7   15    7     -5.18      0.00
    1   16    7    -13.05      0.00
    2   16    7     10.08      0.00
    3   16    7      7.28      0.00
    4   16    7     42.07      0.00
    5   16    7     16.44      0.00
    6   16    7    -16.72      0.00
    7   16    7    -63.53      0.00
    0   17    7      6.43      0.00
    1   17    7     -7.45      0.00
    2   17    7     15.31      0.00
    3   17    7     27.98      0.00
    4   17    7      9.13      0.00
    5   17    7    -31.91      0.00
    6   17    7    -17.74      0.00
    7   17    7     14.15      0.00
    1   18    7     11.33      0.00
    2   18    7      5.15      0.00
    3   18    7     -3.78      0.00
    4   18    7    -23.80      0.00
    5   18    7     21.02      0.00
    6   18    7    -14.87      0.00
    7   18    7     10.08      0.00
    0   19    7      1.20      0.00
    1   19    7    -10.59      0.00
    2   19    7     -6.19      0.00
    3   19    7      1.12      0.00
    4   19    7      9.47      0.00
    5   19    7      6.72      0.00
    6   19    7     19.07      0.00
    1   20    7    -13.87      0.00
    2   20    7      7.52      0.00
    3   20    7     12.00      0.00
    0    0    8    -59.69      0.00
    1    1    8    -22.55      0.00
    0    2    8     28.84      0.00
    1    2    8     54.32      0.00
    2    2    8      8.59      0.00
    1    3    8    -42.38      0.00
    2    3    8    -26.21      0.00
    3    3    8    -75.08      0.00
    0    4    8   -123.48      0.00
    1    4    8     15.04      0.00
    2    4    8    -15.20      0.00
    3    4    8     10.11      0.00
    4    4    8    -19.17      0.00
    1    5    8    -29.66      0.00
    2    5    8     16.78      0.00
    3    5    8      9.56      0.00
    4    5    8      3.40      0.00
    5    5    8      1.74      0.00
    0    6    8     -6.74      0.00
    1    6    8      1.11      0.00
    2    6    8     22.73      0.00
    3    6    8    -13.83      0.00
    4    6    8    -16.36      0.00
    5    6    8    -16.51      0.00
    6    6    8    -17.57      0.00
    1    7    8     -9.69      0.00
    2    7    8      0.81      0.00
    3    7    8    -15.65      0.00
    4    7    8      1.50      0.00
    5    7    8      2.03      0.00
    6    7    8      2.52      0.00
    7    7    8     -2.29      0.00
    0    8    8     -0.07      0.00
    1    8    8     -9.67      0.00
    2    8    8     -0.23      0.00
    3    8    8      0.79      0.00
    4    8    8      5.31      0.00
    5    8    8      8.17      0.00
    6    8    8      0.15      0.00
    7    8    8      7.78      0.00
    8    8    8      4.17      0.00
    1    9    8      3.28      0.00
    2    9    8     -0.69      0.00
    3    9    8      7.55      0.00
    4    9    8      3.05      0.00
    5    9    8     -0.54      0.00
    6    9    8     -3.05      0.00
    7    9    8     -6.29      0.00
    8    9    8     -2.27      0.00
    0   10    8    -18.78      0.00
    1   10    8      8.78      0.00
    2   10    8     -3.19      0.00
    3   10    8    -22.08      0.00
    4   10    8     -7.57      0.00
    5   10    8      0.36      0.00
    6   10    8     -7.48      0.00
    7   10    8      6.54      0.00
    8   10    8    -14.20      0.00
    1   11    8      0.17      0.00
    2   11    8     -8.78      0.00
    3   11    8     -3.82      0.00
    4   11    8      0.85      0.00
    5   11    8      4.75      0.00
    6   11    8      2.93      0.00
    7   11    8      5.69      0.00
    8   11    8    -11.63      0.00
    0   12    8     -4.72      0.00
    1   12    8      9.25      0.00
    2   12    8      1.68      0.00
    3   12    8     11.81      0.00
    4   12    8     -6.97      0.00
    5   12    8    -11.44      0.00
    6   12    8     11.70      0.00
    7   12    8      3.04      0.00
    8   12    8      2.98      0.00
    1   13    8      2.53      0.00
    2   13    8     -4.86      0.00
    3   13    8    -11.02      0.00
    4   13    8     -0.84      0.00
    5   13    8    -31.11      0.00
    6   13    8     14.55      0.00
    7   13    8      5.48      0.00
    0   14    8    -31.80      0.00
    1   14    8     -8.95      0.00
    2   14    8     16.83      0.00
    3   14    8      2.70      0.00
    4   14    8     -3.31      0.00
    5   14    8      6.91      0.00
    6   14    8     19.73      0.00
    7   14    8     11.57      0.00
    1   15    8    -14.07      0.00
    2   15    8    -16.34      0.00
    3   15    8     -1.05      0.00
    4   15    8      2.62      0.00
    5   15    8     11.59      0.00
    6   15    8     13.74      0.00
    7   15    8     31.30      0.00
    0   16    8     16.63      0.00
    1   16    8      0.61      0.00
    2   16    8      0.19      0.00
    3   16    8     -4.87      0.00
    4   16    8      3.45      0.00
    5   16    8      5.08      0.00
    6   16    8     11.65      0.00
    7   16    8      9.48      0.00
    1   17    8     -9.47      0.00
    2   17    8     12.13      0.00
    3   17    8     -7.76      0.00
    4   17    8    -23.21      0.00
    5   17    8      2.92      0.00
    6   17    8     -8.99      0.00
    7   17    8    -20.89      0.00
    0   18    8    -15.09      0.00
    1   18    8     -4.45      0.00
    2   18    8     28.75      0.00
    3   18    8    -14.92      0.00
    4   18    8    -70.16      0.00
    5   18    8     10.17      0.00
    6   18    8     20.77      0.00
    7   18    8     -4.28      0.00
    1   19    8    -26.03      0.00
    2   19    8    -21.52      0.00
    3   19    8     -7.80      0.00
    4   19    8    -13.71      0.00
    5   19    8    -13.54      0.00
    6   19    8     -3.59      0.00
    0   20    8     15.94      0.00
    1   20    8      4.10      0.00
    2   20    8    -13.69      0.00
    0    1    9    -18.71      0.00
    1    2    9     -1.80      0.00
    0    3    9      8.74      0.00
    1    3    9    -26.70      0.00
    2    3    9      5.48      0.00
    1    4    9     39.40      0.00
    2    4    9     25.43      0.00
    3    4    9     10.68      0.00
    0    5    9    -42.20      0.00
    1    5    9     -1.77      0.00
    2    5    9      5.83      0.00
    3    5    9      7.28      0.00
    4    5    9     -5.09      0.00
    1    6    9     14.86      0.00
    2    6    9     -3.74      0.00
    3    6    9    -23.35      0.00
    4    6    9    -12.33      0.00
    5    6    9     -1.91      0.00
    0    7    9     16.41      0.00
    1    7    9     -5.77      0.00
    2    7    9     -1.23      0.00
    3    7    9     -6.93      0.00
    4    7    9     -8.37      0.00
    5    7    9      7.75      0.00
    6    7    9     -3.33      0.00
    1    8    9     -4.28      0.00
    2    8    9     -9.78      0.00
    3    8    9     -2.99      0.00
    4    8    9      3.89      0.00
    5    8    9      8.03      0.00
    6    8    9     -0.72      0.00
    7    8    9     -1.57      0.00
    0    9    9    -14.32      0.00
    1    9    9      2.35      0.00
    2    9    9      3.72      0.00
    3    9    9     19.92      0.00
    4    9    9     11.74      0.00
    5    9    9      3.79      0.00
    6    9    9     -9.04      0.00
    7    9    9    -20.70      0.00
    8    9    9     -2.86      0.00
    1   10    9      3.13      0.00
    2   10    9      7.97      0.00
    3   10    9      4.54      0.00
    4   10    9      1.60      0.00
    5   10    9     -4.81      0.00
    6   10    9     -0.43      0.00
    7   10    9     -9.61      0.00
    8   10    9     -2.07      0.00
    0   11    9      6.94      0.00
    1   11    9      7.89      0.00
    2   11    9      0.15      0.00
    3   11    9     -4.06      0.00
    4   11    9      7.20      0.00
    5   11    9      9.61      0.00
    6   11    9      4.12      0.00
    7   11    9      1.65      0.00
    8   11    9      6.55      0.00
    1   12    9     12.17      0.00
    2   12    9     11.59      0.00
    3   12    9    -18.02      0.00
    4   12    9     -5.11      0.00
    5   12    9     -3.27      0.00
    6   12    9     -8.51      0.00
    7   12    9     13.92      0.00
    9   12    9    -43.35      0.00
    0   13    9    -11.99      0.00
    1   13    9    -10.05      0.00
    2   13    9      5.23      0.00
    3   13    9     -1.08      0.00
    4   13    9    -29.03      0.00
    5   13    9     15.66      0.00
    6   13    9      7.39      0.00
    7   13    9     -8.59      0.00
    8   13    9      2.50      0.00
    1   14    9     -3.89      0.00
    2   14    9      3.56      0.00
    3   14    9      8.78      0.00
    4   14    9     12.86      0.00
    5   14    9    -13.06      0.00
    6   14    9      7.97      0.00
    7   14    9     -7.00      0.00
    0   15    9     -7.76      0.00
    1   15    9    -10.86      0.00
    2   15    9    -21.00      0.00
    3   15    9     24.11      0.00
    4   15    9     -5.63      0.00
    5   15    9    -19.41      0.00
    6   15    9    -56.18      0.00
    7   15    9     24.35      0.00
    1   16    9     -5.59      0.00
    2   16    9     30.53      0.00
    3   16    9      4.77      0.00
    4   16    9     -1.83      0.00
    5   16    9      6.28      0.00
    6   16    9    -20.41      0.00
    7   16    9     -0.24      0.00
    0   17    9    -13.03      0.00
    1   17    9     10.35      0.00
    2   17    9     -2.11      0.00
    3   17    9    -12.36      0.00
    4   17    9     -2.75      0.00
    5   17    9    -17.80      0.00
    6   17    9     21.46      0.00
    7   17    9      3.06      0.00
    1   18    9    -11.41      0.00
    2   18    9    -20.27      0.00
    3   18    9    -84.70      0.00
    4   18    9      1.66      0.00
    5   18    9      0.63      0.00
    6   18    9     -9.82      0.00
    7   18    9    -33.28      0.00
    0   19    9      6.32      0.00
    1   19    9    -21.37      0.00
    2   19    9      3.76      0.00
    3   19    9     25.97      0.00
    4   19    9     18.84      0.00
    5   19    9    -12.33      0.00
    1   20    9    -11.79      0.00
    2   20    9      1.80      0.00
    0    0   10     35.52      0.00
    1    1   10    -52.16      0.00
    0    2   10    101.80      0.00
    1    2   10     -7.39      0.00
    2    2   10    -27.49      0.00
    1    3   10      5.72      0.00
    2    3   10    -20.39      0.00
    3    3   10    -25.24      0.00
    0    4   10     15.76      0.00
    1    4   10      0.87      0.00
    2    4   10     40.18      0.00
    3    4   10      2.05      0.00
    4    4   10      4.79      0.00
    1    5   10     12.18      0.00
    2    5   10     -1.82      0.00
    3    5   10     12.31      0.00
    4    5   10      4.92      0.00
    5    5   10      6.93      0.00
    0    6   10     14.13      0.00
    1    6   10     -8.79      0.00
    2    6   10      0.90      0.00
    3    6   10    -11.53      0.00
    4    6   10     -4.64      0.00
    5    6   10     -0.51      0.00
    6    6   10    -14.44      0.00
    1    7   10     -7.25      0.00
    2    7   10     -7.51      0.00
    3    7   10     -2.90      0.00
    4    7   10      2.27      0.00
    5    7   10     13.27      0.00
    6    7   10      0.09      0.00
    7    7   10     12.43      0.00
    0    8   10      8.49      0.00
    1    8   10    -10.40      0.00
    2    8   10     -4.23      0.00
    3    8   10      5.95      0.00
    4    8   10      4.44      0.00
    5    8   10     -9.69      0.00
    6    8   10     12.03      0.00
    7    8   10     -3.13      0.00
    8    8   10     22.08      0.00
    1    9   10     -4.56      0.00
    2    9   10     17.48      0.00
    3    9   10      1.74      0.00
    4    9   10     10.04      0.00
    5    9   10      9.52      0.00
    6    9   10     -1.50      0.00
    7    9   10      2.36      0.00
    8    9   10     -4.51      0.00
    9    9   10      5.56      0.00
    0   10   10      3.29      0.00
    1   10   10      9.74      0.00
    2   10   10     -4.12      0.00
    3   10   10     -8.09      0.00
    4   10   10     -3.97      0.00
    5   10   10     -4.56      0.00
    6   10   10     -8.47      0.00
    7   10   10      1.55      0.00
    8   10   10    -17.25      0.00
    1   11   10     12.68      0.00
    2   11   10     -7.99      0.00
    3   11   10     -6.58      0.00
    4   11   10     14.91      0.00
    5   11   10     -5.18      0.00
    6   11   10      7.24      0.00
    7   11   10     -4.70      0.00
    9   11   10    -64.36      0.00
    0   12   10      5.56      0.00
    1   12   10      3.74      0.00
    2   12   10     -8.66      0.00
    3   12   10     15.33      0.00
    4   12   10     11.21      0.00
    5   12   10     -8.07      0.00
    6   12   10    -12.37      0.00
    7   12   10     -0.66      0.00
    8   12   10     -1.73      0.00
    9   12   10     25.31      0.00
    1   13   10      1.65      0.00
    2   13   10    -17.10      0.00
    3   13   10     -2.37      0.00
    4   13   10    -20.57      0.00
    5   13   10     11.97      0.00
    6   13   10     10.33      0.00
    7   13   10     -0.13      0.00
    8   13   10    -26.50      0.00
    9   13   10     20.49      0.00
    0   14   10     14.75      0.00
    1   14   10     -0.92      0.00
    2   14   10     36.18      0.00
    3   14   10    -12.99      0.00
    4   14   10     12.18      0.00
    5   14   10     10.02      0.00
    6   14   10     30.05      0.00
    7   14   10    -21.61      0.00
    8   14   10    -20.67      0.00
    1   15   10     -6.22      0.00
    2   15   10      5.39      0.00
    3   15   10    -14.58      0.00
    4   15   10      4.26      0.00
    5   15   10     -3.93      0.00
    6   15   10     -3.81      0.00
    7   15   10    -14.61      0.00
    8   15   10     20.54      0.00
    0   16   10     67.47      0.00
    1   16   10     45.19      0.00
    2   16   10    -12.84      0.00
    3   16   10    -16.31      0.00
    4   16   10      3.60      0.00
    5   16   10     -0.36      0.00
    6   16   10     -9.52      0.00
    7   16   10    -17.00      0.00
    8   16   10     14.04      0.00
    1   17   10     16.83      0.00
    2   17   10      6.48      0.00
    3   17   10     30.66      0.00
    4   17   10     13.02      0.00
    5   17   10      8.92      0.00
    6   17   10     11.89      0.00
    7   17   10      7.43      0.00
    0   18   10    -29.02      0.00
    1   18   10     11.46      0.00
    2   18   10    124.45      0.00
    3   18   10     -7.78      0.00
    4   18   10      9.59      0.00
    5   18   10     30.27      0.00
    6   18   10     11.47      0.00
    7   18   10     29.79      0.00
    1   19   10    -32.87      0.00
    2   19   10      0.35      0.00
    3   19   10      4.83      0.00
    4   19   10     -3.74      0.00
    5   19   10     -0.30      0.00
    1   20   10    -11.84      0.00
    0    1   11      7.19      0.00
    1    2   11     48.54      0.00
    0    3   11    -22.37      0.00
    1    3   11     -0.60      0.00
    2    3   11      0.22      0.00
    1    4   11      0.67      0.00
    2    4   11    -12.58      0.00
    3    4   11      9.79      0.00
    0    5   11      4.98      0.00
    1    5   11      4.58      0.00
    2    5   11     29.84      0.00
    3    5   11      6.53      0.00
    4    5   11    -14.72      0.00
    1    6   11      7.48      0.00
    2    6   11      0.84      0.00
    3    6   11     -8.72      0.00
    4    6   11    -14.32      0.00
    5    6   11     -0.90      0.00
    0    7   11    -13.07      0.00
    1    7   11     -5.98      0.00
    2    7   11     -7.88      0.00
    3    7   11      2.09      0.00
    4    7   11      5.71      0.00
    5    7   11      0.00      0.00
    6    7   11     -0.90      0.00
    1    8   11      6.00      0.00
    2    8   11      2.42      0.00
    3    8   11      2.40      0.00
    4    8   11     13.43      0.00
    5    8   11     13.18      0.00
    6    8   11    -10.50      0.00
    7    8   11      7.15      0.00
    0    9   11     12.08      0.00
    1    9   11     -1.31      0.00
    2    9   11      3.48      0.00
    3    9   11     -1.17      0.00
    4    9   11     -0.05      0.00
    5    9   11      2.10      0.00
    6    9   11      1.22      0.00
    7    9   11     -4.42      0.00
    8    9   11     -8.64      0.00
    1   10   11      6.82      0.00
    2   10   11    -12.25      0.00
    3   10   11     -5.84      0.00
    4   10   11     -7.41      0.00
    5   10   11     -0.06      0.00
    6   10   11    -14.26      0.00
    7   10   11    -12.07      0.00
    8   10   11    -27.06      0.00
    9   10   11      2.54      0.00
    0   11   11      6.90      0.00
    1   11   11      8.38      0.00
    2   11   11      9.78      0.00
    3   11   11      0.54      0.00
    4   11   11      5.30      0.00
    5   11   11     -8.25      0.00
    6   11   11     -1.86      0.00
    7   11   11    -12.79      0.00
    9   11   11    -15.77      0.00
   10   11   11     -8.11      0.00
    1   12   11      9.46      0.00
    2   12   11      1.72      0.00
    3   12   11      2.37      0.00
    4   12   11      4.09      0.00
    5   12   11      0.91      0.00
    6   12   11     -0.81      0.00
    7   12   11     12.35      0.00
    8   12   11     11.20      0.00
    9   12   11     -1.58      0.00
   10   12   11     -9.26      0.00
    0   13   11     -9.62      0.00
    1   13   11     19.15      0.00
    2   13   11    -33.42      0.00
    3   13   11    -28.28      0.00
    4   13   11     19.53      0.00
    5   13   11     -0.26      0.00
    6   13   11    -18.58      0.00
    7   13   11      2.68      0.00
    8   13   11    -20.78      0.00
    9   13   11     74.87      0.00
   10   13   11     10.27      0.00
    1   14   11    -17.82      0.00
    2   14   11     15.87      0.00
    3   14   11      2.96      0.00
    4   14   11     20.85      0.00
    5   14   11     31.81      0.00
    6   14   11    -15.37      0.00
    7   14   11      4.32      0.00
    8   14   11    -13.88      0.00
    0   15   11     -7.84      0.00
    1   15   11    -16.47      0.00
    2   15   11      9.49      0.00
    3   15   11    -13.03      0.00
    4   15   11     -9.21      0.00
    5   15   11     12.49      0.00
    6   15   11      8.77      0.00
    7   15   11     20.05      0.00
    8   15   11      2.96      0.00
    1   16   11     -4.71      0.00
    2   16   11     -5.16      0.00
    3   16   11     -7.70      0.00
    4   16   11     -4.01      0.00
    5   16   11     14.89      0.00
    6   16   11     11.71      0.00
    7   16   11    -16.40      0.00
    8   16   11    -78.39      0.00
    0   17   11    -16.62      0.00
    1   17   11     -6.14      0.00
    2   17   11     -5.96      0.00
    3   17   11      8.41      0.00
    4   17   11      8.55      0.00
    5   17   11      2.78      0.00
    6   17   11      5.70      0.00
    7   17   11    -14.45      0.00
    8   17   11     27.01      0.00
    1   18   11    -10.12      0.00
    2   18   11     -9.84      0.00
    3   18   11    -44.82      0.00
    4   18   11    -14.73      0.00
    5   18   11    -52.07      0.00
    6   18   11     13.46      0.00
    7   18   11     -4.84      0.00
    8   18   11     -5.55      0.00
    0   19   11      3.25      0.00
    1   19   11     -2.37      0.00
    2   19   11     19.36      0.00
    3   19   11     15.20      0.00
    4   19   11    -10.25      0.00
    0    0   12     34.04      0.00
    1    1   12    -15.10      0.00
    0    2   12      5.37      0.00
    1    2   12    -11.58      0.00
    2    2   12     11.77      0.00
    1    3   12     -2.02      0.00
    2    3   12      8.38      0.00
    3    3   12     -2.44      0.00
    0    4   12    -17.67      0.00
    1    4   12     -0.95      0.00
    2    4   12     -0.90      0.00
    4    4   12     19.19      0.00
    1    5   12    -14.91      0.00
    2    5   12      4.79      0.00
    3    5   12      9.22      0.00
    4    5   12    -14.15      0.00
    5    5   12     -1.99      0.00
    0    6   12     -1.17      0.00
    1    6   12      7.60      0.00
    2    6   12     -1.82      0.00
    3    6   12     -3.34      0.00
    4    6   12     10.08      0.00
    5    6   12      1.83      0.00
    6    6   12     -6.24      0.00
    1    7   12     -0.67      0.00
    2    7   12     -4.84      0.00
    3    7   12     -1.13      0.00
    4    7   12     -0.68      0.00
    5    7   12     -3.23      0.00
    6    7   12      8.74      0.00
    7    7   12     -2.61      0.00
    0    8   12      7.71      0.00
    1    8   12      0.39      0.00
    2    8   12     -0.97      0.00
    3    8   12     11.50      0.00
    4    8   12      4.63      0.00
    5    8   12      7.67      0.00
    6    8   12     -8.05      0.00
    7    8   12     -7.51      0.00
    8    8   12      8.25      0.00
    1    9   12     -1.21      0.00
    2    9   12     -0.08      0.00
    3    9   12      7.20      0.00
    4    9   12     37.31      0.00
    5    9   12     -7.52      0.00
    6    9   12     11.56      0.00
    7    9   12      4.13      0.00
    8    9   12     -1.55      0.00
    9    9   12     -4.43      0.00
    0   10   12     -7.57      0.00
    1   10   12     14.25      0.00
    2   10   12      0.39      0.00
    3   10   12    -26.54      0.00
    4   10   12      4.34      0.00
    5   10   12      1.67      0.00
    6   10   12      0.47      0.00
    7   10   12     -4.62      0.00
    8   10   12      5.09      0.00
    9   10   12    -10.66      0.00
   10   10   12      3.79      0.00
    1   11   12      6.36      0.00
    2   11   12     -2.57      0.00
    3   11   12     -8.38      0.00
    4   11   12    -16.86      0.00
    5   11   12      3.55      0.00
    6   11   12     -0.09      0.00
    7   11   12     11.35      0.00
    8   11   12     53.77      0.00
    9   11   12      0.73      0.00
   10   11   12    -10.36      0.00
    0   12   12     -1.70      0.00
    1   12   12     -6.95      0.00
    2   12   12     17.77      0.00
    3   12   12     11.68      0.00
    4   12   12     -3.48      0.00
    5   12   12    -56.27      0.00
    7   12   12     -4.25      0.00
    8   12   12     -5.44      0.00
    9   12   12    -19.28      0.00
   10   12   12      6.87      0.00
    1   13   12    -22.23      0.00
    2   13   12    -14.64      0.00
    3   13   12      2.62      0.00
    4   13   12    -14.34      0.00
    5   13   12     14.89      0.00
    6   13   12      6.49      0.00
    7   13   12    -15.59      0.00
    8   13   12     -8.51      0.00
    9   13   12     -4.76      0.00
   10   13   12      7.37      0.00
    0   14   12     16.64      0.00
    1   14   12     -9.39      0.00
    2   14   12     24.30      0.00
    3   14   12      4.41      0.00
    4   14   12     -0.44      0.00
    5   14   12      4.18      0.00
    6   14   12    -17.50      0.00
    7   14   12     -3.43      0.00
    8   14   12    -10.41      0.00
    1   15   12     10.15      0.00
    2   15   12     -0.65      0.00
    3   15   12    -21.02      0.00
    4   15   12    -33.91      0.00
    5   15   12     -1.57      0.00
    6   15   12      7.24      0.00
    7   15   12     -0.57      0.00
    8   15   12     10.73      0.00
    0   16   12     -5.94      0.00
    1   16   12     -9.42      0.00
    2   16   12     -4.50      0.00
    3   16   12     -5.74      0.00
    4   16   12    -15.11      0.00
    5   16   12    -20.10      0.00
    6   16   12     20.27      0.00
    7   16   12     21.94      0.00
    8   16   12    -13.09      0.00
    1   17   12    -27.40      0.00
    2   17   12      5.11      0.00
    3   17   12    -12.06      0.00
    4   17   12    -14.66      0.00
    6   17   12      1.83      0.00
    7   17   12     -6.06      0.00
    8   17   12     -5.29      0.00
    0   18   12     22.95      0.00
    1   18   12     -1.59      0.00
    2   18   12      6.55      0.00
    3   18   12      2.93      0.00
    4   18   12    -14.96      0.00
    5   18   12     11.05      0.00
    6   18   12     -7.42      0.00
    7   18   12      8.88      0.00
    8   18   12     54.82      0.00
    1   19   12     -9.89      0.00
    2   19   12      5.22      0.00
    3   19   12      1.68      0.00
    4   19   12     -3.55      0.00
    0    1   13    -11.23      0.00
    1    2   13     -9.01      0.00
    0    3   13    -19.32      0.00
    1    3   13     -1.43      0.00
    2    3   13    -17.10      0.00
    1    4   13      0.41      0.00
    2    4   13     14.78      0.00
    3    4   13     -2.42      0.00
    0    5   13     18.55      0.00
    1    5   13      0.06      0.00
    2    5   13      6.77      0.00
    3    5   13     16.07      0.00
    4    5   13      0.89      0.00
    1    6   13    -14.83      0.00
    2    6   13      3.74      0.00
    3    6   13      3.99      0.00
    4    6   13     -7.39      0.00
    5    6   13     -2.97      0.00
    0    7   13      3.81      0.00
    1    7   13     -1.93      0.00
    2    7   13      1.32      0.00
    3    7   13     -5.90      0.00
    4    7   13     -5.33      0.00
    5    7   13      4.72      0.00
    6    7   13      5.45      0.00
    1    8   13      0.23      0.00
    2    8   13      0.86      0.00
    3    8   13      0.04      0.00
    4    8   13     -2.01      0.00
    5    8   13      4.03      0.00
    6    8   13      4.22      0.00
    7    8   13      3.06      0.00
    0    9   13     -4.33      0.00
    1    9   13     -4.46      0.00
    2    9   13     -9.19      0.00
    3    9   13    -10.63      0.00
    4    9   13     -6.86      0.00
    5    9   13     -7.03      0.00
    6    9   13     -7.87      0.00
    7    9   13     14.51      0.00
    8    9   13    -12.92      0.00
    1   10   13    -13.61      0.00
    2   10   13      1.19      0.00
    3   10   13      5.10      0.00
    4   10   13     -9.05      0.00
    5   10   13      7.67      0.00
    6   10   13     -5.34      0.00
    7   10   13     -1.30      0.00
    8   10   13     -8.36      0.00
    9   10   13     10.61      0.00
    0   11   13      4.86      0.00
    1   11   13     -2.08      0.00
    2   11   13      2.02      0.00
    3   11   13      0.20      0.00
    4   11   13     -5.13      0.00
    5   11   13     10.76      0.00
    6   11   13      3.60      0.00
    7   11   13     11.75      0.00
    8   11   13      1.58      0.00
    9   11   13      3.10      0.00
   10   11   13    -20.03      0.00
    1   12   13    -15.25      0.00
    2   12   13     -7.09      0.00
    3   12   13    -11.63      0.00
    4   12   13     66.52      0.00
    5   12   13    -25.54      0.00
    6   12   13     15.67      0.00
    7   12   13     51.19      0.00
    8   12   13    -13.89      0.00
    9   12   13    -17.78      0.00
   10   12   13    -16.05      0.00
    0   13   13     10.64      0.00
    1   13   13      4.14      0.00
    2   13   13     12.62      0.00
    3   13   13    -18.47      0.00
    4   13   13    -13.91      0.00
    5   13   13     20.98      0.00
    6   13   13    -21.36      0.00
    7   13   13    -13.02      0.00
    8   13   13     26.76      0.00
    9   13   13      1.37      0.00
   10   13   13     -3.21      0.00
    1   14   13     -2.85      0.00
    2   14   13      3.38      0.00
    3   14   13      6.45      0.00
    4   14   13      1.68      0.00
    5   14   13     31.26      0.00
    6   14   13    -15.04      0.00
    7   14   13     -4.72      0.00
    8   14   13    -14.50      0.00
    9   14   13     -6.15      0.00
    0   15   13     12.27      0.00
    1   15   13     -1.67      0.00
    2   15   13     -7.32      0.00
    3   15   13     53.13      0.00
    4   15   13      4.56      0.00
    5   15   13      0.74      0.00
    6   15   13      9.16      0.00
    7   15   13      2.10      0.00
    8   15   13      8.76      0.00
    9   15   13     94.85      0.00
    1   16   13     13.89      0.00
    2   16   13      2.51      0.00
    3   16   13     -6.03      0.00
    4   16   13     -5.09      0.00
    5   16   13     -7.29      0.00
    6   16   13      6.02      0.00
    8   16   13    -24.52      0.00
    0   17   13     10.00      0.00
    1   17   13     16.58      0.00
    2   17   13      9.26      0.00
    3   17   13    -15.72      0.00
    4   17   13    139.56      0.00
    5   17   13     -2.85      0.00
    6   17   13      5.99      0.00
    7   17   13    -14.74      0.00
    8   17   13    -12.79      0.00
    1   18   13     15.08      0.00
    2   18   13      1.18      0.00
    3   18   13     -6.04      0.00
    4   18   13      6.14      0.00
    5   18   13     20.09      0.00
    6   18   13     12.06      0.00
    7   18   13     -6.43      0.00
    8   18   13     80.63      0.00
    0   19   13    -27.57      0.00
    1   19   13      4.96      0.00
    2   19   13      3.67      0.00
    3   19   13    -15.81      0.00
    0    0   14    -34.01      0.00
    1    1   14      4.22      0.00
    0    2   14      1.59      0.00
    1    2   14      5.09      0.00
    2    2   14    -22.03      0.00
    1    3   14    -19.07      0.00
    2    3   14     -5.88      0.00
    3    3   14     -4.94      0.00
    0    4   14     -0.19      0.00
    1    4   14      0.67      0.00
    2    4   14     -8.13      0.00
    3    4   14     -1.44      0.00
    4    4   14     -1.26      0.00
    1    5   14      4.30      0.00
    2    5   14     -9.73      0.00
    3    5   14     -6.77      0.00
    4    5   14     -0.24      0.00
    5    5   14      6.01      0.00
    0    6   14     -4.34      0.00
    1    6   14      5.87      0.00
    2    6   14     -1.33      0.00
    3    6   14      8.14      0.00
    4    6   14     -5.24      0.00
    5    6   14      6.41      0.00
    6    6   14     -2.81      0.00
    1    7   14      2.30      0.00
    2    7   14    -18.59      0.00
    3    7   14     -9.40      0.00
    4    7   14     -8.39      0.00
    5    7   14    -18.68      0.00
    6    7   14     -1.89      0.00
    7    7   14     -1.21      0.00
    0    8   14     -9.72      0.00
    1    8   14      4.28      0.00
    2    8   14      0.61      0.00
    3    8   14     -6.80      0.00
    4    8   14     18.75      0.00
    5    8   14     -8.35      0.00
    6    8   14     -5.29      0.00
    7    8   14      6.86      0.00
    1    9   14     -0.97      0.00
    2    9   14      7.88      0.00
    3    9   14     -3.33      0.00
    4    9   14     10.11      0.00
    5    9   14     -8.50      0.00
    6    9   14      5.37      0.00
    7    9   14    -23.82      0.00
    8    9   14      8.15      0.00
    9    9   14     -0.30      0.00
    0   10   14    -38.03      0.00
    1   10   14      6.25      0.00
    2   10   14      7.52      0.00
    3   10   14    -17.05      0.00
    4   10   14     -4.76      0.00
    5   10   14    -15.01      0.00
    6   10   14     -3.72      0.00
    7   10   14      1.02      0.00
    8   10   14    -11.93      0.00
    9   10   14    -12.75      0.00
   10   10   14     -9.42      0.00
    1   11   14     -8.02      0.00
    2   11   14     -7.33      0.00
    3   11   14    -16.75      0.00
    4   11   14     12.83      0.00
    5   11   14      6.52      0.00
    6   11   14     17.90      0.00
    7   11   14     -3.66      0.00
    8   11   14     -1.13      0.00
    9   11   14      4.33      0.00
   10   11   14      1.13      0.00
    0   12   14     17.43      0.00
    1   12   14    -12.04      0.00
    2   12   14      3.24      0.00
    3   12   14     37.95      0.00
    5   12   14     -1.51      0.00
    6   12   14    -15.97      0.00
    7   12   14    -26.95      0.00
    8   12   14    -11.06      0.00
    9   12   14     25.96      0.00
   10   12   14    -13.61      0.00
   11   12   14     32.13      0.00
    1   13   14      6.68      0.00
    2   13   14      9.02      0.00
    3   13   14     -2.36      0.00
    4   13   14      1.07      0.00
    5   13   14     17.17      0.00
    6   13   14     -5.27      0.00
    7   13   14    -29.69      0.00
    8   13   14     -1.21      0.00
    9   13   14     -1.00      0.00
   10   13   14      1.13      0.00
   11   13   14    -40.22      0.00
    0   14   14     22.88      0.00
    1   14   14     -3.48      0.00
    2   14   14    -15.71      0.00
    3   14   14      6.04      0.00
    4   14   14     -6.36      0.00
    5   14   14      4.96      0.00
    6   14   14    -20.42      0.00
    7   14   14      6.13      0.00
    8   14   14     -3.22      0.00
    9   14   14    -17.15      0.00
   10   14   14    101.45      0.00
   11   14   14     21.94      0.00
    1   15   14     -4.03      0.00
    2   15   14      3.94      0.00
    3   15   14      9.57      0.00
    4   15   14    -14.29      0.00
    5   15   14    -11.04      0.00
    6   15   14     -1.98      0.00
    7   15   14     10.05      0.00
    8   15   14     21.03      0.00
    0   16   14     17.69      0.00
    1   16   14      2.99      0.00
    2   16   14    -10.28      0.00
    3   16   14      9.02      0.00
    4   16   14    -10.68      0.00
    5   16   14     11.16      0.00
    6   16   14      9.77      0.00
    7   16   14     14.65      0.00
    8   16   14      1.75      0.00
    1   17   14    -26.43      0.00
    2   17   14    -13.79      0.00
    3   17   14     46.22      0.00
    4   17   14      2.34      0.00
    5   17   14    -37.07      0.00
    6   17   14      0.21      0.00
    7   17   14    -20.15      0.00
    8   17   14     12.14      0.00
    0   18   14      3.25      0.00
    1   18   14     12.27      0.00
    2   18   14    -22.24      0.00
    3   18   14     -3.28      0.00
    4   18   14    -26.37      0.00
    5   18   14     29.69      0.00
    6   18   14      1.63      0.00
    7   18   14     -9.65      0.00
    8   18   14     52.20      0.00
    0    1   15     -8.67      0.00
    1    2   15     -3.39      0.00
    0    3   15     -7.59      0.00
    1    3   15     -7.62      0.00
    2    3   15      4.32      0.00
    1    4   15     -5.67      0.00
    2    4   15     -5.58      0.00
    3    4   15    -10.79      0.00
    0    5   15      7.00      0.00
    1    5   15     -0.88      0.00
    2    5   15    -13.99      0.00
    3    5   15      0.39      0.00
    4    5   15      6.20      0.00
    1    6   15     -6.72      0.00
    2    6   15      4.20      0.00
    3    6   15     -8.43      0.00
    4    6   15    -11.67      0.00
    5    6   15      4.68      0.00
    0    7   15      6.75      0.00
    1    7   15      0.85      0.00
    2    7   15     11.05      0.00
    3    7   15     -9.08      0.00
    4    7   15     -7.30      0.00
    5    7   15     -7.38      0.00
    6    7   15      4.59      0.00
    1    8   15      1.12      0.00
    2    8   15      5.62      0.00
    3    8   15      4.12      0.00
    4    8   15     -2.70      0.00
    5    8   15     -2.77      0.00
    6    8   15     12.82      0.00
    0    9   15      0.35      0.00
    1    9   15      2.32      0.00
    2    9   15     10.91      0.00
    3    9   15     -3.22      0.00
    4    9   15     -8.42      0.00
    5    9   15      4.34      0.00
    6    9   15     -8.25      0.00
    7    9   15     -7.55      0.00
    8    9   15     -6.18      0.00
    1   10   15     16.49      0.00
    2   10   15      5.00      0.00
    3   10   15      5.62      0.00
    4   10   15     -3.06      0.00
    5   10   15     12.77      0.00
    6   10   15     -8.03      0.00
    7   10   15     10.31      0.00
    8   10   15      9.92      0.00
    9   10   15      3.03      0.00
    0   11   15     24.65      0.00
    1   11   15     -3.21      0.00
    2   11   15      8.00      0.00
    3   11   15      6.00      0.00
    4   11   15     -5.11      0.00
    5   11   15    -28.38      0.00
    6   11   15      8.70      0.00
    7   11   15      2.37      0.00
    8   11   15     24.89      0.00
    9   11   15      7.29      0.00
   10   11   15     -7.13      0.00
    1   12   15    -43.31      0.00
    2   12   15     -6.39      0.00
    4   12   15     23.37      0.00
    5   12   15     -4.64      0.00
    6   12   15     25.98      0.00
    7   12   15      5.03      0.00
    8   12   15     -4.21      0.00
    9   12   15     -5.33      0.00
   10   12   15    -34.77      0.00
   11   12   15      6.29      0.00
    0   13   15      9.60      0.00
    1   13   15     -9.78      0.00
    2   13   15      1.96      0.00
    3   13   15      5.92      0.00
    4   13   15      0.86      0.00
    5   13   15      4.13      0.00
    6   13   15    -10.60      0.00
    7   13   15     19.86      0.00
    8   13   15      2.13      0.00
    9   13   15     17.16      0.00
   10   13   15      7.44      0.00
   11   13   15     28.87      0.00
    1   14   15     -8.74      0.00
    2   14   15     -5.50      0.00
    3   14   15      7.49      0.00
    4   14   15    -47.25      0.00
    5   14   15    -15.18      0.00
    6   14   15     35.56      0.00
    7   14   15     17.91      0.00
    8   14   15     24.83      0.00
    9   14   15    -17.35      0.00
   10   14   15      6.61      0.00
   11   14   15    -21.80      0.00
    0   15   15     20.00      0.00
    1   15   15     17.09      0.00
    2   15   15    -22.13      0.00
    3   15   15     23.60      0.00
    4   15   15      0.01      0.00
    5   15   15     -0.01      0.00
    6   15   15      0.10      0.00
    7   15   15      6.44      0.00
    1   16   15     10.11      0.00
    2   16   15    -12.04      0.00
    3   16   15    -19.60      0.00
    4   16   15     -5.00      0.00
    5   16   15    -14.67      0.00
    6   16   15     11.87      0.00
    7   16   15      2.40      0.00
    0   17   15     17.18      0.00
    1   17   15    -20.88      0.00
    2   17   15    -41.99      0.00
    3   17   15     -7.93      0.00
    4   17   15    -33.07      0.00
    5   17   15     11.26      0.00
    6   17   15     -7.83      0.00
    7   17   15    -31.56      0.00
    1   18   15     12.85      0.00
    2   18   15     -2.07      0.00
    3   18   15    -31.42      0.00
    4   18   15      8.94      0.00
    5   18   15    -19.27      0.00
    6   18   15      0.76      0.00
    7   18   15     10.61      0.00
    0    0   16     14.04      0.00
    1    1   16     10.39      0.00
    0    2   16      5.64      0.00
    1    2   16      0.56      0.00
    2    2   16     47.45      0.00
    1    3   16     14.58      0.00
    2    3   16    -12.29      0.00
    3    3   16     17.98      0.00
    0    4   16     23.70      0.00
    1    4   16    -18.61      0.00
    2    4   16     -7.44      0.00
    3    4   16     -1.52      0.00
    4    4   16      8.12      0.00
    1    5   16     -2.24      0.00
    2    5   16     13.99      0.00
    3    5   16     -2.28      0.00
    4    5   16      8.73      0.00
    5    5   16     19.39      0.00
    0    6   16      1.51      0.00
    1    6   16      2.01      0.00
    2    6   16     -6.22      0.00
    3    6   16     -2.09      0.00
    4    6   16     -1.33      0.00
    5    6   16     -1.88      0.00
    6    6   16     -2.84      0.00
    1    7   16      6.27      0.00
    2    7   16      4.48      0.00
    3    7   16     13.84      0.00
    4    7   16      6.20      0.00
    5    7   16     -1.94      0.00
    6    7   16     15.67      0.00
    0    8   16      3.92      0.00
    1    8   16     14.74      0.00
    2    8   16     -0.48      0.00
    3    8   16     -2.36      0.00
    4    8   16      6.98      0.00
    5    8   16      9.29      0.00
    7    8   16     16.08      0.00
    8    8   16     -5.87      0.00
    1    9   16     -6.11      0.00
    2    9   16      7.75      0.00
    3    9   16     -0.84      0.00
    4    9   16     -3.87      0.00
    6    9   16    -12.36      0.00
    7    9   16      3.42      0.00
    8    9   16      0.29      0.00
    9    9   16     -7.59      0.00
    0   10   16     -6.21      0.00
    1   10   16      8.66      0.00
    2   10   16      0.64      0.00
    3   10   16      7.69      0.00
    4   10   16     11.02      0.00
    5   10   16    -10.37      0.00
    6   10   16     15.80      0.00
    7   10   16      2.09      0.00
    8   10   16      9.71      0.00
    9   10   16     -5.47      0.00
   10   10   16     -2.68      0.00
    1   11   16     17.21      0.00
    2   11   16    -24.55      0.00
    3   11   16     23.62      0.00
    4   11   16     -2.74      0.00
    5   11   16    -16.54      0.00
    6   11   16      6.72      0.00
    7   11   16     21.41      0.00
    8   11   16    -10.30      0.00
    9   11   16      0.48      0.00
   10   11   16     -5.87      0.00
   11   11   16      3.91      0.00
    0   12   16     -9.63      0.00
    1   12   16     -5.97      0.00
    2   12   16     19.59      0.00
    3   12   16     -1.99      0.00
    4   12   16     28.42      0.00
    5   12   16    -10.31      0.00
    6   12   16      6.66      0.00
    7   12   16    -13.45      0.00
    8   12   16     -1.41      0.00
    9   12   16     16.01      0.00
   10   12   16    -12.74      0.00
   11   12   16     48.27      0.00
    1   13   16     -0.92      0.00
    2   13   16     23.51      0.00
    3   13   16     19.81      0.00
    4   13   16      9.13      0.00
    5   13   16     15.13      0.00
    6   13   16    -85.80      0.00
    7   13   16      2.50      0.00
    8   13   16    -11.31      0.00
    9   13   16      5.46      0.00
   10   13   16    -23.04      0.00
   11   13   16    -25.17      0.00
    0   14   16      9.51      0.00
    1   14   16     -9.64      0.00
    2   14   16     -9.75      0.00
    3   14   16    -23.13      0.00
    4   14   16     -3.08      0.00
    5   14   16     11.09      0.00
    6   14   16     -9.04      0.00
    7   14   16     -6.53      0.00
    8   14   16     17.70      0.00
    9   14   16    -73.59      0.00
   10   14   16      9.50      0.00
   11   14   16     -7.18      0.00
    1   15   16     -5.17      0.00
    2   15   16    -35.19      0.00
    3   15   16    -21.73      0.00
    4   15   16      7.80      0.00
    5   15   16      1.00      0.00
    6   15   16     -2.61      0.00
    0   16   16    -12.06      0.00
    1   16   16     11.98      0.00
    2   16   16    -20.47      0.00
    3   16   16     13.12      0.00
    4   16   16    -42.00      0.00
    5   16   16      1.89      0.00
    6   16   16     16.38      0.00
    1   17   16     11.63      0.00
    2   17   16     -6.90      0.00
    3   17   16     22.40      0.00
    4   17   16     -8.30      0.00
    5   17   16     40.86      0.00
    6   17   16    -28.10      0.00
    0   18   16      8.19      0.00
    1   18   16      0.07      0.00
    2   18   16    -15.61      0.00
    3   18   16      4.44      0.00
    4   18   16     10.41      0.00
    5   18   16     -7.26      0.00
    6   18   16     -4.88      0.00
    0    1   17     24.01      0.00
    1    2   17     -1.92      0.00
    0    3   17    -13.56      0.00
    1    3   17      2.14      0.00
    2    3   17      5.50      0.00
    1    4   17     13.65      0.00
    2    4   17     -1.89      0.00
    3    4   17      0.97      0.00
    0    5   17     27.96      0.00
    1    5   17      3.39      0.00
    2    5   17    -14.08      0.00
    3    5   17      5.80      0.00
    4    5   17     10.30      0.00
    1    6   17      7.17      0.00
    2    6   17     13.22      0.00
    3    6   17    -13.16      0.00
    4    6   17     22.45      0.00
    5    6   17     -9.55      0.00
    0    7   17     31.48      0.00
    1    7   17     -6.75      0.00
    2    7   17    -15.05      0.00
    3    7   17     -6.65      0.00
    4    7   17      7.31      0.00
    5    7   17    -16.48      0.00
    1    8   17     -2.11      0.00
    2    8   17      2.46      0.00
    3    8   17    -13.09      0.00
    4    8   17    -18.04      0.00
    6    8   17      1.51      0.00
    7    8   17      4.77      0.00
    0    9   17    -15.76      0.00
    1    9   17     15.44      0.00
    2    9   17    -10.13      0.00
    3    9   17      2.48      0.00
    4    9   17      7.93      0.00
    5    9   17     -8.40      0.00
    6    9   17      1.44      0.00
    7    9   17      7.26      0.00
    8    9   17     11.51      0.00
    1   10   17      5.43      0.00
    2   10   17    -12.91      0.00
    3   10   17      5.02      0.00
    4   10   17      0.92      0.00
    5   10   17    -13.67      0.00
    6   10   17      2.93      0.00
    7   10   17     17.41      0.00
    8   10   17      2.32      0.00
    9   10   17    -15.39      0.00
    0   11   17    -40.05      0.00
    1   11   17     16.26      0.00
    2   11   17     15.89      0.00
    3   11   17    -12.78      0.00
    4   11   17     -7.54      0.00
    5   11   17     17.00      0.00
    6   11   17     -3.67      0.00
    7   11   17      1.19      0.00
    8   11   17     -8.97      0.00
    9   11   17     -8.61      0.00
   10   11   17      8.29      0.00
    1   12   17    -14.28      0.00
    2   12   17    -24.83      0.00
    3   12   17     -5.95      0.00
    4   12   17     12.67      0.00
    5   12   17     10.26      0.00
    6   12   17      1.64      0.00
    7   12   17   -102.13      0.00
    8   12   17     10.25      0.00
    9   12   17     -3.89      0.00
   10   12   17      6.70      0.00
   11   12   17     20.40      0.00
    0   13   17     36.24      0.00
    1   13   17      6.83      0.00
    2   13   17      4.78      0.00
    3   13   17     -3.72      0.00
    4   13   17     -1.22      0.00
    5   13   17    -65.36      0.00
    6   13   17     27.77      0.00
    7   13   17     -3.40      0.00
    8   13   17     -2.52      0.00
    9   13   17      7.69      0.00
   10   13   17      6.21      0.00
   11   13   17     -7.81      0.00
    1   14   17      6.08      0.00
    2   14   17     -0.22      0.00
    3   14   17     -2.43      0.00
    4   14   17    -30.16      0.00
    5   14   17     11.04      0.00
    6   14   17     27.20      0.00
    7   14   17     18.71      0.00
    8   14   17      8.14      0.00
    9   14   17    -10.51      0.00
   10   14   17     -3.27      0.00
   11   14   17     46.64      0.00
    0   15   17    -18.64      0.00
    1   15   17     15.07      0.00
    2   15   17     -2.71      0.00
    3   15   17      9.89      0.00
    4   15   17      7.02      0.00
    5   15   17     32.96      0.00
    1   16   17    -27.44      0.00
    2   16   17    -13.96      0.00
    3   16   17    203.68      0.00
    4   16   17     -3.59      0.00
    5   16   17     16.58      0.00
    0   17   17     -1.94      0.00
    1   17   17     -0.35      0.00
    2   17   17     -7.37      0.00
    3   17   17     -9.05      0.00
    4   17   17     -3.77      0.00
    5   17   17     -8.93      0.00
    1   18   17     14.43      0.00
    2   18   17     21.38      0.00
    3   18   17      0.95      0.00
    4   18   17     38.95      0.00
    5   18   17     19.16      0.00
    1    1   18    -10.51      0.00
    0    2   18    -39.94      0.00
    1    2   18     -3.27      0.00
    2    2   18     28.14      0.00
    1    3   18    -10.19      0.00
    2    3   18    -15.79      0.00
    3    3   18     25.32      0.00
    0    4   18     11.42      0.00
    1    4   18      6.97      0.00
    2    4   18    -15.02      0.00
    3    4   18     -5.11      0.00
    4    4   18     14.28      0.00
    1    5   18      6.01      0.00
    2    5   18      1.89      0.00
    3    5   18     12.12      0.00
    4    5   18     21.79      0.00
    5    5   18     36.14      0.00
    0    6   18    -33.59      0.00
    1    6   18    -22.43      0.00
    2    6   18     27.25      0.00
    3    6   18     -1.05      0.00
    4    6   18     -4.05      0.00
    5    6   18    -29.13      0.00
    1    7   18     -3.98      0.00
    2    7   18     -5.75      0.00
    3    7   18     16.05      0.00
    4    7   18     -7.74      0.00
    6    7   18     23.46      0.00
    7    7   18     -4.92      0.00
    0    8   18     -9.17      0.00
    1    8   18     14.73      0.00
    2    8   18     11.77      0.00
    3    8   18      5.79      0.00
    4    8   18      2.29      0.00
    5    8   18     28.64      0.00
    6    8   18     -1.47      0.00
    7    8   18     -8.24      0.00
    8    8   18     -2.26      0.00
    1    9   18      2.16      0.00
    2    9   18     -3.24      0.00
    3    9   18     -6.96      0.00
    4    9   18     10.95      0.00
    5    9   18    -29.81      0.00
    6    9   18    -12.84      0.00
    7    9   18     -0.38      0.00
    8    9   18     -4.27      0.00
    9    9   18    -22.91      0.00
    0   10   18     33.75      0.00
    1   10   18     -8.80      0.00
    2   10   18     -9.09      0.00
    3   10   18    -21.06      0.00
    4   10   18    -17.36      0.00
    5   10   18      7.30      0.00
    6   10   18      4.97      0.00
    7   10   18    -11.79      0.00
    8   10   18     -7.97      0.00
    9   10   18     17.70      0.00
   10   10   18     -5.73      0.00
    1   11   18     -6.65      0.00
    2   11   18     -0.42      0.00
    3   11   18     -8.85      0.00
    4   11   18     -1.80      0.00
    5   11   18     14.77      0.00
    6   11   18     15.82      0.00
    7   11   18      7.51      0.00
    8   11   18    -11.20      0.00
    9   11   18     15.23      0.00
   10   11   18    -37.49      0.00
   11   11   18     -9.25      0.00
    0   12   18     15.36      0.00
    1   12   18     -5.28      0.00
    2   12   18    -22.78      0.00
    3   12   18     34.39      0.00
    4   12   18     -8.81      0.00
    5   12   18     16.17      0.00
    6   12   18     -7.80      0.00
    7   12   18      7.77      0.00
    8   12   18      7.67      0.00
    9   12   18    -16.40      0.00
   10   12   18    -21.27      0.00
   11   12   18     28.55      0.00
   12   12   18     11.79      0.00
    1   13   18      0.16      0.00
    2   13   18      2.10      0.00
    3   13   18     -3.55      0.00
    4   13   18     14.56      0.00
    5   13   18     -3.72      0.00
    6   13   18    -17.43      0.00
    7   13   18      2.01      0.00
    8   13   18     30.35      0.00
    9   13   18      2.43      0.00
   10   13   18     -2.39      0.00
   11   13   18     12.23      0.00
    0   14   18     15.48      0.00
    1   14   18      0.12      0.00
    2   14   18     -6.54      0.00
    3   14   18     -2.36      0.00
    4   14   18      3.40      0.00
    5   14   18      9.63      0.00
    6   14   18     -0.26      0.00
    7   14   18     17.57      0.00
    8   14   18      9.85      0.00
    9   14   18     -6.21      0.00
   10   14   18     -8.06      0.00
   11   14   18     28.46      0.00
    1   15   18      5.82      0.00
    2   15   18      4.12      0.00
    3   15   18    -27.82      0.00
    4   15   18    -31.24      0.00
    0   16   18     64.29      0.00
    1   16   18    -14.55      0.00
    2   16   18    -25.45      0.00
    3   16   18     -1.16      0.00
    4   16   18    -21.46      0.00
    1   17   18    -11.14      0.00
    2   17   18    -17.91      0.00
    3   17   18    -33.00      0.00
    4   17   18     16.54      0.00
    0   18   18     -3.75      0.00
    1   18   18      5.80      0.00
    2   18   18     12.26      0.00
    3   18   18     -5.16      0.00
    4   18   18    -15.10      0.00
    0    1   19     11.17      0.00
    1    2   19     -3.24      0.00
    0    3   19     -6.07      0.00
    1    3   19     13.18      0.00
    2    3   19     -7.21      0.00
    1    4   19      2.50      0.00
    2    4   19     11.37      0.00
    3    4   19    -33.09      0.00
    0    5   19    -24.13      0.00
    1    5   19    -11.39      0.00
    2    5   19     -9.11      0.00
    3    5   19     -7.55      0.00
    4    5   19     -6.75      0.00
    1    6   19     -0.69      0.00
    2    6   19      0.62      0.00
    3    6   19     -2.72      0.00
    4    6   19     -1.31      0.00
    0    7   19      3.32      0.00
    1    7   19    -10.26      0.00
    2    7   19    -10.85      0.00
    3    7   19     -7.53      0.00
    5    7   19      4.19      0.00
    6    7   19     -0.50      0.00
    1    8   19     -4.41      0.00
    2    8   19     10.58      0.00
    3    8   19     -4.93      0.00
    4    8   19    -14.31      0.00
    5    8   19      0.61      0.00
    6    8   19    -12.47      0.00
    7    8   19     -3.49      0.00
    0    9   19    -19.87      0.00
    1    9   19    -11.03      0.00
    2    9   19    -12.90      0.00
    3    9   19     33.93      0.00
    4    9   19     18.11      0.00
    5    9   19     -4.14      0.00
    6    9   19     14.42      0.00
    7    9   19     -7.76      0.00
    8    9   19    -20.28      0.00
    1   10   19     17.06      0.00
    2   10   19      0.00      0.00
    3   10   19     -7.11      0.00
    4   10   19      5.19      0.00
    5   10   19     -7.03      0.00
    6   10   19     -2.50      0.00
    7   10   19     12.03      0.00
    8   10   19     -6.74      0.00
    9   10   19      8.90      0.00
    0   11   19      2.47      0.00
    1   11   19     13.37      0.00
    2   11   19    -15.26      0.00
    3   11   19     -1.58      0.00
    4   11   19      9.17      0.00
    5   11   19      3.69      0.00
    6   11   19     12.04      0.00
    7   11   19     26.94      0.00
    8   11   19      2.12      0.00
    9   11   19     -3.12      0.00
   10   11   19      4.51      0.00
    1   12   19      9.88      0.00
    2   12   19    -12.64      0.00
    3   12   19     15.12      0.00
    4   12   19      8.34      0.00
    5   12   19     -8.45      0.00
    6   12   19      7.27      0.00
    7   12   19     -5.21      0.00
    8   12   19      0.28      0.00
    9   12   19      3.46      0.00
   10   12   19     25.99      0.00
   11   12   19     -0.76      0.00
    0   13   19    -81.36      0.00
    1   13   19     49.66      0.00
    2   13   19     23.82      0.00
    3   13   19    -12.91      0.00
    4   13   19     -5.28      0.00
    5   13   19      6.38      0.00
    6   13   19      9.26      0.00
    7   13   19     -6.33      0.00
    8   13   19     22.08      0.00
    9   13   19    -13.63      0.00
   10   13   19    -14.15      0.00
   11   13   19      3.27      0.00
   12   13   19     -8.83      0.00
    1   14   19     32.10      0.00
    2   14   19     -2.17      0.00
    3   14   19      6.72      0.00
    4   14   19     28.63      0.00
    5   14   19     -1.68      0.00
    6   14   19     19.33      0.00
    7   14   19      0.53      0.00
    8   14   19     17.14      0.00
    9   14   19      5.73      0.00
   10   14   19     -2.99      0.00
   11   14   19    -14.39      0.00
    0   15   19     13.72      0.00
    1   15   19      5.59      0.00
    2   15   19    -11.90      0.00
    9   15   19     19.10      0.00
   10   15   19     -5.54      0.00
    1   16   19      7.41      0.00
    2   16   19     26.12      0.00
    3   16   19     21.32      0.00
    0   17   19     -0.35      0.00
    1   17   19    -12.34      0.00
    2   17   19    -12.29      0.00
    3   17   19    -13.23      0.00
    1   18   19      8.92      0.00
    2   18   19     13.94      0.00
    3   18   19     12.20      0.00
    1    1   20     -0.04      0.00
    0    2   20    -13.73      0.00
    1    2   20     -0.62      0.00
    2    2   20    -19.28      0.00
    1    3   20      1.51      0.00
    2    3   20    -34.68      0.00
    3    3   20      9.55      0.00
    0    4   20     11.92      0.00
    1    4   20     21.31      0.00
    2    4   20     -4.02      0.00
    3    4   20      6.23      0.00
    4    4   20     20.63      0.00
    1    5   20     -1.39      0.00
    2    5   20      0.00      0.00
    3    5   20     -7.78      0.00
    4    5   20     10.93      0.00
    0    6   20     -3.12      0.00
    1    6   20     -3.31      0.00
    2    6   20     -6.15      0.00
    3    6   20     -5.25      0.00
    5    6   20      4.73      0.00
    6    6   20     11.00      0.00
    1    7   20      1.10      0.00
    2    7   20    -22.41      0.00
    3    7   20     -6.86      0.00
    4    7   20      7.82      0.00
    5    7   20      2.36      0.00
    6    7   20     15.20      0.00
    0    8   20      9.54      0.00
    1    8   20      7.65      0.00
    2    8   20     -3.46      0.00
    3    8   20     -9.77      0.00
    4    8   20      0.55      0.00
    5    8   20    -11.78      0.00
    6    8   20      9.98      0.00
    7    8   20     -3.58      0.00
    8    8   20     -6.60      0.00
    1    9   20     15.02      0.00
    2    9   20     -5.85      0.00
    3    9   20    -12.68      0.00
    4    9   20     10.09      0.00
    5    9   20     11.07      0.00
    6    9   20     -2.16      0.00
    7    9   20    -11.37      0.00
    8    9   20     -6.13      0.00
    9    9   20     18.55      0.00
    0   10   20     13.67      0.00
    1   10   20      1.90      0.00
    2   10   20     18.09      0.00
    3   10   20    -10.68      0.00
    4   10   20    -13.41      0.00
    5   10   20     -8.55      0.00
    6   10   20     -2.34      0.00
    7   10   20    -11.27      0.00
    8   10   20      9.30      0.00
    9   10   20     19.05      0.00
   10   10   20     12.74      0.00
    1   11   20     -8.81      0.00
    2   11   20      9.36      0.00
    3   11   20      7.86      0.00
    4   11   20     -8.60      0.00
    5   11   20     15.15      0.00
    6   11   20     32.90      0.00
    7   11   20      9.43      0.00
    8   11   20     15.17      0.00
    9   11   20      7.10      0.00
   10   11   20    -13.03      0.00
   11   11   20     13.00      0.00
    0   12   20      9.57      0.00
    1   12   20      1.84      0.00
    2   12   20     -5.39      0.00
    3   12   20      4.16      0.00
    4   12   20      0.86      0.00
    5   12   20     -4.93      0.00
    6   12   20     -6.13      0.00
    7   12   20     10.63      0.00
    8   12   20     -5.80      0.00
    9   12   20    -19.13      0.00
   10   12   20    -20.46      0.00
   11   12   20      9.81      0.00
   12   12   20      1.11      0.00
    1   13   20     19.89      0.00
    2   13   20     -6.60      0.00
    3   13   20     -9.33      0.00
    4   13   20      2.92      0.00
    5   13   20     -8.29      0.00
    6   13   20    -20.66      0.00
    7   13   20      2.32      0.00
    8   13   20      6.93      0.00
    9   13   20     -2.49      0.00
   10   13   20     -7.60      0.00
   11   13   20     -0.11      0.00
    0   14   20      9.63      0.00
    1   14   20      4.65      0.00
    2   14   20      8.42      0.00
    3   14   20     -0.44      0.00
    4   14   20      0.22      0.00
    5   14   20     11.62      0.00
    6   14   20    -21.01      0.00
    7   14   20     -5.42      0.00
    8   14   20    -11.05      0.00
    9   14   20     -5.30      0.00
   10   14   20      9.09      0.00
    1   15   20    -82.80      0.00
    7   15   20    -25.20      0.00
    8   15   20      6.01      0.00
    9   15   20      3.86      0.00
   10   15   20      0.93      0.00
    0   16   20     35.92      0.00
    1   16   20    -10.32      0.00
    1   17   20    -32.84      0.00
    2   17   20     26.58      0.00
    0    1   21      9.92      0.00
    1    2   21      5.24      0.00
    0    3   21     -6.81      0.00
    1    3   21      7.06      0.00
    2    3   21     -0.66      0.00
    1    4   21     -1.44      0.00
    2    4   21     15.00      0.00
    3    4   21     15.15      0.00
    0    5   21     11.64      0.00
    1    5   21      3.51      0.00
    2    5   21     19.38      0.00
    3    5   21      6.66      0.00
    1    6   21     13.99      0.00
    2    6   21    -21.54      0.00
    3    6   21     -6.37      0.00
    4    6   21     -3.31      0.00
    5    6   21     -5.12      0.00
    0    7   21    -12.73      0.00
    1    7   21      9.91      0.00
    2    7   21     -1.22      0.00
    3    7   21     12.94      0.00
    4    7   21     -0.09      0.00
    5    7   21      9.41      0.00
    6    7   21      8.46      0.00
    1    8   21     12.46      0.00
    2    8   21      9.78      0.00
    3    8   21     10.67      0.00
    4    8   21      1.23      0.00
    5    8   21     -8.88      0.00
    6    8   21      6.76      0.00
    7    8   21      3.81      0.00
    0    9   21    -58.09      0.00
    1    9   21      8.02      0.00
    2    9   21     17.96      0.00
    3    9   21     10.31      0.00
    4    9   21     -4.92      0.00
    5    9   21      7.58      0.00
    6    9   21     -2.64      0.00
    7    9   21      4.45      0.00
    8    9   21      9.59      0.00
    1   10   21      1.61      0.00
    2   10   21     -6.74      0.00
    3   10   21     -0.92      0.00
    4   10   21    -22.22      0.00
    5   10   21     -5.93      0.00
    6   10   21    -15.22      0.00
    7   10   21    -18.04      0.00
    8   10   21     -3.07      0.00
    9   10   21      9.36      0.00
    0   11   21     -1.63      0.00
    1   11   21      8.98      0.00
    2   11   21    -10.83      0.00
    3   11   21     -2.76      0.00
    4   11   21     -5.71      0.00
    5   11   21    -15.00      0.00
    6   11   21    -19.51      0.00
    7   11   21     17.52      0.00
    8   11   21     -6.67      0.00
    9   11   21     -1.93      0.00
   10   11   21      7.51      0.00
    1   12   21     -5.61      0.00
    2   12   21     -4.82      0.00
    3   12   21     -9.83      0.00
    4   12   21     -2.18      0.00
    5   12   21     13.29      0.00
    6   12   21    -18.28      0.00
    7   12   21     -9.95      0.00
    8   12   21    -10.98      0.00
    9   12   21     18.38      0.00
   10   12   21    -11.68      0.00
   11   12   21    -12.82      0.00
    0   13   21    -64.08      0.00
    1   13   21     -5.32      0.00
    2   13   21    -14.56      0.00
    3   13   21     -2.90      0.00
    4   13   21     -0.01      0.00
    5   13   21     -1.07      0.00
    6   13   21     17.87      0.00
    7   13   21    -42.12      0.00
    8   13   21      5.15      0.00
    9   13   21     -2.45      0.00
   10   13   21      0.17      0.00
   11   13   21     -5.46      0.00
    1   14   21     13.62      0.00
    2   14   21    -29.74      0.00
    3   14   21     -6.06      0.00
    4   14   21      3.65      0.00
    5   14   21     10.16      0.00
    6   14   21     -7.28      0.00
    7   14   21     -9.40      0.00
    8   14   21     -7.55      0.00
    9   14   21     -4.21      0.00
   10   14   21     25.23      0.00
    0   15   21    -12.35      0.00
    6   15   21     -0.93      0.00
    7   15   21      3.95      0.00
    8   15   21     22.19      0.00
    9   15   21      9.37      0.00
    0   17   21    -16.89      0.00
    1    1   22     20.11      0.00
    0    2   22     -3.91      0.00
    1    2   22     -2.58      0.00
    2    2   22     12.45      0.00
    1    3   22    -14.34      0.00
    2    3   22    -13.45      0.00
    3    3   22     -0.83      0.00
    0    4   22     -3.13      0.00
    1    4   22     17.34      0.00
    2    4   22     27.03      0.00
    3    4   22      4.45      0.00
    4    4   22      6.71      0.00
    1    5   22     -7.76      0.00
    2    5   22      9.55      0.00
    3    5   22     -3.43      0.00
    4    5   22    -28.51      0.00
    5    5   22      0.03      0.00
    0    6   22     -2.77      0.00
    1    6   22     -3.46      0.00
    2    6   22      6.65      0.00
    3    6   22     -3.35      0.00
    4    6   22     13.94      0.00
    5    6   22      1.06      0.00
    6    6   22     22.28      0.00
    1    7   22     -3.55      0.00
    2    7   22     10.44      0.00
    3    7   22     -4.71      0.00
    4    7   22    -12.28      0.00
    5    7   22     -2.66      0.00
    6    7   22     -1.86      0.00
    7    7   22     13.56      0.00
    0    8   22    -12.89      0.00
    1    8   22    -11.05      0.00
    2    8   22    -25.64      0.00
    3    8   22     -4.07      0.00
    4    8   22     15.62      0.00
    5    8   22     -0.05      0.00
    6    8   22     11.50      0.00
    7    8   22    -10.34      0.00
    8    8   22    -20.86      0.00
    1    9   22      2.16      0.00
    2    9   22     -0.09      0.00
    3    9   22     10.40      0.00
    4    9   22     -4.24      0.00
    5    9   22     -7.20      0.00
    6    9   22      6.89      0.00
    7    9   22    -25.47      0.00
    8    9   22     -4.59      0.00
    9    9   22    -15.52      0.00
    0   10   22      1.26      0.00
    1   10   22     -8.01      0.00
    2   10   22      7.44      0.00
    3   10   22     -3.54      0.00
    4   10   22      5.44      0.00
    5   10   22     -9.81      0.00
    6   10   22     28.98      0.00
    7   10   22    -13.02      0.00
    8   10   22     27.96      0.00
    9   10   22     -1.33      0.00
    1   11   22     11.65      0.00
    2   11   22     -7.38      0.00
    3   11   22     -7.41      0.00
    4   11   22     -0.99      0.00
    5   11   22    -19.54      0.00
    6   11   22     -9.36      0.00
    7   11   22    -33.17      0.00
    8   11   22     -4.44      0.00
    9   11   22    -44.28      0.00
   10   11   22      4.55      0.00
   11   11   22     15.07      0.00
    0   12   22    -23.95      0.00
    1   12   22      2.15      0.00
    2   12   22     35.45      0.00
    3   12   22    -15.91      0.00
    4   12   22     -1.80      0.00
    5   12   22     -6.59      0.00
    6   12   22     13.20      0.00
    7   12   22      4.68      0.00
    8   12   22     31.52      0.00
    9   12   22    -21.01      0.00
   10   12   22     -5.41      0.00
   11   12   22     -0.85      0.00
    1   13   22     17.20      0.00
    2   13   22     17.27      0.00
    3   13   22    -18.37      0.00
    4   13   22     15.77      0.00
    5   13   22      3.47      0.00
    6   13   22      2.81      0.00
    7   13   22     -8.36      0.00
    8   13   22     25.59      0.00
    9   13   22     -7.95      0.00
   10   13   22      1.09      0.00
    1   14   22     -5.54      0.00
    2   14   22     25.45      0.00
    3   14   22      3.09      0.00
    4   14   22     19.13      0.00
    5   14   22     13.12      0.00
    6   14   22     -4.79      0.00
    7   14   22     10.12      0.00
    8   14   22     -7.94      0.00
    9   14   22     -7.27      0.00
    4   15   22     -3.42      0.00
    5   15   22      5.02      0.00
    6   15   22     -2.61      0.00
    7   15   22     -7.34      0.00
    8   15   22    -19.92      0.00
    0    1   23      5.38      0.00
    1    2   23    -13.36      0.00
    0    3   23     -1.41      0.00
    1    3   23      6.04      0.00
    2    3   23    -16.31      0.00
    1    4   23     28.25      0.00
    2    4   23     14.23      0.00
    3    4   23     -2.90      0.00
    0    5   23    -16.23      0.00
    1    5   23     -4.00      0.00
    2    5   23      0.44      0.00
    3    5   23     11.08      0.00
    4    5   23    -21.55      0.00
    1    6   23     13.63      0.00
    2    6   23    -41.73      0.00
    3    6   23      4.70      0.00
    4    6   23     -0.01      0.00
    5    6   23     -5.45      0.00
    0    7   23      0.52      0.00
    1    7   23      8.90      0.00
    2    7   23    -28.74      0.00
    3    7   23     30.00      0.00
    4    7   23     -1.16      0.00
    5    7   23     14.00      0.00
    6    7   23      3.88      0.00
    1    8   23      8.22      0.00
    2    8   23     -8.60      0.00
    3    8   23      8.44      0.00
    4    8   23     -2.06      0.00
    5    8   23     -7.07      0.00
    6    8   23     -0.59      0.00
    7    8   23    -11.22      0.00
    0    9   23    -19.76      0.00
    1    9   23     -5.66      0.00
    2    9   23      3.57      0.00
    3    9   23     -0.56      0.00
    4    9   23    -14.47      0.00
    5    9   23      3.85      0.00
    6    9   23     -1.45      0.00
    7    9   23     17.77      0.00
    8    9   23      0.05      0.00
    1   10   23     15.28      0.00
    2   10   23      8.68      0.00
    3   10   23    -23.10      0.00
    4   10   23     17.90      0.00
    5   10   23     17.24      0.00
    6   10   23      5.26      0.00
    7   10   23     29.08      0.00
    8   10   23      6.46      0.00
    9   10   23      5.76      0.00
    0   11   23      0.12      0.00
    1   11   23    -25.97      0.00
    2   11   23      5.00      0.00
    3   11   23     19.53      0.00
    4   11   23     -2.07      0.00
    5   11   23     16.23      0.00
    6   11   23     58.96      0.00
    7   11   23     14.63      0.00
    9   11   23      9.56      0.00
   10   11   23      7.05      0.00
    1   12   23      4.62      0.00
    2   12   23    -26.71      0.00
    3   12   23     -7.68      0.00
    4   12   23     -2.42      0.00
    5   12   23     -2.08      0.00
    6   12   23      9.80      0.00
    7   12   23     56.25      0.00
    8   12   23     -6.59      0.00
    9   12   23     27.47      0.00
   10   12   23     10.23      0.00
    2   13   23     -2.08      0.00
    3   13   23     -0.61      0.00
    5   13   23     10.29      0.00
    6   13   23     -1.67      0.00
    7   13   23     11.49      0.00
    8   13   23      8.06      0.00
    9   13   23    -12.75      0.00
    2   14   23      4.91      0.00
    3   14   23     -6.82      0.00
    4   14   23     -0.04      0.00
    5   14   23     11.18      0.00
    6   14   23     38.18      0.00
    7   14   23    -19.47      0.00
    8   14   23     -2.66      0.00
    3   15   23     29.40      0.00
    4   15   23      5.17      0.00
    5   15   23    -18.07      0.00
    6   15   23      5.89      0.00
    7   15   23    -15.91      0.00
    1    1   24     -0.21      0.00
    0    2   24     27.44      0.00
    1    2   24      9.87      0.00
    2    2   24     28.01      0.00
    1    3   24     -9.42      0.00
    2    3   24     -9.03      0.00
    3    3   24     -1.93      0.00
    0    4   24     -9.14      0.00
    1    4   24    -13.59      0.00
    2    4   24     -0.31      0.00
    3    4   24    -32.19      0.00
    4    4   24     -1.90      0.00
    1    5   24    -41.97      0.00
    2    5   24     20.61      0.00
    3    5   24      6.57      0.00
    4    5   24    -16.47      0.00
    5    5   24      8.95      0.00
    0    6   24     17.30      0.00
    1    6   24      5.91      0.00
    2    6   24    -18.15      0.00
    3    6   24      7.05      0.00
    4    6   24      1.79      0.00
    5    6   24      9.13      0.00
    6    6   24     18.00      0.00
    1    7   24      5.67      0.00
    2    7   24     -0.16      0.00
    3    7   24     15.22      0.00
    4    7   24     -8.73      0.00
    5    7   24    -10.85      0.00
    6    7   24    -12.47      0.00
    7    7   24    -24.52      0.00
    0    8   24    -20.09      0.00
    1    8   24     -5.39      0.00
    2    8   24     37.46      0.00
    3    8   24     12.00      0.00
    4    8   24     -1.16      0.00
    5    8   24     -6.93      0.00
    6    8   24     15.99      0.00
    7    8   24     -4.68      0.00
    8    8   24     23.62      0.00
    1    9   24     -9.66      0.00
    2    9   24     22.78      0.00
    3    9   24      2.08      0.00
    4    9   24     25.36      0.00
    5    9   24    -14.86      0.00
    6    9   24    -37.37      0.00
    7    9   24      4.70      0.00
    8    9   24     20.32      0.00
    9    9   24      1.85      0.00
    0   10   24    -30.73      0.00
    1   10   24      9.88      0.00
    2   10   24     -0.69      0.00
    3   10   24     15.18      0.00
    4   10   24     -0.63      0.00
    5   10   24     23.48      0.00
    6   10   24      8.94      0.00
    7   10   24     -3.64      0.00
    8   10   24      2.08      0.00
    9   10   24     -3.92      0.00
   10   10   24     -6.72      0.00
    1   11   24     21.02      0.00
    2   11   24     22.11      0.00
    3   11   24    -24.24      0.00
    4   11   24    -13.33      0.00
    5   11   24     16.31      0.00
    6   11   24     -2.15      0.00
    7   11   24   -355.51      0.00
    8   11   24      2.98      0.00
    9   11   24     10.10      0.00
   10   11   24     21.61      0.00
    0   12   24    -11.13      0.00
    1   12   24      2.42      0.00
    2   12   24    -19.58      0.00
    3   12   24     -0.48      0.00
    4   12   24     35.92      0.00
    6   12   24     -4.78      0.00
    7   12   24     -3.85      0.00
    8   12   24     -6.58      0.00
    9   12   24     31.71      0.00
    1   13   24    -91.92      0.00
    2   13   24     10.74      0.00
    3   13   24     -0.58      0.00
    4   13   24     -1.93      0.00
    5   13   24     -4.48      0.00
    6   13   24      7.20      0.00
    7   13   24     24.70      0.00
    8   13   24    -11.19      0.00
    2   14   24     -3.48      0.00
    3   14   24    -12.86      0.00
    4   14   24     -5.63      0.00
    5   14   24     -1.76      0.00
    6   14   24      7.65      0.00
    7   14   24    -20.46      0.00
    3   15   24    -16.28      0.00
    4   15   24      5.94      0.00
    5   15   24      1.75      0.00
    6   15   24     13.15      0.00
    1    2   25     -9.91      0.00
    1    3   25    -26.68      0.00
    2    3   25    -20.67      0.00
    1    4   25     47.03      0.00
    2    4   25     -0.38      0.00
    3    4   25     -5.16      0.00
    0    5   25    -74.75      0.00
    1    5   25     16.72      0.00
    2    5   25     10.82      0.00
    3    5   25     -8.16      0.00
    4    5   25      8.88      0.00
    1    6   25     27.70      0.00
    2    6   25     -3.65      0.00
    3    6   25     14.93      0.00
    4    6   25      3.65      0.00
    5    6   25      0.86      0.00
    0    7   25     10.45      0.00
    1    7   25     25.18      0.00
    2    7   25     23.20      0.00
    3    7   25     -0.77      0.00
    4    7   25    -26.00      0.00
    5    7   25      9.91      0.00
    6    7   25      3.71      0.00
    1    8   25     -7.21      0.00
    2    8   25     -1.14      0.00
    3    8   25      5.63      0.00
    4    8   25    -31.24      0.00
    5    8   25    -25.37      0.00
    6    8   25      3.91      0.00
    7    8   25     17.81      0.00
    0    9   25     32.83      0.00
    1    9   25    -60.35      0.00
    2    9   25    -14.17      0.00
    3    9   25     -7.55      0.00
    4    9   25     -1.09      0.00
    5    9   25      4.90      0.00
    6    9   25    -14.47      0.00
    7    9   25     -5.82      0.00
    8    9   25      0.79      0.00
    1   10   25     24.52      0.00
    2   10   25     -2.16      0.00
    3   10   25     14.63      0.00
    4   10   25     10.96      0.00
    5   10   25     -0.26      0.00
    6   10   25    -18.05      0.00
    7   10   25     24.60      0.00
    8   10   25     -0.56      0.00
    9   10   25    -11.79      0.00
    0   11   25     -4.08      0.00
    1   11   25     16.08      0.00
    2   11   25      7.18      0.00
    3   11   25    -15.23      0.00
    4   11   25    -11.45      0.00
    5   11   25     -1.40      0.00
    6   11   25     55.05      0.00
    7   11   25     -2.65      0.00
    8   11   25     44.26      0.00
    9   11   25     -5.82      0.00
    1   12   25     18.73      0.00
    2   12   25     -8.06      0.00
    4   12   25    -11.55      0.00
    5   12   25     -9.77      0.00
    6   12   25     11.58      0.00
    7   12   25     21.18      0.00
    8   12   25    -12.97      0.00
    0   13   25     21.74      0.00
    1   13   25     15.32      0.00
    2   13   25     47.95      0.00
    3   13   25     -6.08      0.00
    4   13   25     -4.17      0.00
    5   13   25     -3.26      0.00
    6   13   25    -14.33      0.00
    7   13   25     24.17      0.00
    2   14   25      4.53      0.00
    3   14   25    -10.86      0.00
    4   14   25      8.11      0.00
    5   14   25     -7.54      0.00
    6   14   25     25.53      0.00
    3   15   25      5.96      0.00
    4   15   25     -8.44      0.00
    0    2   26    -22.76      0.00
    2    2   26     -2.62      0.00
    1    3   26     -6.55      0.00
    2    3   26     30.29      0.00
    3    3   26      1.64      0.00
    0    4   26      4.29      0.00
    1    4   26      4.97      0.00
    2    4   26      5.32      0.00
    3    4   26     -9.00      0.00
    4    4   26    -12.97      0.00
    1    5   26      8.75      0.00
    2    5   26     -5.19      0.00
    3    5   26      1.46      0.00
    4    5   26      1.10      0.00
    5    5   26     16.86      0.00
    0    6   26     -5.90      0.00
    1    6   26    -20.50      0.00
    2    6   26     13.91      0.00
    3    6   26      6.25      0.00
    4    6   26      4.88      0.00
    5    6   26     -1.61      0.00
    6    6   26     -8.80      0.00
    1    7   26     -8.53      0.00
    2    7   26     27.08      0.00
    3    7   26     -5.51      0.00
    4    7   26    -51.72      0.00
    5    7   26    -18.19      0.00
    6    7   26      1.97      0.00
    7    7   26      1.31      0.00
    0    8   26     22.07      0.00
    1    8   26    -86.98      0.00
    2    8   26    -25.97      0.00
    3    8   26      8.60      0.00
    4    8   26      5.77      0.00
    5    8   26      1.71      0.00
    6    8   26     12.23      0.00
    7    8   26    -12.56      0.00
    8    8   26     11.35      0.00
    1    9   26    -22.49      0.00
    2    9   26      0.63      0.00
    3    9   26     16.09      0.00
    4    9   26    -16.27      0.00
    5    9   26      1.97      0.00
    6    9   26     -3.05      0.00
    7    9   26     -2.62      0.00
    8    9   26      1.16      0.00
    9    9   26     -8.54      0.00
    0   10   26     47.07      0.00
    1   10   26     12.57      0.00
    2   10   26      1.13      0.00
    3   10   26     -0.54      0.00
    4   10   26      3.39      0.00
    5   10   26     -0.99      0.00
    7   10   26      2.40      0.00
    8   10   26     25.25      0.00
    9   10   26      5.81      0.00
    1   11   26      5.08      0.00
    2   11   26     -3.99      0.00
    3   11   26     -5.53      0.00
    5   11   26     -5.54      0.00
    6   11   26     -3.19      0.00
    7   11   26    -17.19      0.00
    8   11   26     -7.33      0.00
    0   12   26     66.37      0.00
    1   12   26     -1.37      0.00
    2   12   26      2.08      0.00
    3   12   26     -8.22      0.00
    4   12   26      8.89      0.00
    5   12   26      7.85      0.00
    6   12   26     22.39      0.00
    7   12   26    -12.06      0.00
    1   13   26     -5.36      0.00
    2   13   26     -8.23      0.00
    3   13   26    -12.92      0.00
    4   13   26      5.06      0.00
    5   13   26     -6.78      0.00
    6   13   26     -8.58      0.00
    3   14   26     -1.91      0.00
    4   14   26     -3.05      0.00
    1    2   27     -4.82      0.00
    0    3   27     11.05      0.00
    1    3   27      7.38      0.00
    2    3   27     10.11      0.00
    1    4   27     24.06      0.00
    2    4   27     -4.65      0.00
    3    4   27    -12.44      0.00
    0    5   27    -65.86      0.00
    1    5   27    -31.44      0.00
    2    5   27     -8.94      0.00
    3    5   27      5.74      0.00
    4    5   27     -6.38      0.00
    1    6   27     -5.11      0.00
    2    6   27     24.16      0.00
    3    6   27     -2.57      0.00
    4    6   27     17.15      0.00
    5    6   27     -2.67      0.00
    0    7   27     54.81      0.00
    1    7   27     16.08      0.00
    2    7   27    -19.79      0.00
    3    7   27     -2.48      0.00
    4    7   27      2.28      0.00
    5    7   27      5.69      0.00
    6    7   27     -2.95      0.00
    1    8   27     -7.65      0.00
    2    8   27     20.16      0.00
    3    8   27      7.49      0.00
    4    8   27      3.72      0.00
    5    8   27     11.87      0.00
    6    8   27     29.00      0.00
    7    8   27    -39.05      0.00
    0    9   27     15.39      0.00
    1    9   27     -8.93      0.00
    2    9   27    -12.95      0.00
    3    9   27     -6.49      0.00
    4    9   27     10.11      0.00
    5    9   27     11.15      0.00
    6    9   27     -1.68      0.00
    7    9   27      1.11      0.00
    8    9   27     -9.96      0.00
    1   10   27    -95.44      0.00
    2   10   27    -17.28      0.00
    3   10   27    -22.88      0.00
    4   10   27    -26.27      0.00
    5   10   27     -5.38      0.00
    6   10   27     12.22      0.00
    7   10   27     -9.78      0.00
    8   10   27     -1.44      0.00
    0   11   27   -118.39      0.00
    1   11   27     44.57      0.00
    2   11   27     -0.35      0.00
    3   11   27    -18.18      0.00
    4   11   27     -3.11      0.00
    5   11   27      0.33      0.00
    6   11   27    -24.40      0.00
    7   11   27     -4.73      0.00
    1   12   27      4.04      0.00
    2   12   27     16.70      0.00
    3   12   27    -15.28      0.00
    4   12   27     17.49      0.00
    5   12   27      9.10      0.00
    6   12   27    -14.16      0.00
    0   13   27     -4.56      0.00
    1   13   27    -15.80      0.00
    2   13   27     10.57      0.00
    3   13   27    -27.76      0.00
    4   13   27    -24.95      0.00
    0    2   28     -2.49      0.00
    1    2   28      5.61      0.00
    2    2   28    -24.33      0.00
    1    3   28     17.10      0.00
    2    3   28     -8.06      0.00
    3    3   28     11.34      0.00
    0    4   28     -3.28      0.00
    1    4   28     15.86      0.00
    2    4   28     12.49      0.00
    3    4   28     -0.91      0.00
    4    4   28    -33.69      0.00
    1    5   28    -11.20      0.00
    2    5   28    -42.22      0.00
    3    5   28     -4.45      0.00
    4    5   28     17.32      0.00
    5    5   28     -6.97      0.00
    0    6   28    -25.47      0.00
    1    6   28     17.79      0.00
    2    6   28    -11.48      0.00
    3    6   28     -3.11      0.00
    4    6   28     -5.84      0.00
    5    6   28     29.58      0.00
    6    6   28     25.17      0.00
    1    7   28     -6.18      0.00
    2    7   28     14.22      0.00
    3    7   28     -2.93      0.00
    4    7   28    -12.34      0.00
    5    7   28      9.83      0.00
    6    7   28      0.57      0.00
    7    7   28     -3.26      0.00
    0    8   28     13.11      0.00
    1    8   28    -10.23      0.00
    2    8   28     -5.78      0.00
    3    8   28     22.18      0.00
    4    8   28     10.43      0.00
    5    8   28     15.03      0.00
    7    8   28      5.82      0.00
    8    8   28     12.16      0.00
    1    9   28    -44.26      0.00
    2    9   28     30.64      0.00
    3    9   28     -7.06      0.00
    4    9   28     -1.71      0.00
    5    9   28     -2.94      0.00
    6    9   28     -0.77      0.00
    7    9   28     -6.63      0.00
    8    9   28     -2.22      0.00
    0   10   28    122.98      0.00
    1   10   28      8.10      0.00
    2   10   28     80.42      0.00
    3   10   28    -16.83      0.00
    4   10   28    -11.35      0.00
    5   10   28     -1.85      0.00
    6   10   28     -0.88      0.00
    7   10   28     -8.19      0.00
    1   11   28    -10.03      0.00
    2   11   28     -2.69      0.00
    3   11   28     -5.52      0.00
    4   11   28     -2.38      0.00
    5   11   28     -2.16      0.00
    6   11   28     30.18      0.00
    0   12   28      3.26      0.00
    1   12   28     24.29      0.00
    2   12   28     -0.61      0.00
    3   12   28      2.08      0.00
    4   12   28    -11.59      0.00
    1   13   28      6.62      0.00
    2   13   28     32.08      0.00
    0    3   29     18.52      0.00
    1    3   29    -16.92      0.00
    2    3   29      0.51      0.00
    1    4   29      0.06      0.00
    2    4   29     24.02      0.00
    3    4   29     15.42      0.00
    0    5   29      8.97      0.00
    1    5   29    -24.58      0.00
    2    5   29      3.45      0.00
    3    5   29     -9.64      0.00
    4    5   29      8.03      0.00
    1    6   29     26.29      0.00
    2    6   29     16.81      0.00
    3    6   29     -3.28      0.00
    4    6   29     29.85      0.00
    5    6   29      6.88      0.00
    0    7   29    -28.27      0.00
    1    7   29    -15.92      0.00
    2    7   29    -18.87      0.00
    3    7   29     12.40      0.00
    4    7   29     16.72      0.00
    5    7   29     25.75      0.00
    6    7   29     43.00      0.00
    1    8   29    -25.72      0.00
    2    8   29     17.96      0.00
    3    8   29     -1.15      0.00
    4    8   29     24.22      0.00
    5    8   29    -25.94      0.00
    6    8   29     -4.93      0.00
    7    8   29     19.49      0.00
    0    9   29    108.49      0.00
    2    9   29     77.37      0.00
    3    9   29     -2.80      0.00
    4    9   29     -7.31      0.00
    5    9   29      2.88      0.00
    6    9   29     -8.62      0.00
    7    9   29    -12.72      0.00
    1   10   29    -23.26      0.00
    2   10   29      9.54      0.00
    3   10   29    -18.80      0.00
    4   10   29    -18.10      0.00
    5   10   29     -5.46      0.00
    6   10   29     -7.07      0.00
    0   11   29     -0.16      0.00
    1   11   29     25.95      0.00
    2   11   29      9.67      0.00
    3   11   29      9.76      0.00
    4   11   29     -5.95      0.00
    1   12   29      2.15      0.00
    2   12   29    -21.10      0.00
    3   12   29     20.28      0.00
    1   13   29     -2.41      0.00
    1    3   30      3.78      0.00
    2    3   30    -19.77      0.00
    3    3   30     -6.91      0.00
    0    4   30    -10.48      0.00
    1    4   30     22.32      0.00
    2    4   30    -16.93      0.00
    3    4   30      2.12      0.00
    4    4   30     14.51      0.00
    1    5   30    -13.42      0.00
    2    5   30    -44.99      0.00
    3    5   30      2.39      0.00
    4    5   30      0.57      0.00
    5    5   30     25.13      0.00
    0    6   30    -16.17      0.00
    1    6   30    -35.37      0.00
    2    6   30      3.35      0.00
    3    6   30     -4.96      0.00
    4    6   30     11.31      0.00
    5    6   30    -23.22      0.00
    6    6   30    -33.23      0.00
    1    7   30     33.21      0.00
    2    7   30     24.35      0.00
    3    7   30     -9.71      0.00
    4    7   30   -153.68      0.00
    5    7   30      2.25      0.00
    6    7   30      2.03      0.00
    7    7   30    -11.15      0.00
    0    8   30    228.19      0.00
    2    8   30    -29.12      0.00
    3    8   30     -0.14      0.00
    4    8   30      0.77      0.00
    5    8   30     -6.32      0.00
    6    8   30     -4.18      0.00
    7    8   30     14.31      0.00
    1    9   30    -68.54      0.00
    2    9   30    -24.34      0.00
    3    9   30    -10.45      0.00
    4    9   30     -8.67      0.00
    5    9   30     -9.24      0.00
    6    9   30     -9.20      0.00
    0   10   30    -23.16      0.00
    1   10   30      3.79      0.00
    2   10   30     40.11      0.00
    3   10   30    -11.21      0.00
    4   10   30      9.36      0.00
    1   11   30     -6.28      0.00
    2   11   30    -15.37      0.00
    3   11   30     -1.71      0.00
    1   12   30     -2.69      0.00
    0    3   31      8.23      0.00
    1    3   31    -20.99      0.00
    2    3   31     15.98      0.00
    1    4   31     -4.65      0.00
    2    4   31     14.72      0.00
    3    4   31     -4.40      0.00
    0    5   31     13.16      0.00
    1    5   31    -18.04      0.00
    2    5   31     13.79      0.00
    3    5   31      3.67      0.00
    4    5   31    -30.39      0.00
    2    6   31     11.62      0.00
    4    6   31     62.92      0.00
    5    6   31    -18.16      0.00
    0    7   31    -24.30      0.00
    1    7   31      5.08      0.00
    2    7   31      4.67      0.00
    3    7   31      1.62      0.00
    4    7   31     22.19      0.00
    5    7   31      6.20      0.00
    6    7   31    -17.33      0.00
    1    8   31    -78.06      0.00
    2    8   31     -8.47      0.00
    3    8   31     -1.49      0.00
    4    8   31     11.32      0.00
    5    8   31     -5.12      0.00
    0    9   31    -31.30      0.00
    1    9   31     -2.52      0.00
    2    9   31     13.27      0.00
    3    9   31    -34.89      0.00
    4    9   31     14.17      0.00
    1   10   31    -25.88      0.00
    2   10   31      9.11      0.00
    3   10   31     -0.37      0.00
    1   11   31     12.53      0.00
    2   11   31     13.66      0.00
    1    3   32     15.72      0.00
    0    4   32     27.84      0.00
    1    4   32      5.95      0.00
    2    4   32    -44.98      0.00
    4    4   32     21.46      0.00
    1    5   32      2.11      0.00
    2    5   32     22.38      0.00
    3    5   32    -10.70      0.00
    4    5   32      4.41      0.00
    5    5   32      9.84      0.00
    0    6   32     12.09      0.00
    1    6   32     10.39      0.00
    2    6   32      3.23      0.00
    3    6   32     15.22      0.00
    4    6   32     13.39      0.00
    5    6   32     25.50      0.00
    6    6   32     -0.69      0.00
    1    7   32    -42.49      0.00
    2    7   32     -1.01      0.00
    3    7   32    -12.01      0.00
    4    7   32    -26.43      0.00
    5    7   32      1.67      0.00
    0    8   32     21.11      0.00
    1    8   32    -17.59      0.00
    2    8   32      7.75      0.00
    3    8   32     34.13      0.00
    4    8   32     10.81      0.00
    1    9   32    -12.25      0.00
    2    9   32     20.68      0.00
    3    9   32     23.95      0.00
    1   10   32     18.75      0.00
    2   10   32    -17.13      0.00
    1    4   33      2.65      0.00
    2    4   33      7.83      0.00
    3    4   33     -8.90      0.00
    0    5   33    -23.29      0.00
    1    5   33     -7.79      0.00
    2    5   33     -7.17      0.00
    3    5   33    -10.88      0.00
    4    5   33      5.07      0.00
    1    6   33    -17.14      0.00
    2    6   33      3.85      0.00
    3    6   33      6.99      0.00
    4    6   33     -3.65      0.00
    5    6   33    -26.69      0.00
    0    7   33     23.81      0.00
    1    7   33    -13.00      0.00
    2    7   33      2.85      0.00
    3    7   33     -4.78      0.00
    4    7   33     -1.29      0.00
    1    8   33     -2.06      0.00
    2    8   33    -12.29      0.00
    3    8   33      6.54      0.00
    1    9   33     -0.09      0.00
    0    4   34      5.14      0.00
    1    4   34    -29.64      0.00
    2    4   34    -15.59      0.00
    3    4   34      0.47      0.00
    1    5   34     12.74      0.00
    2    5   34     13.17      0.00
    3    5   34    -14.04      0.00
    4    5   34    -33.81      0.00
    1    6   34     10.80      0.00
    2    6   34     12.90      0.00
    3    6   34    -15.12      0.00
    1    7   34     -9.61      0.00
    2    7   34     11.94      0.00
    1    8   34    -22.38      0.00
    1    5   35     11.82      0.00
    2    5   35     10.28      0.00
    1    6   35     15.60      0.00
    2    6   35    -19.75      0.00
    1    7   35      1.86      0.00
    1    1    0    -98.26      0.00
    2    2    0    188.85      0.00
    3    3    0    137.78      0.00
    4    4    0     66.99      0.00
    4    5    0     16.99      0.00
    5    5    0     73.58      0.00
    5    6    0     14.78      0.00
    6    6    0     49.34      0.00
    5    7    0    -49.24      0.00
    6    7    0      3.35      0.00
    7    7    0    -12.59      0.00
    6    8    0      6.16      0.00
    7    8    0     -6.92      0.00
    8    8    0     44.87      0.00
    6    9    0     44.29      0.00
    7    9    0    -14.15      0.00
    8    9    0    -19.05      0.00
    9    9    0    -45.47      0.00
    6   10    0     23.26      0.00
    7   10    0     14.96      0.00
    8   10    0     -2.70      0.00
    9   10    0     17.01      0.00
   10   10    0     -0.56      0.00
    7   11    0     -2.05      0.00
    8   11    0    -22.55      0.00
    9   11    0      9.47      0.00
   10   11    0    -20.86      0.00
   11   11    0     -4.58      0.00
    7   12    0      9.11      0.00
    8   12    0     16.64      0.00
    9   12    0     29.05      0.00
   10   12    0     -9.43      0.00
   11   12    0    -30.78      0.00
   12   12    0     59.92      0.00
    3   13    0     32.01      0.00
    6   13    0    -63.68      0.00
    7   13    0     12.73      0.00
    8   13    0     10.47      0.00
    9   13    0     -8.48      0.00
   10   13    0    -10.95      0.00
   11   13    0     -6.44      0.00
   12   13    0      2.10      0.00
   13   13    0     48.12      0.00
    7   14    0    -63.28      0.00
    8   14    0    -34.26      0.00
    9   14    0      7.89      0.00
   10   14    0     -7.73      0.00
   11   14    0    -21.77      0.00
   12   14    0    -11.90      0.00
   13   14    0     16.46      0.00
   14   14    0      9.09      0.00
    8   15    0    -17.42      0.00
    9   15    0      3.15      0.00
   10   15    0     25.23      0.00
   11   15    0     12.50      0.00
   12   15    0     -2.41      0.00
   13   15    0     -5.96      0.00
   14   15    0     18.11      0.00
   15   15    0    -25.33      0.00
    8   16    0    -11.33      0.00
    9   16    0    -10.72      0.00
   10   16    0     11.48      0.00
   11   16    0     -3.25      0.00
   12   16    0     -1.63      0.00
   13   16    0    -28.19      0.00
   14   16    0      8.76      0.00
    8   17    0    -16.02      0.00
    9   17    0     29.33      0.00
   10   17    0    -20.82      0.00
   11   17    0     -6.09      0.00
   12   17    0     -5.21      0.00
   13   17    0    -32.97      0.00
    8   18    0    -29.58      0.00
    9   18    0     12.24      0.00
   10   18    0     -9.21      0.00
   11   18    0      2.26      0.00
    1   19    0    -99.55      0.00
    8   19    0     -4.55      0.00
    9   19    0     -0.42      0.00
   10   19    0      1.56      0.00
    7   20    0     -7.16      0.00
    8   20    0     35.66      0.00
    0    1    1   -481.80      0.00
    4    5    1    -49.96      0.00
    5    6    1    -11.95      0.00
    6    7    1      1.87      0.00
    6    8    1    -13.24      0.00
    7    8    1    -20.67      0.00
    6    9    1     29.77      0.00
    7    9    1     21.57      0.00
    8    9    1     15.38      0.00
    7   10    1     -0.36      0.00
    8   10    1     -8.44      0.00
    9   10    1     11.81      0.00
    7   11    1    -12.52      0.00
    8   11    1      8.91      0.00
    9   11    1     -2.35      0.00
   10   11    1    -26.50      0.00
    7   12    1     17.75      0.00
    8   12    1     -1.89      0.00
    9   12    1     18.21      0.00
   10   12    1     -5.50      0.00
   11   12    1     -5.36      0.00
    6   13    1     23.12      0.00
    7   13    1     -0.34      0.00
    8   13    1    -22.98      0.00
    9   13    1     20.42      0.00
   10   13    1     -4.98      0.00
   11   13    1      2.70      0.00
   12   13    1     -5.97      0.00
    8   14    1     -7.12      0.00
    9   14    1    -21.62      0.00
   10   14    1      6.58      0.00
   11   14    1     -2.61      0.00
   12   14    1     11.44      0.00
   13   14    1     -9.84      0.00
    8   15    1      3.70      0.00
    9   15    1      0.71      0.00
   10   15    1     11.52      0.00
   11   15    1     -9.87      0.00
   12   15    1      4.86      0.00
   13   15    1      7.90      0.00
   14   15    1      0.20      0.00
    8   16    1     -8.71      0.00
    9   16    1     10.09      0.00
   10   16    1      6.37      0.00
   11   16    1    -14.02      0.00
   12   16    1      2.64      0.00
   13   16    1     11.45      0.00
   14   16    1     -2.36      0.00
    8   17    1    -23.60      0.00
    9   17    1     38.79      0.00
   10   17    1     -5.31      0.00
   11   17    1     -1.35      0.00
   12   17    1    -11.88      0.00
   13   17    1     10.82      0.00
    8   18    1    -10.59      0.00
    9   18    1     -2.27      0.00
   10   18    1    -13.88      0.00
   11   18    1      6.52      0.00
    8   19    1     -8.48      0.00
    9   19    1     -8.19      0.00
   10   19    1     -3.30      0.00
    7   20    1      3.03      0.00
    8   20    1     13.95      0.00
    0    0    2    431.90      0.00
    4    4    2    -80.89      0.00
    4    5    2      0.82      0.00
    5    5    2    -44.33      0.00
    5    6    2     -0.72      0.00
    6    6    2     16.29      0.00
    6    7    2     17.83      0.00
    7    7    2     -7.35      0.00
    6    8    2     39.65      0.00
    7    8    2      3.53      0.00
    8    8    2    -21.70      0.00
    7    9    2      0.50      0.00
    8    9    2     -1.12      0.00
    9    9    2    -14.30      0.00
    7   10    2     16.94      0.00
    8   10    2     12.78      0.00
    9   10    2      5.42      0.00
   10   10    2     -8.09      0.00
    7   11    2    -25.39      0.00
    8   11    2     -6.95      0.00
    9   11    2      0.24      0.00
   10   11    2      2.77      0.00
   11   11    2    -26.74      0.00
    8   12    2    -17.49      0.00
    9   12    2      2.04      0.00
   10   12    2     27.29      0.00
   11   12    2     -6.58      0.00
   12   12    2      2.35      0.00
    7   13    2     10.36      0.00
    8   13    2     -2.05      0.00
    9   13    2     14.15      0.00
   10   13    2    -10.87      0.00
   11   13    2      2.33      0.00
   12   13    2     -1.69      0.00
   13   13    2    -26.39      0.00
    8   14    2      4.54      0.00
    9   14    2      6.07      0.00
   10   14    2     -8.45      0.00
   11   14    2     -0.26      0.00
   12   14    2    -25.44      0.00
   13   14    2     -3.98      0.00
   14   14    2    -10.78      0.00
    8   15    2    -37.72      0.00
    9   15    2     32.92      0.00
   10   15    2      5.46      0.00
   11   15    2     -5.21      0.00
   12   15    2     -1.11      0.00
   13   15    2      2.60      0.00
   14   15    2     -2.41      0.00
   15   15    2    -14.52      0.00
    8   16    2     -4.76      0.00
    9   16    2     23.99      0.00
   10   16    2     19.17      0.00
   11   16    2    -12.56      0.00
   12   16    2     11.02      0.00
   13   16    2     -2.86      0.00
   14   16    2     16.06      0.00
    8   17    2      7.25      0.00
    9   17    2      1.95      0.00
   10   17    2      4.72      0.00
   11   17    2    -18.89      0.00
   12   17    2      9.23      0.00
   13   17    2    -25.49      0.00
    8   18    2    -40.20      0.00
    9   18    2    -27.12      0.00
   10   18    2      0.04      0.00
   11   18    2     16.94      0.00
    1   19    2    -59.55      0.00
    8   19    2    -15.76      0.00
    9   19    2     11.67      0.00
   10   19    2    -11.62      0.00
    7   20    2     13.93      0.00
    4    5    3     49.81      0.00
    6    7    3      1.27      0.00
    7    8    3     -4.63      0.00
    7    9    3     15.28      0.00
    8    9    3     -1.90      0.00
    7   10    3    -10.53      0.00
    8   10    3      5.15      0.00
    9   10    3     -2.70      0.00
    8   11    3     -3.31      0.00
    9   11    3     19.50      0.00
   10   11    3      5.16      0.00
    8   12    3     -4.02      0.00
    9   12    3     34.71      0.00
   10   12    3     -3.12      0.00
   11   12    3     11.70      0.00
    7   13    3    -40.22      0.00
    8   13    3     17.33      0.00
    9   13    3     42.26      0.00
   10   13    3     -6.21      0.00
   11   13    3      3.42      0.00
   12   13    3     11.59      0.00
    8   14    3    -20.03      0.00
    9   14    3     -1.78      0.00
   10   14    3    -16.71      0.00
   11   14    3     19.03      0.00
   12   14    3      4.64      0.00
   13   14    3     21.32      0.00
    8   15    3      5.73      0.00
    9   15    3      5.76      0.00
   10   15    3     -6.35      0.00
   11   15    3     -3.93      0.00
   12   15    3      8.52      0.00
   13   15    3     -1.03      0.00
   14   15    3      4.65      0.00
    9   16    3    -10.85      0.00
   10   16    3    -11.87      0.00
   11   16    3      1.33      0.00
   12   16    3      2.95      0.00
   13   16    3     10.54      0.00
   14   16    3     -5.06      0.00
    9   17    3      5.57      0.00
   10   17    3     22.99      0.00
   11   17    3    -12.46      0.00
   12   17    3     27.48      0.00
   13   17    3      1.12      0.00
    8   18    3     18.94      0.00
    9   18    3     12.71      0.00
   10   18    3      0.05      0.00
   11   18    3     18.79      0.00
    0   19    3     -0.90      0.00
    8   19    3     11.34      0.00
    9   19    3      4.89      0.00
   10   19    3     -0.56      0.00
    7   20    3     33.82      0.00
    6    6    4     42.12      0.00
    7    7    4     -3.23      0.00
    7    8    4     16.03      0.00
    8    8    4     -4.71      0.00
    7    9    4     -6.09      0.00
    8    9    4      6.35      0.00
    9    9    4     36.16      0.00
    8   10    4     -5.45      0.00
    9   10    4      1.06      0.00
   10   10    4     18.39      0.00
    8   11    4     -0.33      0.00
    9   11    4    -15.63      0.00
   10   11    4      9.96      0.00
   11   11    4    -25.79      0.00
    8   12    4      9.76      0.00
    9   12    4    -18.20      0.00
   10   12    4     -0.74      0.00
   11   12    4     11.19      0.00
   12   12    4     18.60      0.00
    7   13    4     10.41      0.00
    8   13    4    -24.60      0.00
    9   13    4     16.48      0.00
   10   13    4    -22.73      0.00
   11   13    4     -7.11      0.00
   12   13    4     13.02      0.00
   13   13    4      1.93      0.00
    9   14    4     17.70      0.00
   10   14    4    -14.81      0.00
   11   14    4     11.54      0.00
   12   14    4      7.55      0.00
   13   14    4      2.24      0.00
   14   14    4     15.41      0.00
    8   15    4    -23.68      0.00
    9   15    4     -5.15      0.00
   10   15    4     10.89      0.00
   11   15    4     -0.95      0.00
   12   15    4    -12.82      0.00
   13   15    4     -5.85      0.00
   14   15    4     -6.61      0.00
   15   15    4     -7.87      0.00
    8   16    4    -16.09      0.00
    9   16    4     15.24      0.00
   10   16    4    -10.83      0.00
   11   16    4    -10.76      0.00
   12   16    4     11.24      0.00
   13   16    4      9.96      0.00
   14   16    4      1.33      0.00
    8   17    4     -3.80      0.00
    9   17    4    -21.25      0.00
   10   17    4      1.96      0.00
   11   17    4    -22.33      0.00
   12   17    4     15.78      0.00
   13   17    4    -20.77      0.00
    8   18    4      7.96      0.00
    9   18    4      9.81      0.00
   10   18    4     -5.16      0.00
   11   18    4     -6.97      0.00
    7   19    4     -0.54      0.00
    8   19    4     -8.38      0.00
    9   19    4     25.88      0.00
    7   20    4      4.30      0.00
    8    9    5     -3.53      0.00
    8   10    5     -7.20      0.00
    9   10    5     -6.80      0.00
    8   11    5    -27.88      0.00
    9   11    5     -4.16      0.00
   10   11    5     -5.85      0.00
    9   12    5      5.38      0.00
   10   12    5    -17.85      0.00
   11   12    5    -11.22      0.00
    7   13    5     -3.52      0.00
    8   13    5    -16.90      0.00
    9   13    5      4.49      0.00
   10   13    5      4.21      0.00
   11   13    5     -5.98      0.00
   12   13    5    -12.18      0.00
    8   14    5    -16.51      0.00
    9   14    5     -6.73      0.00
   10   14    5      2.59      0.00
   11   14    5      2.81      0.00
   12   14    5      0.62      0.00
   13   14    5     -1.38      0.00
    8   15    5     36.41      0.00
    9   15    5     14.88      0.00
   10   15    5      8.69      0.00
   11   15    5      0.15      0.00
   12   15    5     -4.49      0.00
   13   15    5     -7.17      0.00
   14   15    5    -25.81      0.00
    8   16    5     19.06      0.00
    9   16    5     -4.89      0.00
   10   16    5     -4.13      0.00
   11   16    5    -20.97      0.00
   12   16    5     -2.01      0.00
   13   16    5      5.45      0.00
   14   16    5      0.94      0.00
    7   17    5      7.10      0.00
    8   17    5      6.44      0.00
    9   17    5    -14.31      0.00
   10   17    5    -10.35      0.00
   11   17    5     -1.89      0.00
   12   17    5     -2.42      0.00
    7   18    5    -16.64      0.00
    8   18    5      2.41      0.00
    9   18    5     16.33      0.00
   10   18    5      2.04      0.00
   11   18    5      5.56      0.00
    7   19    5     11.05      0.00
    8   19    5    -16.11      0.00
    9   19    5      5.25      0.00
    6   20    5     -4.09      0.00
    7   20    5     -2.29      0.00
    8    8    6     14.18      0.00
    8    9    6    -19.39      0.00
    9    9    6      9.47      0.00
    9   10    6     -6.92      0.00
   10   10    6     -2.91      0.00
    9   11    6      1.57      0.00
   10   11    6    -14.90      0.00
   11   11    6    -15.25      0.00
    8   12    6      7.32      0.00
    9   12    6     26.93      0.00
   10   12    6      1.28      0.00
   11   12    6     -6.77      0.00
   12   12    6     18.10      0.00
    8   13    6     -1.85      0.00
    9   13    6      3.64      0.00
   10   13    6    -13.55      0.00
   11   13    6     -0.89      0.00
   12   13    6     29.21      0.00
   13   13    6    -21.01      0.00
    8   14    6    -21.10      0.00
    9   14    6     21.64      0.00
   10   14    6    -14.01      0.00
   11   14    6      2.76      0.00
   12   14    6     11.06      0.00
   13   14    6     -7.25      0.00
   14   14    6     20.46      0.00
    8   15    6    -22.80      0.00
    9   15    6     33.53      0.00
   10   15    6     -2.28      0.00
   11   15    6    -19.75      0.00
   12   15    6     -3.53      0.00
   13   15    6    -12.59      0.00
   14   15    6    -24.11      0.00
   15   15    6    -18.76      0.00
    8   16    6     23.28      0.00
    9   16    6    -10.33      0.00
   10   16    6     29.06      0.00
   11   16    6      1.60      0.00
   12   16    6    -15.71      0.00
   13   16    6     -6.30      0.00
   14   16    6     -1.16      0.00
    7   17    6     27.74      0.00
    8   17    6      7.20      0.00
    9   17    6     -3.34      0.00
   10   17    6     -0.38      0.00
   11   17    6      2.47      0.00
   12   17    6      9.05      0.00
    7   18    6    -16.44      0.00
    8   18    6     -2.53      0.00
    9   18    6     13.01      0.00
   10   18    6    -14.54      0.00
   11   18    6     -7.10      0.00
    7   19    6    -49.10      0.00
    8   19    6     -3.55      0.00
    9   19    6      5.16      0.00
    5   20    6    -27.94      0.00
    6   20    6     15.07      0.00
    7   20    6     13.51      0.00
    9   10    7     14.28      0.00
    9   11    7      2.36      0.00
   10   11    7     -1.01      0.00
    9   12    7    -18.73      0.00
   10   12    7      0.47      0.00
   11   12    7      8.00      0.00
    8   13    7     11.74      0.00
    9   13    7     -3.96      0.00
   10   13    7      3.13      0.00
   11   13    7    -12.69      0.00
   12   13    7    -11.40      0.00
    8   14    7     -1.60      0.00
    9   14    7    -33.95      0.00
   10   14    7    -12.63      0.00
   11   14    7     -4.56      0.00
   12   14    7     -5.86      0.00
   13   14    7      0.47      0.00
    8   15    7    -16.09      0.00
    9   15    7      2.33      0.00
   10   15    7      1.15      0.00
   11   15    7      1.49      0.00
   12   15    7     17.95      0.00
   13   15    7     24.44      0.00
   14   15    7      1.36      0.00
    8   16    7      0.57      0.00
    9   16    7    -10.79      0.00
   10   16    7     -4.29      0.00
   11   16    7     25.01      0.00
   12   16    7     18.42      0.00
   13   16    7     15.24      0.00
    8   17    7      8.76      0.00
    9   17    7     -0.87      0.00
   10   17    7    -16.33      0.00
   11   17    7    -20.68      0.00
   12   17    7     -3.18      0.00
    8   18    7    -16.27      0.00
    9   18    7      9.14      0.00
   10   18    7     -2.62      0.00
   11   18    7     -2.20      0.00
    7   19    7     12.78      0.00
    8   19    7     28.30      0.00
    9   19    7      2.38      0.00
    4   20    7     10.05      0.00
    5   20    7    -13.64      0.00
    6   20    7     -8.03      0.00
    9    9    8      9.81      0.00
    9   10    8     -7.19      0.00
   10   10    8     37.50      0.00
    9   11    8      4.29      0.00
   10   11    8     -8.78      0.00
   11   11    8    -44.06      0.00
    9   12    8     19.22      0.00
   10   12    8     17.08      0.00
   11   12    8      5.87      0.00
   12   12    8      4.35      0.00
    8   13    8    -25.36      0.00
    9   13    8     11.86      0.00
   10   13    8     32.76      0.00
   11   13    8      9.80      0.00
   12   13    8     32.41      0.00
   13   13    8      9.42      0.00
    8   14    8    -13.72      0.00
    9   14    8     11.63      0.00
   10   14    8    -11.29      0.00
   11   14    8      7.96      0.00
   12   14    8      1.82      0.00
   13   14    8    -13.72      0.00
   14   14    8     15.09      0.00
    8   15    8     14.78      0.00
    9   15    8     11.85      0.00
   10   15    8    -18.68      0.00
   11   15    8      6.72      0.00
   12   15    8      3.70      0.00
   13   15    8     -8.52      0.00
   14   15    8      0.67      0.00
    8   16    8     -7.71      0.00
    9   16    8    -13.88      0.00
   10   16    8      0.82      0.00
   11   16    8      1.44      0.00
   12   16    8     -0.01      0.00
   13   16    8     -1.51      0.00
    8   17    8     -6.92      0.00
    9   17    8     -2.14      0.00
   10   17    8     23.56      0.00
   11   17    8    -13.56      0.00
   12   17    8     13.46      0.00
    8   18    8     11.43      0.00
    9   18    8     -2.56      0.00
   10   18    8      1.85      0.00
    7   19    8     -2.13      0.00
    8   19    8    -12.03      0.00
    9   19    8     -5.95      0.00
    3   20    8      5.45      0.00
    4   20    8     30.65      0.00
    5   20    8      6.37      0.00
    6   20    8     -3.14      0.00
    9   10    9     16.35      0.00
    9   11    9      1.46      0.00
   10   11    9      0.44      0.00
    8   12    9     11.96      0.00
   10   12    9    -12.48      0.00
   11   12    9     30.27      0.00
    9   13    9    -14.46      0.00
   10   13    9     10.31      0.00
   11   13    9     26.25      0.00
   12   13    9     -6.95      0.00
    8   14    9     -2.57      0.00
    9   14    9     20.47      0.00
   10   14    9    -23.41      0.00
   11   14    9     -5.04      0.00
   12   14    9     -4.64      0.00
   13   14    9      9.23      0.00
    8   15    9     35.09      0.00
    9   15    9      0.43      0.00
   10   15    9    -14.50      0.00
   11   15    9     -1.96      0.00
   12   15    9      3.51      0.00
   13   15    9     -4.81      0.00
   14   15    9      0.93      0.00
    8   16    9      2.44      0.00
    9   16    9    -13.50      0.00
   10   16    9    -10.41      0.00
   11   16    9      7.27      0.00
   12   16    9     -2.17      0.00
   13   16    9     17.52      0.00
    8   17    9      1.96      0.00
    9   17    9     28.41      0.00
   10   17    9     12.04      0.00
   11   17    9     -8.64      0.00
   12   17    9      6.56      0.00
    8   18    9     -2.90      0.00
    9   18    9      2.53      0.00
   10   18    9     -8.29      0.00
    6   19    9     -6.43      0.00
    7   19    9      8.89      0.00
    8   19    9     22.81      0.00
    3   20    9      0.28      0.00
    4   20    9    -22.79      0.00
    5   20    9     21.44      0.00
    6   20    9      1.33      0.00
    9   10   10    -26.24      0.00
   10   10   10      6.61      0.00
    8   11   10     26.15      0.00
   10   11   10     15.71      0.00
   11   11   10     22.91      0.00
   10   12   10     28.64      0.00
   11   12   10    -22.07      0.00
   12   12   10    -20.30      0.00
   10   13   10    -36.54      0.00
   11   13   10     -7.10      0.00
   12   13   10      2.08      0.00
   13   13   10     17.72      0.00
    9   14   10    -10.44      0.00
   10   14   10    -14.93      0.00
   11   14   10     -7.57      0.00
   12   14   10    -14.69      0.00
   13   14   10    -22.32      0.00
   14   14   10      0.94      0.00
    9   15   10     -2.60      0.00
   10   15   10      5.09      0.00
   11   15   10     24.24      0.00
   12   15   10     13.93      0.00
   13   15   10    -24.23      0.00
   14   15   10      4.69      0.00
    9   16   10     36.41      0.00
   10   16   10     16.64      0.00
   11   16   10      6.60      0.00
   12   16   10     -3.55      0.00
   13   16   10     -0.49      0.00
    8   17   10     -4.32      0.00
    9   17   10    -20.46      0.00
   10   17   10     -4.16      0.00
   11   17   10    -12.05      0.00
    8   18   10     17.05      0.00
    9   18   10      0.29      0.00
   10   18   10     -6.96      0.00
    6   19   10    -12.96      0.00
    7   19   10    -18.84      0.00
    8   19   10     35.04      0.00
    0   20   10     32.13      0.00
    2   20   10     -4.96      0.00
    3   20   10     16.03      0.00
    4   20   10     14.83      0.00
    5   20   10      6.40      0.00
    8   11   11     35.19      0.00
   11   12   11      0.05      0.00
   11   13   11      1.60      0.00
   12   13   11    -29.49      0.00
    9   14   11     25.20      0.00
   10   14   11    -14.55      0.00
   11   14   11    -17.65      0.00
   12   14   11      1.56      0.00
   13   14   11     -0.29      0.00
    9   15   11    -10.80      0.00
   10   15   11      1.66      0.00
   11   15   11     16.62      0.00
   12   15   11    -17.97      0.00
   13   15   11      5.28      0.00
   14   15   11     14.85      0.00
    9   16   11    -18.61      0.00
   10   16   11     -0.37      0.00
   11   16   11     -7.19      0.00
   12   16   11     -3.75      0.00
   13   16   11      1.53      0.00
    9   17   11     -8.72      0.00
   10   17   11      6.36      0.00
   11   17   11     15.01      0.00
    9   18   11    -10.80      0.00
   10   18   11    -25.70      0.00
    5   19   11    -20.65      0.00
    6   19   11     26.04      0.00
    7   19   11    -25.18      0.00
    8   19   11     -2.92      0.00
    1   20   11     -7.55      0.00
    2   20   11     -2.47      0.00
    3   20   11     16.47      0.00
    4   20   11     11.74      0.00
    5   20   11      2.57      0.00
    3    4   12     29.03      0.00
   11   11   12      0.77      0.00
    6   12   12      7.57      0.00
   11   12   12      2.48      0.00
   12   12   12     13.68      0.00
   11   13   12    -19.02      0.00
   12   13   12     -9.96      0.00
   13   13   12     20.25      0.00
    9   14   12      6.48      0.00
   10   14   12     10.56      0.00
   11   14   12      6.57      0.00
   12   14   12    -11.77      0.00
   13   14   12    -17.19      0.00
   14   14   12     19.72      0.00
    9   15   12    -32.43      0.00
   10   15   12    -27.24      0.00
   11   15   12     -6.18      0.00
   12   15   12     -8.91      0.00
   13   15   12     -4.36      0.00
    9   16   12    -24.43      0.00
   10   16   12     18.01      0.00
   11   16   12     22.51      0.00
   12   16   12     19.75      0.00
    5   17   12    -36.41      0.00
    9   17   12     -7.07      0.00
   10   17   12      1.97      0.00
   11   17   12      1.55      0.00
    9   18   12    -14.02      0.00
    5   19   12     18.82      0.00
    6   19   12    -15.54      0.00
    7   19   12    -16.15      0.00
    0   20   12     15.03      0.00
    1   20   12     12.56      0.00
    2   20   12     -1.60      0.00
    3   20   12     -7.38      0.00
    4   20   12     26.00      0.00
   11   12   13     13.72      0.00
   11   13   13    -17.09      0.00
   12   13   13     14.40      0.00
   10   14   13    -31.69      0.00
   11   14   13      4.72      0.00
   12   14   13      0.80      0.00
   13   14   13      9.36      0.00
   10   15   13     -6.80      0.00
   11   15   13     -9.97      0.00
   12   15   13     -3.65      0.00
   13   15   13      2.42      0.00
    7   16   13     -1.92      0.00
    9   16   13      0.67      0.00
   10   16   13      2.37      0.00
   11   16   13      1.87      0.00
   12   16   13    -11.67      0.00
    9   17   13      7.71      0.00
   10   17   13     18.30      0.00
    9   18   13    -28.97      0.00
    4   19   13    -29.00      0.00
    5   19   13     13.21      0.00
    6   19   13     14.80      0.00
    1   20   13     17.08      0.00
    2   20   13    -14.72      0.00
    3   20   13    -13.19      0.00
    8    8   14     44.94      0.00
   11   11   14     47.95      0.00
    4   12   14     -4.30      0.00
   12   12   14      9.58      0.00
   12   13   14     12.20      0.00
   13   13   14     19.25      0.00
   12   14   14     16.66      0.00
   13   14   14     27.33      0.00
   14   14   14      6.39      0.00
    9   15   14     -9.79      0.00
   10   15   14      9.55      0.00
   11   15   14      7.15      0.00
   12   15   14     -8.74      0.00
   13   15   14     -7.37      0.00
    9   16   14    -12.97      0.00
   10   16   14      1.96      0.00
   11   16   14     14.12      0.00
   12   16   14     -1.04      0.00
    9   17   14      2.42      0.00
   10   17   14     16.76      0.00
    1   19   14     -0.77      0.00
    2   19   14     24.76      0.00
    3   19   14     30.10      0.00
    4   19   14      1.68      0.00
    5   19   14      9.50      0.00
    6   19   14    -22.47      0.00
    0   20   14     -2.28      0.00
    7    8   15     -0.33      0.00
    3   12   15     -9.86      0.00
   12   13   15     -9.88      0.00
   12   14   15      3.53      0.00
   13   14   15    -13.29      0.00
    8   15   15     18.12      0.00
    9   15   15     -0.18      0.00
   10   15   15    -33.98      0.00
   11   15   15    -17.78      0.00
   12   15   15     -3.79      0.00
    8   16   15    -17.66      0.00
    9   16   15      5.01      0.00
   10   16   15    -16.62      0.00
   11   16   15     13.08      0.00
    8   17   15      0.10      0.00
    9   17   15    -11.69      0.00
   10   17   15    -10.06      0.00
    8   18   15     14.75      0.00
    0   19   15    -37.00      0.00
    1   19   15     16.74      0.00
    2   19   15     16.92      0.00
    3   19   15    -16.42      0.00
    4   19   15      3.77      0.00
    5   19   15    -27.09      0.00
    7    7   16     -1.76      0.00
    6    8   16      7.78      0.00
    5    9   16    -17.36      0.00
   12   12   16     -7.44      0.00
   12   13   16    -29.17      0.00
   13   13   16    -23.44      0.00
   12   14   16      3.05      0.00
   13   14   16     -6.01      0.00
    7   15   16     17.27      0.00
    8   15   16     -2.79      0.00
    9   15   16    -24.95      0.00
   10   15   16      1.92      0.00
   11   15   16    -15.20      0.00
   12   15   16      0.09      0.00
    7   16   16    -34.94      0.00
    8   16   16     -0.55      0.00
    9   16   16      0.07      0.00
   10   16   16    -13.95      0.00
   11   16   16    -12.21      0.00
    7   17   16    -31.75      0.00
    8   17   16     -4.35      0.00
    9   17   16      1.39      0.00
    7   18   16     18.91      0.00
    1   19   16     10.28      0.00
    2   19   16     -1.06      0.00
    3   19   16    -18.81      0.00
    4   19   16    -12.33      0.00
    6    7   17     -6.90      0.00
    5    8   17      1.90      0.00
   12   13   17    -15.07      0.00
   12   14   17      8.56      0.00
   13   14   17     10.04      0.00
    6   15   17    -36.29      0.00
    7   15   17    -25.06      0.00
    8   15   17    -15.96      0.00
    9   15   17     32.20      0.00
   10   15   17      4.74      0.00
   11   15   17     -7.51      0.00
   12   15   17      9.88      0.00
    6   16   17     -3.90      0.00
    7   16   17      6.86      0.00
    8   16   17     10.94      0.00
    9   16   17     11.83      0.00
   10   16   17     -2.69      0.00
    6   17   17     12.66      0.00
    7   17   17      3.24      0.00
    8   17   17    -13.27      0.00
    6   18   17    -17.55      0.00
    0   19   17     22.63      0.00
    1   19   17      1.94      0.00
    2   19   17     12.94      0.00
    0    0   18     -6.06      0.00
    6    6   18     -2.32      0.00
    5    7   18     23.15      0.00
   12   13   18     12.15      0.00
   13   13   18     15.01      0.00
   12   14   18     12.77      0.00
    5   15   18     -2.60      0.00
    6   15   18     23.39      0.00
    7   15   18     21.56      0.00
    8   15   18    -14.12      0.00
    9   15   18      7.16      0.00
   10   15   18     11.84      0.00
   11   15   18    -12.27      0.00
    5   16   18     13.91      0.00
    6   16   18    -10.00      0.00
    7   16   18     13.61      0.00
    8   16   18      2.11      0.00
    9   16   18     -7.26      0.00
   10   16   18      0.29      0.00
    5   17   18     -7.02      0.00
    6   17   18     -6.78      0.00
    7   17   18     -2.29      0.00
    8   17   18     16.28      0.00
    5   18   18      5.29      0.00
    5    6   19    -39.04      0.00
    4    7   19     32.42      0.00
   12   14   19    -12.66      0.00
    3   15   19      9.80      0.00
    4   15   19    -59.48      0.00
    5   15   19      7.88      0.00
    6   15   19     -2.25      0.00
    7   15   19     23.55      0.00
    8   15   19     -5.97      0.00
   11   15   19     -9.72      0.00
    4   16   19     18.21      0.00
    5   16   19     23.07      0.00
    6   16   19     -6.31      0.00
    7   16   19     23.93      0.00
    8   16   19    -19.63      0.00
    9   16   19     -7.17      0.00
    4   17   19    -49.26      0.00
    5   17   19      2.50      0.00
    6   17   19    -11.60      0.00
    7   17   19     -3.56      0.00
    4   18   19     -1.32      0.00
    0    0   20    -30.02      0.00
    5    5   20    -15.15      0.00
    4    6   20    -12.61      0.00
    7    7   20    -12.73      0.00
   12   13   20    -11.14      0.00
   11   14   20     -7.49      0.00
    2   15   20     -5.60      0.00
    3   15   20     18.15      0.00
    4   15   20    -13.98      0.00
    5   15   20    -14.66      0.00
    6   15   20    -40.68      0.00
    2   16   20      6.52      0.00
    3   16   20      8.32      0.00
    4   16   20     22.29      0.00
    5   16   20     -8.62      0.00
    6   16   20     23.64      0.00
    7   16   20    -15.03      0.00
    8   16   20     -7.72      0.00
    3   17   20      8.79      0.00
    4   17   20      3.56      0.00
    5   17   20      5.61      0.00
    6   17   20      5.14      0.00
    0   18   20     33.81      0.00
    1   18   20      7.93      0.00
    2   18   20     -8.18      0.00
    3   18   20      9.20      0.00
    4    5   21     -2.94      0.00
   12   13   21     26.41      0.00
   11   14   21     -5.80      0.00
    1   15   21    -10.29      0.00
    2   15   21     -4.48      0.00
    3   15   21     -0.36      0.00
    4   15   21      2.58      0.00
    5   15   21    -27.60      0.00
    1   16   21      1.36      0.00
    2   16   21      5.33      0.00
    3   16   21      5.15      0.00
    4   16   21     -8.50      0.00
    5   16   21     14.47      0.00
    6   16   21      4.13      0.00
    7   16   21     -0.04      0.00
    1   17   21    -22.40      0.00
    2   17   21    -11.97      0.00
    3   17   21    -21.59      0.00
    4   17   21    -10.08      0.00
    5   17   21     -0.04      0.00
    0    0   22     17.46      0.00
   10   10   22    -55.91      0.00
   12   12   22     20.74      0.00
   11   13   22     -6.51      0.00
    0   14   22     54.65      0.00
   10   14   22      8.00      0.00
    1   15   22     -7.01      0.00
    2   15   22     -6.82      0.00
    3   15   22      6.80      0.00
    0   16   22     56.95      0.00
    1   16   22      8.05      0.00
    2   16   22      9.80      0.00
    3   16   22    -13.90      0.00
    4   16   22    -10.62      0.00
    5   16   22      5.43      0.00
    6   16   22      9.61      0.00
    7   16   22     -2.86      0.00
    1   17   22     -9.80      0.00
    2   17   22     20.67      0.00
    3   17   22      4.05      0.00
    4   17   22    -12.43      0.00
    8   11   23     80.65      0.00
   11   12   23    -44.43      0.00
    0   13   23     29.54      0.00
    1   13   23     -6.25      0.00
    4   13   23      4.20      0.00
   10   13   23    -12.23      0.00
   11   13   23    -11.28      0.00
    1   14   23     19.46      0.00
    9   14   23    -21.92      0.00
    0   15   23    -21.31      0.00
    1   15   23     11.26      0.00
    2   15   23      0.24      0.00
    8   15   23     -5.16      0.00
    1   16   23     -0.26      0.00
    2   16   23     10.98      0.00
    3   16   23     18.28      0.00
    4   16   23      2.37      0.00
    5   16   23    -39.86      0.00
    0   17   23     30.28      0.00
    1   17   23     -7.41      0.00
    0    0   24     -3.71      0.00
   11   11   24     36.62      0.00
    5   12   24    -37.92      0.00
   10   12   24     38.38      0.00
   11   12   24    -20.04      0.00
    9   13   24    -43.33      0.00
   10   13   24     25.28      0.00
    0   14   24    -43.84      0.00
    1   14   24     26.01      0.00
    8   14   24     10.81      0.00
    1   15   24      1.54      0.00
    2   15   24      4.31      0.00
    7   15   24      5.81      0.00
    0   16   24     22.19      0.00
    1   16   24    -20.62      0.00
    2   16   24    -18.17      0.00
    3   16   24     -5.32      0.00
    4   16   24     -2.47      0.00
    0    1   25    -36.94      0.00
    0    3   25     19.44      0.00
   10   11   25    -11.00      0.00
    3   12   25    -10.49      0.00
    9   12   25    -23.97      0.00
   10   12   25     29.62      0.00
    8   13   25      1.78      0.00
    9   13   25    -13.88      0.00
    1   14   25     16.29      0.00
    7   14   25     -3.93      0.00
    0   15   25     -5.77      0.00
    1   15   25     -9.24      0.00
    2   15   25     -6.16      0.00
    5   15   25     -1.49      0.00
    1   16   25     -5.80      0.00
    0    0   26     64.63      0.00
    1    1   26     12.29      0.00
    1    2   26     36.32      0.00
    6   10   26     90.79      0.00
   10   10   26     -4.67      0.00
    4   11   26     39.94      0.00
    9   11   26      0.85      0.00
   10   11   26     -6.82      0.00
   11   11   26     -7.73      0.00
    8   12   26     86.97      0.00
    9   12   26    -40.79      0.00
    7   13   26    -21.41      0.00
    8   13   26     22.03      0.00
    0   14   26      0.87      0.00
    1   14   26    -15.58      0.00
    2   14   26     16.53      0.00
    5   14   26    -22.29      0.00
    6   14   26     10.34      0.00
    1   15   26      7.91      0.00
    2   15   26      9.47      0.00
    3   15   26     18.61      0.00
    4   15   26    -10.08      0.00
    0    1   27     24.37      0.00
    9   10   27     -0.33      0.00
    8   11   27      0.56      0.00
    9   11   27     -1.94      0.00
   10   11   27     -0.52      0.00
    7   12   27    -19.02      0.00
    8   12   27     11.09      0.00
    5   13   27      4.79      0.00
    6   13   27     19.56      0.00
    7   13   27      4.85      0.00
    1   14   27    -11.63      0.00
    2   14   27    -16.44      0.00
    3   14   27     10.31      0.00
    4   14   27     -8.70      0.00
    5   14   27      7.69      0.00
    0    0   28    -41.93      0.00
    1    1   28      1.10      0.00
    6    8   28    -23.67      0.00
    9    9   28     16.10      0.00
    8   10   28    -25.76      0.00
    9   10   28      2.78      0.00
   10   10   28      3.56      0.00
    7   11   28      6.24      0.00
    8   11   28     19.22      0.00
    9   11   28    -17.86      0.00
    5   12   28    -16.29      0.00
    6   12   28      1.82      0.00
    7   12   28     -0.67      0.00
    3   13   28      7.60      0.00
    4   13   28     16.54      0.00
    5   13   28     -4.82      0.00
    6   13   28      0.64      0.00
    0   14   28    -24.38      0.00
    1   14   28    -28.39      0.00
    2   14   28      9.14      0.00
    3   14   28     27.99      0.00
    0    1   29     -5.53      0.00
    1    2   29    -15.69      0.00
    1    9   29    -25.78      0.00
    8    9   29     -7.52      0.00
    7   10   29     21.36      0.00
    8   10   29     30.40      0.00
    9   10   29     -4.34      0.00
    5   11   29     -1.34      0.00
    6   11   29      9.37      0.00
    7   11   29    -19.28      0.00
    8   11   29      8.76      0.00
    4   12   29     22.68      0.00
    5   12   29     13.04      0.00
    6   12   29    -16.49      0.00
    0   13   29    -15.97      0.00
    2   13   29    -13.49      0.00
    3   13   29     -0.79      0.00
    4   13   29     -3.25      0.00
    0    0   30     13.22      0.00
    1    1   30      4.63      0.00
    0    2   30    -18.97      0.00
    1    2   30     24.26      0.00
    2    2   30     -2.83      0.00
    1    8   30     26.63      0.00
    8    8   30    -20.58      0.00
    7    9   30     25.39      0.00
    8    9   30     -3.75      0.00
    9    9   30     18.49      0.00
    5   10   30    -13.18      0.00
    6   10   30    -25.55      0.00
    7   10   30    -13.87      0.00
    8   10   30    -11.91      0.00
    4   11   30     -4.58      0.00
    5   11   30     12.24      0.00
    6   11   30     25.77      0.00
    0   12   30      9.90      0.00
    2   12   30     10.54      0.00
    3   12   30    -16.66      0.00
    4   12   30      6.95      0.00
    0    1   31      7.20      0.00
    1    2   31     -9.19      0.00
    1    6   31     27.00      0.00
    3    6   31     11.37      0.00
    6    8   31      3.55      0.00
    7    8   31    -13.53      0.00
    5    9   31     11.61      0.00
    6    9   31     16.58      0.00
    7    9   31      2.28      0.00
    8    9   31     10.17      0.00
    4   10   31      8.22      0.00
    5   10   31     17.73      0.00
    6   10   31      7.38      0.00
    0   11   31     13.32      0.00
    3   11   31     10.00      0.00
    4   11   31    -23.00      0.00
    5   11   31     14.77      0.00
    1   12   31    -12.60      0.00
    2   12   31    -25.48      0.00
    0    0   32     59.45      0.00
    1    1   32      1.23      0.00
    0    2   32    -14.84      0.00
    1    2   32      7.23      0.00
    2    2   32     42.40      0.00
    2    3   32     -3.62      0.00
    3    3   32     23.73      0.00
    3    4   32     27.86      0.00
    6    7   32      1.11      0.00
    7    7   32     29.70      0.00
    5    8   32     43.75      0.00
    6    8   32    -10.68      0.00
    7    8   32    -12.40      0.00
    4    9   32     -6.96      0.00
    5    9   32     -8.04      0.00
    6    9   32    -10.20      0.00
    0   10   32     11.32      0.00
    3   10   32     19.84      0.00
    4   10   32     -8.85      0.00
    5   10   32     10.09      0.00
    1   11   32     -4.14      0.00
    2   11   32     -7.51      0.00
    0    1   33     -7.49      0.00
    1    2   33     -5.05      0.00
    0    3   33    -32.68      0.00
    1    3   33     19.78      0.00
    2    3   33     -9.00      0.00
    5    7   33    -38.01      0.00
    6    7   33     18.56      0.00
    4    8   33     17.67      0.00
    5    8   33     -6.17      0.00
    6    8   33      2.66      0.00
    0    9   33      2.42      0.00
    2    9   33    -29.13      0.00
    3    9   33      4.71      0.00
    4    9   33      3.90      0.00
    5    9   33    -11.09      0.00
    1   10   33     10.39      0.00
    2   10   33     -0.60      0.00
    0    0   34    105.81      0.00
    1    1   34     -9.66      0.00
    0    2   34    -12.79      0.00
    1    2   34     -3.41      0.00
    2    2   34      1.17      0.00
    1    3   34     -2.43      0.00
    2    3   34     -6.02      0.00
    3    3   34     36.30      0.00
    4    4   34    -13.66      0.00
    5    5   34     26.67      0.00
    0    6   34     14.43      0.00
    4    6   34     13.11      0.00
    5    6   34     -3.60      0.00
    6    6   34     13.91      0.00
    3    7   34     13.03      0.00
    4    7   34    -26.95      0.00
    5    7   34    -39.37      0.00
    0    8   34     -5.12      0.00
    2    8   34     14.97      0.00
    3    8   34      1.17      0.00
    4    8   34    -16.52      0.00
    1    9   34     22.87      0.00
    0    1   35    -26.83      0.00
    1    2   35     15.18      0.00
    0    3   35      5.88      0.00
    1    3   35     15.68      0.00
    2    3   35    -13.61      0.00
    1    4   35      6.42      0.00
    2    4   35     -3.31      0.00
    3    4   35      9.77      0.00
    0    5   35      0.67      0.00
    3    5   35     -6.25      0.00
    4    5   35      3.45      0.00
    3    6   35      9.09      0.00
    4    6   35     35.79      0.00
    5    6   35     -6.18      0.00
    0    7   35    -13.00      0.00
    2    7   35      2.02      0.00
    3    7   35     -2.13      0.00
    0    0    0      0.00      0.00
# SQUEEZE RESULTS (Version =  70515)
# Note: Data are Listed for all Voids in the P1 Unit Cell
# i.e. Centre of Gravity, Solvent Accessible Volume,
# Recovered number of Electrons in the Void and
# Details about the Squeezed Material
loop_
  _platon_squeeze_void_nr
  _platon_squeeze_void_average_x
  _platon_squeeze_void_average_y
  _platon_squeeze_void_average_z
  _platon_squeeze_void_volume
  _platon_squeeze_void_count_electrons
  _platon_squeeze_void_content
   1 -0.011  0.395 -0.003      8580      3913 ' '
# Missing Reflections Below sin(th)/lambda = 0.25
loop_
  _platon_missing_refln_index_h
  _platon_missing_refln_index_k
  _platon_missing_refln_index_l
  _platon_missing_refln_theta
    1    1    0     1.466
    2    2    0     2.933
    3    3    0     4.403
    4    4    0     5.875
    4    5    0     6.653
    5    5    0     7.351
    5    6    0     8.124
    6    6    0     8.832
    5    7    0     8.954
    6    7    0     9.603
    0    1    1     1.195
    4    5    1     6.680
    5    6    1     8.146
    6    7    1     9.622
    0    0    2     1.190
    4    4    2     5.995
    4    5    2     6.760
    5    5    2     7.448
    5    6    2     8.212
    6    6    2     8.913
    6    7    2     9.678
    4    5    3     6.891
    6    7    3     9.770
    6    6    4     9.152
    3    4   12     8.860
_platon_squeeze_void_probe_radius                  1.20
_platon_squeeze_details
)
TITL g2yy_8xnewP 4/m n c    R = 0.35
CELL   19.0370   19.0370   33.1590     90.00     90.00     90.00
SPGR P4/mnc
# Solvent Accessible Volume =    8652.8
# Electrons Found in S.A.V. =    3832.4
# Note: Atoms in Void as Cxxx and Qxxx all others
C101 1.000 0.500 0.500 !       5.52 eA-3
C102 0.500 0.504 0.188 !       3.68 eA-3
C103 0.826 0.375 0.501 !       3.34 eA-3
Q104 0.375 0.500 0.504 !       3.27 eA-3
Q105 0.597 0.437 0.497 !       3.20 eA-3
Q106 0.620 0.203 0.501 !       3.17 eA-3
C107 1.000 0.503 0.414 !       3.16 eA-3
C108 0.403 0.193 0.476 !       2.98 eA-3
Q109 0.503 0.176 0.461 !       2.95 eA-3
C110 0.217 0.313 0.024 !       2.91 eA-3
C111 0.245 0.266-0.002 !       2.89 eA-3
C112 0.500 0.504 0.266 !       2.85 eA-3
C113 0.483 0.161 0.118 !       2.85 eA-3
C114 0.799 0.809 0.385 !       2.84 eA-3
C115 0.080 0.144 0.228 !       2.83 eA-3
C116 0.537 0.624 0.203 !       2.80 eA-3
C117 0.816 0.188 0.504 !       2.80 eA-3
Q118 0.356 0.219 0.502 !       2.79 eA-3
C119 0.044 0.548 0.486 !       2.75 eA-3
C120 0.825 0.672 0.252 !       2.75 eA-3
C121 0.944 0.442 0.048 !       2.74 eA-3
C122 0.592 0.113 0.101 !       2.72 eA-3
C123 0.546 0.141 0.002 !       2.68 eA-3
C124 0.953 0.440 0.415 !       2.67 eA-3
C125 0.387 0.016 0.498 !       2.66 eA-3
C126 1.000 1.002 0.180 !       2.66 eA-3
C127 0.733 0.544 0.062 !       2.66 eA-3
C128 0.905 0.659 0.376 !       2.65 eA-3
C129 0.470 0.469 0.162 !       2.64 eA-3
C130 0.921 0.094 0.499 !       2.63 eA-3
C131 0.653 0.937 0.414 !       2.62 eA-3
C132 0.215 0.281 0.252 !       2.57 eA-3
Q133 0.796 0.156 0.063 !       2.56 eA-3
Q134 0.471 0.471 0.425 !       2.56 eA-3
C135 0.123 0.203 0.102 !       2.55 eA-3
C136 0.874 0.125 0.501 !       2.53 eA-3
C137 0.155 0.337 0.483 !       2.52 eA-3
C138 0.764 0.738 0.333 !       2.50 eA-3
C139 0.313 0.579 0.210 !       2.50 eA-3
C140 0.438 0.923 0.496 !       2.49 eA-3
C141 0.264 0.279 0.436 !       2.48 eA-3
C142 0.200 0.359 0.002 !       2.48 eA-3
C143 0.221 0.706 0.447 !       2.47 eA-3
C144 0.111 0.344 0.000 !       2.47 eA-3
C145 0.936 0.453 0.381 !       2.46 eA-3
C146 0.127 0.831 0.264 !       2.45 eA-3
C147 0.686 0.581 0.081 !       2.43 eA-3
C148 0.106 0.249 0.079 !       2.43 eA-3
C149 0.245 0.094 0.502 !       2.42 eA-3
C150 0.061 0.498 0.399 !       2.37 eA-3
C151 0.343 0.066 0.476 !       2.37 eA-3
Q152 0.376 0.281 0.505 !       2.36 eA-3
C153 0.636 0.365 0.127 !       2.34 eA-3
C154 0.077 0.195 0.090 !       2.32 eA-3
C155 0.828 0.765 0.332 !       2.31 eA-3
C156 0.258 0.328 0.836 !       2.31 eA-3
C157 0.654 0.593 0.149 !       2.30 eA-3
C158 0.760 0.720 0.462 !       2.30 eA-3
C159 0.645 0.954 0.016 !       2.30 eA-3
C160 0.892 0.346 0.425 !       2.30 eA-3
C161 0.872 0.118 0.335 !       2.29 eA-3
Q162 0.106 0.244 0.041 !       2.29 eA-3
C163 0.021 0.593 0.382 !       2.29 eA-3
C164 0.146 0.234 0.500 !       2.29 eA-3
C165 0.278 0.277 0.148 !       2.28 eA-3
Q166 0.454 0.203 0.504 !       2.28 eA-3
C167 0.310 0.683 0.178 !       2.27 eA-3
C168 0.490 0.755 0.193 !       2.26 eA-3
C169 0.986 0.530 0.446 !       2.25 eA-3
Q170 0.285 0.957 0.038 !       2.25 eA-3
C171 0.757 0.767 0.389 !       2.23 eA-3
C172 0.919 0.765 0.276 !       2.23 eA-3
C173 0.218 0.221 0.315 !       2.23 eA-3
C174 0.154 0.265 0.264 !       2.22 eA-3
C175 0.949 0.498 0.099 !       2.21 eA-3
C176 0.544 0.498 0.318 !       2.21 eA-3
C177 0.063 0.122 0.270 !       2.21 eA-3
C178 0.590 0.108 0.032 !       2.21 eA-3
C179 0.825 0.221 0.341 !       2.20 eA-3
C180 0.133 0.080 0.264 !       2.19 eA-3
C181 1.000 0.498 0.461 !       2.19 eA-3
C182 0.996 0.440 0.065 !       2.19 eA-3
C183 0.922 0.546 0.455 !       2.19 eA-3
C184 0.335 1.000 0.504 !       2.18 eA-3
C185 0.481 0.551 0.284 !       2.17 eA-3
C186 0.354 0.130 0.479 !       2.17 eA-3
C187 0.341 0.468 0.202 !       2.16 eA-3
C188 0.287 0.018 0.311 !       2.15 eA-3
C189 0.625 0.795 0.091 !       2.15 eA-3
C190 0.455 1.001 0.021 !       2.15 eA-3
C191 0.850 0.858 0.295 !       2.15 eA-3
C192 0.607 0.940 0.422 !       2.15 eA-3
C193 0.716 0.768 0.165 !       2.15 eA-3
C194 0.527 0.847 0.177 !       2.13 eA-3
C195 0.861 0.310 0.038 !       2.13 eA-3
C196 0.020 0.581 0.454 !       2.13 eA-3
C197 0.079 0.231 0.388 !       2.12 eA-3
C198 0.839 0.687 0.083 !       2.12 eA-3
C199 0.854 0.691 0.211 !       2.12 eA-3
)
;
_shelx_shelxl_version_number     2014/7
_olex2_submission_special_instructions 'No special instructions were received'
loop_
_space_group_symop_operation_xyz
'x, y, z'
'-x, -y, z'
'-y, x, z'
'y, -x, z'
'-x+1/2, y+1/2, -z+1/2'
'x+1/2, -y+1/2, -z+1/2'
'y+1/2, x+1/2, -z+1/2'
'-y+1/2, -x+1/2, -z+1/2'
'-x, -y, -z'
'x, y, -z'
'y, -x, -z'
'-y, x, -z'
'x-1/2, -y-1/2, z-1/2'
'-x-1/2, y-1/2, z-1/2'
'-y-1/2, -x-1/2, z-1/2'
'y-1/2, x-1/2, z-1/2'
loop_
_atom_site_label
_atom_site_type_symbol
_atom_site_fract_x
_atom_site_fract_y
_atom_site_fract_z
_atom_site_U_iso_or_equiv
_atom_site_adp_type
_atom_site_occupancy
_atom_site_site_symmetry_order
_atom_site_calc_flag
_atom_site_refinement_flags_posn
_atom_site_refinement_flags_adp
_atom_site_refinement_flags_occupancy
_atom_site_disorder_assembly
_atom_site_disorder_group
Zr1 Zr 0.12389(18) 0.0454(2) 0.0000 0.0425(16) Uani 1 2 d S TU P . .
Zr2 Zr 0.0000 0.0000 0.07351(13) 0.0324(18) Uani 1 4 d S TU P . .
O5 O -0.0289(7) 0.0936(6) 0.1089(4) 0.082(4) Uiso 1 1 d . U . . .
O2 O 0.1751(7) 0.0613(6) -0.0602(4) 0.097(5) Uiso 1 1 d . U . . .
O4 O 0.0396(7) 0.0860(6) 0.0358(4) 0.100(5) Uiso 1 1 d . U . . .
O3 O 0.1662(11) 0.1519(11) 0.0000 0.126(8) Uiso 1 2 d S TU P . .
O1 O 0.2264(12) -0.0165(12) 0.0000 0.149(9) Uiso 1 2 d S TU P . .
C11 C -0.0259(11) 0.4169(8) 0.2219(5) 0.114(8) Uiso 1 1 d D U . . .
C3 C -0.0413(10) 0.1938(14) 0.1706(9) 0.176(10) Uiso 1 1 d D U . . .
H3 H -0.0228 0.1493 0.1754 0.212 Uiso 1 1 calc R . . . .
C12 C -0.02790(19) 0.47210(19) 0.2500 0.093(10) Uiso 1 2 d DS TU P . .
C1 C -0.0590(9) 0.1540(14) 0.0999(8) 0.138(9) Uiso 1 1 d D U . . .
C4 C -0.0458(11) 0.2409(16) 0.2025(8) 0.181(11) Uiso 1 1 d D U . . .
H4 H -0.0322 0.2304 0.2288 0.217 Uiso 1 1 calc R . . . .
C8 C -0.0781(9) 0.3656(12) 0.2204(6) 0.129(8) Uiso 1 1 d D U . . .
C13 C 0.0314(10) 0.4144(11) 0.1903(6) 0.153(10) Uiso 1 1 d D U . . .
H13A H 0.0638 0.4523 0.1947 0.229 Uiso 1 1 calc R . . . .
H13B H 0.0559 0.3705 0.1922 0.229 Uiso 1 1 calc R . . . .
H13C H 0.0109 0.4188 0.1640 0.229 Uiso 1 1 calc R . . . .
C2 C -0.0634(8) 0.2104(15) 0.1317(9) 0.184(10) Uiso 1 1 d D U . . .
C5 C -0.0731(12) 0.3060(14) 0.1905(8) 0.169(9) Uiso 1 1 d D U . . .
C7 C -0.0898(12) 0.2748(17) 0.1181(9) 0.225(12) Uiso 1 1 d D U . . .
H7 H -0.1016 0.2856 0.0916 0.270 Uiso 1 1 calc R . . . .
C9 C -0.1306(12) 0.3694(12) 0.2500 0.143(12) Uiso 1 2 d DS TU P . .
C6 C -0.0956(11) 0.3202(14) 0.1511(9) 0.201(11) Uiso 1 1 d D U . . .
H6 H -0.1162 0.3637 0.1465 0.241 Uiso 1 1 calc R . . . .
C10 C -0.1864(12) 0.3136(12) 0.2500 0.177(15) Uiso 1 2 d DS TU P . .
H10A H -0.1778 0.2811 0.2284 0.266 Uiso 0.5 1 calc R . . A -1
H10B H -0.1856 0.2889 0.2753 0.266 Uiso 0.5 1 calc R . . A -1
H10C H -0.2316 0.3350 0.2463 0.266 Uiso 0.5 1 calc R . . A -1
loop_
_atom_site_aniso_label
_atom_site_aniso_U_11
_atom_site_aniso_U_22
_atom_site_aniso_U_33
_atom_site_aniso_U_23
_atom_site_aniso_U_13
_atom_site_aniso_U_12
Zr1 0.041(3) 0.064(3) 0.022(3) 0.000 0.000 -0.005(3)
Zr2 0.044(3) 0.044(3) 0.010(3) 0.000 0.000 0.000
loop_
_atom_type_symbol
_atom_type_description
_atom_type_scat_dispersion_real
_atom_type_scat_dispersion_imag
_atom_type_scat_source
C C 0.0030 0.0010 'International Tables Vol C Tables 4.2.6.8 and 6.1.1.4'
H H 0.0000 0.0000 'International Tables Vol C Tables 4.2.6.8 and 6.1.1.4'
O O 0.0110 0.0060 'International Tables Vol C Tables 4.2.6.8 and 6.1.1.4'
Zr Zr -11.6050 0.5510 'International Tables Vol C Tables 4.2.6.8 and 6.1.1.4'
loop_
_geom_angle_atom_site_label_1
_geom_angle_atom_site_label_2
_geom_angle_atom_site_label_3
_geom_angle
_geom_angle_site_symmetry_1
_geom_angle_site_symmetry_3
Zr1 Zr1 Zr1 90.0 3 11
Zr2 Zr1 Zr1 59.51(4) . 3
Zr2 Zr1 Zr1 59.50(4) . 11
Zr2 Zr1 Zr1 59.50(4) 9 11
Zr2 Zr1 Zr1 59.50(4) 9 3
Zr2 Zr1 Zr2 88.28(13) 9 .
O2 Zr1 Zr1 109.7(4) 10 3
O2 Zr1 Zr1 109.7(4) . 3
O2 Zr1 Zr1 107.8(4) 10 11
O2 Zr1 Zr1 107.8(4) . 11
O2 Zr1 Zr2 161.1(4) . .
O2 Zr1 Zr2 161.1(4) 10 9
O2 Zr1 Zr2 72.9(4) 10 .
O2 Zr1 Zr2 72.9(4) . 9
O2 Zr1 O2 125.8(7) 10 .
O2 Zr1 O1 72.4(4) 10 .
O2 Zr1 O1 72.4(4) . .
O4 Zr1 Zr1 90.7(3) 11 3
O4 Zr1 Zr1 90.7(3) . 11
O4 Zr1 Zr1 33.7(4) 10 3
O4 Zr1 Zr1 33.8(3) 4 11
O4 Zr1 Zr1 90.7(3) 4 3
O4 Zr1 Zr1 33.7(4) . 3
O4 Zr1 Zr1 90.7(3) 10 11
O4 Zr1 Zr1 33.8(3) 11 11
O4 Zr1 Zr2 36.6(4) 4 .
O4 Zr1 Zr2 88.4(4) 4 9
O4 Zr1 Zr2 88.4(4) 11 .
O4 Zr1 Zr2 36.6(4) 11 9
O4 Zr1 Zr2 88.3(4) 10 .
O4 Zr1 Zr2 88.3(4) . 9
O4 Zr1 Zr2 36.7(3) . .
O4 Zr1 Zr2 36.7(3) 10 9
O4 Zr1 O2 138.2(5) 11 10
O4 Zr1 O2 77.5(5) . 10
O4 Zr1 O2 140.5(5) . .
O4 Zr1 O2 75.7(5) 11 .
O4 Zr1 O2 140.5(5) 10 10
O4 Zr1 O2 75.7(5) 4 10
O4 Zr1 O2 138.2(5) 4 .
O4 Zr1 O2 77.5(5) 10 .
O4 Zr1 O4 109.3(7) 11 .
O4 Zr1 O4 73.2(7) 11 10
O4 Zr1 O4 73.2(7) 4 .
O4 Zr1 O4 67.4(7) . 10
O4 Zr1 O4 109.3(7) 4 10
O4 Zr1 O4 67.7(7) 11 4
O4 Zr1 O3 86.6(6) 10 .
O4 Zr1 O3 86.6(6) . .
O4 Zr1 O3 146.1(4) 11 .
O4 Zr1 O3 146.1(4) 4 .
O4 Zr1 O1 84.1(6) 4 .
O4 Zr1 O1 145.9(4) 10 .
O4 Zr1 O1 84.1(6) 11 .
O4 Zr1 O1 145.9(4) . .
O3 Zr1 Zr1 176.8(6) . 11
O3 Zr1 Zr1 86.8(6) . 3
O3 Zr1 Zr2 118.6(4) . 9
O3 Zr1 Zr2 118.6(4) . .
O3 Zr1 O2 73.4(4) . .
O3 Zr1 O2 73.4(4) . 10
O3 Zr1 O1 99.5(8) . .
O1 Zr1 Zr1 173.7(6) . 3
O1 Zr1 Zr1 83.7(6) . 11
O1 Zr1 Zr2 116.7(4) . 9
O1 Zr1 Zr2 116.7(4) . .
Zr1 Zr2 Zr1 91.72(13) 11 3
Zr1 Zr2 Zr1 60.99(7) 9 11
Zr1 Zr2 Zr1 91.72(13) 9 .
Zr1 Zr2 Zr1 60.99(7) 11 .
Zr1 Zr2 Zr1 60.99(7) 9 3
Zr1 Zr2 Zr1 60.99(7) 3 .
O5 Zr2 Zr1 76.3(3) 2 11
O5 Zr2 Zr1 76.3(3) 4 .
O5 Zr2 Zr1 76.3(3) . 3
O5 Zr2 Zr1 109.8(3) 4 11
O5 Zr2 Zr1 167.8(4) 2 3
O5 Zr2 Zr1 109.8(3) . .
O5 Zr2 Zr1 113.7(3) . 9
O5 Zr2 Zr1 167.8(4) . 11
O5 Zr2 Zr1 109.8(3) 3 3
O5 Zr2 Zr1 167.8(4) 3 .
O5 Zr2 Zr1 113.7(3) 3 11
O5 Zr2 Zr1 76.3(3) 3 9
O5 Zr2 Zr1 113.7(3) 4 3
O5 Zr2 Zr1 167.8(4) 4 9
O5 Zr2 Zr1 109.8(3) 2 9
O5 Zr2 Zr1 113.7(3) 2 .
O5 Zr2 O5 115.7(7) 4 3
O5 Zr2 O5 73.6(3) 3 .
O5 Zr2 O5 115.7(7) 2 .
O5 Zr2 O5 73.5(3) 3 2
O5 Zr2 O5 73.6(3) 4 .
O5 Zr2 O5 73.5(3) 4 2
O4 Zr2 Zr1 91.2(4) . 11
O4 Zr2 Zr1 91.2(4) 3 .
O4 Zr2 Zr1 35.4(4) 2 11
O4 Zr2 Zr1 91.1(4) 2 .
O4 Zr2 Zr1 35.6(3) . .
O4 Zr2 Zr1 35.6(3) 4 11
O4 Zr2 Zr1 35.6(3) 2 9
O4 Zr2 Zr1 35.4(4) 3 9
O4 Zr2 Zr1 91.1(4) . 9
O4 Zr2 Zr1 35.4(4) 4 .
O4 Zr2 Zr1 35.4(4) . 3
O4 Zr2 Zr1 91.2(4) 2 3
O4 Zr2 Zr1 35.6(3) 3 3
O4 Zr2 Zr1 91.1(4) 3 11
O4 Zr2 Zr1 91.2(4) 4 9
O4 Zr2 Zr1 91.1(4) 4 3
O4 Zr2 O5 80.7(5) 4 2
O4 Zr2 O5 140.2(5) . 3
O4 Zr2 O5 145.2(5) 3 4
O4 Zr2 O5 145.2(5) 2 .
O4 Zr2 O5 140.2(5) 2 4
O4 Zr2 O5 80.7(5) 2 3
O4 Zr2 O5 77.6(4) . .
O4 Zr2 O5 145.2(5) . 2
O4 Zr2 O5 80.7(5) . 4
O4 Zr2 O5 140.2(5) 4 .
O4 Zr2 O5 77.6(4) 2 2
O4 Zr2 O5 140.2(5) 3 2
O4 Zr2 O5 77.6(4) 4 4
O4 Zr2 O5 145.2(5) 4 3
O4 Zr2 O5 80.7(5) 3 .
O4 Zr2 O5 77.6(4) 3 3
O4 Zr2 O4 71.1(3) 2 3
O4 Zr2 O4 71.1(3) 4 .
O4 Zr2 O4 71.1(3) 2 4
O4 Zr2 O4 71.1(3) 3 .
O4 Zr2 O4 110.5(7) 2 .
O4 Zr2 O4 110.5(7) 3 4
C1 O5 Zr2 133.9(15) . .
C1 O2 Zr1 136.0(15) 11 .
Zr1 O4 Zr1 112.4(6) 3 .
Zr1 O4 Zr2 107.7(5) . .
Zr1 O4 Zr2 108.0(6) 3 .
C12 C11 C13 120.2(14) . .
C8 C11 C12 121.9(17) . .
C8 C11 C13 117.8(13) . .
C4 C3 H3 118.6 . .
C4 C3 C2 123(3) . .
C2 C3 H3 118.6 . .
C11 C12 C11 118.7(17) . 7_455
C11 C12 C12 120.6(8) . 2_565
C11 C12 C12 120.6(8) 7_455 2_565
O5 C1 O2 119(2) . 12
O5 C1 C2 119(3) . .
O2 C1 C2 117(2) 12 .
C3 C4 H4 124.0 . .
C3 C4 C5 112(3) . .
C5 C4 H4 124.0 . .
C11 C8 C5 120.4(14) . .
C11 C8 C9 117(3) . .
C9 C8 C5 122.8(18) . .
C11 C13 H13A 109.5 . .
C11 C13 H13B 109.5 . .
C11 C13 H13C 109.5 . .
H13A C13 H13B 109.5 . .
H13A C13 H13C 109.5 . .
H13B C13 H13C 109.5 . .
C3 C2 C1 118(3) . .
C3 C2 C7 127(3) . .
C7 C2 C1 115(3) . .
C4 C5 C8 120(3) . .
C6 C5 C4 123(2) . .
C6 C5 C8 117(3) . .
C2 C7 H7 125.7 . .
C6 C7 C2 109(3) . .
C6 C7 H7 125.7 . .
C8 C9 C8 124(3) 7_455 .
C8 C9 C10 117.9(16) . .
C8 C9 C10 117.9(16) 7_455 .
C5 C6 H6 117.0 . .
C7 C6 C5 126(3) . .
C7 C6 H6 117.0 . .
C9 C10 H10A 109.5 . .
C9 C10 H10B 109.5 . .
C9 C10 H10C 109.5 . .
H10A C10 H10B 109.5 . .
H10A C10 H10C 109.5 . .
H10B C10 H10C 109.5 . .
loop_
_geom_bond_atom_site_label_1
_geom_bond_atom_site_label_2
_geom_bond_distance
_geom_bond_site_symmetry_2
Zr1 Zr1 3.552(5) 11
Zr1 Zr1 3.552(5) 3
Zr1 Zr2 3.500(4) 9
Zr1 Zr2 3.500(4) .
Zr1 O2 2.243(14) .
Zr1 O2 2.243(14) 10
Zr1 O4 2.133(14) 4
Zr1 O4 2.133(14) 11
Zr1 O4 2.140(13) .
Zr1 O4 2.140(13) 10
Zr1 O3 2.18(2) .
Zr1 O1 2.28(2) .
Zr2 Zr1 3.500(4) 9
Zr2 Zr1 3.500(4) 11
Zr2 Zr1 3.500(4) 3
Zr2 O5 2.203(13) .
Zr2 O5 2.203(13) 3
Zr2 O5 2.203(13) 2
Zr2 O5 2.203(13) 4
Zr2 O4 2.193(13) 4
Zr2 O4 2.193(13) 3
Zr2 O4 2.193(13) .
Zr2 O4 2.193(13) 2
O5 C1 1.32(3) .
O2 C1 1.37(3) 11
O4 Zr1 2.133(14) 3
C11 C12 1.403(9) .
C11 C8 1.394(9) .
C11 C13 1.514(7) .
C3 H3 0.9300 .
C3 C4 1.390(10) .
C3 C2 1.393(10) .
C12 C11 1.403(9) 7_455
C12 C12 1.502(10) 2_565
C1 O2 1.37(3) 12
C1 C2 1.508(10) .
C4 H4 0.9300 .
C4 C5 1.402(10) .
C8 C5 1.511(7) .
C8 C9 1.403(9) .
C13 H13A 0.9600 .
C13 H13B 0.9600 .
C13 H13C 0.9600 .
C2 C7 1.400(10) .
C5 C6 1.401(10) .
C7 H7 0.9300 .
C7 C6 1.397(10) .
C9 C8 1.403(9) 7_455
C9 C10 1.502(10) .
C6 H6 0.9300 .
C10 H10A 0.9600 .
C10 H10B 0.9600 .
C10 H10C 0.9600 .
loop_
_geom_torsion_atom_site_label_1
_geom_torsion_atom_site_label_2
_geom_torsion_atom_site_label_3
_geom_torsion_atom_site_label_4
_geom_torsion
_geom_torsion_site_symmetry_1
_geom_torsion_site_symmetry_4
Zr2 O5 C1 O2 -18(2) . 12
Zr2 O5 C1 C2 -173.1(7) . .
O5 C1 C2 C3 -6.0(12) . .
O5 C1 C2 C7 173.9(14) . .
O2 C1 C2 C3 -161.8(15) 12 .
O2 C1 C2 C7 18.1(14) 12 .
C11 C8 C5 C4 97(3) . .
C11 C8 C5 C6 -82(3) . .
C11 C8 C9 C8 1.8(15) . 7_455
C11 C8 C9 C10 -178.2(15) . .
C3 C4 C5 C8 -176.5(15) . .
C3 C4 C5 C6 2(3) . .
C3 C2 C7 C6 -4.3(18) . .
C12 C11 C8 C5 -178(2) . .
C12 C11 C8 C9 -4(3) . .
C1 C2 C7 C6 175.9(11) . .
C4 C3 C2 C1 -177.3(12) . .
C4 C3 C2 C7 3(2) . .
C4 C5 C6 C7 -5(3) . .
C8 C11 C12 C11 2.0(16) . 7_455
C8 C11 C12 C12 -178.0(16) . 2_565
C8 C5 C6 C7 174.1(17) . .
C13 C11 C12 C11 178(2) . 7_455
C13 C11 C12 C12 -2(2) . 2_565
C13 C11 C8 C5 6(4) . .
C13 C11 C8 C9 -179.8(18) . .
C2 C3 C4 C5 -1(2) . .
C2 C7 C6 C5 5(3) . .
C5 C8 C9 C8 176(3) . 7_455
C5 C8 C9 C10 -4(3) . .
C9 C8 C5 C4 -77(3) . .
C9 C8 C5 C6 104(2) . .
