#------------------------------------------------------------------------------
#$Date: 2019-11-25 22:30:06 +0200 (Mon, 25 Nov 2019) $
#$Revision: 241967 $
#$URL: file:///home/coder/svn-repositories/cod/cif/4/13/18/4131838.cif $
#------------------------------------------------------------------------------
#
# This file is available in the Crystallography Open Database (COD),
# http://www.crystallography.net/
#
# All data on this site have been placed in the public domain by the
# contributors.
#
data_4131838
loop_
_publ_author_name
'Yan, Yong'
'O'Connor, Alice E'
'Kanthasamy, Gopikkaa'
'Atkinson, George'
'Allan, David R.'
'Blake, Alexander J.'
'Schr\"oder, Martin'
_publ_section_title
;
 Unusual and Tunable Negative Linear Compressibility in the Metal-Organic
 Framework MFM-133(M) (M = Zr, Hf).
;
_journal_issue                   11
_journal_name_full               'Journal of the American Chemical Society'
_journal_page_first              3952
_journal_page_last               3958
_journal_paper_doi               10.1021/jacs.7b11747
_journal_volume                  140
_journal_year                    2018
_chemical_formula_moiety         'C88 H72 Hf6 O32'
_chemical_formula_sum            'C88 H72 Hf6 O32'
_chemical_formula_weight         1372.15
_space_group_crystal_system      tetragonal
_space_group_IT_number           128
_space_group_name_Hall           '-P 4 2n'
_space_group_name_H-M_alt        'P 4/m n c'
_atom_sites_solution_hydrogens   geom
_audit_creation_date             2017-03-19
_audit_creation_method
;
Olex2 1.2
(compiled 2015.09.30 svn.r3233 for OlexSys, GUI svn.r5103)
;
_cell_angle_alpha                90
_cell_angle_beta                 90
_cell_angle_gamma                90
_cell_formula_units_Z            4
_cell_length_a                   19.3785(10)
_cell_length_b                   19.3785(10)
_cell_length_c                   32.523(2)
_cell_measurement_reflns_used    3564
_cell_measurement_temperature    293(2)
_cell_measurement_theta_max      22.3060
_cell_measurement_theta_min      1.8980
_cell_volume                     12213.2(12)
_computing_cell_refinement       'CrysAlisPro 1.171.38.41 (Rigaku OD, 2015)'
_computing_data_collection       'CrysAlisPro 1.171.38.41 (Rigaku OD, 2015)'
_computing_data_reduction        'CrysAlisPro 1.171.38.41 (Rigaku OD, 2015)'
_computing_molecular_graphics    'Olex2 (Dolomanov et al., 2009)'
_computing_publication_material  'Olex2 (Dolomanov et al., 2009)'
_computing_structure_refinement  'ShelXL (Sheldrick, 2015)'
_diffrn_ambient_temperature      293(2)
_diffrn_detector                 'CCD plate'
_diffrn_measured_fraction_theta_full 0.757
_diffrn_measured_fraction_theta_max 0.757
_diffrn_measurement_details
;
List of Runs (angles in degrees, time in seconds):

  # Type    Start    End  Width  t~exp~   \w     \q     \k     \f   Frames
--------------------------------------------------------------------------
  1  \w   -105.00 -74.00   0.20    0.20    --   20.00  70.00 155.77  155
  2  \w   -105.00 -74.00   0.20    0.20    --   20.00  70.00 -24.23  155
  3  \w   -105.00 -66.00   0.20    0.20    --  -20.00 -70.00-155.77  195
  4  \w   -106.00 -66.00   0.20    0.20    --  -20.00 -70.00  24.23  200
  5  \w   -150.00 -94.00   0.20    0.20    --  -20.00  70.00 -24.23  280
  6  \w   -150.00 -94.00   0.20    0.20    --  -20.00  70.00 155.77  280
  7  \w    -96.00 -30.00   0.20    0.20    --   20.00 -70.00  24.23  330
  8  \w    -96.00 -30.00   0.20    0.20    --   20.00 -70.00-155.77  330
;
_diffrn_measurement_device       'abstract diffractometer'
_diffrn_measurement_device_type
'dectris-CrysAlisPro-abstract goniometer imported dectris images'
_diffrn_measurement_method       '\w scans'
_diffrn_orient_matrix_type
'CrysAlisPro convention (1999,Acta A55,543-557)'
_diffrn_orient_matrix_UB_11      0.0324185000
_diffrn_orient_matrix_UB_12      -0.0063305000
_diffrn_orient_matrix_UB_13      0.0078729000
_diffrn_orient_matrix_UB_21      -0.0126044000
_diffrn_orient_matrix_UB_22      0.0043595000
_diffrn_orient_matrix_UB_23      0.0196294000
_diffrn_orient_matrix_UB_31      -0.0075396000
_diffrn_orient_matrix_UB_32      -0.0346812000
_diffrn_orient_matrix_UB_33      0.0010112000
_diffrn_radiation_monochromator  synchrotron
_diffrn_radiation_probe          x-ray
_diffrn_radiation_wavelength     0.6889
_diffrn_reflns_av_R_equivalents  0.173
_diffrn_reflns_av_unetI/netI     0.125
_diffrn_reflns_Laue_measured_fraction_full 0.757
_diffrn_reflns_Laue_measured_fraction_max 0.757
_diffrn_reflns_limit_h_max       13
_diffrn_reflns_limit_h_min       -13
_diffrn_reflns_limit_k_max       21
_diffrn_reflns_limit_k_min       -21
_diffrn_reflns_limit_l_max       32
_diffrn_reflns_limit_l_min       -32
_diffrn_reflns_number            24474
_diffrn_reflns_point_group_measured_fraction_full 0.757
_diffrn_reflns_point_group_measured_fraction_max 0.757
_diffrn_reflns_theta_full        22.735
_diffrn_reflns_theta_max         22.735
_diffrn_reflns_theta_min         2.037
_diffrn_source                   synchrotron
_exptl_absorpt_coefficient_mu    2.337
_exptl_absorpt_correction_T_max  1.00000
_exptl_absorpt_correction_T_min  0.26152
_exptl_absorpt_correction_type   multi-scan
_exptl_absorpt_process_details
;
CrysAlisPro 1.171.38.41 (Rigaku Oxford Diffraction, 2015)
Empirical absorption correction using spherical harmonics,
 implemented in SCALE3 ABSPACK scaling algorithm.
;
_exptl_crystal_density_diffrn    0.746
_exptl_crystal_description       tablet
_exptl_crystal_F_000             2592
_refine_diff_density_max         2.83
_refine_diff_density_min         -2.02
_refine_diff_density_rms         0.25
_refine_ls_extinction_method     none
_refine_ls_goodness_of_fit_ref   1.167
_refine_ls_hydrogen_treatment    constr
_refine_ls_matrix_type           full
_refine_ls_number_parameters     73
_refine_ls_number_reflns         3509
_refine_ls_number_restraints     73
_refine_ls_restrained_S_all      2.979
_refine_ls_R_factor_all          0.1566
_refine_ls_R_factor_gt           0.1084
_refine_ls_shift/su_max          0.002
_refine_ls_shift/su_mean         0.000
_refine_ls_structure_factor_coef Fsqd
_refine_ls_weighting_details
'w=1/[\s^2^(Fo^2^)+(0.2000P)^2^] where P=(Fo^2^+2Fc^2^)/3'
_refine_ls_weighting_scheme      calc
_refine_ls_wR_factor_gt          0.295
_refine_ls_wR_factor_ref         0.343
_reflns_Friedel_coverage         0.000
_reflns_number_gt                2167
_reflns_number_total             3509
_reflns_threshold_expression     'I > 2\s(I)'
_cod_data_source_file            HfMOF_All.cif
_cod_data_source_block           HfMOF_11.9kbar
_cod_original_cell_volume        12213.3(16)
_cod_database_code               4131838
_chemical_oxdiff_formula         'C88 H72 Hf6 O32'
_shelx_space_group_comment
;
The symmetry employed for this shelxl refinement is uniquely defined
by the following loop, which should always be used as a source of
symmetry information in preference to the above space-group names.
They are only intended as comments.
;
_reflns_odcompleteness_completeness 74.48
_reflns_odcompleteness_iscentric 1
_reflns_odcompleteness_theta     22.88
_olex2_refinement_description
;
1. Fixed Uiso
 At 1.2 times of:
  All C(H) groups
 At 1.5 times of:
  All C(H,H,H) groups
2. Restrained distances
 O13-C12
 1.41 with sigma of 0.01
 C12-O1
 1.41 with sigma of 0.01
 C6-C12 = C9-C3
 1.41 with sigma of 0.02
 C6-C12 = C9-C3
 1.41 with sigma of 0.01
 C9-C3 = C6-C12
 1.41 with sigma of 0.01
 Hf1-O13 = Hf2-O1
 2.11 with sigma of 0.02
 O1-C12 = O13-C12
 1.41 with sigma of 0.02
 C9-C15 = C9-C10
 1.41 with sigma of 0.02
 C10-C11 = C16-C17
 1.45 with sigma of 0.005
 C4-C5 = C7-C8
 1.39 with sigma of 0.01
 C6-C12 \\sim C9-C3
 with sigma of 0.01
 C9-C3 \\sim C6-C12
 with sigma of 0.01
 C11-C10 \\sim C16-C15 \\sim C17-C15
 with sigma of 0.01
 C9-C17 \\sim C15-C17 \\sim C9-C11 \\sim C11-C9D
 with sigma of 0.005
 C3-C7 \\sim C8-C6 \\sim C7-C5 \\sim C6-C4 \\sim C5-C3 \\sim C4-C8
 with sigma of 0.01
3. Restrained planarity
 C12, C6, C5, C4, C3, C9, C8, C7
 with sigma of 0.01
 C9, C3, C8, C7, C6, C12, C5, C4
 with sigma of 0.01
 C9, C3, C8, C4
 with sigma of 0.01
 C17, C15, C16, C10, C9, C11
 with sigma of 0.01
4. Rigid bond restraints
 C6, Hf2, Hf1, C8, C3, C5, C4, C7, C9, C10, C11, C12, C15, C16, C17, O1, O4,
 O13, O19, O20
 with sigma for 1-2 distances of 0.01 and sigma for 1-3 distances of 0.01
5. Uiso/Uaniso restraints and constraints
C6 \\sim Hf2 \\sim Hf1 \\sim C8 \\sim C3 \\sim C5 \\sim C4 \\sim C7 \\sim C9
\\sim C10 \\sim C11 \\sim C12 \\sim C15 \\sim C16 \\sim C17 \\sim O1 \\sim O4
\\sim O13 \\sim O19 \\sim O20: within 1.7A with sigma of 0.04 and sigma for
terminal atoms of 0.08
6. Others
 Fixed Sof: C15(0.5) C15D(0.00001) C9D(0.00001) C10(0.5)
 Fixed Uiso: C15D(0.05) C9D(0.05)
7.a Aromatic/amide H refined with riding coordinates:
 C4(H4), C5(H5), C7(H7), C8(H8)
7.b Fitted hexagon refined as free rotating group:
 C9(C16,C15,C15D,C9D,C10)
7.c Idealised Me refined as rotating group:
 C17(H,HA,HB)
;
_shelx_res_file
;
    gkme_11.5_.res created by SHELXL-2014/7

TITL GKME_11 in P4/mnc
REM P4/mnc (#128 in standard setting)
CELL 0.6889 19.378492 19.378492 32.52308 90 90 90
ZERR 4 0.001041 0.001041 0.002286 0 0 0
LATT 1
SYMM -X,-Y,+Z
SYMM -Y,+X,+Z
SYMM +Y,-X,+Z
SYMM 0.5-X,0.5+Y,0.5-Z
SYMM 0.5+X,0.5-Y,0.5-Z
SYMM 0.5+Y,0.5+X,0.5-Z
SYMM 0.5-Y,0.5-X,0.5-Z
SFAC C H Hf O
DISP C 0.003 0.001 10.848
DISP H -0 0 0.623
DISP Hf -0.293 6.108 23452.874
DISP O 0.011 0.006 30.192
UNIT 184 112 12 64
DFIX 1.41 0.01 O13 C12
DFIX 1.41 0.01 C12 O1
DFIX 1.41 C6 C12 C9 C3
DFIX 1.41 0.01 C6 C12 C9 C3
DFIX 1.41 0.01 C9 C3 C6 C12
DFIX 2.11 Hf1 O13 Hf2 O1
DFIX 1.41 O1 C12 O13 C12
DFIX 1.41 C9 C15 C9 C10
DFIX 1.45 0.005 C10 C11 C16 C17
DFIX 1.39 0.01 C4 C5 C7 C8
SADI 0.01 C6 C12 C9 C3
SADI 0.01 C9 C3 C6 C12
SADI 0.01 C11 C10 C16 C15 C17 C15
SADI 0.005 C9 C17 C15 C17 C9 C11 C11 C9D
SADI 0.01 C3 C7 C8 C6 C7 C5 C6 C4 C5 C3 C4 C8
FLAT 0.01 C12 C6 C5 C4 C3 C9 C8 C7
FLAT 0.01 C9 C3 C8 C7 C6 C12 C5 C4
FLAT 0.01 C9 C3 C8 C4
FLAT 0.01 C17 C15 C16 C10 C9 C11
DELU C6 Hf2 Hf1 C8 C3 C5 C4 C7 C9 C10 C11 C12 C15 C16 C17 O1 O4 O13 O19 O20
SIMU 0.04 0.08 1.7 C6 Hf2 Hf1 C8 C3 C5 C4 C7 C9 C10 C11 C12 C15 C16 C17 O1 =
 O4 O13 O19 O20

L.S. 6
PLAN  9
MPLA 6 C3 C4 C5 C6 C7 C8
MPLA 4 C9 C10 C15 C16
CONN 0 C9D
CONN 0 C15D
CONN 1 0 C17
FREE C17 C15D
FREE C17 C15
BIND Hf1 Hf2
BIND C16 C17
BOND
MORE -1
BOND $H
CONF
fmap 2
acta 52
OMIT -4 52
OMIT 0 2 8
OMIT 1 2 6
OMIT 1 5 2
OMIT 2 3 1
OMIT 1 2 14
OMIT 3 5 2
OMIT 2 3 0
OMIT 1 3 7
OMIT 0 5 5
OMIT 2 4 0
OMIT 1 2 0
OMIT 1 2 2
OMIT 1 2 4
OMIT 0 3 3
OMIT 1 6 3
OMIT 0 3 9
REM <olex2.extras>
REM <HklSrc "%.\\GKME_11.5_.hkl">
REM </olex2.extras>

WGHT    0.200000
FVAR       0.26493
HF1   3   -0.042017    0.121745    0.000000    10.50000    0.07611    0.05739 =
         0.03902    0.00000    0.00000    0.00815
HF2   3    0.000000    0.000000    0.075378    10.25000    0.05626    0.05626 =
         0.03511    0.00000    0.00000    0.00000
O1    4   -0.028186    0.089514    0.111487    11.00000    0.06056
O4    4   -0.080399    0.038012    0.037300    11.00000    0.07508
O13   4   -0.055579    0.173361    0.059260    11.00000    0.09136
O19   4   -0.145147    0.163166    0.000000    10.50000    0.08000
O20   4    0.016381    0.218014    0.000000    10.50000    0.08630
C3    1   -0.070554    0.311127    0.191827    11.00000    0.07332
C4    1   -0.087892    0.325260    0.149741    11.00000    0.11022
SPEC 0.3
AFIX  43
H4    2   -0.103210    0.368883    0.142075    11.00000   -1.20000
AFIX   0
C5    1   -0.081637    0.273461    0.120650    11.00000    0.09967
AFIX  43
H5    2   -0.092926    0.283086    0.093455    11.00000   -1.20000
AFIX   0
C6    1   -0.058874    0.207082    0.130850    11.00000    0.06993
C7    1   -0.041789    0.193117    0.172844    11.00000    0.08056
AFIX  43
H7    2   -0.026641    0.149466    0.180573    11.00000   -1.20000
AFIX   0
C8    1   -0.047967    0.245154    0.201996    11.00000    0.09873
AFIX  43
H8    2   -0.036636    0.235575    0.229190    11.00000   -1.20000
AFIX  66
C9    1   -0.076748    0.363735    0.221641    11.00000    0.06091
C16   1   -0.024531    0.412911    0.221908    11.00000    0.06797
C15   1   -0.024761    0.471835    0.250659    10.50000    0.06678
C15D  1   -0.077339    0.468092    0.280293    10.00001   10.05000
C9D   1   -0.129556    0.418917    0.280026    10.00001   10.05000
C10   1   -0.129236    0.369612    0.250239    10.50000    0.06505
AFIX   0
C11   1   -0.183495    0.316505    0.250000    10.50000    0.08259
C12   1   -0.052815    0.154832    0.100791    11.00000    0.09429
C17   1    0.030869    0.416368    0.197540    11.00000    0.14054
AFIX 137
H     2    0.066710    0.387458    0.208425    11.00000   -1.50000
HA    2    0.046909    0.463190    0.196257    11.00000   -1.50000
HB    2    0.018792    0.400942    0.170429    11.00000   -1.50000
AFIX   0
HKLF 4

REM  GKME_11 in P4/mnc
REM R1 =  0.1084 for    2167 Fo > 4sig(Fo)  and  0.1566 for all    3509 data
REM     73 parameters refined using     73 restraints

END

WGHT      0.2000      0.0000

REM Highest difference peak  2.833,  deepest hole -2.024,  1-sigma level  0.249
Q1    1   0.0000  0.0000  0.1967  10.25000  0.05    1.87
Q2    1  -0.0728  0.1639  0.0699  11.00000  0.05    1.61
Q3    1  -0.0072  0.2895  0.3229  11.00000  0.05    1.36
Q4    1  -0.2016  0.4790  0.1730  11.00000  0.05    1.29
Q5    1  -0.2175  0.1227  0.0892  11.00000  0.05    1.21
Q6    1  -0.0517  0.0338  0.0195  11.00000  0.05    1.19
Q7    1  -0.1058  0.0552  0.0442  11.00000  0.05    1.18
Q8    1  -0.0393  0.1211  0.1011  11.00000  0.05    1.18
Q9    1  -0.1210  0.0562  0.0000  10.50000  0.05    1.15
;
_shelx_res_checksum              56083
_shelx_hkl_file
;
   0   0   4 19197.4 3058.83   6
   0   0  -4 18037.0 3059.44   4
   0   0  -5 9.44113 15.4332   4
   0   0   5-2.78534 11.6257   7
   0   0   6 2470.06 397.364   7
   0   0  -6 2745.88 397.795   8
   0   0  -6 1984.94 397.468   4
   0   0   7 3.96368 19.6003   7
   0   0  -7-3.86102 20.0400   8
   0   0   8 5943.13 978.600   7
   0   0  -9-4.80301 26.0672   8
   0   0   9-5.18336 27.5294   7
   0   0  10 23502.3 3853.07   7
   0   0 -11-11.5349 33.0611   8
   0   0  11-12.7882 36.1755   7
   0   0  12 20158.7 3308.76   7
   0   0 -13 6.77153 42.9493   8
   0   0  14 22592.8 3707.74   7
   0   0  15-8.78456 60.3996   7
   0   0  16 15226.0 3031.66   7
   0   0 -16 22458.2 3034.54   8
   0   0  17-9.91922 67.2838   7
   0   0 -17 18.3385 63.5828   8
   0   0  18 6996.82 979.995   7
   0   0 -18 5003.19 974.886   8
   0   0  19-33.5902 79.3770   7
   0   0 -19-10.8683 78.9365   8
   0   0  20 5150.91 861.445   7
   0   0  21-24.9790 84.0449   7
   0  -1  -2 4.43357 8.56392   8
   0   1  -2-1.92053 7.21078   4
   0  -1  -2 1.41573 5.69357   5
   0  -1   2 3.54482 6.14635   6
   0   1   2-4.30201 7.58605   3
   0  -1   3 21344.0 3067.19   6
   0   1  -3 16000.9 3066.90   4
   0  -1   3 19061.9 3066.95   7
   0   1  -4-3.22956 14.8484   4
   0   1   4 2.77224 11.0023   3
   0  -1   4 5.34003 10.1697   6
  -1   0   4 1.46148 6.45118   7
   0  -1  -4 6.23171 9.26560   5
   1   0  -4-5.21536 7.27009   4
   0  -1  -4-11.8644 13.9019   8
   0  -1   4 2.87277 12.5439   7
  -1   0   4-6.79207 11.5693   6
   0   1  -5 3048.66 419.386   4
   1   0  -5 2271.14 415.151   4
   0   1   5 2795.11 417.696   3
   1   0  -5 2977.72 415.486   5
   1   0  -5 1819.05 415.637   8
   0  -1  -5 2783.25 418.220   8
   1   0  -6-3.12726 20.2390   8
   0   1   6-7.38196 16.9764   3
  -1   0   6-12.9243 14.7049   3
   1   0  -6 2.35682 14.9514   4
   0  -1   6 36.1773 19.8833   7
   0  -1  -6 7.84330 19.2336   8
   0  -1   6-3.63362 13.8478   6
  -1   0   6-4.16121 11.1371   7
  -1   0   6-8.66890 13.8049   6
   1   0  -6-1.82532 10.4560   5
   0  -1  -6-12.7092 15.8518   5
   0   1  -6-13.6738 22.5441   4
   1   0  -7 1835.39 304.632   8
   0   1   7 2006.22 305.495   3
   0   1  -7 1908.04 308.122   4
   0  -1  -7 2199.27 306.616   8
   1   0  -7 1603.60 302.387   5
  -1   0   7 1902.30 304.476   6
   1   0  -7 1698.63 303.537   4
   1   0  -8 8.39139 26.8861   8
   0   1  -8 17.8703 32.5484   4
   0   1   8-3.88958 21.1127   7
   0  -1   8 5.19171 24.7987   7
   0   1   8-9.39173 23.0355   3
  -1   0   8 14.6753 21.6603   6
   0  -1   8 9.23004 23.0259   6
   0  -1  -8 4.46313 24.2222   5
   1   0  -8-3.89446 26.1864   4
  -1   0   8 2.95369 17.8536   7
   0  -1  -8 4.96696 27.3309   8
  -1   0   8 3.46966 18.9684   3
   1   0  -8 8.50004 17.1275   5
   0   1   9 10742.3 1641.28   3
   0   1  -9 10781.0 1643.34   4
   1   0  -9 9716.28 1638.19   5
  -1   0   9 10204.7 1638.35   7
  -1   0   9 10766.6 1639.35   3
   0  -1  -9 10441.6 1641.44   8
   0  -1  -9 7912.80 1639.32   5
   0   1 -10-7.40288 45.7528   4
   0  -1 -10 11.5733 32.9576   5
  -1   0  10 17.6547 26.4207   6
  -1   0  10 4.58359 27.4325   3
   0   1  10 5.09759 28.2962   7
   1   0 -10 20.2747 24.7025   5
   0  -1 -10 60.6797 35.6415   8
   1   0 -10 5.25118 37.9961   8
   0   1  10-6.04862 29.4620   3
   0  -1  10 6.38534 35.4146   7
  -1   0  10-7.87785 22.4783   7
   1   0 -10 52.2990 40.6835   4
   1   0 -11 17725.9 2564.17   4
  -1   0  11 12145.1 2558.52   7
   1   0 -11 17642.1 2562.76   8
   0  -1 -11 16711.2 2563.67   8
   0   1  11 17574.7 2564.02   3
  -1   0  12 21.2594 28.8326   6
   1   0 -12-22.4697 52.1574   4
   1   0 -12-13.1811 51.2679   8
  -1   0  12-14.8067 31.1338   7
   0   1  12 6.27896 38.3497   7
   1   0 -13 13786.3 2348.82   8
   0   1  13 15146.2 2348.64   7
   1   0 -13 13863.3 2350.42   4
   1   0 -14-64.1917 77.5050   8
   0  -1 -14-17.0558 59.1268   8
   0  -1  14-26.4757 57.0765   7
   0  -1  15 15564.0 2415.83   7
   0  -1 -15 13891.8 2414.24   8
  -1   0  16-6.90600 46.3413   7
   0  -1 -16 20.0793 70.8922   8
   0   1  16-33.9642 57.4429   7
   0  -1  16-70.0314 67.9508   7
   1   0 -17 8718.54 1304.18   8
   0   1  17 9821.31 1302.64   7
   0  -1  17 6133.05 1298.87   7
   0  -1 -17 7295.47 1302.54   8
   0   1  18-28.7558 70.0890   7
  -1   0  18-15.6845 55.7671   7
   1   0 -18 46.6272 95.8117   8
   0  -1 -18 58.7064 91.0218   8
   0  -1  18-22.7231 73.1454   7
   0  -1 -19 2826.47 513.503   8
  -1   0  19 3136.23 506.140   7
   0  -1  19 2964.26 515.141   7
   0  -1 -20-67.1562 105.941   8
   0  -1  20 12.7440 93.2693   7
  -1   0  20-78.1351 62.9031   7
  -1   0  21 1384.63 267.722   7
   0  -1  21 1869.91 286.085   7
  -1  -1   1-4.57867 7.69481   6
   1  -1  -3-3.12962 12.5907   5
   1   1  -3 6.13447 7.72471   4
   1  -1  -3 6.59319 7.88292   8
  -1  -1   3-2.78605 12.5636   6
  -1   1   3-3.55796 14.6738   2
  -1  -1   3 1.72425 7.12240   7
  -1  -1   4 1741.21 278.581   6
  -1  -1   4 1805.79 277.302   7
   1   1  -4 1537.28 276.773   4
   1  -1  -5-9.67478 17.9830   8
  -1   1   5-3.48331 10.8178   6
  -1  -1   5 2.33660 10.4270   7
   1   1  -5-9.69874 12.9705   4
   1  -1  -5-2.69841 14.3289   5
   1  -1  -5-1.13948 7.08191   4
  -1  -1   5-9.82669 14.6135   6
  -1   1   5 3.99554 19.2518   3
  -1   1   5 1.20092 7.42279   7
   1  -1  -6 1170.99 204.697   4
   1   1  -6 1132.11 206.862   4
   1  -1  -6 1319.14 206.576   5
  -1   1   6 1220.82 208.641   3
  -1   1   6 1352.51 205.750   6
  -1   1   7-8.79206 24.0150   3
   1   1  -7 18.7743 22.0238   4
  -1  -1   7 22.4552 15.8644   7
   1  -1  -7-2.49928 17.0293   4
  -1   1   7-1.80540 11.2709   7
  -1   1   7-2.49371 14.7154   6
   1  -1  -7 2.96701 17.6117   5
   1  -1  -7 19.7553 32.1124   8
   1   1  -7-8.42559 14.2887   8
  -1  -1   7-12.1185 20.4779   6
   1   1  -8 3262.32 603.741   4
   1  -1  -8 4094.89 602.617   5
   1  -1  -8 3085.07 602.026   4
  -1   1   8 4065.47 600.934   7
   1   1  -8 3540.25 601.362   8
  -1  -1   9 19.1404 27.0343   6
  -1  -1   9-8.37689 25.0085   7
   1   1  -9-16.4255 38.2911   4
  -1   1   9 19.1983 20.1864   6
   1   1  -9 22.3074 24.5362   8
   1  -1  -9-3.68461 22.3812   5
  -1   1   9 9.85463 27.1051   3
  -1   1   9-5.27543 17.2379   7
   1  -1  -9-12.8219 29.6369   4
   1  -1  -9-6.27162 40.3772   8
   1  -1 -10 8056.39 1288.34   4
  -1   1  10 7456.53 1288.57   3
   1   1 -10 8697.07 1290.61   4
  -1   1  10 8093.23 1286.06   6
   1   1 -10 7599.41 1286.04   8
   1  -1 -10 7047.44 1290.59   8
  -1   1  11-24.8023 25.9424   6
  -1  -1  11-10.9604 25.6887   6
  -1   1  11-11.6006 31.6886   3
  -1   1  11-17.8733 23.1325   7
   1  -1 -11-24.4076 33.5574   5
   1  -1 -11 29.7366 39.7925   4
   1  -1 -11 53.1647 52.4361   8
   1   1 -11 14.7555 46.2962   4
   1   1 -11 51.6864 30.7564   8
   1  -1 -12 12742.0 1951.43   4
  -1   1  12 11413.6 1946.73   7
   1  -1 -13-6.18137 40.9767   5
   1   1 -13 11.3175 44.1744   8
  -1  -1  13 18.5451 40.9789   7
  -1   1  13-20.4163 41.3379   3
   1  -1 -13 7.77044 51.9917   4
  -1   1  13-17.9366 29.7294   7
   1   1 -14 9460.51 1585.07   4
   1   1 -14 9728.53 1579.34   8
  -1   1  14 9560.72 1576.78   7
   1   1 -15-43.3119 75.7520   4
   1   1 -15 43.3510 53.4820   8
  -1  -1  15 14.4846 50.4759   7
  -1  -1  15-37.5499 46.4210   6
   1  -1 -15-74.2237 85.8304   8
   1  -1 -16 7149.13 1120.78   8
   1   1 -16 6370.73 1113.03   8
   1   1 -16 5859.86 1117.65   4
  -1  -1  16 7474.23 1113.89   6
   1   1 -17-63.2694 90.3597   4
  -1   1  17 12.6396 45.1477   7
  -1  -1  17-16.5253 58.2899   7
   1  -1 -17-12.3483 96.3960   8
  -1  -1  18 2922.07 515.601   7
   1  -1 -18 2512.74 529.283   8
  -1   1  18 3416.05 514.046   7
  -1   1  19 21.6822 54.0085   7
  -1  -1  19 9.24674 64.2386   7
   1  -1 -19 86.6172 120.885   8
  -1  -1  20 270.905 85.3224   7
  -1  -1  21-20.2612 80.4755   7
  -1  -1  22 1082.84 203.926   7
   0  -2   0 21966.9 3935.90   7
   0   2   0 25216.3 3936.06   4
   0  -2   0 24347.3 3938.22   5
   0   2   0 25221.2 3936.14   7
   0  -2   0 23852.3 3936.47   6
   0  -2   1 4.22766 8.81969   6
   0   2  -1-1.96967 8.96681   4
   0   2  -1 1.17477 5.24046   8
   0  -2   1-1.10196 4.70656   8
   0   2  -1-2.93344 12.0926   2
   0  -2   1 5.51248 7.57502   7
   0  -2  -1 2.49507 10.2856   5
   0  -2  -1-4.77297 11.4975   8
   0  -2   2 8292.26 1349.82   6
   0  -2   2 8172.71 1349.43   7
   0  -2   3 3.01668 11.1569   6
   0   2  -3-3.33558 15.1847   4
   0  -2  -3-2.62111 12.8515   5
   2   0  -3 2.02486 7.93005   1
   0   2   3 4.00779 17.4997   3
   2   0  -4 3141.13 541.146   1
   0   2   4 3380.75 543.309   3
   0  -2  -4 3106.70 543.592   8
   0   2  -4 3212.29 543.322   4
  -2   0   4 3670.00 543.342   6
  -2   0   5 3.64178 17.0685   2
   0  -2   5-3.85656 15.3051   6
   0  -2   5 12.1322 16.6707   7
  -2   0   5 2.89553 13.6985   7
   2   0  -5 7.11206 23.5700   5
   0   2   5-8.84045 19.5090   3
   0   2  -5 9.37320 22.1716   4
   0  -2  -5 3.07011 15.3100   5
  -2   0   5-15.8789 22.8584   6
   2   0  -5 2.68359 8.28593   8
   2   0  -5-6.72650 16.6314   1
   0  -2  -5-15.1247 24.5044   8
   0  -2  -6 1398.71 272.601   8
   0   2  -6 1639.34 273.470   4
  -2   0   6 1814.48 272.178   2
   0  -2   6 1480.30 271.557   6
   2   0  -6 1703.78 267.670   8
   0   2   6 1532.17 271.590   3
   0  -2   7 5.17950 21.6125   7
  -2   0   7-4.21800 23.9848   6
  -2   0   7-2.80143 16.4343   7
  -2   0   7-8.71728 27.4953   2
   0   2  -7 6.05409 31.1820   4
  -2   0   7-7.66437 24.3004   3
   0   2   7 5.05762 21.6006   3
   0  -2  -7 24.0302 31.8944   8
   2   0  -7-4.62835 25.8067   1
   2   0  -7 8.10722 18.9017   5
   0  -2  -7 15.6727 21.5545   5
   2   0  -7 14.4024 14.9897   8
   0  -2   7 4.80535 20.2889   6
   2   0  -7-14.3100 16.6825   4
   0   2   8 317.196 66.4918   3
   0   2   8 369.638 62.8066   7
   0  -2  -8 378.248 73.8348   8
   0  -2  -8 313.507 66.3006   5
  -2   0   8 247.496 66.1530   3
  -2   0   8 200.861 65.1049   2
   2   0  -8 359.133 62.0776   8
   0  -2   8 280.530 66.7239   7
  -2   0   8 399.568 63.1335   7
   2   0  -8 407.216 62.2708   5
   2   0  -8 330.422 61.2957   4
   0  -2   8 343.759 68.6069   6
  -2   0   8 334.451 66.6068   6
   0   2  -8 411.596 74.9457   4
   0   2   9-3.74488 25.6395   7
   0  -2   9-6.32377 29.0837   7
   2   0  -9-11.1838 20.0583   5
   0  -2  -9-14.0451 44.7621   8
   0   2  -9 7.47788 43.8654   4
  -2   0   9-4.22714 27.2243   3
  -2   0   9-9.14818 27.9465   6
   0  -2   9-11.5785 28.8796   6
   0   2   9-5.95253 30.9051   3
   2   0  -9 10.3895 25.7235   8
  -2   0   9-12.8243 19.5959   7
   0  -2  -9-10.2315 32.7782   5
   2   0  -9 13.6619 24.1992   4
  -2   0  10 6040.11 1067.59   6
   2   0 -10 5746.60 1066.33   4
   2   0 -10 6795.31 1065.58   5
  -2   0  10 7237.31 1066.61   7
   0  -2 -11-19.6815 39.3957   5
   0  -2  11-7.51200 35.5393   7
   2   0 -11-5.32708 40.8682   8
  -2   0  11 5.21330 33.0566   6
   2   0 -11 9.73320 32.2581   4
   0   2  11-4.88441 33.5756   7
  -2   0  11-3.87237 24.8068   7
  -2   0  11-14.3040 28.3018   3
   2   0 -11 10.3841 25.6040   5
  -2   0  12 6388.73 911.783   7
   2   0 -12 4984.28 912.524   4
   0  -2  12 6097.31 917.338   7
  -2   0  12 5300.24 912.759   6
   2   0 -12 5451.82 910.661   5
   0   2  12 5076.91 912.410   7
   2   0 -13-57.4385 57.7321   8
   0  -2  13 78.7571 51.9398   7
  -2   0  13 5.64217 36.8648   3
   0  -2 -13-9.55612 62.7393   8
   2   0 -13-9.18219 34.8475   5
   0   2  13-32.4309 43.0426   3
  -2   0  13 5.89463 39.0711   6
   0   2  13 17.8986 38.7922   7
   0  -2 -13-16.0625 53.4832   5
  -2   0  14 5969.37 911.577   7
   0  -2 -14 6231.78 920.077   5
   2   0 -14 5797.12 920.643   8
   2   0 -14 4311.31 910.553   5
   0   2  14 6066.87 915.014   7
   0  -2 -14 5492.29 922.064   8
   0  -2  14 5676.25 918.299   7
   0  -2  15-39.7164 63.2835   7
  -2   0  15 20.9121 39.5449   7
   2   0 -15 18.2440 78.5732   8
   0  -2 -15 22.1269 80.5847   8
   2   0 -15-27.6318 69.6612   4
  -2   0  15 6.47029 40.3923   6
   0   2  15-39.2700 52.1240   3
   0   2  15-20.8655 51.8373   7
   2   0 -15-28.3363 43.0211   5
  -2   0  15 27.5354 43.2010   3
   2   0 -16 2159.63 376.408   4
   0  -2 -16 1938.26 378.416   8
   0  -2  16 2431.73 377.564   7
  -2   0  16 2169.52 365.373   7
  -2   0  17 42.2004 41.2704   7
   0  -2 -17-12.6587 91.2020   8
   2   0 -17 44.7211 93.3790   4
   0  -2  17-33.9171 73.9772   7
  -2   0  17 37.2580 48.8522   6
   0  -2 -18 81.6900 109.733   8
   0  -2  18 300.402 104.611   7
  -2   0  18 296.043 79.0415   6
   2   0 -18 219.811 110.740   4
  -2   0  18 445.187 76.9402   7
   2   0 -19-13.2508 93.4611   4
   0  -2  19-25.4882 82.4675   7
  -2   0  19 20.6723 50.6031   7
  -2   0  19 34.2996 51.5133   6
   0  -2 -19-43.1263 105.935   8
   0  -2 -20 30.8176 126.389   8
   2   0 -20 14.2846 112.775   4
  -2   0  20 29.3756 57.2179   7
   0  -2  20 67.3789 95.6015   7
   0  -2 -21 165.245 132.640   8
  -1  -2   0 761.203 121.271   7
   1   2   0 670.613 120.975   3
  -1  -2   0 745.987 122.447   6
  -1  -2  -1 8967.74 1673.58   7
  -1  -2  -1 11420.8 1673.54   5
  -1  -2   2 171.423 27.7935   7
   1  -2  -2 149.199 37.6007   5
  -1  -2  -2 108.331 30.0623   8
   1   2   2 170.872 29.7672   3
  -1  -2   2 94.0428 31.0723   6
  -1  -2  -2 133.857 28.8337   5
   2   1  -2 172.489 28.9390   1
  -2  -1   2 122.874 30.8561   7
   1   2  -3 5022.59 784.174   4
   2   1  -3 5092.22 785.802   1
  -1   2   3 4567.14 788.277   2
  -1  -2  -3 4010.35 785.251   5
  -2  -1   3 5212.14 787.454   6
   1   2   3 4751.16 785.651   3
  -2  -1   4 124.501 28.1921   7
   2  -1  -4 103.289 24.4547   8
  -2  -1   4 81.6591 33.1929   6
  -1  -2   4 162.389 26.9315   7
  -1  -2   4 148.362 29.5405   6
   1   2   4 192.388 30.3295   3
   1   2  -4 114.067 26.8918   4
  -1   2   4 96.5418 36.0312   2
   2   1  -4 77.8968 29.4621   1
  -2   1   4 105.964 35.4233   2
   1  -2  -4 175.554 33.6533   5
  -1  -2  -4 105.012 30.2919   5
   1  -2  -4 155.141 30.0579   8
  -1  -2  -5 543.899 118.680   5
   1   2   5 675.130 119.225   3
  -1   2   5 751.903 122.503   3
   2  -1  -5 566.983 121.744   5
  -1  -2  -5 716.087 121.504   8
   2   1  -5 553.546 119.446   1
   1  -2  -5 594.744 119.113   5
  -2  -1   5 696.661 121.008   6
   1   2  -5 746.359 118.002   4
   1  -2  -5 714.508 119.399   8
  -2   1   5 758.896 123.360   2
  -2  -1   5 885.518 118.286   7
   1  -2  -6 183.971 35.6561   5
  -2   1   6 135.823 31.2892   7
   2   1  -6 101.237 38.9865   1
  -2   1   6 126.783 43.0823   2
  -2  -1   6 139.113 40.5871   6
   2  -1  -6 147.029 31.4678   8
   2  -1  -6 201.998 40.5988   5
   1  -2  -6 181.113 38.5156   8
   2  -1  -6 129.208 30.8618   1
  -2   1   6 150.972 36.7979   6
  -1   2   6 123.208 44.4142   3
   1   2  -6 205.411 36.3173   4
  -1  -2  -6 185.933 42.1323   8
  -1  -2   6 162.753 36.1518   6
   1   2   6 152.735 36.0754   3
  -1  -2   6 102.112 32.0224   7
  -1  -2  -6 100.510 36.1682   5
  -2  -1   6 219.416 33.5637   7
  -2   1   7 505.857 98.6346   6
  -1  -2   7 646.158 99.3558   7
  -2  -1   7 632.224 96.6863   3
  -2  -1   7 659.728 98.5599   2
  -1  -2  -7 677.135 104.479   5
   1   2   7 504.297 101.289   3
  -2   1   7 427.085 105.047   2
  -2  -1   7 302.687 99.2222   6
   1  -2  -7 440.329 95.5432   4
   2  -1  -7 494.151 98.4975   1
  -2  -1   7 639.534 98.0474   7
   1  -2  -7 485.903 103.545   8
   2   1  -7 588.029 98.0408   4
   2  -1  -7 581.959 97.5115   8
  -1   2   7 633.859 106.112   3
   1  -2  -7 720.100 101.037   5
   2  -1  -7 623.463 100.910   5
   1   2  -7 624.955 101.821   4
  -1  -2  -7 626.879 104.423   8
  -1  -2   7 587.635 101.632   6
   2   1  -8 234.924 45.3322   4
   2  -1  -8 242.289 47.0578   8
  -2  -1   8 232.192 50.4507   6
   1  -2  -8 247.620 46.8237   5
  -2   1   8 215.542 55.3078   2
  -2  -1   8 258.889 41.7225   3
   2  -1  -8 41.1014 46.5122   1
   2   1  -8 178.846 39.0977   5
   1  -2  -8 228.736 43.2637   4
   1   2   8 172.513 49.6267   3
   2  -1  -8 213.011 41.6153   4
  -1  -2  -8 179.104 52.0907   5
  -1  -2   8 258.204 49.9734   6
   2   1  -8 270.678 40.8059   8
  -2   1   8 103.785 40.1882   7
  -2  -1   8 146.669 44.8227   2
   1   2  -8 149.726 51.2475   4
  -1  -2   8 229.500 45.2908   7
  -2  -1   8 189.609 43.7435   7
  -1   2   8 272.827 40.0244   6
   2  -1  -8 223.791 47.0489   5
  -2   1   8 227.383 46.7055   6
   1  -2  -8 233.379 56.0273   8
  -1  -2  -8 244.791 56.5432   8
  -2   1   8 119.954 54.0518   3
  -1   2   8 247.549 38.7839   7
  -1   2   8 248.870 52.5527   3
  -1  -2  -9 22.0007 41.1764   8
  -1  -2   9-5.51516 30.3603   6
  -1   2   9 1.86923 14.1884   7
   2  -1  -9-3.88759 26.3961   5
   2   1  -9 12.0962 16.9161   5
  -1   2   9 24.3959 16.5913   6
   2  -1  -9 4.29254 27.9359   8
  -1   2   9 12.4207 36.8806   3
   2  -1  -9 4.68982 29.7606   1
  -2  -1   9-10.5943 30.3349   6
   2   1  -9-16.2552 29.2751   4
   1  -2  -9 10.8132 27.5805   4
  -2  -1   9 30.2828 20.8553   3
  -2   1   9 5.52958 18.6225   7
   1  -2  -9 13.1759 25.9424   5
   2  -1  -9 11.0059 20.3102   4
  -2  -1   9 3.81362 22.5344   7
   1   2   9-20.7738 34.2634   3
  -2   1   9 18.9675 24.8151   6
   2   1  -9-2.64097 23.9548   8
  -2   1   9-23.8178 39.6711   3
   1  -2  -9 22.1267 49.1313   8
   1   2  -9-6.17829 37.1192   4
  -1  -2   9 29.1419 28.1677   7
   1  -2 -10 65.2058 57.0769   8
   2   1 -10 66.1190 24.2073   5
   2  -1 -10 88.3726 41.2700   8
   1   2 -10 86.1338 26.7046   8
   2   1 -10 95.9687 35.8053   4
  -2  -1  10 63.0120 28.6233   7
  -2  -1  10 76.8657 25.7066   3
   1  -2 -10 111.498 35.4873   4
  -2   1  10 36.2796 42.0452   3
  -2   1  10 65.6924 30.4783   6
  -2  -1  10 72.6551 34.9415   6
   2   1 -10 110.322 35.4113   8
   1  -2 -10 61.6513 34.5023   5
   2  -1 -10 99.8043 30.6442   5
  -1   2  10 74.5600 21.9733   7
  -1   2  10 72.5688 23.9993   6
   2  -1 -10 79.3107 29.6770   4
  -1   2  10 77.5938 44.1432   3
  -2   1  10 41.6135 23.5134   7
   2   1 -11 4023.06 609.481   8
  -2  -1  11 4144.72 607.931   3
   2  -1 -11 3510.88 611.250   8
  -1   2  11 3563.39 605.713   7
   2  -1 -11 3628.71 608.380   5
   1  -2 -11 3559.03 609.913   4
   1   2 -11 3920.06 607.192   8
   2  -1 -11 3808.78 608.345   4
   2   1 -11 2943.78 605.743   5
  -2   1  11 3954.80 608.643   6
   1  -2 -11 3569.26 609.323   5
  -1  -2 -11 3691.88 614.991   8
   2   1 -11 3686.87 610.582   4
  -2  -1  11 4143.84 611.439   6
  -1  -2  12-25.4454 38.4415   7
   1   2 -12-3.90729 28.7125   8
  -2   1  12-4.80911 34.9167   6
   2  -1 -12 32.0707 34.6754   5
  -2   1  12 31.7525 46.6340   3
  -2   1  12 7.10443 30.5405   7
  -2  -1  12 23.1818 29.2764   3
   1   2 -12-8.99527 55.5618   4
   2  -1 -12 48.1995 64.8612   8
  -1   2  12 3.13467 23.3127   7
  -1  -2  12 32.7532 38.2123   6
   2   1 -12 5.40753 45.5437   8
  -1  -2 -12 17.8457 57.4597   8
   2  -1 -12-10.5868 42.0358   4
   2  -1 -13 4232.96 675.178   5
  -2   1  13 4269.59 675.018   6
   1   2 -13 3777.40 673.995   8
   2  -1 -13 3064.81 678.668   8
  -1  -2 -13 4178.74 682.907   8
  -2   1  13 4299.30 673.349   7
   2   1 -13 4257.95 679.664   4
  -1   2  13 4211.35 672.701   7
  -2  -1  14 344.994 94.4517   6
  -2  -1  14 348.143 87.2897   7
  -1  -2 -14 575.394 119.076   8
   2  -1 -14 253.956 92.9898   5
  -1  -2  14 294.116 92.1907   6
   2   1 -14 605.156 123.841   4
  -1  -2  14 288.885 95.2614   7
  -2   1  14 428.783 97.0744   6
   1   2 -14 438.349 92.6475   8
  -1   2  14 420.174 107.703   3
   1  -2 -14 634.752 114.794   5
  -2   1  14 187.348 95.2389   3
   2   1 -14 756.853 127.145   8
   1   2 -14 459.195 127.057   4
  -1   2  14 350.923 81.6314   7
   2   1 -15 1365.14 280.289   8
   1   2 -15 1565.02 274.409   8
  -1  -2 -15 1515.11 283.623   8
   1  -2 -15 1597.06 296.527   8
  -1   2  15 1767.19 272.202   7
  -1   2  15 1634.51 280.250   3
   1  -2 -15 1446.89 278.437   5
   2   1 -15 1633.15 285.194   4
   1   2 -15 1785.04 291.124   4
  -2  -1  15 1866.61 276.164   7
  -1  -2  15 1400.39 277.124   7
  -2  -1  16 131.113 49.4849   7
  -1  -2  16 168.448 63.3599   7
   1  -2 -16 141.578 103.945   8
   1   2 -16 136.445 88.2071   4
  -2   1  16 107.649 48.1371   7
  -2  -1  16 188.054 59.6067   6
   1  -2 -16 200.287 68.2672   5
  -1  -2 -16 55.1770 80.4980   8
   1   2 -16 122.339 58.2466   8
   2   1 -16 75.9816 83.7878   4
  -1  -2  16 223.843 66.6734   6
   2  -1 -16 137.626 90.7691   8
   2   1 -16 225.603 84.3942   8
  -1   2  16 157.917 68.9854   3
  -1   2  17 270.630 82.6403   3
   1  -2 -17 316.700 122.861   8
   2  -1 -17 364.179 116.576   8
  -2   1  17 359.075 81.9849   3
  -2  -1  17 208.067 71.2322   6
   2   1 -17 188.627 106.883   4
   2  -1 -17 288.158 96.8660   4
  -2  -1  17 373.479 72.9582   7
   1   2 -17 359.853 113.176   4
   1  -2 -17 160.484 81.9363   5
  -1  -2  17 174.426 75.7320   6
  -1  -2  17 305.935 82.2871   7
  -2   1  17 338.286 68.6453   7
   2  -1 -17 294.943 77.3072   5
  -2   1  17 301.900 70.9695   6
  -2   1  18 38.3049 63.1830   3
   1  -2 -18-73.5498 120.910   8
   1   2 -18-56.6199 98.1538   4
   2  -1 -18 65.0809 62.8575   5
   2  -1 -18-25.4568 109.024   8
   2  -1 -18-23.6348 95.0289   4
  -2  -1  18-63.9967 54.7545   7
  -2  -1  18 8.54536 55.3000   6
   2   1 -18-51.0347 96.8462   4
  -2   1  18 14.8526 48.5349   6
  -1   2  18 21.7122 63.2983   3
  -1  -2  18-56.4703 67.2086   7
  -2   1  18 5.86405 42.7269   7
  -2  -1  19 127.387 62.0452   6
   1  -2 -19 78.4850 119.893   8
  -2  -1  19 211.917 59.9073   7
   2   1 -19 13.7564 105.121   4
  -1  -2  19 40.0501 66.4392   7
  -2  -1  20 40.2122 63.3032   7
   2   1 -20 132.732 122.012   4
   1  -2 -20 16.7468 141.852   8
  -2  -1  20-19.3599 61.4818   6
  -1  -2  20 10.4545 78.5723   7
   2   1 -21 157.195 130.530   4
  -1  -2  21 66.4484 81.8603   7
  -2  -1  21 222.986 73.5368   7
  -2  -1  22-45.4117 71.4423   7
  -1  -2  22-34.6550 86.0219   7
  -1  -2  23 385.536 115.864   7
  -1  -2  24 125.596 94.7985   7
  -2  -2   1-4.16942 18.0063   7
   2   2  -1 2.85548 12.4683   1
   2  -2  -3 4.55527 9.75584   8
  -2   2   3 29.4960 24.9153   2
  -2  -2   3-15.3158 24.1639   6
  -2   2   4 400.530 78.1617   2
  -2  -2   4 457.111 70.0852   7
   2   2  -4 260.007 71.4387   1
   2  -2  -4 377.598 78.6646   5
  -2  -2   4 449.105 76.9991   6
  -2   2   5 21.3792 34.3399   2
   2   2  -5-5.51504 24.0913   1
   2  -2  -5-6.41567 31.7335   5
  -2  -2   5 5.33931 31.1348   6
  -2  -2   5 3.25246 17.4079   7
   2  -2  -5 8.03874 13.8193   8
  -2  -2   6 11961.9 2036.99   7
  -2   2   6 12526.6 2042.29   2
  -2   2   6 12728.5 2035.77   6
   2  -2  -7 10.8347 22.2049   8
   2   2  -7 3.62660 21.4245   4
  -2  -2   7-3.70880 16.2286   7
  -2   2   7-22.7027 41.6386   2
   2  -2  -7 5.29118 32.5119   5
  -2   2   7 8.11798 15.9064   7
   2  -2  -7 5.94127 12.8570   1
  -2   2   7 14.0478 20.3308   6
  -2  -2   7 38.7235 31.6718   6
  -2   2   8 296.638 74.8418   2
  -2   2   8 400.287 82.0875   3
   2  -2  -8 278.360 61.2688   8
   2   2  -8 296.385 60.7161   4
  -2   2   8 370.731 57.2610   7
   2  -2  -8 258.427 53.9366   4
   2  -2  -8 352.749 56.9295   1
  -2  -2   8 386.015 61.0667   7
  -2   2   8 346.329 58.2839   6
   2  -2  -8 293.562 66.8518   5
  -2  -2   8 166.076 62.7037   6
  -2  -2   9-24.0165 35.4525   6
  -2   2   9 8.09492 45.4519   2
   2  -2  -9 4.89829 32.6476   8
   2  -2  -9 25.3269 33.2835   5
   2   2  -9 38.9438 33.9256   4
   2  -2  -9 12.9086 19.6835   4
   2  -2  -9 3.50672 25.8746   1
  -2   2   9 7.60852 48.5090   3
  -2   2   9 2.99970 21.6335   6
  -2   2   9 5.23323 19.5470   7
  -2   2  10 238.376 45.6768   6
   2  -2 -10 87.2203 55.0331   8
   2  -2 -10 193.650 53.0657   5
   2  -2 -10 241.007 45.1397   4
  -2   2  10 230.249 65.8412   3
  -2   2  10 222.731 41.9233   7
   2   2 -10 164.593 43.3245   8
   2  -2 -10 224.726 50.3644   1
  -2   2  11-7.72282 50.4615   3
   2  -2 -11 25.6329 36.6075   5
   2  -2 -11-38.1159 33.8840   1
   2  -2 -11 11.2290 30.6753   4
  -2  -2  11-9.91861 32.2496   7
  -2   2  11-25.3727 25.2468   6
   2   2 -11 17.2303 30.9052   8
  -2   2  11 2.80514 20.8341   7
   2  -2 -12 1580.07 308.915   4
   2   2 -12 2058.42 308.672   8
  -2   2  12 1858.34 306.803   6
   2  -2 -13-5.93499 48.1815   4
  -2  -2  13 86.7522 46.7759   6
   2   2 -13 33.0855 60.0113   4
  -2  -2  13 5.66039 34.9560   7
   2  -2 -13 16.6772 66.4033   8
   2   2 -13-10.1060 47.0312   8
  -2   2  13-8.52198 28.7746   6
  -2   2  13-16.4535 26.1232   7
   2  -2 -14 942.310 140.087   5
  -2   2  14 782.557 130.293   7
   2   2 -14 890.064 143.627   8
  -2  -2  14 387.126 135.950   7
   2  -2 -14 777.994 144.957   4
   2   2 -14 678.498 151.478   4
  -2  -2  14 993.527 142.775   6
   2  -2 -14 666.962 154.899   8
  -2   2  14 622.009 143.122   3
  -2   2  14 733.130 132.168   6
   2  -2 -15 8.08454 63.5441   4
  -2  -2  15-23.7471 51.9848   6
  -2   2  15 3.93341 31.0401   7
  -2   2  15 5.13377 33.5668   6
   2  -2 -15 13.3455 52.4524   5
   2  -2 -15-41.1056 86.7743   8
   2   2 -15 10.5022 81.9844   4
  -2  -2  15 12.9099 43.8005   7
  -2   2  15 52.5250 55.2339   3
   2   2 -15 33.9745 64.1545   8
   2  -2 -16 9.22222 73.5532   4
   2   2 -16 127.910 90.5129   4
  -2   2  16 45.9343 62.1732   3
  -2   2  16 107.487 42.6677   6
   2  -2 -16 33.1726 84.9543   8
  -2  -2  16 64.7918 53.3035   6
  -2  -2  16 75.6503 47.5330   7
   2  -2 -16 36.9279 53.6729   5
   2  -2 -17-82.0394 62.9552   5
  -2   2  17 9.60605 65.6777   3
   2  -2 -17-12.2213 95.2260   8
  -2  -2  17-43.9137 52.3329   7
   2   2 -17-25.0080 94.7238   4
  -2  -2  17-17.0764 53.0085   6
  -2  -2  18 1462.09 197.349   7
  -2   2  18 988.342 200.792   3
   2  -2 -18 1063.58 217.012   8
  -2  -2  18 940.700 197.203   6
   2  -2 -18 944.380 198.746   5
   2   2 -18 1007.99 219.026   4
   2   2 -19 28.7986 113.546   4
  -2  -2  19 57.7706 63.1114   7
   2  -2 -19-28.9995 70.1507   5
  -2  -2  19 57.6460 62.4900   6
   2  -2 -19 14.1008 121.124   8
  -2   2  19-86.2783 70.4838   3
   2  -2 -20 1471.06 287.482   5
   2  -2 -20 2133.79 317.629   8
  -2  -2  20 1605.71 286.375   6
   2   2 -20 1534.19 308.230   4
  -2  -2  21 64.7676 69.8025   7
  -2  -2  21 21.4906 68.5647   6
   2   2 -21-97.4079 112.618   4
  -2  -2  22 694.578 153.855   7
   2   2 -22 994.475 200.071   4
  -2  -2  23-114.196 85.0170   7
   0   3   0 2.13390 10.9140   4
   0  -3   0 4.06170 15.9124   5
   0  -3   0-2.00572 9.05087   7
   0  -3   0 6.62560 12.2399   8
   0  -3   0 9.90362 12.4579   6
   0   3   0-4.93010 23.5430   2
   0  -3   1 3597.20 612.923   7
   0  -3   1 4013.29 612.143   8
   0  -3  -1 3927.51 615.312   5
   0   3  -1 3065.32 615.221   2
   0  -3  -2 7.82868 20.0080   8
   0  -3   2 3.21463 7.96397   8
   0   3   2 5.27745 26.7568   3
   0  -3   2 2.98516 12.0121   7
   0   3  -2-7.87276 18.4559   2
   0  -3   2 3.37873 13.4180   6
   0  -3  -2-3.64554 15.3980   5
   0   3  -2 17.3103 18.5207   4
   0   3  -3 116.204 32.6509   4
   0  -3   3 239.767 33.0660   6
   0  -3   3 55.7762 27.3354   7
   0  -3  -3 187.311 32.4718   5
   0   3   3 62.0491 40.2333   3
   0  -3  -4 15.1050 20.0487   5
   0  -3   4 4.19726 18.1280   6
   0   3   4-5.78458 27.6191   3
   0  -3   4-8.06315 17.9835   7
   0   3  -4-4.80291 25.6855   4
   0  -3  -5 302.644 52.7136   5
   0   3  -5 189.284 56.5592   4
   0  -3  -5 285.465 61.2435   8
   3   0  -5 240.457 49.3465   1
   0   3   5 281.837 56.9460   3
   0  -3   5 319.285 53.9481   6
  -3   0   5 251.313 54.9086   7
  -3   0   6 11.5136 31.4516   6
   0  -3   6 15.3592 26.3727   7
   0  -3   6-15.0597 21.9243   6
   3   0  -6 14.6935 19.9330   1
  -3   0   6 10.5594 26.3333   7
   0  -3  -6-7.10548 37.4463   8
   0   3  -6-12.4537 35.1801   4
   0   3   6 12.1839 32.3445   3
   0  -3  -6-4.16987 20.4507   5
   0   3   7 7741.02 1215.96   3
   0  -3   7 8186.97 1215.11   6
  -3   0   7 5711.54 1213.98   2
  -3   0   7 7320.71 1213.77   7
   0   3  -7 6684.06 1216.28   4
   0  -3  -7 8267.50 1213.64   5
   3   0  -7 7789.16 1214.78   5
  -3   0   7 7253.88 1214.99   6
   3   0  -8-5.09013 30.2140   1
   3   0  -8 9.08559 32.0390   5
   3   0  -8 2.13077 15.2794   8
  -3   0   8-30.7763 40.4128   6
   0   3   8-13.0357 36.8221   3
  -3   0   8 18.6140 28.1058   7
   0   3  -8-45.4599 43.6290   4
   0  -3   8-11.8885 25.6735   6
   0  -3  -8-8.23343 45.9054   8
   0  -3  -8 14.7351 29.4959   5
  -3   0   8-5.81759 35.3345   2
  -3   0   9 38.3790 41.4561   2
  -3   0   9 27.0000 31.1618   7
   3   0  -9 3.96425 28.9758   5
   3   0  -9 4.72241 18.0855   8
   3   0  -9 34.9386 34.0336   1
   0  -3  -9 21.5402 32.2413   5
  -3   0   9 6.12329 42.1597   6
  -3   0  10-8.95833 27.0506   7
  -3   0  10 6.76089 42.1995   2
   0   3  10-3.44070 23.9596   7
   0   3 -10 18.0511 56.0344   4
  -3   0  10-6.07785 40.8509   6
   3   0 -10-13.0055 38.3686   1
   3   0 -10 2.65988 21.1811   8
  -3   0  10-11.1828 42.2861   3
   0  -3 -10 28.4156 59.4341   8
   0  -3  10-7.39690 42.0568   7
   0  -3  10 6.91575 35.6179   6
   3   0 -10 3.55032 24.5107   4
   3   0 -10 3.72309 30.1280   5
  -3   0  11 9.12062 27.0312   7
   0  -3 -11 59.7460 42.2725   5
   3   0 -11-7.20508 47.2378   1
   0  -3  11 89.0955 44.7546   6
  -3   0  11-35.3458 52.6302   2
   0   3  11 7.74143 40.0617   3
   0  -3 -11 20.0235 63.6000   8
  -3   0  11 24.5133 42.1211   6
   0   3 -11-9.73918 64.6710   4
  -3   0  11 73.8020 40.5576   3
   0   3  11-7.89561 30.2183   7
   3   0 -11-11.0650 24.4136   5
   0  -3  11 23.8398 45.0617   7
   3   0 -11 49.5793 25.4568   8
   3   0 -11 60.6180 31.8912   4
   0  -3  12-17.1401 44.4814   7
   0  -3 -12 21.4091 69.2577   8
  -3   0  12 6.29395 44.0154   6
   0   3  12-4.44219 32.8567   7
   3   0 -12 3.76479 27.4212   5
   3   0 -12-4.65955 33.6720   4
  -3   0  12-5.80715 42.7896   3
   0   3  12-48.4091 46.1667   3
   3   0 -12-3.59813 28.4647   8
   0   3 -12 52.6392 70.1084   4
   0  -3  12 31.7754 43.6950   6
   0  -3 -12 22.1697 44.3750   5
  -3   0  12-14.7308 50.1817   2
  -3   0  13 1324.16 201.745   3
   0   3  13 1317.88 199.899   7
   0  -3 -13 1115.35 206.696   5
   0  -3 -13 1346.12 214.132   8
   0   3 -13 843.696 215.319   4
   0   3  13 1000.53 204.799   3
   3   0 -13 1104.33 196.851   5
   0  -3  13 1312.97 209.729   7
  -3   0  13 1045.59 205.580   2
   3   0 -13 1101.03 198.070   8
   0   3 -14-47.8978 82.2678   4
   0   3  14-69.5469 44.6990   7
  -3   0  14-88.9559 85.5377   2
   0  -3 -14-36.3609 97.7272   8
   3   0 -14-43.4863 51.5741   4
   3   0 -14-13.0287 41.2562   5
   3   0 -14-18.4135 72.2283   1
   0   3  14-9.07330 55.8881   3
   0  -3  14-48.8648 72.9211   7
  -3   0  14-31.1672 52.2107   3
  -3   0  14-101.568 49.8975   7
   0  -3 -14-54.2858 70.9928   5
   3   0 -14-4.87773 45.8665   8
   3   0 -15 493.259 111.519   4
   0   3  15 732.187 104.570   7
   0  -3  15 658.151 119.495   7
   0   3  15 521.531 111.745   3
  -3   0  15 590.170 106.359   6
   0  -3 -15 732.152 146.131   8
   3   0 -15 701.602 106.807   8
  -3   0  15 455.035 114.202   2
  -3   0  15 499.592 105.412   3
   3   0 -15 334.388 97.7026   5
   0  -3 -15 562.059 117.972   5
  -3   0  15 384.760 98.7602   7
   0  -3 -16-10.6556 63.6181   5
   3   0 -16 33.6519 69.3621   4
   0  -3  16-33.3738 74.0842   7
   0   3  16 82.7852 61.4224   3
  -3   0  16-28.2196 46.3204   3
   3   0 -16 16.1583 44.8125   5
   0  -3 -16 67.9086 102.343   8
  -3   0  16-9.12651 73.3866   2
  -3   0  16-56.4026 39.2797   7
   0   3  16 6.19487 48.0264   7
  -3   0  16 22.2734 51.0363   6
  -3   0  17 254.246 85.7262   6
   0   3  17 280.068 98.8921   3
  -3   0  17 458.778 85.0589   7
   0  -3  17 485.016 107.210   7
   0  -3 -17 392.801 133.796   8
   3   0 -17 484.123 105.557   4
  -3   0  18 39.6770 55.7442   6
   0  -3  18-12.5582 83.7952   7
   3   0 -18 32.4838 89.4257   4
   0  -3 -18 107.267 116.010   8
  -3   0  18 31.4863 47.7436   7
   0  -3  19 2194.60 322.110   7
  -3   0  19 1418.14 302.180   6
   0  -3 -19 1355.55 326.767   8
  -3   0  19 1996.43 300.699   7
   3   0 -19 1729.30 318.207   4
  -3   0  20 60.7463 61.0048   6
  -3   0  20-7.05497 56.0616   7
   0  -3 -20-34.3226 129.344   8
   0  -3 -21 1038.88 235.803   8
   0  -3 -22 19.1206 145.681   8
  -1   3   0 2234.62 328.393   2
   1  -3   0 2143.91 322.880   8
  -1  -3   0 1675.87 322.765   7
  -1  -3  -1 1269.12 217.108   5
   1   3  -1 1503.80 216.851   4
  -1  -3   1 1418.07 216.521   5
   1   3  -1 1295.92 218.217   3
  -1   3   1 949.217 221.144   2
  -1  -3   1 1459.86 217.151   7
  -1  -3   1 1192.75 217.783   8
   1  -3  -1 1237.05 224.648   5
  -1  -3  -1 1207.11 217.182   7
  -1  -3  -1 1144.09 217.802   6
   1   3  -2 611.851 87.7893   4
  -1  -3  -2 455.828 88.2675   7
  -1  -3  -2 542.101 91.7443   8
   1  -3  -2 376.728 94.6978   5
   1   3   2 563.292 90.5919   3
  -1  -3   2 476.850 90.0083   6
  -1  -3   2 473.310 86.6376   5
  -1  -3  -2 505.345 88.0025   5
   1   3  -2 529.888 89.5123   3
  -1  -3  -3 430.620 64.2090   8
   3   1  -3 479.684 58.4255   1
  -1  -3   3 177.872 55.2671   7
   1  -3  -3 274.887 63.6798   5
  -1  -3   3 411.707 60.2663   6
   1   3   3 358.077 60.1791   3
  -1  -3  -3 461.311 59.3209   5
   1   3  -3 208.401 56.4548   4
   1   3  -3 410.302 59.4903   2
  -1  -3   3 275.556 53.4883   8
   1  -3  -4 889.399 159.303   8
   1  -3  -4 1118.81 163.663   5
   1   3   4 827.477 160.654   3
  -1   3   4 949.720 166.123   2
  -3  -1   4 668.973 161.648   7
   3   1  -4 1174.32 160.416   1
   1  -3  -5 1365.37 208.840   5
   1  -3  -5 1206.20 207.228   8
  -3  -1   5 1245.44 211.205   6
  -1  -3  -5 1096.61 206.336   5
   3   1  -5 1262.02 207.267   1
  -3  -1   6 2992.82 444.350   6
  -1   3   6 2694.47 445.468   3
   1   3   6 2427.87 440.554   3
  -3  -1   6 3120.75 441.382   7
  -1  -3  -6 2427.57 439.967   5
  -3   1   6 1877.86 440.345   2
   1  -3  -6 3149.75 441.778   5
   1   3  -6 2695.73 439.944   4
   3   1  -7 960.054 140.625   5
  -3  -1   7 828.265 145.940   6
  -1  -3  -7 1021.92 147.735   8
   3  -1  -7 721.656 145.290   5
  -3   1   7 660.105 141.549   6
   1   3   7 1076.29 144.217   3
   1   3  -7 879.827 142.372   4
   3  -1  -7 627.552 135.593   8
   1  -3  -7 876.595 140.962   5
  -1  -3  -7 793.749 141.561   5
  -3   1   7 943.759 145.986   2
   1  -3  -7 827.801 144.422   8
  -1  -3   7 880.905 142.428   6
  -3  -1   7 1044.62 141.599   7
  -1   3   7 838.128 150.185   3
  -3   1   7 479.506 138.665   7
  -3   1   8 2795.45 480.703   7
   3  -1  -8 3359.75 480.077   1
   1  -3  -8 2948.96 485.470   8
   3  -1  -8 3137.13 478.417   8
  -1   3   8 2422.72 484.001   3
   3  -1  -8 2510.19 483.388   5
   1   3   8 2855.91 483.018   3
   3   1  -8 2383.90 481.726   1
  -1  -3   8 3165.55 482.975   6
  -3   1   9 818.826 149.110   7
   1  -3  -9 957.812 151.200   5
  -1   3   9 821.490 156.403   3
   3   1  -9 887.341 155.287   1
   3  -1  -9 778.868 153.253   5
   3  -1  -9 1011.38 147.369   8
  -3   1   9 827.877 159.908   2
  -3   1   9 856.025 153.793   6
  -3  -1   9 590.123 153.565   6
   3  -1 -10 145.988 45.3196   1
  -1  -3  10 113.174 44.6050   7
   3  -1 -10 156.523 45.5884   5
  -1   3  10 156.037 28.9389   7
  -1  -3  10 85.0594 48.5002   6
  -1  -3 -10 97.6301 59.0223   8
   3   1 -10 220.623 42.0725   4
   3  -1 -10 126.055 37.7024   8
   3  -1 -10 149.678 36.5968   4
   3   1 -10 136.638 29.7374   8
  -3  -1  10 164.661 48.5356   2
   1   3 -10 245.700 63.7705   4
  -3   1  10 108.646 58.1884   2
  -3   1  10 140.773 44.3060   6
  -3  -1  10 154.983 53.0789   6
  -3  -1  10 158.336 41.9046   3
  -3   1  10 136.953 40.5009   7
  -3   1  10 43.1613 58.2020   3
   3   1 -10 161.866 34.0293   5
  -1  -3 -11 9.45274 55.9782   8
   3  -1 -11 70.6458 39.0794   1
  -3  -1  11 225.604 49.8046   2
  -1  -3  11 130.159 41.6080   7
   1   3 -11 115.061 62.7099   4
  -1  -3  11 27.4573 41.6559   6
  -3   1  11 109.150 41.2501   6
  -3   1  11 43.2919 56.3807   2
  -3  -1  11 130.208 33.8964   3
   3  -1 -11 131.235 34.0057   8
   3   1 -11 94.9959 26.3802   5
   3   1 -11 28.8138 22.9081   8
   3  -1 -11 99.2648 39.7947   5
  -1   3  11 68.2034 21.8175   7
  -3   1  11 4.47014 33.0838   7
   1   3  11 40.1501 43.8680   3
  -3   1  11 29.8396 54.5048   3
   3  -1 -11 58.2372 29.1349   4
   1  -3 -11 68.6916 70.1650   8
  -1  -3 -11-16.9089 56.1740   5
   1   3 -12 285.485 86.2643   4
  -3  -1  12 325.879 63.5504   3
   3  -1 -12 245.397 67.8066   5
  -1  -3 -12 286.229 78.3616   5
  -3  -1  12 250.360 71.7120   2
  -1  -3  12 399.244 74.2330   7
  -1   3  12 282.708 79.6302   3
   3   1 -12 253.358 57.7790   8
  -1  -3  12 293.767 70.1914   6
  -1   3  12 353.707 56.4374   7
  -3  -1  12 279.728 65.8152   7
  -3   1  12 323.046 82.9190   3
   1   3  12 367.275 76.7618   3
   3  -1 -12 323.476 76.6737   1
   1  -3 -12 191.175 88.7560   8
   3   1 -12 230.532 57.0316   5
   1  -3 -12 251.337 70.9757   5
   3  -1 -12 282.013 66.6053   8
   3  -1 -12 419.232 63.5884   4
  -3   1  12 477.004 67.0388   7
  -3   1  12 143.087 81.9196   2
  -1  -3 -12 417.235 88.4502   8
  -3   1  12 290.431 68.2667   6
   3  -1 -13-4.96516 41.2339   5
  -3   1  13 13.8353 35.9317   7
  -1  -3  13 22.5553 47.2205   7
   3  -1 -13-7.25919 55.9219   1
  -3  -1  13 40.7880 33.9606   3
   3  -1 -13-20.2775 47.8965   8
  -3  -1  13-30.8347 56.7416   2
  -3   1  13 80.8528 40.2673   6
  -1  -3 -13-64.4383 72.8722   8
  -1  -3  13 83.4997 45.3645   6
   1  -3 -13 11.3606 84.6873   8
  -1   3  13 26.5661 23.3510   7
   3   1 -13-18.3808 56.5119   4
   1  -3 -13-34.0469 47.8644   5
  -3   1  13 9.29416 72.8197   2
  -3  -1  13 31.4647 35.7867   7
   3   1 -13 3.20846 27.1656   5
  -3   1  13 60.8982 58.2274   3
  -1   3  13-8.66441 54.6907   3
   1   3 -13-42.5270 73.1078   4
   3   1 -13 16.3564 33.6913   8
   3  -1 -13 4.77393 38.4401   4
   1   3  13 18.9761 52.9380   3
  -3  -1  13 7.22862 49.2916   6
  -3   1  14 689.014 143.658   3
  -1   3  14 686.342 144.991   3
  -1   3  14 840.200 130.139   7
  -3  -1  14 844.139 136.080   7
   3  -1 -14 886.363 135.863   5
   3   1 -14 864.839 133.731   8
  -1  -3  14 735.998 140.294   6
   3   1 -14 668.475 130.302   5
  -1  -3 -14 858.106 156.961   8
   1   3 -14 688.399 159.155   4
  -3   1  14 488.920 135.128   6
  -3  -1  14 752.623 141.451   2
  -3  -1  14 576.350 132.619   3
   1  -3 -14 806.689 163.254   8
   1  -3 -14 849.292 141.506   5
  -3  -1  14 757.120 140.137   6
   3   1 -14 615.844 139.282   4
  -1  -3  14 966.143 143.367   7
   1   3 -15 724.774 164.620   4
   3   1 -15 530.172 130.844   5
   1  -3 -15 638.451 166.533   8
  -1   3  15 736.925 131.428   7
  -1  -3  15 748.102 145.264   6
  -3  -1  15 839.755 144.572   2
  -1   3  15 903.667 149.179   3
  -3  -1  15 781.565 138.049   7
  -3  -1  15 598.489 142.783   6
  -1  -3  15 909.668 147.273   7
   1  -3 -15 998.264 148.585   5
   3   1 -15 941.731 137.440   8
  -1  -3 -15 830.267 157.925   8
   3   1 -15 737.419 146.638   4
   3   1 -16 18.0118 67.0906   4
   3  -1 -16-37.3274 72.3026   1
   1  -3 -16 99.7303 66.2653   5
   1   3 -16 78.9872 90.2599   4
  -1  -3 -16-12.8089 90.4997   8
  -1  -3  16 90.6730 60.9136   7
  -1  -3  16 45.5613 57.1425   6
  -1   3  16 50.0270 68.0867   3
   3  -1 -16 7.13489 57.6346   8
  -3  -1  16 80.2239 47.6615   7
   1  -3 -16 69.3307 113.402   8
  -3   1  16-62.6212 45.2842   7
   3  -1 -16 62.7271 63.2878   4
  -3   1  16 85.5930 83.9760   2
  -3  -1  16 64.4498 52.9246   6
  -1  -3  17 416.001 101.569   6
   3   1 -17 493.092 118.183   4
  -1  -3 -17 374.052 124.436   8
  -3   1  17 254.645 100.242   3
  -3   1  17 304.562 124.615   2
  -1  -3  17 540.563 108.984   7
  -3  -1  17 537.682 100.157   6
   1  -3 -17 454.722 109.512   5
   3  -1 -17 581.900 110.206   8
  -1   3  17 531.412 109.182   3
   3  -1 -17 573.635 113.473   4
   3  -1 -17 487.593 97.1373   5
  -3  -1  17 390.850 92.4763   7
   1   3 -17 307.406 139.975   4
  -3   1  17 400.556 93.0169   6
   1  -3 -17 486.329 146.811   8
  -3   1  17 495.012 90.9523   7
   3  -1 -17 322.189 115.108   1
   3   1 -18 1987.81 361.505   4
  -1  -3  18 2140.91 355.860   6
  -1  -3  18 2123.91 358.204   7
   1  -3 -18 2002.70 378.094   8
  -3  -1  18 2077.26 353.188   6
  -3   1  18 1869.59 349.810   6
  -1   3  18 2363.74 359.879   3
  -1  -3 -18 2248.60 369.513   8
   1  -3 -18 2015.12 357.578   5
  -3   1  18 2174.43 348.888   7
   1   3 -18 1621.29 371.101   4
  -3  -1  18 2047.84 351.318   7
   1  -3 -19 290.466 93.4335   5
   3   1 -19 140.793 106.852   4
  -3  -1  19 160.336 69.6423   6
  -1  -3  19 181.537 88.0616   7
   1  -3 -19 116.177 134.218   8
   1   3 -19 313.181 121.446   4
  -1   3  19 270.861 84.2357   3
  -3  -1  19 240.183 70.9291   7
  -1  -3 -19 209.491 112.047   8
   1  -3 -20 1993.45 411.981   5
  -1   3  20 2509.12 414.114   3
   1  -3 -20 1794.56 429.411   8
  -3  -1  20 2111.14 402.590   6
   3   1 -20 2651.39 420.856   4
  -3  -1  20 2289.09 402.303   7
  -1  -3 -20 2408.19 424.309   8
  -1  -3  20 3350.16 415.763   7
  -3  -1  21 77.9085 69.5108   6
  -3  -1  21 121.534 65.2426   7
  -1  -3  21 105.951 88.8446   7
   1  -3 -21 74.0105 156.309   8
   3   1 -21 73.6419 119.360   4
  -1   3  21 166.365 89.6574   3
  -1  -3  22 1116.47 206.416   7
   1  -3 -22 862.152 253.683   8
  -1  -3  23 140.607 102.059   7
  -1  -3  24-80.7399 100.778   7
  -1  -3  25 98.0315 104.040   7
   2   3   0 38.5262 17.7656   1
  -2  -3   0 54.2762 20.9592   8
  -2  -3   0 60.7072 19.9387   5
   2   3   0 30.1334 16.0960   3
  -2  -3   0 73.2276 25.8262   7
  -2  -3   1 129.026 35.6293   6
  -2  -3   1 98.1775 28.1585   7
   2   3   1 88.9392 24.4525   1
  -2  -3  -1 100.572 30.7033   8
  -2  -3   1 160.825 28.2813   8
  -2  -3   1 132.129 26.5267   5
   2   3  -1 163.722 27.4593   3
   2   3   1 115.382 27.1825   3
  -2  -3  -1 135.984 30.3312   5
   2   3  -1 76.2822 28.7285   1
  -2  -3   2 2261.25 380.014   8
   2   3  -2 2046.72 382.377   1
  -2  -3   2 2302.19 379.897   5
  -2  -3  -2 1816.23 381.847   5
   2   3  -2 2537.96 379.960   3
  -2  -3  -2 2923.69 385.283   8
   2  -3  -3 773.191 125.390   8
   2   3  -3 508.259 128.212   1
  -2  -3   3 822.938 124.319   5
  -2  -3  -3 783.067 129.617   5
  -2  -3   3 469.075 130.821   6
   2   3  -3 850.851 124.163   3
  -2   3   3 774.521 135.879   2
  -2  -3  -3 555.813 129.354   8
   3   2  -4 299.035 53.7197   1
  -2  -3  -4 271.010 59.6124   8
  -2   3   4 143.064 61.3289   2
  -3  -2   4 240.232 54.3636   7
   2  -3  -4 253.923 64.9023   5
   2  -3  -4 289.448 48.7680   8
  -3  -2   4 279.973 61.4444   6
  -2  -3   4 175.199 57.3748   6
   2   3   4 224.644 52.6603   3
  -2  -3  -4 294.874 56.5009   5
   2  -3  -5 2851.78 478.118   8
  -3   2   5 2985.81 484.123   2
  -3  -2   5 2639.12 483.879   6
   2  -3  -5 3001.08 486.123   5
  -3  -2   5 3070.01 480.992   7
   2   3   5 2835.80 481.654   3
   2  -3  -6 1165.96 194.178   8
  -3   2   6 1011.43 201.024   2
  -2   3   6 890.061 204.278   2
  -3  -2   6 1353.54 196.728   7
  -2  -3   6 1014.49 197.700   6
  -2  -3   6 1211.55 194.394   7
  -3  -2   6 1191.34 202.845   6
   3  -2  -6 871.341 203.948   5
   2   3   6 1303.62 199.570   3
  -3  -2   7 13354.0 2132.24   7
  -2  -3   7 12630.5 2133.77   6
  -3   2   7 12853.6 2137.65   2
  -3   2   8-27.9223 48.3098   2
  -2   3   8-19.0302 52.3385   2
  -3   2   8 55.1580 35.8793   6
   2  -3  -8 6.71120 9.61307   4
  -3  -2   8-14.7583 47.5068   6
   2  -3  -8-4.95750 31.9173   8
   2  -3  -8-38.3511 36.1101   5
  -2   3   8-4.08696 17.2064   6
   3  -2  -8 14.7108 48.5234   5
   3  -2  -8-3.48280 22.1988   8
   2  -3  -9 2183.75 312.814   5
   2  -3  -9 1809.48 303.925   1
   3  -2  -9 2414.80 316.465   5
   3  -2  -9 2160.52 306.238   1
  -2   3   9 1909.19 318.098   3
  -3   2   9 1752.78 308.675   6
  -2  -3   9 2327.42 310.223   7
   2  -3  -9 1804.55 303.474   4
  -2   3   9 1397.95 303.990   7
   3  -2 -10 1505.52 216.124   1
   3   2 -10 1267.64 229.026   1
   3  -2 -10 1615.16 218.149   8
   2   3 -10 1086.27 222.115   4
  -2   3  10 1205.82 213.723   7
  -3   2  10 1187.59 230.488   2
  -3   2  10 980.884 216.581   7
  -2   3  11 169.945 32.2253   6
   2  -3 -11 105.310 37.2671   1
   3   2 -11 96.4498 26.8190   5
  -3   2  11 150.130 43.8734   6
   3   2 -11 179.826 48.2372   4
  -2  -3  11 120.974 42.0953   7
  -3   2  11 125.749 42.4813   7
  -3  -2  11 119.455 43.9532   7
   2  -3 -11 196.255 42.3035   4
   3  -2 -11 161.440 49.6945   5
  -3   2  11 91.2904 68.0849   3
  -2  -3  11 115.984 50.8969   6
   3  -2 -11 202.702 42.5229   1
   2   3 -11 63.8366 50.2039   4
  -3  -2  11 140.358 37.2366   2
   3  -2 -11 121.972 33.3132   4
  -2   3  11 196.022 34.4823   7
  -3  -2  11 110.997 28.9807   3
   2  -3 -11 201.480 58.8262   8
   3   2 -11 117.470 26.1595   8
  -3  -2  11 90.2417 50.4201   6
   2   3 -12 119.471 36.9174   8
  -2  -3  12 152.047 53.6443   6
   3   2 -12 147.615 52.9581   4
   2  -3 -12 130.513 45.3158   1
  -2   3  12 180.748 35.7981   6
   2  -3 -12 182.993 48.7648   4
   2   3 -12 170.666 65.7903   4
   3   2 -12 156.276 30.7364   8
   3  -2 -12 194.951 40.2556   4
   2  -3 -12 93.8233 52.1396   5
   2  -3 -12 31.7500 62.8224   8
  -2  -3  12 134.807 46.4605   7
  -3  -2  12 157.746 48.2883   7
  -3   2  12 73.5596 42.0661   7
  -2   3  12 178.497 36.0141   7
  -2   3  12 159.851 76.2781   3
  -3   2  12 105.475 45.2243   6
  -3  -2  12 93.6214 43.4929   2
   3  -2 -12 197.634 46.9741   1
  -3  -2  12 152.711 54.0556   6
   2   3 -13 72.7899 80.5043   4
   3   2 -13 128.189 37.7605   8
   2  -3 -13-9.52728 60.7192   1
   2  -3 -13 105.077 97.7883   8
   3  -2 -13-5.77021 79.3289   1
  -2   3  13 194.998 41.4465   6
  -3   2  13-425.645 220.063   2
  -3  -2  13 125.966 71.7157   6
  -2  -3  13 293.176 52.7300   7
   2  -3 -13 189.210 71.0418   5
  -3   2  13 78.5217 59.7684   7
  -2   3  13 189.857 88.9483   3
   3  -2 -13-125.500 91.8819   4
  -3  -2  13 46.2350 66.0160   2
  -3   2  13 205.664 55.1257   6
  -2  -3  13 259.370 62.8467   6
  -3  -2  13 132.116 54.1388   7
   2  -3 -13 142.594 62.7110   4
   2   3 -13 216.344 48.1943   8
   3   2 -13 318.751 81.7979   4
  -2   3  13 156.616 40.3850   7
   2  -3 -14 173.903 76.8362   8
  -3   2  14 18.6165 64.5537   3
  -3  -2  14 16.3532 52.0662   6
   2  -3 -14 74.9741 49.5026   5
  -2  -3  14 119.959 45.3635   7
  -3  -2  14 150.996 49.3923   7
   3  -2 -14 145.008 53.6838   8
   3  -2 -14 39.2376 52.2875   1
  -2  -3  14 204.599 57.6722   6
  -2   3  14 54.3187 31.9675   6
  -3   2  14 99.3643 42.6889   7
   3   2 -14 68.1186 31.3569   8
   2   3 -14 111.470 77.2190   4
   3   2 -14 46.4019 58.6477   4
   2  -3 -14 64.9402 47.3720   1
   3  -2 -14 159.672 47.7583   4
   2  -3 -14 78.9536 57.3155   4
  -3   2  14 113.587 83.7149   2
  -2   3  14 182.421 68.1827   3
  -2   3  14 81.2352 29.2632   7
  -3   2  14 68.3257 42.1202   6
   3   2 -15 34.3991 67.1260   4
   3  -2 -15 7.23299 57.0309   1
  -3   2  15-37.2302 68.3205   3
  -2   3  15 3.38431 26.3284   7
  -3   2  15-44.4690 39.8505   6
   3  -2 -15 43.5099 60.3311   8
  -3  -2  15-25.4996 47.3315   7
   2   3 -15-33.6038 85.6287   4
   2  -3 -15-7.27684 56.2175   5
   3  -2 -15 44.6609 47.0128   5
  -3  -2  15-16.8408 57.3706   6
  -2   3  15 29.3332 61.0307   3
  -3   2  15-4.86256 38.2134   7
  -2  -3  15-8.48283 52.3821   6
   2  -3 -15 21.3058 85.1081   8
  -3   2  15-11.8294 89.4628   2
   3  -2 -15-24.4964 53.9151   4
  -2  -3  15 7.07916 44.8869   7
  -2  -3  16 984.175 219.633   7
   3  -2 -16 1129.07 225.129   8
  -3  -2  16 1032.23 222.206   6
   2   3 -16 1242.23 243.551   4
  -3   2  16 1263.47 227.220   3
  -3   2  16 1481.37 241.724   2
  -3   2  16 1472.01 218.175   6
  -3  -2  16 1314.09 220.370   7
   2  -3 -16 1507.67 223.467   5
   2  -3 -16 1420.58 239.482   8
  -2   3  16 1297.70 229.693   3
  -2  -3  16 1050.04 222.690   6
   3   2 -16 1448.72 232.752   4
   2   3 -17 1849.73 406.266   4
  -2   3  17 2336.17 398.018   3
  -2  -3  17 2271.91 393.599   6
   3  -2 -17 2721.15 398.877   8
  -3  -2  17 2662.82 392.089   7
   2  -3 -17 2897.30 410.431   8
  -3   2  17 2346.38 397.599   3
  -3  -2  17 2211.81 393.667   6
   3   2 -17 1567.45 397.999   4
  -3   2  17 2141.77 404.393   2
  -2   3  18 143.638 78.1381   3
   3  -2 -18 218.952 87.4734   8
  -3  -2  18 120.832 69.1354   6
   3  -2 -18 92.5052 66.0203   5
  -2  -3  18 202.487 70.6132   7
  -3   2  18 13.5134 100.632   2
   2  -3 -18 158.123 71.4729   5
   3   2 -18 134.476 99.7174   4
  -3  -2  18 224.467 61.9582   7
  -2  -3  18 162.181 69.3913   6
   2   3 -18 85.1420 108.890   4
   2  -3 -18 79.8959 98.8767   8
  -3   2  18 134.390 75.9777   3
   2  -3 -19 5282.28 873.199   5
  -2  -3  19 6157.33 872.137   7
  -3  -2  19 5038.07 869.006   7
   2   3 -19 5891.27 885.480   4
  -2  -3  19 4869.06 870.948   6
   3  -2 -19 5897.48 876.561   8
  -3  -2  19 4830.54 870.737   6
  -2   3  19 4588.32 873.411   3
   3   2 -19 4637.25 878.736   4
   2  -3 -19 5636.43 882.633   8
   2  -3 -20 60.5505 135.096   8
  -2  -3  20 159.176 79.9160   6
  -3  -2  20 312.517 79.2926   6
   3   2 -20 101.343 115.849   4
   2  -3 -20 55.2723 84.9773   5
   2   3 -20 192.429 127.122   4
  -2   3  20 362.013 99.2753   3
  -2  -3  20 253.645 78.3430   7
  -3  -2  20 323.985 80.0541   7
  -3  -2  21 3251.91 570.170   6
  -3  -2  21 3614.29 570.139   7
   2   3 -21 3507.52 590.774   4
   2  -3 -21 3227.41 592.190   8
   3   2 -21 3437.18 584.025   4
  -2  -3  21 3194.73 572.661   6
  -2  -3  21 3453.54 573.268   7
   2   3 -22 35.5690 132.426   4
   3   2 -22 114.613 124.032   4
  -3  -2  22 161.509 80.9286   6
  -3  -2  22 193.496 78.9348   7
  -2  -3  22 47.0511 78.5645   6
  -2  -3  22 177.945 83.3273   7
  -3  -2  23 601.493 138.314   7
  -3  -2  23 599.746 138.500   6
   3   2 -23 884.152 188.500   4
   2   3 -23 613.251 186.903   4
  -2  -3  23 618.177 144.901   7
  -2  -3  24 35.0624 90.4721   7
  -2  -3  25 172.201 101.611   7
  -3  -3   1-6.92374 28.5665   7
   3   3  -1-7.47340 18.0421   1
  -3  -3   2 241.065 60.6975   6
  -3  -3   2 142.329 51.2665   7
   3   3  -2 269.355 47.3908   1
  -3  -3   3-7.58604 39.3881   6
  -3  -3   3-5.84504 27.4146   7
  -3   3   4 4763.88 813.308   2
  -3  -3   4 5021.56 812.804   6
  -3  -3   5 7.98563 44.8182   6
   3   3  -5 46.4033 34.9323   1
  -3   3   5-36.5878 46.7396   2
  -3  -3   5-15.1958 28.4282   7
   3  -3  -5-3.51991 18.9592   8
   3  -3  -7-7.78197 24.1665   8
  -3   3   7-21.0295 56.2333   2
   3  -3  -7 37.9571 58.9173   5
   3   3  -8 11339.8 1867.34   1
  -3  -3   9-5.20402 30.7077   7
  -3   3   9 24.0092 32.1777   6
   3   3  -9-5.04683 33.2949   4
  -3  -3   9-7.87724 41.8199   6
  -3   3  10 884.272 166.002   2
   3   3 -10 885.639 145.177   4
  -3   3  10 809.036 141.406   6
  -3  -3  10 709.782 152.718   6
  -3  -3  10 785.327 143.398   7
  -3   3  11-42.3350 33.0892   6
   3  -3 -11 5.42468 21.4367   1
  -3  -3  11-16.2213 50.9140   6
   3   3 -11 62.0494 44.3271   4
  -3   3  11 23.8620 79.4660   2
  -3  -3  11 28.3564 36.3576   7
   3  -3 -11 9.08456 20.3658   4
   3  -3 -11 32.3283 41.2152   8
   3   3 -12 452.059 94.2086   4
  -3   3  12 390.256 84.4988   7
  -3  -3  12 517.863 89.6347   7
   3  -3 -12 406.383 80.8824   4
   3  -3 -12 519.422 82.3994   1
  -3   3  12 351.952 113.875   3
   3  -3 -12 228.736 89.9997   5
  -3   3  12 495.703 85.7980   6
   3  -3 -12 643.466 92.0912   8
  -3   3  12 342.616 116.354   2
  -3  -3  12 414.357 94.9676   6
   3  -3 -13-134.321 55.1991   4
   3  -3 -13-93.9464 52.0177   1
   3  -3 -13-86.1155 82.5246   8
  -3  -3  13-37.5318 58.9749   7
  -3   3  13-132.167 61.9376   7
  -3   3  13-252.499 118.051   3
  -3  -3  13-17.1375 66.3899   6
  -3   3  13-120.290 57.8920   6
   3   3 -13-85.3754 80.1017   4
   3  -3 -13-142.865 79.4071   5
  -3   3  13-151.515 130.699   2
   3  -3 -14 461.417 90.9974   5
   3  -3 -14 383.431 84.5713   4
  -3   3  14 307.593 105.486   3
   3   3 -14 238.215 97.1842   4
  -3   3  14 365.614 119.449   2
  -3   3  14 430.383 81.0792   7
   3  -3 -14 507.399 84.4333   1
  -3  -3  14 455.688 94.8157   6
  -3  -3  14 309.690 82.7056   7
   3  -3 -14 403.187 94.0408   8
  -3   3  14 450.465 79.7718   6
   3  -3 -15-50.7865 51.9065   5
  -3   3  15 44.0210 80.8486   3
  -3   3  15 81.1631 97.0306   2
   3  -3 -15-7.84573 57.6842   8
  -3  -3  15-9.06097 51.9525   6
   3   3 -15-28.6872 68.6310   4
  -3  -3  15-41.5251 46.6340   7
   3  -3 -16 1543.61 275.262   8
  -3   3  16 1695.49 280.045   3
   3  -3 -16 1591.15 269.983   5
  -3  -3  16 1661.49 271.728   6
  -3  -3  16 1542.24 269.384   7
  -3   3  16 1485.94 288.680   2
   3   3 -16 1283.49 279.636   4
  -3  -3  17 28.7082 60.7999   6
  -3  -3  17 15.4403 52.7427   7
  -3   3  17 21.9198 79.2969   3
   3  -3 -17 39.1188 58.4352   5
   3   3 -17-11.7164 87.7263   4
   3  -3 -17 28.2161 79.9660   8
  -3   3  17 43.6537 104.808   2
  -3   3  18 5294.73 815.182   3
  -3  -3  18 3913.65 805.619   7
  -3   3  18 5158.68 824.491   2
   3  -3 -18 5682.27 809.452   5
  -3  -3  19-30.2458 70.2359   6
   3  -3 -19 35.5303 66.7193   5
  -3  -3  19-17.0784 60.5055   7
   3  -3 -19-44.1284 96.0995   8
  -3   3  19 15.8476 119.869   2
  -3   3  19-11.7991 84.6109   3
   3   3 -19-56.1698 117.888   4
   3  -3 -20 8398.39 1178.06   8
  -3  -3  20 6960.35 1169.21   7
   3   3 -20 6427.64 1182.11   4
   3  -3 -20 6628.71 1170.91   5
   3   3 -21-64.5618 126.416   4
  -3  -3  21 9.44596 70.4028   7
  -3  -3  21 32.1533 72.0455   6
  -3  -3  22 2592.69 421.829   7
  -3  -3  22 2131.55 420.188   6
   3   3 -22 2986.79 449.385   4
   3   3 -23 107.996 135.188   4
  -3  -3  23-104.429 77.9184   7
  -3  -3  23 35.2532 83.3050   6
  -3  -3  24 419.472 135.421   6
   3   3 -24 850.240 223.314   4
  -3  -3  24 510.882 129.448   7
  -3  -3  25-38.7686 83.6105   6
  -3  -3  25 34.2630 86.9980   7
   0   4   0 2226.65 362.792   2
   0  -4   0 2405.79 356.199   7
   0  -4   0 2483.76 357.513   6
   0  -4   0 2033.18 356.243   8
   0   4   0 1731.48 356.255   4
   0  -4  -1-2.83498 14.1372   6
   0  -4   1 2.41524 12.5359   8
   0  -4   1-9.50355 16.1873   7
   0  -4  -1 3.47349 18.0286   8
   0  -4   1-5.70620 27.4903   5
   0   4  -1-3.66290 19.1574   4
   0   4   1 2.45290 13.5842   4
   0  -4  -1 14.6545 22.4581   5
   0   4  -1 6.45245 31.6357   2
   0  -4   1-3.71837 16.7567   6
   0   4   1-13.6874 38.1558   2
   0  -4  -1 4.07036 11.0401   7
   0   4  -2 75.7833 33.3306   2
   0  -4  -2 38.3594 16.6302   6
   0   4   2 21.1178 14.1623   4
   0  -4   2 2.24220 11.7877   8
   0   4  -2 26.0481 24.7444   4
   0  -4   2 24.7239 30.9942   5
   0  -4  -2 19.3056 24.6109   5
   0  -4   2 61.9523 22.2045   6
   0  -4  -2 39.3212 25.0537   8
   0  -4  -2 40.6237 12.9514   7
   0  -4   2 72.6867 20.2393   7
   0  -4   3 4.11749 18.5734   7
   0   4   3-11.5977 13.2977   1
   0  -4  -3 1.96613 12.6840   6
   0   4  -3-9.73746 24.2927   2
   0   4  -3 5.05371 29.1116   4
   0   4   3-14.3969 35.3027   3
   0  -4  -3-16.1698 29.8607   8
   0  -4  -3-5.50400 10.2104   7
   0  -4  -3-4.81366 24.4148   5
   0   4   3-2.90781 10.4129   4
   0  -4   3-13.7181 19.3212   6
   0  -4   5-5.33154 24.8052   6
   0  -4  -5 19.4379 26.2256   5
   0  -4   5 15.3494 26.1958   7
   0   4   5-22.7540 43.4308   3
   0   4  -5 32.5146 36.5335   4
   0   4  -6 1636.21 296.630   4
   0  -4   6 1833.25 294.873   6
  -4   0   7 7.30451 35.9168   7
   4   0  -7 12.3639 22.6776   1
  -4   0   7 45.8608 46.5020   6
  -4   0   8 10268.2 1780.82   7
   4   0  -8 11186.0 1777.61   1
   4   0  -9 6.92103 54.4089   5
   0  -4  -9 41.0834 70.9239   8
   0   4   9-32.4049 49.7748   3
   0  -4   9-7.05361 38.5611   6
  -4   0   9-14.7657 40.0775   7
   4   0  -9-10.5375 31.4915   1
   0  -4   9-28.9100 40.5914   7
  -4   0   9-8.15849 54.6042   6
   0   4  -9 9.19660 53.6346   4
   0  -4  -9-5.93477 34.4194   5
   4   0 -10 94.8530 50.1131   5
   0  -4  10 30.1194 41.9623   6
  -4   0  10 107.292 61.6054   6
   0  -4 -10 109.407 76.5857   8
   0   4  10 66.6960 25.4940   7
   0   4  10 165.647 54.9956   3
   0  -4 -10 77.0158 46.7997   5
   0   4 -10 168.329 71.3166   4
   0  -4  10 140.257 44.6828   7
   0   4 -11 10.6147 69.7017   4
  -4   0  11-15.9889 45.7642   2
   0   4  11 8.63092 23.3194   7
   0  -4  11 8.37538 48.2453   7
   0  -4  11 8.01906 40.6717   6
   4   0 -11 30.7107 41.0463   5
   0   4  11-26.0370 49.3646   3
   0  -4 -11 6.93956 43.3352   5
   4   0 -11 8.74203 21.9184   8
   0  -4 -11 34.9363 67.4874   8
   4   0 -12 60.1137 27.7471   8
  -4   0  12 33.2341 46.4948   7
   0  -4 -12 82.8072 51.8091   5
   0   4  12 109.050 52.1020   3
  -4   0  12 92.4843 61.4530   3
  -4   0  12 34.0343 55.5703   2
   0  -4  12 42.6092 49.0405   6
   0   4 -12 102.408 82.1458   4
   4   0 -12 82.2252 41.9179   5
   0  -4  12 89.7581 52.1408   7
   0  -4 -12 160.189 83.3305   8
   0   4  12 105.486 31.1730   7
   4   0 -12 29.5444 51.3296   1
   0   4  13-37.4710 57.0591   3
   4   0 -13-121.558 69.3565   4
   0   4 -13-193.844 116.553   4
   4   0 -13-80.9271 90.3427   1
   0  -4  13-115.173 64.0615   7
  -4   0  13 393.130 126.359   3
   0   4  13-7.37637 36.5016   7
   4   0 -13-92.0625 52.8607   8
   4   0 -13-100.259 61.2738   5
   0  -4 -13-49.8175 66.9028   5
  -4   0  13 539.799 134.785   2
   0  -4 -13-78.3071 109.957   8
   0  -4  13-36.1034 57.0974   6
   4   0 -14 214.756 45.8389   8
  -4   0  14 199.717 65.5104   6
   4   0 -14 60.9341 69.3196   1
   4   0 -14 159.032 50.9849   5
   0  -4 -14 165.534 104.758   8
   0  -4  14 204.526 70.3829   7
   4   0 -14 201.583 58.3224   4
  -4   0  14 168.307 71.3886   3
   0   4 -14 153.880 89.6409   4
   0  -4 -14 237.636 76.1309   5
   0   4  14 146.735 47.6490   7
  -4   0  14 197.601 58.4369   7
  -4   0  14 142.071 79.4215   2
   0   4  14 234.280 70.6178   3
   0   4 -15 13.5295 93.8146   4
  -4   0  15-14.4543 57.9334   3
   0  -4 -15-29.1003 104.312   8
   0  -4  15-43.5624 63.8818   7
   4   0 -15-27.9079 41.3945   5
   0   4  15 102.120 59.5402   3
   4   0 -15 16.2212 35.0391   8
   4   0 -15-6.13788 48.7258   4
  -4   0  15-88.7290 58.7587   6
  -4   0  15 9.87266 76.5402   2
   4   0 -15-9.51976 63.1052   1
  -4   0  15 40.2208 52.6866   7
   0  -4 -15-40.1113 72.4715   5
   0  -4  16-34.7091 81.9382   7
   4   0 -16-28.1369 52.0384   4
  -4   0  16 8.21010 55.1916   6
   0  -4 -16-43.6306 74.9829   5
   0  -4 -16 91.9146 121.593   8
   4   0 -16 51.1230 72.1138   1
   0   4  16 74.9235 69.5992   3
  -4   0  16 13.5583 47.8191   7
   0  -4  17 36.8189 82.1205   7
   4   0 -17 10.9841 77.1499   1
  -4   0  17-27.8679 49.3537   7
   0   4  17-22.8140 74.1777   3
  -4   0  17 50.5360 62.0747   6
   0  -4 -17-80.4876 121.748   8
   4   0 -17-47.2652 65.3530   4
   0  -4 -17 23.6383 77.9790   5
   4   0 -18 3197.98 554.922   4
  -4   0  18 3442.47 553.112   6
  -4   0  18 3339.20 550.962   7
   0  -4 -18 3258.23 560.388   5
   0  -4 -18 3142.39 574.808   8
   4   0 -18 3207.60 559.671   1
   0   4  18 3303.56 559.483   3
   4   0 -19-50.5222 96.5894   1
   4   0 -19-20.4606 78.8014   4
  -4   0  19-53.3920 62.8102   6
   0   4  19-12.8583 79.8723   3
   0  -4 -19 71.0783 138.251   8
  -4   0  19 22.4197 53.4219   7
   0  -4  19-96.3286 96.2713   7
   0  -4 -19 13.5803 96.2056   5
   0  -4 -20 4278.45 752.733   8
   0   4  20 4388.09 735.607   3
   0  -4 -21 77.8261 147.162   8
   0  -4 -22 1711.38 351.644   8
   0  -4 -23-21.2922 159.305   8
   0  -4 -24-222.338 239.283   8
  -1  -4   0 7387.90 1197.89   7
  -1  -4   0 6815.23 1199.80   6
   1   4   0 7488.58 1197.53   4
   1  -4   0 7241.77 1199.50   7
  -1   4   0 7442.54 1204.51   2
   1  -4  -1 222.127 57.8397   8
  -1  -4   1 426.574 63.6006   6
  -1  -4  -1 339.375 61.9680   6
   1  -4  -1 401.127 59.4174   7
   1   4   1 316.168 61.2318   1
   1   4   1 372.819 67.2668   3
   1   4  -1 342.029 65.2770   3
  -1  -4   1 292.169 60.3748   8
   1  -4   1 255.388 61.1688   7
  -1  -4  -1 263.320 60.3435   5
  -1   4   1 516.959 74.3257   2
   1   4  -1 389.277 58.4140   4
  -1  -4  -1 372.307 67.6281   8
  -1   4  -1 403.666 67.6738   2
  -1  -4   1 247.897 57.6424   7
   1  -4  -1 371.283 72.2715   5
  -1  -4   1 442.877 60.9075   5
  -1  -4  -1 252.478 57.5590   7
   1   4   2 482.091 74.7327   3
   1  -4  -2 263.405 78.8270   5
  -1  -4  -2 453.112 68.2498   5
   1  -4  -2 344.139 65.0650   7
   1  -4   2 331.853 70.2256   7
  -1   4   2 440.518 81.3827   2
   1   4  -2 462.242 72.6482   3
  -1  -4  -2 252.286 74.1085   8
  -1  -4  -2 377.011 66.6376   7
  -1  -4   2 384.272 67.5005   7
  -1  -4   2 342.326 66.9615   5
   1   4   2 413.070 67.0574   1
  -1  -4  -2 269.362 68.2556   6
  -1  -4   2 500.772 71.2064   6
  -1  -4   2 366.285 65.3725   8
   1  -4  -2 376.825 66.6296   8
   1   4  -2 389.637 66.6589   4
   1   4  -2 189.313 70.2386   2
  -1  -4  -3 1337.52 245.180   8
   1   4  -3 1323.61 239.426   4
   1   4   3 1702.83 238.054   1
   1   4   3 1444.30 243.182   3
   1  -4  -3 1396.90 237.281   7
  -1  -4   3 1698.30 240.201   7
  -1  -4  -3 1058.06 238.624   7
  -1  -4  -3 1543.04 240.386   5
  -1  -4   3 1260.29 240.985   6
   1  -4   3 1497.50 243.201   7
  -1  -4  -3 1403.06 239.981   6
   1   4  -4 79.7102 28.4706   4
  -1  -4   4 40.7926 26.5794   6
  -1  -4   4 73.1375 16.6391   8
  -1  -4   4 65.4972 26.7657   5
   1  -4  -4 57.9536 37.7659   5
  -1  -4  -4 51.3971 42.1758   8
  -1  -4   4 33.8572 20.4874   7
   1   4   4 144.143 38.0593   3
  -1  -4  -4 55.5296 24.0710   5
   1   4  -4 46.4678 30.5181   2
   4   1  -5 9206.46 1341.36   1
   1  -4  -5 7264.63 1341.33   8
   1   4  -5 8270.92 1341.78   4
  -1  -4  -5 7477.67 1341.21   5
  -1  -4   5 8485.46 1340.91   5
   1   4   5 8107.53 1343.67   3
  -1   4   5 8432.34 1347.95   2
  -4  -1   6 3180.13 401.885   6
  -1  -4   6 2036.12 393.231   6
   4   1  -6 2295.72 391.346   1
   4   1  -7 5162.68 852.418   1
   1  -4  -8 435.695 90.2690   8
  -1  -4  -8 492.382 96.1775   8
  -4   1   8 507.488 90.9379   6
  -1  -4   8 329.127 78.0767   7
  -4  -1   8 394.757 92.7225   6
   1   4   9 2390.81 394.985   3
   4  -1  -9 2322.18 397.327   5
  -4   1   9 2397.66 394.655   6
  -4   1   9 2618.13 396.968   2
   4  -1  -9 2452.84 388.962   1
  -1  -4   9 1990.87 392.106   6
  -1  -4  -9 2465.84 393.276   5
   1  -4  -9 2198.95 397.043   8
  -1  -4  -9 2162.20 398.762   8
   1   4  10 954.323 239.880   3
  -1  -4  10 1222.11 238.628   6
   1  -4 -10 1542.61 247.940   8
   1   4 -10 1445.83 244.966   4
   4  -1 -10 1486.33 231.956   8
  -1  -4 -10 1189.41 245.993   8
  -4   1  10 1153.78 237.943   7
  -4   1  10 1403.32 243.462   2
   4  -1 -10 1696.29 235.035   1
  -1  -4 -10 1486.62 240.419   5
  -1   4  10 1256.88 244.564   3
  -4   1  11 82.9144 57.7287   6
  -4  -1  11 32.9210 45.0450   7
  -1  -4  11 97.1892 45.0468   6
  -4   1  11 86.6297 62.8212   2
   1   4  11 85.6397 47.9073   3
   1   4 -11 68.2762 66.0676   4
   4   1 -11 42.9646 33.5654   5
  -1  -4 -11 45.0888 60.7251   8
   1  -4 -11 85.8581 44.7744   5
   1  -4 -11 72.3648 62.9288   8
  -1   4  11 60.6609 16.0382   7
  -1  -4  11 21.1071 44.6543   7
  -4   1  11 42.8295 49.7173   7
   4   1 -11 95.7854 55.5922   1
  -1   4  11-9.51124 60.5672   3
  -1  -4 -11 162.248 57.5335   5
   4  -1 -11 58.6554 29.1093   8
  -4  -1  11 43.7501 59.4439   6
   4  -1 -11 26.4568 49.9989   5
   4  -1 -11 108.439 39.5639   1
  -4  -1  12 117.647 55.3010   3
   4  -1 -12 100.030 55.7581   5
  -1  -4 -12 148.513 62.0790   5
  -1  -4  12 165.422 58.3627   7
  -1   4  12 133.756 64.1580   3
  -1  -4 -12 143.056 79.0456   8
  -1  -4  12 109.980 53.7171   6
   1  -4 -12 130.971 54.5548   5
   4   1 -12 199.407 48.9968   4
   1  -4 -12 213.365 87.8353   8
  -4   1  12 152.269 72.3785   2
   4   1 -12 177.455 43.5996   5
   4  -1 -12 284.451 45.4361   8
  -4  -1  12 83.8513 56.5195   7
  -4   1  12 178.126 61.7770   6
  -4  -1  12 232.064 58.7640   2
   1   4  12 116.951 53.1476   3
   1   4 -12 118.344 77.3848   4
  -1   4  12 172.525 31.7255   7
   4   1 -12 87.2033 61.6452   1
  -4  -1  12 111.753 61.6832   6
  -1  -4 -13 10.1401 62.9540   5
   4   1 -13 2.59042 32.9338   8
   4   1 -13-9.49384 90.0348   1
   1  -4 -13-142.999 117.354   8
   4   1 -13-42.5123 49.6419   5
  -4  -1  13-145.518 116.727   2
   1   4 -13-11.5076 94.8734   4
  -1  -4  13 8.18841 51.9188   6
  -4  -1  13-98.0020 73.8172   7
  -1   4  13-19.3198 75.1429   3
   4  -1 -13-47.1620 68.7349   5
  -1  -4  13 152.409 58.8800   7
  -4   1  13-264.024 151.259   3
   4   1 -13-60.4245 66.4426   4
   1  -4 -13 36.7295 66.2082   5
  -1  -4 -13 50.2413 100.995   8
  -1   4  13 94.2509 20.1583   7
   1   4  13 57.5696 60.5224   3
  -4  -1  13-222.477 96.9911   6
  -4  -1  13-110.555 79.6286   3
  -4  -1  14 1476.45 247.493   7
   1  -4 -14 1120.64 266.625   8
  -1  -4 -14 1490.28 271.033   8
   4   1 -14 1192.02 256.407   1
   4  -1 -14 1321.18 248.325   1
  -1  -4 -14 894.748 252.109   5
  -4  -1  14 1747.09 254.583   6
   4  -1 -14 1578.66 247.097   5
   4   1 -14 1665.92 241.081   5
  -4  -1  14 1402.04 252.021   2
  -1   4  14 1695.30 256.246   3
  -4   1  14 1664.56 254.442   3
   4   1 -14 1278.85 246.478   4
   4   1 -14 1322.34 239.129   8
   1   4 -14 1440.73 264.468   4
  -1  -4  14 1751.29 253.570   7
  -1  -4  14 1163.24 250.353   6
   1   4  14 1490.21 253.942   3
   1   4  15 64.7341 66.0795   3
   1  -4 -15 163.668 110.656   8
  -1  -4 -15 23.6852 76.1424   5
   4  -1 -15 79.3101 63.0203   1
  -1   4  15 165.710 72.7019   3
   4   1 -15 75.8883 53.6708   4
   1  -4 -15 76.1362 59.9901   5
   1   4 -15 105.219 98.3928   4
  -1  -4 -15 124.287 103.202   8
  -1  -4  15 172.612 64.9594   7
  -4  -1  15 104.468 57.6822   6
  -4   1  15 149.468 55.9050   7
   4  -1 -15 43.9701 47.6535   4
  -1  -4  15 136.788 57.3152   6
  -4  -1  15 40.4505 49.5903   7
   4   1 -15 32.8155 79.4800   1
  -1  -4  16 1442.28 226.095   6
   1  -4 -16 1052.91 245.945   8
   1  -4 -16 1416.40 229.165   5
   4  -1 -16 1088.65 226.378   1
  -4  -1  16 1104.09 226.431   6
   1   4 -16 1199.77 247.060   4
  -4  -1  16 1197.37 220.058   7
   4   1 -16 1538.75 226.772   4
  -4   1  16 1333.67 222.273   6
   1   4  16 1155.82 230.605   3
   4   1 -16 1008.72 233.029   1
  -4   1  16 573.243 233.306   2
   4  -1 -16 1220.17 219.624   4
  -1  -4 -16 1569.72 246.828   8
  -4   1  16 1258.83 221.389   7
   4  -1 -16 1605.78 219.959   8
  -1   4  16 1197.51 230.013   3
  -1  -4  16 1292.89 231.534   7
   1  -4 -17 1701.94 296.540   5
  -4   1  17 1814.32 289.031   7
  -1   4  17 1761.81 299.686   3
   4   1 -17 1546.41 302.309   1
   1   4 -17 1242.97 308.069   4
  -4  -1  17 1800.25 293.050   6
   4  -1 -17 1689.15 295.237   1
  -4  -1  17 1954.66 289.426   7
   4  -1 -17 2056.73 288.742   8
  -1  -4 -17 1681.45 315.268   8
   4  -1 -17 1391.70 285.383   5
  -1  -4  17 1157.17 292.533   6
   4   1 -17 1538.15 294.008   4
   4  -1 -17 1808.28 291.925   4
   1  -4 -17 1348.84 316.820   8
  -4   1  17 1869.43 292.043   6
   4   1 -18 1144.36 268.962   4
   1   4 -18 1466.47 285.108   4
  -1   4  18 1815.15 273.111   3
  -4   1  18 1467.13 260.881   7
  -1  -4  18 1441.43 268.406   6
  -1  -4  18 1989.65 272.595   7
  -1  -4 -18 1422.02 286.608   8
  -4  -1  18 1437.65 266.596   6
  -4   1  18 1490.24 262.020   6
  -4  -1  18 1462.57 260.567   7
   1  -4 -18 1538.64 301.534   8
   1  -4 -18 1666.25 271.383   5
   4   1 -18 1292.85 278.020   1
  -4  -1  19 4349.54 828.867   6
   1   4 -19 4934.79 844.057   4
  -1  -4  19 5671.79 836.189   7
  -1   4  19 4975.23 837.031   3
   1  -4 -19 4329.82 848.324   8
   4   1 -19 5852.66 836.085   4
   4   1 -19 4795.23 841.237   1
   1  -4 -20 465.547 172.353   8
  -1   4  20 335.055 109.940   3
   4   1 -20 401.805 107.367   4
  -4  -1  20 304.867 82.0495   7
   4   1 -20 229.518 129.383   1
   1   4 -20 343.268 142.559   4
   1  -4 -20 400.867 116.942   5
  -1  -4 -20 247.348 149.663   8
  -1  -4  20 456.678 108.039   7
  -4  -1  20 206.027 91.7006   6
   4   1 -21 4393.01 656.915   4
  -1   4  21 3409.91 651.580   3
  -4  -1  21 4092.44 643.065   7
  -4  -1  21 2994.61 643.008   6
  -1  -4  21 4794.89 654.183   7
   1  -4 -21 3812.86 669.639   8
  -1  -4 -21 3877.31 664.813   8
  -1   4  22 495.603 130.906   3
  -1  -4 -22 346.433 162.197   8
   1  -4 -22 397.742 191.022   8
  -1  -4  22 604.831 132.552   7
   1  -4 -22 514.155 137.514   5
   1  -4 -23 924.633 242.769   8
  -1  -4  23 884.323 185.552   7
  -1  -4 -23 808.187 223.718   8
  -1  -4  24 307.075 124.273   7
  -1  -4  26 61.1615 111.817   7
  -2  -4   0 673.643 119.542   8
   2   4   0 825.664 118.935   3
   2   4   0 435.182 117.415   1
  -2  -4   0 631.603 118.905   7
  -2  -4   0 714.040 121.251   6
  -2  -4   0 796.646 117.025   5
   2   4   1 4456.63 644.266   3
  -2  -4  -1 3209.37 645.093   8
   2   4  -1 3195.91 641.983   3
  -2  -4   1 3117.11 642.378   7
  -2  -4  -1 3548.65 644.878   7
   2   4   1 4396.89 642.475   1
  -2  -4   1 4392.15 641.612   5
  -2  -4  -1 4181.67 646.015   6
  -2  -4   1 3598.66 646.544   6
  -2  -4   1 4421.14 644.506   8
  -2   4   1 4744.09 650.145   2
  -2  -4   2 1170.19 201.448   6
  -2  -4   2 1097.96 198.846   8
   2   4   2 1209.99 199.367   3
  -2  -4   2 1220.69 197.775   7
   2   4  -2 745.506 199.650   1
  -2  -4   2 1311.08 195.720   5
  -2  -4  -2 1326.15 202.056   8
  -2  -4  -2 1154.59 198.192   5
   2  -4  -3 4485.28 760.587   5
  -2  -4   3 3847.70 749.190   8
   2   4   3 4756.81 752.258   3
  -2  -4   3 4841.03 747.789   5
   2   4  -3 4686.40 749.148   3
  -2  -4  -3 4580.23 753.704   8
  -2  -4   3 4740.81 750.032   7
  -2  -4  -3 4314.56 751.264   5
  -2  -4   4 3707.98 577.217   8
  -2   4   4 3633.98 589.374   2
   2   4  -4 3972.73 579.457   4
  -4  -2   4 3205.45 585.154   7
  -2  -4  -4 2463.08 580.272   5
   2   4   4 3777.65 582.313   3
  -4  -2   5 44.6963 44.4060   6
  -2  -4  -5 61.8249 36.3876   5
   2   4   5 99.2093 33.5200   3
  -4  -2   5 25.3936 45.3237   7
  -2  -4   5 84.0951 18.4467   5
   2   4  -5 104.220 24.4167   3
   4   2  -5 69.7578 32.0501   1
   2   4  -5 98.9977 27.8533   4
   2   4  -5 71.0615 30.3077   2
  -2  -4   5-6.43458 38.7914   6
   2  -4  -5 35.4003 52.1100   5
  -2  -4   5 97.7639 19.6355   8
  -4   2   8 7622.82 1074.57   2
  -2  -4  -8 6504.97 1072.77   8
  -2  -4   8 6522.56 1068.32   6
   2   4   8 6476.14 1068.88   3
   4  -2  -8 5924.95 1072.74   5
   2  -4  -8 6166.00 1065.81   8
  -4  -2   9 840.900 169.975   7
  -4  -2   9 752.085 176.324   6
   4  -2  -9 1143.84 182.708   5
  -2   4   9 784.846 182.044   3
   2  -4  -9 980.090 171.663   5
   2  -4  -9 925.039 169.369   8
   2   4   9 1110.50 173.569   3
  -4   2   9 1069.58 180.559   2
  -2  -4   9 1104.99 167.533   7
  -2  -4   9 813.890 169.164   6
   2   4  -9 826.316 169.129   4
  -2  -4  -9 1356.51 183.956   8
  -4   2   9 1160.37 172.911   6
  -2   4   9 761.078 182.124   2
   4   2  -9 791.300 170.240   1
  -2  -4  -9 1085.08 176.422   5
  -2  -4  10 2805.26 409.696   7
   4  -2 -10 2376.50 414.078   5
  -2   4  10 2048.10 418.090   3
  -4  -2  10 2400.05 410.197   7
  -2  -4 -10 2500.56 418.937   8
  -2  -4 -10 2246.35 414.855   5
  -4  -2  11 2821.43 449.105   7
  -2   4  11 2852.95 463.353   2
   2   4  11 2783.70 453.962   3
   2  -4 -11 3031.24 451.896   8
  -4  -2  11 2382.43 443.405   3
  -4   2  11 2570.48 449.085   6
  -2  -4  11 2535.38 451.119   6
   2  -4 -11 2813.13 443.436   4
  -2  -4  12-25.6758 44.5437   7
   2  -4 -12-31.7087 39.0951   4
  -4  -2  12-38.0433 32.4619   3
  -4   2  12-89.5340 63.6229   7
  -2   4  12-163.930 105.946   3
   4   2 -12-110.330 85.6381   1
   2   4 -12-125.588 77.5073   4
  -4  -2  12-100.890 79.8923   6
  -4   2  12-155.025 72.3474   6
   4  -2 -12-30.5888 40.1535   1
  -2   4  12-37.1288 27.5879   7
  -2  -4  12-8.19638 54.6698   6
   2  -4 -12-94.3726 71.2935   5
   4   2 -12-33.7635 59.1790   4
   2  -4 -12-2.11295 20.0014   1
  -4  -2  12-19.6499 47.7263   7
   2  -4 -12-49.7843 76.3528   8
  -2  -4 -12-72.6183 81.9487   8
   4   2 -12-30.5609 24.0248   5
   4   2 -13 1554.69 239.866   4
   4   2 -13 1201.43 229.913   5
  -2   4  13 1382.92 255.039   3
  -4   2  13 1423.47 257.296   2
   4   2 -13 847.347 246.920   1
  -4   2  13 1254.70 239.525   7
   2  -4 -13 1352.25 248.663   8
   2   4 -13 1205.39 248.625   4
   4  -2 -13 1715.58 236.990   8
  -4  -2  13 1499.15 247.966   6
  -2  -4  13 1265.04 243.621   6
  -4   2  13 1535.49 240.004   6
   4  -2 -13 1420.90 233.325   4
  -2  -4 -13 1752.43 260.802   8
  -2  -4  13 1760.16 240.998   7
  -4   2  14 32.9885 86.5863   3
   2  -4 -14 59.5812 74.2065   8
  -4  -2  14 40.8706 46.5273   7
   2   4 -14-11.0119 76.8788   4
   4  -2 -14 25.2224 36.6220   4
   4   2 -14 55.1081 56.5375   4
  -4  -2  14 46.4011 65.1310   6
  -2  -4  14 52.6932 57.9190   6
  -2  -4 -14-13.2658 80.3027   8
  -2  -4  14 72.2593 48.6553   7
  -2   4  14-76.1209 76.8859   3
   4  -2 -14-6.95096 54.1642   5
   2  -4 -14 60.9807 56.2206   5
  -4   2  14 45.5104 51.7252   6
   4   2 -14 58.1712 80.1588   1
  -4   2  14-12.6876 95.4135   2
   4  -2 -14 47.4372 44.0626   8
   4  -2 -15 2564.53 364.246   8
   4  -2 -15 1957.84 365.227   5
  -4   2  15 1797.86 379.277   2
   2  -4 -15 1781.77 375.178   8
   2   4 -15 1825.26 375.578   4
  -2  -4  15 2208.00 368.045   6
   4   2 -15 1532.57 375.265   1
  -4  -2  15 2180.50 370.284   6
  -4  -2  15 2258.52 364.577   7
  -2  -4  15 2674.67 368.632   7
  -4   2  15 1839.58 374.532   3
  -2   4  15 2446.75 374.399   3
  -2   4  16 122.688 88.0493   3
   4  -2 -16 294.026 71.9895   5
  -4  -2  16 295.226 69.9132   7
  -4   2  16 280.882 98.0201   3
  -4  -2  16 335.218 82.8639   6
  -4   2  16 190.142 103.521   2
   4   2 -16 106.676 94.0558   1
   4   2 -16 262.078 82.8669   4
  -2  -4  16 204.184 77.8204   6
   2  -4 -16 276.253 106.684   8
   4  -2 -16 361.436 69.6134   8
  -2  -4  16 193.864 72.9008   7
   2  -4 -16 301.489 79.7789   5
   2   4 -16 158.256 105.900   4
  -4  -2  17 3179.15 552.448   7
   2  -4 -17 3427.61 565.108   8
   4   2 -17 3065.19 567.448   1
  -4  -2  17 3028.86 556.882   6
   2  -4 -17 3509.79 556.444   5
   4  -2 -17 3617.37 553.960   8
   4  -2 -17 3516.03 553.266   5
  -2  -4  17 3208.83 554.517   7
   2   4 -17 3120.74 566.029   4
  -4   2  17 3334.09 560.338   3
  -4   2  17 2973.19 567.875   2
  -4  -2  18 6203.49 1002.16   6
  -2   4  18 5166.90 1002.68   3
   4   2 -18 3816.52 1007.70   1
   2  -4 -18 5980.36 1010.05   8
  -2  -4  18 6269.17 1002.38   6
  -2  -4  18 6325.25 1001.09   7
   4  -2 -18 6689.34 998.733   5
   4  -2 -18 6654.83 999.035   8
   4   2 -19 1579.79 280.012   1
  -2  -4  19 1210.39 245.320   6
   2   4 -19 1506.80 282.668   4
   2  -4 -19 1414.25 269.189   8
   2  -4 -19 1426.12 252.633   5
   4   2 -19 1366.41 261.573   4
  -4  -2  19 1083.63 244.241   6
  -4  -2  19 1435.25 242.733   7
  -2   4  19 1424.58 254.755   3
  -2  -4  19 1512.19 246.430   7
  -2   4  20 5027.48 878.908   3
  -2  -4  20 5240.35 875.806   6
  -2  -4  20 6359.14 877.345   7
  -4  -2  20 4336.57 872.934   6
   4   2 -20 5780.73 891.032   1
   2  -4 -20 5919.56 891.419   8
   2  -4 -20 4989.89 875.954   5
   4   2 -20 5116.42 881.790   4
  -4  -2  20 5202.11 871.645   7
  -4  -2  21 570.709 136.951   6
  -2  -4  21 590.922 140.018   6
   2  -4 -21 1032.20 184.790   8
   2  -4 -21 470.404 145.706   5
  -4  -2  21 817.831 133.166   7
   4   2 -21 724.305 170.973   4
  -2  -4  21 610.402 141.028   7
   2   4 -21 599.663 179.289   4
  -2   4  21 636.763 148.259   3
   4   2 -21 492.924 168.896   1
  -2  -4  22 2718.52 510.829   6
  -4  -2  22 2720.89 509.271   6
  -2  -4  22 3604.25 515.487   7
   4   2 -22 2715.40 533.638   1
   2   4 -22 2748.04 533.125   4
   4   2 -22 3025.31 524.184   4
  -4  -2  22 3485.77 508.263   7
   2  -4 -22 2617.26 515.081   5
  -2  -4  23 1062.01 167.326   7
   2   4 -23 693.436 206.305   4
  -4  -2  23 846.794 154.729   7
  -4  -2  23 490.670 153.415   6
  -2  -4  24 331.559 122.518   7
   2   4 -24 319.237 192.456   4
  -2  -4  26 95.4663 101.698   7
  -2  -4  27 115.479 116.860   7
   3   4   0 370.600 67.5883   1
  -3  -4   0 271.837 77.5696   7
  -3  -4   0 425.062 74.3980   8
  -3  -4  -1 179.291 51.0104   8
  -3  -4   1 202.066 53.8214   7
   3   4  -1 180.527 43.6413   1
  -3  -4   1 204.952 46.3263   8
  -3  -4   1 235.274 56.0459   6
  -3  -4  -2 6753.28 898.100   8
  -3  -4   2 5134.15 893.520   7
  -3  -4   2 5202.49 895.881   6
  -3  -4   2 5104.51 890.953   8
  -3  -4   3 375.775 65.5505   8
  -3  -4   3 375.210 71.6251   7
   3   4  -3 385.487 70.6434   1
  -3  -4   4 2905.97 480.047   8
  -3  -4   5 7881.87 1293.59   8
  -4  -3   6 14.9713 41.4585   7
   4   3  -6-6.82613 44.3852   1
   3   4  -7 11392.1 2026.62   1
   3  -4  -7 11591.4 2020.76   8
   3   4  -7 12638.5 2021.91   4
  -3  -4   7 13309.5 2022.80   7
  -3  -4   7 13864.7 2027.58   6
   4   3  -7 12398.6 2025.11   1
  -4  -3   7 10849.9 2029.07   6
   3   4  -8 3033.67 467.876   4
  -3  -4   8 3112.92 468.132   7
  -4  -3   8 1884.27 476.504   6
   3  -4  -8 2905.56 466.671   8
   4   3  -8 2466.37 472.395   1
  -4   3   9 5866.66 829.535   2
   4  -3  -9 5918.25 816.244   8
   3   4  -9 5239.07 818.052   4
   4   3  -9 4377.64 821.108   1
   3  -4  -9 5555.09 816.849   8
  -3  -4   9 5542.60 817.471   7
  -3  -4   9 4987.43 821.892   6
  -3   4   9 3606.40 812.936   6
   3  -4 -10 183.399 63.0427   8
  -3   4  10 285.740 58.2918   6
  -4   3  10 298.138 92.6174   2
  -4  -3  10 149.108 87.8124   6
  -4  -3  10 193.096 68.2852   7
  -3  -4  10 334.018 78.7094   6
   3   4 -10 236.280 69.2963   4
   4   3 -10 136.708 78.5727   1
   4  -3 -10 331.844 65.2634   8
  -3   4  10 293.892 103.739   2
  -4   3  10 359.014 74.8008   6
  -3  -4  10 389.789 67.6900   7
   3  -4 -10 342.197 80.1624   5
   4   3 -10 407.548 67.1377   4
  -4  -3  11 407.070 118.343   7
   3  -4 -11 599.762 127.954   5
  -4  -3  11 739.915 136.058   6
   4  -3 -11 910.324 118.459   8
  -3  -4  11 508.342 124.468   6
  -3  -4  11 722.507 117.605   7
   3   4 -11 619.337 124.229   4
   4  -3 -11 778.317 132.562   5
   3  -4 -11 600.299 107.327   4
   3  -4 -11 678.555 118.991   8
  -3   4  11 561.112 148.553   2
  -3   4  11 682.829 146.344   3
  -3   4  11 572.183 110.470   6
  -4   3  11 455.970 146.162   2
   4   3 -11 497.673 132.828   1
  -4   3  11 705.993 125.055   6
   4   3 -11 833.000 120.578   4
   4   3 -12 1641.22 276.518   4
   3  -4 -12 1668.18 280.654   5
  -4   3  12 1320.65 276.127   6
  -3  -4  12 1720.06 274.611   7
  -3  -4  12 1784.96 283.154   6
  -3   4  12 1776.02 305.619   2
   3   4 -12 1297.88 279.122   4
   3  -4 -12 1824.21 278.663   8
   3  -4 -12 1677.69 266.220   4
   4  -3 -12 1881.86 282.715   5
  -4   3  12 1362.08 300.236   2
   4   3 -12 1828.72 294.468   1
  -4  -3  12 1846.00 289.434   6
  -4  -3  12 1654.88 279.088   7
  -3   4  12 1355.23 267.515   6
  -3   4  12 1162.02 298.528   3
   3  -4 -13 72.9042 61.7543   5
  -3  -4  13 119.304 59.5308   6
  -4  -3  13 62.3411 48.3841   7
  -4  -3  13 155.865 69.1154   6
   3  -4 -13 136.395 59.1065   8
   4  -3 -13 118.253 67.3162   5
   4  -3 -13 145.079 48.6977   8
  -3   4  13 190.866 98.2857   3
   4  -3 -13 144.485 36.8076   4
  -4   3  13 41.6930 100.093   2
   4   3 -13 48.8997 86.7039   1
  -4   3  13 63.3229 50.3000   6
   4   3 -13 152.595 55.7150   4
  -3   4  13 95.5909 33.3321   6
   3   4 -13 95.0160 69.1774   4
  -4   3  13 75.5238 98.9369   3
  -3  -4  13 95.0198 49.3222   7
  -3   4  13 215.668 103.023   2
  -3   4  14 1234.55 242.793   2
  -3  -4  14 1649.84 218.847   7
   3  -4 -14 1082.76 217.832   5
   4  -3 -14 1265.57 221.802   5
  -3  -4  14 1475.50 224.840   6
  -4   3  14 1231.40 238.213   2
  -4  -3  14 1470.39 226.977   6
  -4   3  14 901.584 212.609   7
   4   3 -14 1267.85 234.497   1
  -4  -3  14 1242.57 215.868   7
  -4   3  14 1215.01 238.798   3
   3  -4 -14 1356.34 219.839   8
  -3   4  14 1268.84 233.448   3
   3   4 -14 1016.03 223.203   4
   4   3 -14 1067.58 218.577   4
   3  -4 -15 25.1421 61.0504   8
   4  -3 -15 38.6945 53.0172   8
  -4  -3  15-20.0019 65.3514   6
  -4   3  15-38.2008 98.0355   3
  -3   4  15-15.1424 110.296   2
   3   4 -15-20.7946 81.7127   4
   4   3 -15 34.1103 61.6331   4
   4   3 -15 13.9393 91.0808   1
  -3  -4  15-15.0288 53.8799   7
  -3  -4  15-9.61562 63.1384   6
   4  -3 -15-8.08383 61.8058   5
   3  -4 -15-73.1716 56.8663   5
  -3   4  15 25.1311 85.9988   3
  -4  -3  15-29.2443 48.0112   7
  -4   3  15 29.5436 110.499   2
   4  -3 -16 254.174 78.3975   8
  -4   3  16 213.461 120.553   2
   4   3 -16 341.317 118.212   1
  -4  -3  16 304.310 87.5134   6
  -3   4  16 235.808 131.754   2
   4   3 -16 204.551 95.4729   4
  -3  -4  16 267.821 75.4817   7
   4  -3 -16 341.018 87.7511   5
   3  -4 -16 408.803 94.1801   8
  -4  -3  16 234.573 76.6702   7
  -4   3  16 380.383 119.695   3
   3  -4 -16 448.644 84.8912   5
  -3  -4  16 266.930 82.3256   6
   3   4 -16 252.144 102.082   4
  -3   4  16 99.8211 102.901   3
  -4  -3  17 3246.09 538.499   6
  -4  -3  17 3239.74 534.104   7
  -3   4  17 3082.20 542.442   3
  -4   3  17 3310.91 555.631   2
   4   3 -17 2989.15 551.162   1
  -3   4  17 3342.93 554.513   2
  -4   3  17 3590.71 543.276   3
   3   4 -17 2655.14 541.957   4
  -4   3  18 1532.94 370.079   2
  -4   3  18 1830.32 361.697   3
   4   3 -18 2026.90 360.679   4
  -3  -4  18 2477.66 355.022   7
   3  -4 -18 1892.78 357.856   8
   4  -3 -18 2375.52 351.926   8
  -3   4  18 1825.38 359.958   3
  -3   4  18 1811.75 373.882   2
  -4  -3  18 2133.14 351.988   7
  -3  -4  18 2077.32 354.231   6
   3   4 -18 2146.87 368.683   4
   3  -4 -18 1659.76 352.037   5
   4  -3 -18 2260.07 352.788   5
   4   3 -19 6108.37 1223.54   4
  -4  -3  19 7344.33 1221.37   6
   3  -4 -19 7273.95 1220.02   5
   3   4 -19 7324.46 1230.53   4
  -3  -4  19 7254.17 1220.94   6
  -3   4  19 7412.42 1235.69   2
  -3   4  19 7231.64 1224.84   3
   3  -4 -19 8382.78 1226.01   8
  -3  -4  19 7966.21 1220.55   7
   4  -3 -19 7691.53 1218.51   5
  -4  -3  19 7078.28 1218.07   7
  -3  -4  20 140.126 90.1953   6
  -3   4  20 437.600 159.443   2
   3  -4 -20 218.174 115.705   8
  -3   4  20 275.650 102.002   3
  -4  -3  20 311.049 91.8777   7
   4   3 -20 326.010 120.331   4
  -3  -4  20 406.587 97.2782   7
  -4  -3  20 298.453 93.6923   6
   3   4 -20 322.796 143.078   4
   3  -4 -20 421.893 95.9102   5
  -4  -3  21 3580.15 818.414   6
  -3  -4  21 5010.88 821.589   7
  -3  -4  21 5036.33 821.391   6
   3  -4 -21 6515.02 831.595   8
   3  -4 -21 5188.41 821.694   5
   3   4 -22 554.519 177.485   4
  -3  -4  22 394.877 117.105   7
  -4  -3  22 610.989 115.247   7
   4   3 -22 309.302 155.574   4
  -3  -4  22 361.640 114.150   6
  -4  -3  22 482.766 118.172   6
   4   3 -23 1511.29 283.476   4
  -3  -4  23 1388.89 254.751   6
  -4  -3  23 1320.23 257.240   6
  -3  -4  23 1193.75 255.745   7
   3   4 -23 1590.45 289.718   4
  -4  -3  23 1572.28 256.627   7
  -4  -3  24 278.146 101.674   6
  -3  -4  24 241.505 100.359   6
   4   3 -24 127.922 159.097   4
   3   4 -24 156.822 170.524   4
  -4  -3  24 222.869 92.7495   7
  -3  -4  26 88.6757 88.2764   7
  -4  -4   4 384.656 101.131   7
   4   4  -4 552.700 95.4218   1
  -4  -4   5 32.1869 64.6401   6
  -4   4   6 9912.77 1485.44   2
  -4  -4   6 7509.92 1482.02   6
  -4  -4   6 9178.30 1472.36   8
  -4   4   7-24.4634 68.2185   2
   4  -4  -7-4.76958 29.5046   8
   4   4  -7 35.0725 54.1714   1
  -4  -4   7-14.1405 42.7351   7
   4  -4  -7 12.9800 65.2886   5
  -4  -4   7-16.6851 16.2087   8
  -4  -4   7-21.6019 69.9035   6
  -4  -4   8 8255.57 1458.22   6
  -4  -4   8 9217.04 1454.02   7
   4   4  -9-10.3211 61.2620   1
  -4  -4   9 10.4974 65.8710   6
   4  -4  -9-15.4021 36.9570   8
   4   4  -9-11.3604 41.2137   4
   4  -4  -9 84.1350 81.1565   5
  -4  -4   9 48.2856 41.4241   7
  -4   4   9-67.4940 87.7692   2
   4  -4 -10 3755.70 596.048   8
   4   4 -10 3539.69 596.891   4
  -4  -4  10 3566.57 597.728   7
  -4   4  10 3275.91 611.354   2
  -4  -4  11 319.301 100.155   7
   4  -4 -11 184.477 76.9512   8
   4   4 -11 137.226 93.3979   4
  -4   4  11 440.553 151.211   2
  -4  -4  11 1140.52 147.641   6
   4   4 -11 1106.93 146.699   1
  -4   4  11 379.223 91.8020   6
   4  -4 -11 303.344 115.779   5
   4   4 -12 256.101 76.7573   4
  -4   4  12 105.894 116.353   2
   4  -4 -12 353.204 71.8614   8
   4  -4 -12 385.947 95.8763   5
  -4  -4  12 339.728 74.1931   7
   4   4 -12 190.770 106.699   1
  -4   4  12 286.192 74.0749   6
  -4  -4  12 368.802 89.2908   6
  -4  -4  13-14.5008 46.4896   7
   4   4 -13-7.81369 57.1714   4
  -4   4  13-186.081 118.029   3
   4  -4 -13 19.3010 67.5207   5
   4   4 -13-27.1651 85.7007   1
  -4  -4  13-10.3542 69.3050   6
   4  -4 -13 12.5140 47.0222   8
  -4   4  13-31.0779 102.039   2
  -4  -4  14 176.800 69.6509   6
   4  -4 -14 111.204 76.9224   5
  -4   4  14 399.648 121.695   2
  -4   4  14 203.581 120.934   3
   4   4 -14 127.913 74.7786   4
   4   4 -14 101.312 105.823   1
  -4  -4  14 209.115 63.7907   7
   4  -4 -14 285.995 65.8866   8
   4   4 -15-9.40826 77.3526   4
   4  -4 -15 27.3196 67.3835   5
  -4   4  15-14.6285 104.464   3
  -4  -4  15 23.1485 60.0533   7
  -4   4  15 16.4404 111.023   2
   4  -4 -15 70.9021 57.2256   8
  -4  -4  15-21.1761 69.2051   6
   4   4 -15-92.4388 101.166   1
   4  -4 -16 265.680 87.2290   8
  -4   4  16 371.995 139.572   3
   4  -4 -16 260.939 92.1550   5
  -4  -4  16 376.023 84.3626   7
  -4  -4  16 406.353 100.314   6
   4   4 -16 397.198 111.120   4
  -4   4  16 524.539 148.918   2
  -4  -4  17-43.5811 75.2390   6
   4  -4 -17 8.97901 66.9372   5
  -4   4  17-28.1668 103.390   3
   4  -4 -17 24.4130 60.2156   8
   4   4 -17-110.122 94.6008   4
  -4   4  17-17.4408 128.032   2
  -4  -4  17 24.9229 62.1662   7
  -4  -4  18 4657.24 900.952   7
   4  -4 -18 5017.44 901.507   8
   4   4 -18 5389.70 909.450   4
  -4   4  18 6004.78 923.265   2
  -4   4  18 5632.88 913.107   3
   4  -4 -18 6643.76 905.515   5
  -4   4  19 37.2570 143.998   2
  -4  -4  19 34.1131 79.6763   6
   4  -4 -19 55.4889 67.5431   5
  -4  -4  19 8.99673 63.9054   7
   4  -4 -19 75.6300 77.3849   8
  -4   4  19-112.250 104.683   3
   4   4 -19 79.4096 108.226   4
   4  -4 -20 4783.80 722.035   5
  -4  -4  20 4641.94 720.306   7
   4   4 -20 4319.29 732.401   4
  -4   4  20 4253.49 742.823   2
  -4  -4  20 3467.15 721.315   6
  -4  -4  21-47.2120 75.6912   6
  -4  -4  21 88.0628 70.5207   7
   4   4 -21-15.9212 126.419   4
  -4  -4  22 3173.47 504.156   6
   4   4 -22 2536.80 519.440   4
  -4  -4  23-72.7982 89.6678   6
  -4  -4  23-21.3551 85.5836   7
   4   4 -23-36.3848 154.201   4
  -4  -4  24 225.330 93.5675   6
   4   4 -24 38.0717 151.354   4
  -4  -4  26 36.6597 93.4360   7
  -4  -4  26-13.5329 93.4495   6
   0  -5   0 25.3731 16.8963   7
   0  -5   0-18.9604 34.3131   5
   0   5   0-42.9347 48.2136   2
   0   5   0 12.1193 24.5755   4
   0  -5   0-3.45752 19.1995   8
   0  -5   0 16.3405 22.3600   6
   0  -5  -1 1077.29 170.636   8
   0  -5   1 1077.45 169.915   7
   0  -5  -1 501.641 172.757   5
   0   5  -1 881.095 170.641   4
   0  -5   1 1148.75 171.740   6
   0  -5  -1 1010.65 167.978   7
   0   5   1 1321.65 184.379   2
   0   5  -1 1131.61 179.954   2
   0  -5  -2 3.25082 20.1929   6
   0  -5   2 8.60263 19.7861   7
   0  -5  -2 4.83582 28.3702   8
   0  -5  -2-17.6222 31.6459   5
   0   5  -2 7.64831 42.0744   2
   0   5   2-20.0985 18.1226   4
   0  -5   2-14.8298 25.4674   6
   0  -5   2-5.71630 18.3196   8
   0  -5  -2-2.26184 14.3560   7
   0   5   2-26.8283 53.3939   2
   0  -5   2 29.4261 42.3650   5
   0   5  -2 5.35337 34.4702   4
   0  -5  -3 11.3238 37.1195   8
   0   5  -3-6.75824 40.4640   2
   0  -5  -3 1.90701 14.0635   7
   0   5  -3 41.9964 37.1727   4
   0  -5   3 4.76016 26.1829   7
   0  -5  -3 52.8646 19.1185   6
   0  -5  -3 47.0036 35.4135   5
   0   5   3 25.5518 18.2046   4
   0   5   3 131.751 55.1992   3
   0  -5   3 5.66904 16.6064   8
   0  -5   3 21.1475 25.1980   6
   0  -5   3-15.5348 43.7008   5
   0  -5  -4 17.3812 31.8711   5
   0   5   4 8.23461 21.1358   1
   0  -5  -4 2.35926 17.6527   6
   0  -5  -4-3.65284 13.5670   7
   0   5   4-14.8344 15.7980   4
   0  -5   4 28.3695 29.6782   6
   0   5  -4-6.66822 36.1750   4
   0  -5   4-26.1717 27.7912   7
   0   5   4 9.06498 53.1690   3
   0   5   5 158.552 36.8278   4
   0  -5  -5 208.475 40.9230   7
   0   5   5 231.599 38.1289   1
   0  -5  -5 233.817 38.6906   6
   0  -5   6-18.6262 36.1024   7
   0   5   7 13687.7 2205.55   3
   0  -5  -7 12357.1 2205.57   8
   0  -5  -7 13510.4 2201.51   5
   0  -5   7 12781.7 2202.03   7
   0  -5   7 14540.9 2202.83   6
   0  -5   8-7.23521 40.8802   6
   0   5  -8-37.7193 57.9164   4
   0  -5  -8-6.34246 40.2219   5
   0  -5  -8-10.5161 69.0455   8
   0   5   8 37.4654 53.6003   3
   0  -5  -9 2140.28 406.273   8
   0  -5   9 2483.53 398.449   6
   0   5  -9 2354.29 402.177   4
  -5   0  10-9.93357 62.0195   7
   0   5  10-28.5146 58.7101   3
   0  -5  10-24.4586 42.3413   6
   5   0 -10 9.19789 67.0093   5
   0  -5 -10-36.0561 80.4230   8
   5   0 -10-16.2417 31.0130   1
   0  -5 -10-20.9120 47.7260   5
   0  -5  10 41.4763 46.8840   7
   0   5 -10 43.3959 73.5993   4
   0   5 -11 34.6597 71.7273   4
   0  -5 -11 22.3489 47.7191   5
   5   0 -11 23.6618 37.3134   1
   0   5  11-19.4523 63.8554   3
   0  -5  11-53.1349 57.0123   7
   0  -5 -11-12.7676 86.9874   8
   0  -5  11 34.4703 50.2379   6
   5   0 -11-50.7810 67.3961   5
  -5   0  11-19.9439 57.4202   7
   5   0 -12-72.0472 57.8886   1
   0  -5  12-36.3086 70.9211   6
   5   0 -12-86.1571 78.7216   5
   0  -5  12-47.1801 70.6327   7
   0   5  12-25.3839 20.7273   7
   0  -5 -12-31.8608 65.2014   5
   0   5  12-30.0998 72.2326   3
   0   5 -12-122.491 127.082   4
  -5   0  12-69.4512 84.9972   7
   0  -5 -12-13.4727 119.110   8
  -5   0  12-125.370 96.9960   6
   0   5 -13 2516.13 481.929   4
   0  -5 -13 2870.82 472.600   5
   0  -5 -13 2143.05 482.631   8
  -5   0  13 3419.01 481.536   6
   5   0 -13 3148.94 471.550   5
   0  -5  13 2467.81 474.118   6
   0   5 -14-82.1714 96.5997   4
  -5   0  14 26.3356 75.6333   3
   5   0 -14-5.76520 48.4268   5
   0  -5  14-40.3476 57.0117   6
   0  -5 -14-29.9148 113.950   8
   5   0 -14-7.80680 54.1611   1
   0  -5  14-74.5866 66.8844   7
   5   0 -14-10.6666 38.5838   4
  -5   0  14-9.34910 60.5155   7
   0  -5 -14 83.4473 63.7586   5
  -5   0  14-30.1105 68.4066   6
   0   5  14 10.7598 64.2638   3
   0  -5 -15 408.344 131.105   8
   0  -5  15 259.826 84.7263   7
   0   5  15 133.539 77.8889   3
   0   5 -15 129.454 103.405   4
   0  -5 -15 101.500 80.1558   5
   5   0 -15 161.885 65.0494   1
  -5   0  15 196.496 77.1229   7
   5   0 -15 167.449 58.7959   4
  -5   0  15 186.905 83.4733   6
   0  -5 -16-115.265 131.129   8
   5   0 -16-6.37831 47.8972   4
   5   0 -16-27.3609 67.4658   1
   0  -5 -16 99.8166 82.3488   5
  -5   0  16 58.3849 72.5242   6
  -5   0  16 36.7825 69.0456   7
   0   5  16 11.4952 71.7566   3
   0  -5  16-23.9363 75.8909   7
   0  -5 -17 337.287 109.634   5
  -5   0  17 305.413 90.4965   7
   0  -5 -17 293.025 142.280   8
   0   5  17 202.733 96.1343   3
   0  -5  17 278.694 105.223   7
   5   0 -17 381.800 80.4164   4
  -5   0  17 400.942 99.2608   6
   5   0 -17 298.107 90.3335   1
   0  -5 -18-52.0411 96.9624   5
   0  -5 -18 18.0235 133.315   8
   0   5  18-37.1976 79.4308   3
   5   0 -18 96.1320 74.7444   4
   0  -5  18-53.5600 94.0416   7
  -5   0  18-28.0139 69.8568   7
  -5   0  18-9.89064 75.3477   6
   5   0 -18-10.6264 68.4190   1
   0  -5 -19 3802.39 643.401   5
   0  -5 -19 3877.07 658.594   8
  -5   0  19 3745.92 635.126   6
  -5   0  19 3706.26 633.573   7
   0   5  19 3834.78 640.803   3
   0   5  20 27.5410 97.6195   3
   0  -5 -20-39.1807 152.456   8
   0  -5 -20 60.0147 102.320   5
   0  -5 -21 3062.89 592.126   8
   0   5  21 3224.39 576.774   3
   0  -5 -21 3737.16 582.824   5
   0   5  22-47.1530 99.6691   3
   0  -5 -22-211.609 171.841   8
   0  -5 -23 176.173 184.920   8
   0  -5 -24-68.2112 202.605   8
   1  -5   0 765.740 164.371   5
   1  -5   0 964.787 149.124   7
  -1   5   0 1014.46 160.444   2
  -1  -5   0 939.957 150.584   8
  -1  -5   0 644.381 148.646   6
   1   5   0 941.099 158.202   3
  -1  -5   1 9212.56 1481.45   5
   1  -5  -1 5580.16 1486.66   5
  -1  -5  -1 9431.33 1479.93   7
   1   5   1 9658.78 1479.50   4
   1   5  -1 9255.50 1486.68   2
   1  -5   1 8736.37 1480.11   8
   1  -5  -1 7507.04 1480.47   7
   1   5  -1 8866.40 1485.38   3
  -1   5   1 9663.07 1490.06   2
  -1  -5   1 10232.3 1480.92   7
   1   5  -1 9451.94 1480.57   4
  -1  -5   2 131.753 34.5122   7
   1   5  -2 140.751 36.7941   4
  -1   5   2 82.1955 62.1374   2
  -1  -5   2 187.375 32.4659   8
  -1  -5  -2 132.108 32.2470   7
   1   5   2 181.533 50.4616   3
  -1   5  -2 142.495 45.7728   4
   1   5   2 116.289 34.5367   1
   1   5  -2 213.333 52.2470   2
  -1  -5   2 128.996 40.7658   6
  -1  -5   2 78.5276 33.7112   5
  -1  -5  -2 36.0498 49.0886   8
   1  -5  -2 137.524 31.5958   7
   1   5  -2 219.908 52.9071   3
   1  -5  -2 61.1367 33.2169   8
  -1  -5  -2 157.951 36.2072   5
   1  -5  -2 138.218 61.4060   5
  -1  -5  -2 151.990 38.1127   6
   1  -5   2 220.527 42.9403   7
  -1  -5   3 43.7683 24.5757   7
  -1  -5   3 20.7688 27.7532   5
   1   5  -3 31.5383 29.6019   4
   1   5   3 7.33164 39.5441   3
   1  -5   3-12.5243 33.6411   7
   1   5  -3 39.9629 42.1096   2
  -1  -5  -3 32.3203 47.6699   8
  -1  -5  -3 28.5057 26.4593   5
  -1  -5  -3 31.9708 25.4737   7
  -1  -5  -3 56.8417 29.6742   6
   1   5   3 9.78603 20.4705   1
  -1   5  -3 43.8066 42.3554   4
  -1  -5   3 30.8454 18.6262   8
   1  -5  -3 56.1541 19.3619   7
  -1  -5   3 44.0561 30.5209   6
   1  -5  -3 16.1398 44.6864   5
  -1  -5   4 2921.83 550.688   8
   1  -5  -4 3457.60 550.060   7
  -1  -5  -4 3084.12 552.936   6
  -1  -5   4 3428.21 554.330   5
  -1  -5  -4 3518.35 554.719   5
   1   5   4 3711.99 551.165   1
   1   5  -5 1475.96 197.499   2
  -1  -5  -5 1159.68 193.229   6
  -1  -5   5 868.094 194.406   5
  -1  -5   6 7925.56 1291.82   7
  -1   5   6 8671.02 1302.40   2
  -1  -5   6 7443.98 1291.95   5
   1  -5  -7 884.128 161.431   5
   1   5   7 1028.18 162.226   3
   1  -5  -7 649.001 159.572   8
   1   5  -7 831.231 159.742   4
  -1   5   7 939.604 172.033   3
  -1  -5   7 807.067 156.988   6
  -1  -5  -7 942.117 156.754   5
  -1  -5   7 998.848 155.914   7
  -1  -5  -8 7423.17 1247.29   8
   1  -5  -8 7389.64 1241.38   8
   1   5  -8 6782.07 1240.99   4
   1   5   8 7706.87 1242.34   3
  -1   5   8 7858.83 1246.09   3
  -1  -5   8 8032.82 1240.96   6
   1   5   9 2840.40 479.269   3
  -1  -5  -9 3101.39 478.051   5
  -1   5   9 2699.40 483.690   3
  -1  -5   9 3096.72 476.712   7
   1  -5  -9 2029.45 478.908   8
   5   1  -9 3241.57 476.044   1
  -1  -5   9 2692.88 477.022   6
   1   5  -9 2806.98 482.398   4
   1   5  10 510.491 92.1698   3
  -5  -1  10 366.363 105.669   6
   1  -5 -10 390.299 84.1758   5
  -1  -5  10 344.965 82.8668   6
  -5   1  10 376.051 98.3811   6
  -1  -5  10 372.571 80.7081   7
   1   5 -10 375.454 104.062   4
  -1   5  10 335.853 101.127   3
  -5  -1  10 198.505 92.5555   7
   1  -5 -10 386.559 100.279   8
   5  -1 -10 248.135 100.377   5
   5   1 -10 436.425 81.9452   1
  -1  -5 -10 386.846 107.619   8
  -1  -5 -10 381.764 83.9879   5
   1   5 -11 983.648 234.947   4
   1  -5 -11 1407.14 226.391   5
  -5  -1  11 1303.95 239.138   6
   1  -5 -11 1323.86 235.350   8
  -1  -5 -11 1493.29 243.157   8
  -1   5  11 864.373 233.248   3
   1   5  11 1246.90 229.119   3
   5  -1 -11 1290.29 236.034   5
  -5  -1  11 1226.26 230.717   7
  -1  -5 -11 1450.62 231.154   5
  -1  -5  11 1497.10 228.577   6
  -1  -5  11 1442.76 227.021   7
   5   1 -11 1132.28 227.716   5
   5   1 -12 86.5414 70.9765   1
   1  -5 -12 322.516 67.2371   5
  -5   1  12-113.510 90.2000   7
   5  -1 -12 104.140 95.0784   5
  -1  -5 -12 150.980 78.3887   5
   5   1 -12 192.565 66.9548   5
   1   5 -12 58.5454 95.5338   4
  -1  -5  12 277.836 66.0023   7
   5  -1 -12 219.415 51.3300   1
  -1  -5 -12 191.493 113.696   8
  -5  -1  12 209.082 103.040   6
   1   5  12 253.921 72.7836   3
  -1  -5  12 211.112 65.4862   6
  -5  -1  12 206.334 80.0524   7
  -1   5  12 32.6100 93.3532   3
   1  -5 -12 182.613 104.271   8
   5  -1 -13 2401.09 326.792   1
  -5  -1  13 1770.95 337.974   6
  -1  -5  13 1906.64 330.780   6
   1  -5 -13 2152.04 345.543   8
   1   5 -13 2015.85 344.308   4
  -1  -5 -13 2083.36 348.719   8
   5  -1 -13 2033.68 332.535   5
   1   5  13 1590.35 332.102   3
  -1   5  13 1738.26 335.357   3
   1  -5 -13 2121.52 330.951   5
   5   1 -13 1878.26 330.780   1
  -1  -5 -13 1470.37 334.623   5
  -5   1  13 1683.56 332.318   7
  -5   1  14 1531.80 292.562   6
   1  -5 -14 1797.66 301.079   8
   5   1 -14 1364.41 289.192   1
  -5  -1  14 1975.77 296.285   6
  -5   1  14 1583.34 291.249   7
  -1  -5 -14 1388.00 292.934   5
   1   5  14 1545.99 291.160   3
  -1  -5 -14 1761.14 304.570   8
   1   5 -14 2011.91 307.265   4
  -1   5  14 1519.83 291.721   3
   5  -1 -14 1746.74 284.191   1
  -5  -1  14 1855.38 290.883   7
   1   5 -15 1483.41 313.166   4
  -5   1  15 1976.82 299.322   6
   5  -1 -15 1520.51 291.422   1
   5  -1 -15 1795.66 287.767   4
  -5  -1  15 1869.82 297.855   6
  -1   5  15 1608.39 300.483   3
  -1  -5 -15 2082.63 306.280   5
   1  -5 -15 1241.80 292.209   5
   5   1 -15 1166.53 296.247   1
  -1  -5 -15 1447.15 318.362   8
   5  -1 -15 2067.79 286.745   8
  -5   1  15 1887.38 298.716   7
   1  -5 -15 1379.73 311.864   8
  -5   1  15 1890.01 304.214   2
   1   5  15 1521.04 296.877   3
   1   5  16 129.337 81.5104   3
  -1   5  16 187.635 82.3588   3
  -1  -5  16 151.897 67.1431   6
  -5  -1  16 149.873 66.1712   7
   1   5 -16 163.220 110.424   4
   1  -5 -16 133.674 74.6742   5
  -1  -5 -16 12.9366 88.6872   5
   5   1 -16 70.4851 61.5391   4
   5   1 -16 159.920 92.5672   1
   5  -1 -16 185.785 64.5290   1
   5  -1 -16 154.798 55.5690   4
  -1  -5  16 49.9424 69.9731   7
  -5   1  16 156.722 82.6785   7
   5  -1 -16 190.105 49.6309   8
  -5  -1  16 62.6006 71.8338   6
  -1  -5 -16 229.591 124.295   8
   1  -5 -16 133.255 113.445   8
  -5   1  16 145.338 72.8068   6
  -1   5  17 1209.72 314.109   3
   1  -5 -17 1958.57 314.028   5
   1   5  17 1570.38 314.033   3
   5  -1 -17 1804.05 303.224   4
  -5   1  17 1744.87 311.106   7
  -5  -1  17 1806.01 314.133   6
   1  -5 -17 1789.97 333.735   8
   1   5 -17 2045.15 331.400   4
  -1  -5 -17 1645.40 334.505   8
  -5   1  17 2117.68 311.556   6
  -1  -5 -17 1319.55 321.495   5
   5  -1 -17 2018.81 307.354   1
   5   1 -17 1563.07 315.677   1
  -1  -5  17 1921.10 313.232   7
   1   5 -18 1989.22 365.256   4
   5   1 -18 1867.58 349.754   1
   5   1 -18 1816.78 340.946   4
  -1  -5  18 2227.30 346.790   6
  -1   5  18 2300.08 351.209   3
  -1  -5 -18 1636.18 366.719   8
  -5  -1  18 1981.40 345.202   6
   1   5  18 2444.64 356.111   3
  -5  -1  18 1980.00 342.358   7
   1  -5 -18 1912.95 368.614   8
   1  -5 -18 2033.02 348.587   5
  -1  -5  18 1688.93 345.061   7
   1  -5 -19 1392.94 249.845   5
  -1  -5  19 1330.22 239.690   6
   5   1 -19 927.328 249.058   1
  -1  -5  19 1504.90 246.074   7
   5   1 -19 1247.86 242.375   4
  -5  -1  19 1317.65 240.707   6
  -1  -5 -19 1378.78 273.537   8
  -1   5  19 1381.20 248.464   3
   1  -5 -19 1631.23 279.036   8
   1   5  19 1332.40 249.644   3
  -5  -1  19 1225.35 237.800   7
   1   5 -19 1393.86 273.734   4
   5   1 -20 4098.96 754.097   4
   1  -5 -20 4254.45 759.061   5
   5   1 -20 4451.77 759.619   1
  -5  -1  20 4218.32 751.124   7
  -1  -5 -20 3458.18 770.169   8
   1   5 -20 5124.70 772.625   4
  -1  -5  20 5975.25 759.884   7
  -1   5  21 990.567 187.929   3
  -5  -1  21 860.619 175.960   7
   1  -5 -21 1108.31 192.546   5
   1  -5 -21 756.114 225.217   8
  -5  -1  21 893.095 176.253   6
  -1  -5  21 926.801 181.846   7
  -1  -5 -21 585.525 223.364   8
   1  -5 -22 884.458 248.002   5
  -1  -5 -22 1285.85 278.674   8
  -1   5  22 1344.19 245.076   3
   1  -5 -22 1308.81 279.742   8
  -1  -5  22 1414.13 241.806   7
  -1  -5 -23 175.538 199.356   8
  -1   5  23 571.022 138.440   3
   1  -5 -23 384.779 196.347   8
   1  -5 -23 779.456 163.863   5
   1  -5 -24-21.2389 185.505   8
  -1  -5  25 365.003 133.245   7
  -2  -5   0 13982.5 2327.31   6
  -2  -5   0 14532.2 2324.70   7
  -2  -5   0 12629.9 2326.87   8
   2   5   0 15280.5 2326.22   3
  -2  -5  -1 1091.84 211.296   8
  -2  -5   1 925.392 208.048   8
  -2  -5   1 1398.72 203.691   5
  -2  -5  -2 5123.30 1058.60   7
   2   5  -2 5387.05 1057.09   3
  -2  -5   2 7093.33 1055.17   5
  -2  -5   2 6524.27 1057.80   8
   2  -5  -2 6662.42 1068.00   5
   2   5   2 7612.26 1056.58   1
  -2  -5   2 5847.27 1059.40   6
  -2  -5  -2 6271.20 1057.25   5
   2   5  -2 6327.07 1060.05   1
  -2  -5  -2 6802.65 1062.31   8
  -2  -5   3 9772.39 1622.91   5
  -2  -5  -3 10423.2 1626.24   5
  -2  -5  -3 10631.3 1627.71   6
  -2  -5   3 9124.94 1624.34   8
   2   5   3 10106.7 1627.88   3
  -2  -5   4 3424.10 531.233   5
   2   5  -4 3856.97 537.290   2
   2   5  -4 2933.90 533.709   3
  -2  -5   4 2964.26 531.197   8
  -2  -5  -5 4548.41 797.988   8
   2   5  -5 5318.17 791.302   3
   2  -5  -5 4809.56 791.513   8
  -2   5   5 4446.77 803.584   2
   2   5  -5 4646.34 792.191   2
  -2  -5   5 5615.19 792.600   7
  -2  -5   5 4410.85 787.853   5
  -2  -5   6 5223.87 854.272   5
   2   5  -6 5382.60 857.205   3
   2   5   6 4847.02 861.207   3
  -2  -5   6 5768.14 859.231   7
   5   2  -6 5489.78 859.164   1
  -5  -2   6 5029.87 866.433   7
  -2  -5   6 5179.49 861.798   6
   2   5  -6 5006.04 858.906   4
   2  -5  -6 5328.45 858.413   8
   2   5  -6 4775.74 857.280   2
  -2   5   6 4788.63 869.962   2
   2   5  -7 10683.9 1835.56   3
  -2  -5   7 11664.5 1841.46   6
  -2  -5   7 10811.9 1833.27   5
  -5  -2   7 11088.3 1847.04   7
   2  -5  -7 11779.6 1838.74   8
   2   5  -7 9954.23 1838.48   4
   5   2  -7 13078.6 1839.75   1
  -2  -5  -7 11842.0 1841.28   5
  -2   5   7 11793.3 1849.49   2
   5   2  -8 3299.58 551.064   1
   2  -5  -8 3567.72 555.812   5
   2  -5  -8 3231.08 550.445   8
   2   5  -8 3369.16 546.602   3
  -2  -5   8 3234.59 544.248   5
  -2  -5  -8 3491.02 554.246   5
   5   2  -9 4021.18 676.459   1
   2  -5  -9 3804.24 678.679   5
  -2  -5  -9 4423.62 680.659   5
   2   5   9 3366.12 677.372   3
   2   5  -9 3968.02 677.715   4
  -2  -5   9 4568.28 675.387   7
  -2   5   9 4450.58 689.289   2
  -2  -5   9 3938.59 677.068   6
  -2  -5  -9 4181.91 684.750   8
   2  -5  -9 4252.68 676.413   8
  -5  -2   9 3992.51 680.960   7
  -2   5   9 3981.95 686.622   3
   2  -5 -10 4368.15 751.898   8
  -2   5  10 3671.34 760.925   3
  -2  -5 -10 4318.34 755.479   5
  -2  -5 -10 4336.17 760.019   8
  -5   2  10 4810.20 755.757   6
  -2  -5  10 4647.52 753.735   6
  -5  -2  10 4977.30 761.707   6
   2   5 -10 4073.94 752.903   4
  -2   5  10 4697.86 763.762   2
  -2  -5  10 5136.30 751.035   7
   2  -5 -11 79.2384 84.5216   8
  -2  -5  11 191.454 51.5596   7
  -5  -2  11 128.640 92.1568   6
  -5  -2  11 100.983 71.1286   7
   2   5 -11-9.06288 76.9731   4
   2   5  11 249.241 67.9398   3
  -2  -5  11 229.202 63.7733   6
  -2   5  11-70.1263 151.454   2
  -5   2  11 17.8074 84.3094   6
  -2  -5 -11 13.0440 109.452   8
  -5   2  11 35.0293 84.3280   2
  -2   5  11-190.463 133.096   3
   5   2 -11 47.3491 53.7983   5
   5   2 -11 127.125 66.6450   1
  -2  -5 -11 147.897 79.8707   5
   2  -5 -11 146.585 75.6053   5
   2  -5 -12 6215.90 1045.62   5
  -2  -5  12 5700.08 1045.78   6
  -2  -5 -12 6153.59 1050.90   5
  -2  -5  12 6329.03 1044.16   7
  -5   2  12 5870.58 1047.80   6
  -2   5  12 6530.22 1054.10   3
  -2  -5 -12 7479.90 1058.47   8
   2   5  12 6396.53 1048.61   3
  -2   5  12 6701.41 1059.24   2
  -5   2  12 6662.79 1052.93   2
  -5  -2  12 6877.28 1048.29   7
   2  -5 -12 6243.99 1047.17   8
   2   5 -12 5967.67 1048.84   4
  -2  -5 -13 892.600 178.746   5
   2   5 -13 928.386 185.791   4
  -2  -5  13 982.919 167.531   7
  -2  -5 -13 1099.36 198.409   8
   5  -2 -13 841.007 160.096   8
   5   2 -13 1130.65 174.820   1
   5   2 -13 982.514 163.471   4
  -2   5  13 1110.36 198.866   2
   2  -5 -13 763.926 173.272   8
   5  -2 -13 917.003 174.507   5
  -5  -2  13 642.145 179.152   6
  -5   2  13 771.953 183.177   2
   2   5  13 930.326 172.534   3
  -5  -2  13 828.942 170.205   7
  -2  -5  13 984.732 170.387   6
   2  -5 -13 987.074 169.337   5
  -2   5  13 872.647 184.911   3
   5  -2 -14 3541.50 532.465   5
  -2  -5  14 2693.39 530.687   6
  -2   5  14 2871.18 537.597   3
   2   5 -14 2984.32 538.652   4
   2  -5 -14 3527.14 532.138   5
  -2  -5 -14 3252.10 542.124   8
   2  -5 -15 181.109 66.1425   5
   2   5 -15 312.312 101.595   4
  -5   2  15 109.342 101.142   2
   5   2 -15 194.487 89.9101   1
  -2  -5  15 153.893 68.5135   6
  -5  -2  15 121.348 85.8154   6
  -5  -2  15 113.623 68.7562   7
   2   5  15 270.640 85.0267   3
   5  -2 -15 104.379 53.2252   8
   5  -2 -15 196.595 53.5174   1
   2  -5 -15 98.9893 89.3115   8
  -5   2  15 140.205 102.321   3
   5   2 -15 184.374 69.2204   4
   5  -2 -15 157.055 74.6816   5
  -2  -5  15 122.632 61.0407   7
  -2  -5 -15 172.201 111.752   8
  -2   5  15 161.496 91.9008   3
  -5   2  15 256.294 78.9524   7
  -5   2  16 3322.43 758.737   7
  -5  -2  16 5225.22 762.078   7
   2   5 -16 4941.17 772.734   4
  -5   2  16 4312.90 769.020   3
   5  -2 -16 5166.03 760.863   5
   2  -5 -16 3264.89 763.410   8
  -2  -5 -16 4706.82 775.914   8
  -5   2  16 4380.60 770.046   2
   2  -5 -16 4956.09 762.691   5
   5  -2 -16 5105.96 756.348   8
  -5  -2  17 812.847 201.493   7
   2  -5 -17 831.251 203.594   5
   5   2 -17 837.373 216.957   1
  -2  -5 -17 1289.39 237.644   8
  -2  -5  17 1186.96 202.956   7
   2  -5 -17 1259.56 221.964   8
   5   2 -17 1427.83 206.245   4
  -2  -5  17 1390.28 207.558   6
  -2   5  17 1253.18 213.213   3
  -5  -2  17 1137.30 210.141   6
   5  -2 -17 1050.41 200.621   5
   2   5 -17 1102.73 231.141   4
  -2  -5  18 3376.35 569.519   7
   2  -5 -18 3788.26 572.869   5
   5   2 -18 3225.26 579.186   1
   5   2 -18 3145.95 569.264   4
  -2  -5 -18 3382.33 588.251   8
   2  -5 -19 5534.00 822.094   8
  -2  -5  19 4434.14 810.946   6
  -2   5  19 4761.92 814.097   3
   2   5 -19 4986.89 826.475   4
   5   2 -19 4403.32 818.897   1
  -5  -2  19 5171.80 812.752   6
   5   2 -20 2642.55 548.146   1
  -2   5  20 2457.17 540.395   3
  -5  -2  20 3422.43 536.634   7
  -2  -5  20 3009.72 537.321   6
  -2  -5  20 3363.56 539.218   7
  -5  -2  20 3289.90 541.485   6
   5   2 -20 3285.01 541.763   4
   2   5 -20 3822.45 560.649   4
   2  -5 -20 3180.97 550.686   8
   2  -5 -20 3335.76 542.052   5
  -2   5  21 3361.50 599.339   3
   2  -5 -21 3771.47 607.249   8
   5   2 -21 3515.29 606.092   1
   2   5 -21 3679.42 615.235   4
   5   2 -21 3902.59 602.045   4
  -2  -5  21 3859.31 594.389   7
  -5  -2  21 3473.13 591.763   7
  -2  -5  21 3103.08 592.074   6
  -5  -2  21 3196.21 593.208   6
   5   2 -22 1416.07 298.294   1
   2   5 -22 1769.55 316.645   4
   2  -5 -22 990.561 277.303   5
  -2  -5  22 1566.75 280.851   6
   2  -5 -22 1538.72 306.197   8
  -5  -2  22 1677.03 275.944   7
  -2  -5  22 1942.30 283.390   7
   5   2 -22 1596.98 289.757   4
  -5  -2  22 1647.27 281.625   6
  -2   5  22 1436.35 284.071   3
  -2  -5  23 248.862 105.085   6
   2  -5 -23 436.873 133.788   5
   2  -5 -23 379.905 162.654   8
   2   5 -23 439.645 168.463   4
  -2  -5  25 27.1338 96.1777   7
  -2  -5  26 755.040 177.471   7
  -2  -5  27 30.1460 116.144   7
  -2  -5  28 1279.86 256.122   7
  -3  -5   0 16.8690 52.0676   6
   3   5   0 34.4423 28.1046   1
  -3  -5   0 22.5114 42.2412   7
  -3  -5   0 83.5174 31.9536   5
  -3  -5   0 26.4166 38.7751   8
   3   5   0 64.2436 30.4066   3
  -3  -5   1 4703.35 848.236   5
  -3  -5  -1 4894.68 849.439   5
   3   5  -1 5283.68 848.322   3
   3   5   1 5781.67 848.212   1
  -3  -5  -1 5332.63 854.173   7
  -3  -5   1 4662.02 854.263   6
  -3  -5  -2 1107.41 207.760   5
  -3  -5   2 1279.69 208.480   8
  -3  -5   2 1239.82 205.156   5
  -3  -5   2 1192.77 216.551   6
   3   5   2 1214.92 208.058   3
   3   5  -3 6728.00 1105.18   3
  -3  -5   3 7447.28 1105.67   5
  -3  -5   3 5869.94 1106.43   8
  -3  -5   4 1362.99 218.120   5
   3   5  -4 1086.55 225.513   1
   3   5  -4 1312.44 217.902   3
  -3   5   4 1113.09 235.082   2
  -3  -5  -4 1454.98 231.093   8
   3   5  -5 2836.45 506.508   1
  -3  -5   5 3369.47 502.955   7
  -3  -5   5 2748.80 499.334   8
  -5  -3   5 4184.52 518.840   6
   3   5  -5 2933.72 498.081   3
  -3  -5   5 2779.25 506.816   6
   5   3  -5 3175.65 502.464   1
  -3  -5  -5 2776.17 505.428   5
  -3  -5   5 3043.43 498.547   5
   3  -5  -5 3221.59 515.872   5
  -3  -5   6 9958.87 1738.27   5
   3   5   6 9892.97 1744.11   3
   3   5  -6 11133.0 1738.00   3
   3  -5  -6 12184.8 1741.74   8
  -3  -5   6 10376.1 1746.96   6
   3   5  -6 9274.05 1745.72   1
  -3  -5   6 11328.6 1742.22   7
  -3  -5  -6 10430.8 1746.53   5
  -3   5   6 7654.58 1748.30   2
  -5  -3   6 13251.1 1755.34   6
  -5  -3   7 4966.22 758.419   7
   3   5  -7 4128.11 748.665   4
  -3  -5  -7 5283.15 760.317   8
  -5  -3   7 4605.04 760.648   6
   3   5   7 4600.93 752.519   3
  -3  -5   7 4380.27 753.654   6
  -3   5   7 4573.71 763.054   2
   5   3  -7 4425.06 750.439   1
   3  -5  -8 9864.87 1575.95   5
   3  -5  -8 10745.7 1568.46   8
   3   5   8 8432.76 1571.87   3
   5   3  -8 8745.98 1570.33   1
   3   5  -8 9349.15 1568.49   4
  -3   5   8 9907.22 1582.01   2
  -5  -3   8 9313.95 1577.92   6
  -3  -5   8 9808.27 1573.50   6
   5   3  -9 4730.08 887.534   1
   3  -5  -9 5454.22 892.722   5
   3  -5  -9 5559.91 885.348   8
   3   5  -9 5491.79 886.582   4
  -3   5   9 4850.90 898.806   2
  -3  -5   9 5279.23 889.826   6
  -5  -3   9 6017.24 892.126   7
   5   3 -10 1188.65 229.624   1
   3   5 -10 1102.09 228.498   4
  -5   3  10 1540.63 240.766   2
   3  -5 -10 1378.98 234.718   5
  -5  -3  10 1628.47 232.661   7
  -3   5  10 1207.49 251.601   2
  -3  -5  10 1278.91 230.968   6
  -5  -3  10 1202.40 243.478   6
   5  -3 -10 1216.25 242.133   5
  -5   3  11 4697.58 633.050   6
  -5  -3  11 4145.03 633.426   7
  -3  -5  11 3658.79 631.399   6
   3   5 -11 3289.98 629.896   4
   5  -3 -11 3465.48 623.421   8
  -5   3  11 4326.07 642.785   2
  -3   5  11 4238.59 647.642   2
   3  -5 -11 3884.05 626.889   8
   5   3 -11 3543.66 631.154   1
  -3   5  11 3133.60 642.679   3
   5  -3 -12 275.154 96.4446   5
   5   3 -12 217.678 77.0013   1
   5  -3 -12 130.117 47.8632   8
  -5  -3  12 143.213 86.2149   6
  -3   5  12 141.928 107.288   2
  -3   5  12 214.637 108.958   3
  -3  -5  12 95.5809 63.7873   6
   5   3 -12 106.706 55.5310   4
  -5   3  12 151.517 74.4871   6
  -5  -3  12 122.185 64.4409   7
  -3  -5  12 168.006 56.7950   7
   3   5 -12 141.068 74.9090   4
   3  -5 -12 150.390 63.9732   8
   3  -5 -12 141.417 68.0996   5
  -5   3  12 246.187 101.373   2
   3  -5 -13 6492.31 1090.05   5
  -5   3  13 6984.05 1099.96   2
  -3   5  13 6652.20 1104.02   2
   5  -3 -13 5488.90 1083.35   8
   5  -3 -13 7548.05 1094.49   5
  -3  -5  13 6558.77 1086.74   7
   3  -5 -13 6961.11 1088.24   8
   3   5 -13 6578.75 1090.70   4
   5   3 -13 6428.60 1085.69   4
  -3  -5  13 6909.79 1091.06   6
  -5  -3  13 7194.04 1095.54   6
  -5   3  13 6343.90 1088.93   6
  -3   5  13 7272.07 1101.97   3
  -5  -3  13 6764.75 1089.49   7
  -3  -5  14 654.212 138.776   6
  -3   5  14 246.712 170.624   2
  -5   3  14 634.373 163.754   2
   5  -3 -14 750.259 147.456   5
   3   5 -14 981.810 153.753   4
   3  -5 -14 733.735 137.931   8
   5   3 -14 277.275 143.015   1
   3  -5 -14 741.450 139.945   5
   5  -3 -14 733.693 128.344   8
  -3   5  14 557.514 166.282   3
  -5   3  14 780.945 137.928   6
  -3  -5  14 838.324 134.764   7
   5   3 -14 638.276 134.354   4
  -5  -3  14 725.415 137.119   7
  -5  -3  14 648.364 148.021   6
   3  -5 -15 1205.28 256.319   8
  -5   3  15 1507.89 278.762   2
   5  -3 -15 1751.64 262.091   5
   5   3 -15 1269.10 255.224   4
  -5   3  15 1304.18 279.635   3
  -5  -3  15 1735.83 267.051   6
  -3   5  15 1350.36 271.821   3
  -3  -5  15 1799.79 256.283   7
  -5  -3  15 1367.54 255.479   7
  -3   5  15 1561.73 283.751   2
   5  -3 -15 1402.67 250.932   8
  -3  -5  15 1117.58 258.128   6
   3  -5 -15 1584.37 258.555   5
   3   5 -15 1789.93 269.997   4
   5   3 -15 1326.91 268.618   1
  -3   5  16 14.0857 104.801   3
  -5   3  16-31.7316 101.205   2
   5   3 -16-27.5188 104.014   1
  -5  -3  16 61.7593 68.0974   7
   5  -3 -16 298.294 63.8588   8
  -3  -5  16 83.9134 66.7951   6
   3   5 -16 351.987 102.127   4
   5   3 -16 119.465 77.0844   4
   3  -5 -16 246.499 74.2595   5
  -5  -3  16 103.210 80.1656   6
  -5   3  16 162.604 117.313   3
   3  -5 -16 229.036 84.9762   8
  -3  -5  16 25.5381 60.2786   7
   5  -3 -16 291.797 75.5599   5
  -3   5  16 87.1999 123.137   2
   5   3 -17 2630.83 592.888   1
   3  -5 -17 3805.04 586.834   5
  -3  -5  17 3451.23 586.576   6
  -3   5  17 3657.92 608.394   2
  -5   3  17 3292.69 602.667   2
   5  -3 -17 3974.57 586.362   5
  -3  -5  17 4068.69 586.393   7
  -5  -3  17 3825.08 591.095   6
   3  -5 -17 3895.38 589.331   8
  -5  -3  17 3522.72 585.650   7
   5   3 -17 2795.90 584.421   4
   3   5 -17 2538.64 592.634   4
  -3   5  18 4124.39 600.001   2
   5  -3 -18 3550.34 568.941   5
   3  -5 -18 2711.11 568.135   5
   5   3 -18 3286.65 572.445   4
  -3  -5  18 2732.13 569.457   6
   3   5 -18 3379.01 586.165   4
   3  -5 -18 3872.13 574.870   8
  -5   3  18 2846.19 587.481   2
  -3   5  18 3047.01 576.076   3
  -5  -3  18 3373.90 574.364   6
   5  -3 -18 4075.97 567.443   8
  -3  -5  18 3615.41 569.746   7
  -5  -3  19 3721.89 571.262   6
   3  -5 -19 4052.26 568.120   5
   3  -5 -19 3716.83 573.562   8
   5   3 -19 3275.73 569.914   4
  -3   5  19 3309.82 588.304   2
   5   3 -19 3281.92 580.509   1
  -5  -3  19 2552.67 562.983   7
  -3  -5  19 3129.43 566.121   6
   3   5 -19 3625.40 583.143   4
   5   3 -20 5345.48 864.480   4
  -3  -5  20 5958.57 862.137   7
  -3   5  20 5166.54 884.732   2
   3   5 -20 6156.19 879.696   4
  -5  -3  20 4768.32 862.646   6
  -3  -5  20 5006.60 860.798   6
  -3   5  20 5207.30 867.507   3
  -5  -3  20 4476.13 857.709   7
   5   3 -20 4919.84 876.638   1
   3  -5 -21 1976.39 319.011   5
   3  -5 -21 1768.42 329.492   8
   5   3 -21 1747.42 324.361   4
   5   3 -21 1251.02 335.581   1
  -3  -5  21 1724.41 316.077   7
  -5  -3  21 2090.15 314.961   7
  -3  -5  21 1739.83 316.234   6
  -5  -3  21 1669.70 316.713   6
   3   5 -21 1895.14 346.466   4
  -3   5  21 1835.55 326.678   3
  -3   5  21 1693.86 360.041   2
  -5  -3  22 1500.12 290.946   6
   3   5 -22 1550.87 323.013   4
  -3  -5  22 1389.83 284.403   6
  -5  -3  22 1528.96 285.730   7
   5   3 -22 1413.97 301.751   4
  -3  -5  22 1863.72 292.890   7
   3  -5 -22 1733.38 295.287   5
   3  -5 -22 2355.14 307.842   8
   5   3 -22 1380.82 317.316   1
  -3   5  22 1247.34 329.635   2
  -5  -3  23 1324.91 243.345   6
   5   3 -23 1478.66 293.860   1
   3   5 -23 742.954 278.473   4
   5   3 -23 1396.03 274.959   4
  -3  -5  23 1232.53 242.179   6
  -5  -3  23 1315.89 240.215   7
  -3  -5  24-12.1788 89.4614   7
  -5  -3  24 38.4357 91.9113   6
  -5  -3  24 45.2246 88.3166   7
  -3  -5  25 150.091 109.069   6
   3   5 -25 316.989 176.248   4
  -3  -5  25 459.945 112.427   7
  -3  -5  26 56.8964 99.2320   6
  -3  -5  26 53.5949 97.7747   7
   3   5 -26-65.8346 161.192   4
  -3  -5  27 1989.90 311.225   7
   3   5 -27 1015.06 336.903   4
  -3  -5  28-43.7798 109.393   7
  -4  -5   0 1160.55 203.920   8
  -4  -5   1 115.836 46.5899   8
   4   5  -1 21.0574 31.3424   1
   4   5  -2 1766.18 295.597   1
  -4  -5   2 1730.81 296.442   8
   5   4  -3 778.022 159.592   1
  -4  -5   3 1077.05 161.576   8
   4   5  -3 963.363 163.296   1
  -4  -5   3 946.810 178.203   6
  -4  -5   3 879.733 169.913   7
  -5  -4   4 1045.66 182.398   7
  -4  -5   4 849.875 173.635   6
  -4  -5   4 1207.16 170.541   7
  -5  -4   4 1173.49 187.635   6
   4   5  -4 634.589 163.349   1
  -5  -4   5 2391.46 370.118   6
   4   5  -5 1902.26 356.433   1
  -4  -5   5 1690.53 362.106   6
  -4  -5   5 2289.62 350.858   8
   4  -5  -6 1468.65 356.334   5
   5   4  -6 1917.76 340.113   1
  -5  -4   6 1926.23 357.124   6
  -4  -5   6 1985.42 351.988   6
  -4  -5   6 2118.95 335.466   8
  -4   5   6 2408.70 355.295   2
  -5  -4   7 8439.36 1334.59   7
  -4   5   7 7522.93 1339.67   2
  -4  -5   7 8087.88 1336.27   6
  -5  -4   8 527.511 147.942   6
   4  -5  -8 739.055 125.230   8
   5   4  -8 570.747 131.316   1
   4  -5  -8 514.984 153.531   5
   4   5  -8 789.754 127.779   4
  -4  -5   8 696.502 147.305   6
   4   5  -8 785.737 143.049   1
  -4   5   8 726.719 156.970   2
  -5  -4   8 625.681 137.393   7
  -4  -5   8 711.077 130.745   7
   4  -5  -9 4205.23 701.743   8
   4   5  -9 4288.04 703.044   4
   5  -4  -9 3890.77 715.992   5
   4  -5  -9 4243.25 714.450   5
   4   5  -9 4120.71 710.796   1
  -4  -5   9 4539.75 710.750   6
  -5   4   9 4974.81 718.233   2
  -5  -4   9 3708.83 712.132   6
  -4   5  10 2492.94 465.420   2
  -4  -5  10 2625.13 445.499   7
   5  -4 -10 2390.76 460.706   5
  -4  -5  10 2712.14 454.478   6
  -5   4  10 2859.51 462.155   2
  -5  -4  10 2469.00 456.683   6
   4   5 -10 2946.01 445.429   4
   4  -5 -10 2841.35 457.281   5
   4   5 -10 2512.41 456.897   1
   5  -4 -10 2510.69 441.119   8
  -4   5  11 23.1246 43.8606   6
  -5  -4  11-87.8436 64.7269   7
  -5   4  11 14.6937 93.1659   2
   5  -4 -11 5.82041 37.0942   8
   5   4 -11-10.9306 79.3024   1
   4   5 -11 43.8837 51.5800   4
  -4  -5  11-21.9384 44.6626   7
   4  -5 -11-6.18938 44.9043   8
  -4  -5  11-21.5768 73.1740   6
  -5  -4  11-12.6413 92.4327   6
   4  -5 -11-11.6157 80.8864   5
  -4   5  11-48.9355 107.092   2
   5  -4 -11 147.527 100.690   5
   4   5 -11 39.6024 82.3954   1
  -5   4  12 985.797 238.534   6
   4  -5 -12 1530.82 234.335   8
   5  -4 -12 1238.28 232.337   8
  -5  -4  12 1457.43 240.136   7
  -4   5  12 1493.09 266.615   2
  -4  -5  12 1396.83 236.193   7
   4  -5 -12 1403.83 245.466   5
   4   5 -12 1221.18 238.923   4
   4   5 -12 1128.80 253.541   1
   5   4 -12 1453.84 235.241   4
  -5  -4  12 1420.83 251.096   6
   5   4 -12 1377.38 247.962   1
   5  -4 -12 1504.80 252.958   5
  -4  -5  12 1280.46 243.008   6
  -5   4  12 1388.31 257.754   2
   4  -5 -13 1534.98 270.042   5
  -4   5  13 1118.11 289.435   2
  -4  -5  13 1683.16 270.197   6
  -5  -4  13 1131.62 269.597   6
   4   5 -13 1611.50 265.501   4
   5   4 -13 1651.32 260.694   4
   5   4 -13 1368.85 273.246   1
  -4   5  13 1428.44 289.914   3
  -5   4  13 1636.19 287.953   2
  -5  -4  13 1504.56 263.737   7
   4   5 -13 1002.80 277.598   1
   4  -5 -13 1833.24 262.231   8
   5  -4 -13 1483.94 257.577   8
   5  -4 -13 1362.43 271.315   5
  -5   4  14 898.832 212.528   2
  -4   5  14 812.318 221.913   2
  -5  -4  14 613.534 181.661   7
   4  -5 -14 1210.04 183.206   8
   4  -5 -14 1184.65 195.000   5
   5  -4 -14 1104.51 179.646   8
  -4  -5  14 923.904 191.682   6
  -4  -5  14 790.232 181.356   7
  -4   5  14 1305.13 222.278   3
   5   4 -14 1081.78 203.691   1
   5  -4 -14 1169.86 195.527   5
   4   5 -14 1221.54 192.792   4
   5   4 -14 935.424 182.604   4
  -5  -4  14 1106.40 192.575   6
   4  -5 -15 173.140 80.4422   5
  -5   4  15 82.8913 137.560   3
   5   4 -15 233.016 79.7377   4
   5   4 -15 115.476 104.605   1
  -4  -5  15 245.078 71.2324   7
  -4  -5  15 122.889 79.4027   6
  -4   5  15 82.0478 132.069   3
  -4   5  15 235.506 135.408   2
   5  -4 -15 140.279 85.1294   5
  -5  -4  15 361.834 93.9325   6
   5  -4 -15 197.898 66.3267   8
   4   5 -15 165.095 81.0765   4
   4  -5 -15 230.740 72.2202   8
  -5   4  15 134.844 122.700   2
  -5  -4  15 107.469 71.2766   7
  -4  -5  16 668.331 141.927   7
  -4   5  16 586.340 174.568   3
   4   5 -16 900.568 161.018   4
   4  -5 -16 768.252 150.578   5
   4  -5 -16 992.166 147.119   8
  -5   4  16 785.618 190.289   3
  -5  -4  16 663.860 145.441   7
   5  -4 -16 607.048 150.784   5
   5   4 -16 757.387 148.540   4
  -5   4  16 612.603 187.196   2
   5   4 -16 862.893 180.533   1
  -4   5  16 520.612 189.774   2
   5  -4 -16 679.590 140.326   8
  -4  -5  16 662.363 150.181   6
  -5  -4  16 696.874 157.866   6
   4  -5 -17 1016.72 213.360   5
   4  -5 -17 1120.25 212.708   8
   5  -4 -17 1124.12 214.351   5
   5  -4 -17 1226.95 207.376   8
  -5   4  17 938.417 240.849   2
   4   5 -17 1050.05 223.915   4
   5   4 -17 1236.27 242.315   1
  -4  -5  17 1070.32 209.420   7
  -4   5  17 842.012 251.178   2
  -5  -4  17 1221.37 213.245   7
  -4   5  17 1263.75 239.848   3
   5   4 -17 1182.74 217.796   4
  -4  -5  17 1415.71 220.564   6
  -5   4  17 984.824 249.283   3
  -5  -4  17 1298.26 221.662   6
  -5  -4  18 864.691 167.291   6
   5   4 -18 944.006 170.399   4
  -5   4  18 794.732 188.638   3
   5  -4 -18 690.939 154.281   8
   4  -5 -18 915.605 161.787   5
   5   4 -18 815.810 195.809   1
  -4  -5  18 838.326 156.507   7
  -4   5  18 492.468 200.236   2
  -4  -5  18 674.282 161.668   6
  -5  -4  18 552.628 155.004   7
   4  -5 -18 984.642 161.749   8
   5  -4 -18 728.548 160.039   5
   4   5 -18 909.439 179.147   4
  -5   4  18 893.554 202.205   2
  -4   5  18 798.664 184.926   3
  -4   5  19 4182.32 637.192   3
   5  -4 -19 4182.16 622.386   8
  -4  -5  19 3623.54 624.842   6
   4   5 -19 3820.03 635.177   4
   5   4 -19 3505.12 641.675   1
  -4  -5  19 4178.20 623.127   7
  -5   4  19 2893.64 638.688   2
   4  -5 -19 3783.79 622.525   5
  -5  -4  19 3575.52 626.383   6
   4  -5 -19 3296.75 623.646   8
  -5  -4  19 3829.20 621.321   7
  -4   5  19 2514.09 646.510   2
   5  -4 -19 3454.37 622.003   5
   5   4 -19 3945.75 629.264   4
  -4   5  20 894.893 189.314   3
   5   4 -20 583.565 175.620   4
  -4  -5  20 897.669 160.636   7
   4  -5 -20 637.630 164.655   8
  -5  -4  20 503.554 156.884   7
  -4  -5  20 779.173 164.452   6
  -5  -4  20 1089.15 171.628   6
   4  -5 -20 954.150 162.120   5
   5   4 -20 665.738 198.507   1
   4   5 -20 857.519 192.511   4
  -4   5  20 776.015 225.083   2
   4  -5 -21 2922.67 472.229   5
  -4   5  21 2941.80 505.447   2
  -4  -5  21 2289.44 470.042   6
  -4   5  21 3342.04 485.927   3
  -5  -4  21 2273.47 469.467   7
   5   4 -21 2797.22 500.949   1
   5   4 -21 2207.69 479.710   4
  -4  -5  21 3135.27 471.401   7
   4   5 -21 2911.05 490.784   4
  -5  -4  21 3158.30 476.158   6
  -5  -4  22 503.724 133.270   6
  -5  -4  22 536.591 128.434   7
   5   4 -22 662.441 161.941   4
   5   4 -22 613.983 199.815   1
   4   5 -22 343.260 168.575   4
  -4  -5  22 460.469 129.866   6
  -5  -4  23 327.875 112.954   6
   5   4 -23 322.874 155.414   4
  -4  -5  24 81.8512 87.5181   7
  -4  -5  25-40.1875 87.9986   6
  -4  -5  25-73.3305 98.0031   7
   4   5 -25 290.947 175.490   4
  -5  -4  25-48.2235 88.2028   7
   5   4 -25 103.733 197.565   1
  -4  -5  26 487.843 154.108   6
   4   5 -26 625.032 219.437   4
  -4  -5  26 779.701 155.746   7
  -5  -4  26 670.868 157.905   7
  -4  -5  27 133.733 104.396   7
  -4  -5  27 86.7796 107.277   6
   4   5 -27-111.956 166.695   4
   5   5  -2 57.8556 33.5013   1
  -5  -5   2 251.947 76.4800   7
  -5  -5   3-75.5677 68.3271   7
   5   5  -3 12.3262 30.7477   1
  -5  -5   3 51.8895 76.5473   6
  -5  -5   4 1172.28 226.820   7
  -5  -5   4 1339.66 235.551   6
   5   5  -4 1236.03 214.973   1
   5   5  -5 14.9817 40.3509   1
  -5  -5   5-27.2141 93.1211   6
  -5  -5   5-11.1751 63.5408   7
  -5  -5   6 1640.43 365.995   6
  -5  -5   6 2204.26 347.788   8
  -5  -5   7-55.3158 96.3128   6
  -5  -5   7-3.73551 28.1961   8
   5   5  -8 5193.66 890.527   1
  -5  -5   8 4957.09 898.383   6
  -5  -5   8 5281.23 891.280   7
  -5  -5   8 5503.46 880.632   8
  -5  -5   9-9.26996 74.1221   7
   5   5  -9-21.2016 69.6648   1
   5  -5  -9-31.3674 109.723   5
  -5   5   9-30.0583 93.8572   2
  -5  -5   9-13.4920 99.0820   6
   5  -5  -9-17.9809 43.5917   8
   5  -5 -10 55.6641 46.2031   8
   5  -5 -10 137.782 110.587   5
  -5  -5  10 81.2880 66.1597   7
  -5  -5  10 172.184 92.4444   6
  -5   5  10 31.2737 100.578   2
   5   5 -10 101.831 83.2046   1
   5  -5 -11-28.6259 101.803   5
   5  -5 -11-12.7868 43.6211   8
  -5  -5  11-12.9164 89.2026   6
   5   5 -11-35.4924 56.2035   4
   5   5 -11 12.2874 76.3207   1
  -5   5  11 16.2190 100.721   2
  -5  -5  11-8.89566 61.9890   7
   5  -5 -12 1079.62 160.884   8
  -5   5  12 1025.93 202.961   2
  -5  -5  12 837.107 179.156   6
   5   5 -12 962.748 166.427   4
   5   5 -12 616.149 177.482   1
  -5  -5  12 783.931 167.926   7
   5  -5 -12 681.191 182.164   5
  -5  -5  13-37.8533 82.9582   6
  -5   5  13-104.019 120.805   2
   5   5 -13 8.09696 65.0487   4
  -5  -5  13-17.9188 63.3398   7
   5   5 -13-41.9358 94.0587   1
   5  -5 -13-34.3046 50.1683   8
   5  -5 -13-25.4161 83.1485   5
   5   5 -14 2013.24 377.708   1
   5  -5 -14 2291.72 361.805   8
  -5  -5  14 1964.31 364.300   7
   5   5 -14 2137.33 364.924   4
   5  -5 -14 2249.61 372.615   5
  -5   5  14 1654.70 389.623   2
  -5  -5  14 2317.67 376.331   6
   5   5 -15-37.7995 71.7313   4
   5  -5 -15-11.8267 83.4102   5
  -5   5  15-74.1493 132.358   2
   5   5 -15 79.5403 99.2977   1
  -5  -5  15-27.5025 61.6245   7
  -5   5  15-55.3977 142.163   3
  -5  -5  15-24.9948 87.4026   6
   5  -5 -15 44.6152 60.3700   8
   5   5 -16-16.9533 113.424   1
  -5  -5  16 37.2540 62.8852   7
   5   5 -16-71.5992 78.7439   4
  -5   5  16 114.472 131.715   2
  -5   5  16 129.998 144.462   3
  -5  -5  16-37.6664 88.9127   6
   5  -5 -16 38.9286 62.8040   8
   5  -5 -16-80.2946 88.6152   5
  -5   5  17-98.2209 158.623   2
  -5  -5  17-50.6579 100.775   6
   5  -5 -17 49.0519 72.3288   8
   5  -5 -17-67.0750 97.8874   5
   5   5 -17-72.2629 140.714   1
  -5  -5  17-57.4006 87.3952   7
  -5   5  17 18.4767 150.161   3
   5   5 -17-111.922 98.0008   4
  -5  -5  18 1445.40 255.016   6
   5   5 -18 1477.96 259.855   4
   5   5 -18 763.944 272.902   1
   5  -5 -18 1143.53 251.638   5
  -5  -5  18 1456.29 250.488   7
  -5   5  18 1213.90 287.788   2
   5  -5 -18 1761.83 247.632   8
  -5   5  18 1124.78 276.845   3
  -5  -5  19 50.4055 76.5391   7
  -5   5  19-62.4757 146.877   2
   5   5 -19 20.2090 155.591   1
  -5   5  19 53.9814 127.438   3
   5  -5 -19-21.4234 80.4420   5
   5  -5 -19 45.0819 76.3702   8
   5   5 -19-51.5642 107.263   4
  -5  -5  19 12.7990 87.9963   6
   5   5 -20 2846.41 499.144   1
  -5  -5  20 2614.45 465.831   7
   5   5 -20 2457.02 476.063   4
   5  -5 -20 2928.53 468.588   8
  -5   5  20 2594.17 486.884   3
  -5  -5  20 2606.83 471.275   6
   5  -5 -20 3133.49 468.709   5
  -5   5  20 2380.31 496.493   2
  -5  -5  21 26.2738 92.2904   6
  -5  -5  21-10.7805 83.6074   7
   5   5 -21-45.7906 121.172   4
   5   5 -21-91.3743 161.788   1
   5   5 -23-51.3210 194.063   1
  -5  -5  23 11.5207 85.8558   7
  -5  -5  24-13.7367 98.0790   6
   5   5 -24 38.2771 146.822   4
   5   5 -24-54.4121 192.662   1
  -5  -5  24 11.9711 88.5444   7
  -5  -5  25-124.580 98.1303   6
   5   5 -25-100.851 150.384   4
  -5  -5  25 12.5437 85.2013   7
   5   5 -26 671.643 260.285   1
  -5  -5  26 391.953 141.956   7
   5   5 -26 552.907 203.500   4
  -5  -5  26 633.485 143.629   6
  -5  -5  27 57.9773 103.301   6
  -5  -5  27 27.2448 108.346   7
   0  -6   0 865.110 141.293   8
   0   6   0 510.664 142.464   4
   0   6   0 838.586 159.380   2
   0  -6   0 754.473 148.084   5
   0  -6   0 1028.09 141.703   7
   0  -6   0 828.238 143.046   6
   0  -6   1 5.32481 29.0877   6
   0   6  -1 11.5736 38.1745   4
   0  -6   1 10.9288 24.4853   8
   0  -6  -1 3.21028 21.5773   7
   0  -6   1-4.30691 26.5950   7
   0   6  -1-10.0993 61.3374   2
   0  -6  -1 9.03274 27.5836   6
   0   6   1-9.11028 31.5842   4
   0  -6   1-46.4995 48.1147   5
   0  -6  -1-7.05876 42.3865   5
   0  -6  -2 732.479 132.697   7
   0  -6   2 426.077 145.314   5
   0  -6   2 670.953 136.975   6
   0   6  -2 723.186 148.541   2
   0   6  -2 976.695 142.861   4
   0   6   2 815.525 135.878   4
   0  -6   2 925.473 137.002   7
   0  -6  -2 844.715 136.148   6
   0  -6   3-5.99797 33.4411   6
   0  -6  -3-12.0205 40.2111   8
   0   6  -3 7.08609 43.2783   4
   0  -6  -3-4.96272 19.6307   7
   0   6   3 10.2801 26.3812   4
   0   6   3 11.0713 69.1038   2
   0  -6  -3-3.67157 23.5191   6
   0  -6   3 17.9639 53.3115   5
   0  -6   3-6.95130 19.8887   8
   0   6  -3 43.0889 57.9228   2
   0   6   4 3.80122 28.2820   1
   0  -6   4-37.7716 57.1098   5
   0  -6  -4 15.8600 18.4739   7
   0  -6  -4 45.1898 23.4341   6
   0  -6  -4 83.6546 46.9555   8
   0  -6  -4-34.0400 40.7602   5
   0   6   4 85.5749 73.2679   3
   0   6   4 8.69600 23.6557   4
   0   6   5-8.85232 23.1886   1
   0   6   5 7.19028 23.0421   4
   0   6  -5 8.49146 54.9393   4
   0  -6   5-6.34558 36.7668   7
   0  -6  -5-47.1124 47.9563   8
   0  -6  -5 22.0995 20.4900   7
   0  -6   5 20.0538 34.1576   6
   0  -6  -5-6.77054 40.8889   5
   0  -6  -5-11.1003 20.6811   6
   0   6   5-75.6497 63.7659   3
   0  -6  -6 2274.26 387.714   7
   0  -6   6 2649.33 395.114   7
   0  -6   6 2406.74 394.112   6
   0  -6  -6 2592.57 387.127   6
   0   6   6 2143.57 385.889   4
   0   6  -6 2216.48 400.390   4
   0  -6  -7-13.8864 43.1067   5
   0   6   7-2.92915 12.8603   4
   0   6   7 9.10351 12.2404   7
   0  -6   7-29.8984 40.8317   6
   0   6  -7-68.2837 64.9608   4
   0  -6  -7 1.84040 14.4151   6
   0  -6   7-29.1503 47.6150   7
   0  -6   8 1664.78 276.227   6
   0   6   8 2092.21 289.323   3
   0  -6   8 1703.31 277.549   7
   0  -6  -8 1137.53 282.052   8
   0   6  -8 1490.18 285.313   4
   0  -6   9 49.9343 44.2543   6
   0  -6  -9 14.8214 46.5700   5
   0   6   9 43.0688 64.3323   3
   0  -6   9-8.28073 48.3407   7
   0   6  -9-22.1727 76.2466   4
   0  -6  -9-11.6008 78.3703   8
   0   6  10 260.407 89.6936   3
   0  -6 -10 259.506 71.7768   5
   0  -6 -10 212.064 106.723   8
   0   6 -10 117.698 109.382   4
   0  -6  10 236.640 65.9921   6
  -6   0  10 272.623 98.3272   6
   0  -6  11 9.20577 49.6140   6
  -6   0  11 12.3617 91.1019   6
   0   6  11-10.9181 65.2053   3
   0  -6  11 9.33548 53.4453   7
   0  -6 -11-53.4533 115.755   8
   0  -6 -11-32.0065 54.7855   5
   0   6 -11-37.5579 85.6926   4
   0   6 -12 7208.22 1209.60   4
   0  -6  12 7178.51 1202.34   6
   6   0 -12 7349.69 1197.93   1
   6   0 -13-9.60636 77.7382   5
   6   0 -13 6.59943 44.5621   1
   0  -6 -13-54.0257 62.9711   5
   0   6  13 11.3204 67.5865   3
  -6   0  13 12.6251 77.5358   7
   0  -6 -13 119.577 113.451   8
   0  -6  13 20.9347 59.5164   7
  -6   0  13-25.8111 97.2480   6
   0  -6  13 20.2610 58.6985   6
   0   6 -13-13.9090 97.6815   4
  -6   0  14 1496.57 282.731   7
   0   6 -14 1520.20 291.361   4
   0  -6 -14 1688.45 274.046   5
   0  -6 -14 1769.71 302.687   8
   6   0 -14 1693.90 275.412   5
   0  -6  14 1394.97 275.019   7
  -6   0  14 1468.07 286.893   6
   0  -6  14 1421.53 273.544   6
   0   6  14 1595.45 277.550   3
   0  -6 -15-33.0415 117.029   8
   6   0 -15-7.60748 53.2785   1
   0  -6  15-23.3908 79.0200   7
   0   6 -15 213.991 114.792   4
  -6   0  15-37.4883 93.1691   6
  -6   0  15 38.8018 88.9503   7
   0   6  15-11.9316 70.0394   3
   0  -6 -15 82.7648 71.1706   5
   0  -6 -16 333.336 97.2080   5
   0   6  16 305.907 86.5875   3
   6   0 -16 196.213 68.4615   4
   0   6 -16 271.043 129.607   4
  -6   0  16 157.466 103.242   6
   0  -6 -16 120.751 132.559   8
   0  -6  16 148.149 90.4167   7
   6   0 -16 315.363 77.0824   1
  -6   0  16 140.427 98.9523   7
   6   0 -17 54.7967 57.6666   4
   0  -6 -17-179.942 142.822   8
   0   6  17 12.5324 75.2570   3
   0  -6  17-26.0742 81.8074   7
   6   0 -17 17.5433 54.1675   1
  -6   0  17-35.8183 92.2385   6
  -6   0  17 38.3688 90.1977   7
   0  -6 -17-36.2471 91.7080   5
  -6   0  18 1171.96 184.478   6
   0  -6 -18 581.261 219.920   8
   6   0 -18 752.864 164.798   4
   0  -6 -18 826.199 191.068   5
   0  -6  18 838.292 187.898   7
   0   6  18 928.396 182.087   3
  -6   0  18 839.258 180.723   7
   6   0 -18 1016.93 170.654   1
   0  -6 -19-78.0588 153.914   8
   0   6  19-13.4748 84.1916   3
  -6   0  19-87.8665 92.2158   7
  -6   0  19 11.6764 80.3503   6
   0  -6 -19 28.2598 105.761   5
   0  -6 -20 1217.49 286.796   8
   0  -6 -20 1276.10 259.204   5
   0   6  20 1339.36 247.970   3
   0  -6 -21 16.2056 111.448   5
   0   6  21 44.1143 97.5290   3
   0  -6 -21-20.8741 165.717   8
   0  -6 -22 303.377 193.462   8
   0  -6 -22 345.596 133.202   5
   0   6  22 431.556 125.186   3
   0   6  23 98.0666 122.405   3
   0  -6 -25 47.5002 198.920   8
   0  -6 -26 168.880 210.777   8
   1  -6   0 9105.27 1594.04   7
  -1  -6   0 9523.64 1594.65   8
   1   6   0 14507.3 1606.13   2
  -1  -6   0 9024.34 1592.35   7
   1  -6   1 1808.84 289.736   5
  -1  -6  -1 1837.93 277.158   5
  -1  -6   1 1694.00 277.605   6
  -1   6  -1 1992.49 283.020   4
   1  -6  -1 1806.06 275.217   7
   1   6  -1 1550.05 283.901   3
   1   6  -1 1174.13 273.984   4
  -1  -6   1 1682.91 276.910   5
  -1  -6   1 1592.30 274.121   7
   1   6   1 1743.56 284.398   3
  -1  -6   2 1685.08 296.744   8
  -1  -6  -2 1635.26 296.812   7
   1  -6  -2 1777.94 296.854   7
   1   6  -2 2289.12 309.641   2
   1   6   2 1987.41 296.289   4
   1  -6   2 1704.76 300.259   7
  -1   6  -2 1315.36 304.786   2
  -1   6   2 2157.43 317.405   2
  -1  -6   3 41.7104 25.5347   8
   1   6   3 91.9088 23.4232   4
  -1  -6   3 98.2199 36.5305   5
   1   6  -3 76.7809 55.2558   2
   1   6   3 48.8225 32.9011   1
  -1  -6  -3 33.1592 26.4780   7
  -1   6   3 49.8609 78.6175   2
  -1  -6  -3 60.3407 55.8077   8
   1  -6  -3 97.3727 26.6559   7
  -1   6  -3 125.188 51.9280   4
   1  -6  -3 53.4485 30.1668   8
  -1  -6  -3 75.3248 35.1260   6
  -1  -6   4 1014.02 155.444   7
   1  -6  -4 715.921 165.143   5
  -1  -6  -4 660.586 154.027   7
  -1   6   4 1078.62 183.669   2
  -1  -6  -4 967.531 169.296   8
   1   6  -4 694.127 161.869   2
   1   6   4 982.338 165.062   3
   1   6   4 1070.44 152.522   1
  -1  -6  -4 873.450 157.052   5
  -1  -6   4 898.529 157.124   5
   1  -6   4 740.762 158.323   7
   1  -6  -4 894.454 156.709   8
   1  -6  -4 892.330 150.245   7
  -1  -6  -4 943.916 154.959   6
   1   6  -5 1322.54 338.476   2
  -1  -6   5 2308.50 338.464   7
  -1  -6  -5 1760.51 335.610   6
  -1   6  -5 1932.33 345.448   4
  -1  -6   5 2093.00 340.460   6
   1   6  -5 1830.48 339.819   4
   1   6   5 2070.79 344.730   3
   1  -6   5 2201.51 342.648   7
  -1  -6  -5 2255.87 339.564   5
  -1  -6  -5 2061.77 348.822   8
   1  -6  -5 1968.69 331.891   7
  -1  -6   5 2270.10 334.424   8
   1  -6  -6 1159.41 190.334   7
  -1  -6  -6 1228.45 201.087   5
  -1   6  -6 804.154 208.387   4
   1  -6  -6 1029.38 205.265   5
   1  -6   6 1072.67 202.997   7
  -1  -6   6 1177.58 200.835   6
  -1  -6   6 1472.84 199.454   7
  -1  -6  -6 944.889 195.476   6
  -1   6   6 1178.99 215.688   3
  -1  -6  -6 1074.58 214.211   8
   1   6   6 1293.69 208.478   3
   1   6  -6 1268.22 205.253   4
  -1  -6   7 3254.81 526.934   5
  -1  -6   7 3673.59 526.874   7
   1  -6  -7 3280.96 527.859   8
  -1  -6   7 3670.27 529.239   6
   1  -6   7 2845.42 528.982   7
   1  -6  -7 2966.68 527.644   5
   1   6  -7 2775.91 528.011   4
  -1   6  -7 3234.37 535.263   4
   1   6   7 2568.23 529.288   3
   1   6  -8 1904.01 335.740   4
   1  -6  -8 1813.23 333.066   8
  -1   6   8 2223.21 348.236   3
  -1   6   8 2496.72 349.941   2
  -1  -6   8 2212.48 333.943   6
  -1  -6  -8 1770.33 324.810   6
  -1  -6  -9 1428.40 300.693   5
  -1   6   9 1811.92 313.253   3
   1  -6  -9 1890.17 304.474   5
  -1  -6   9 2100.84 302.622   6
  -1  -6  -9 1492.16 316.666   8
   6   1 -10 4104.28 541.291   1
   1  -6 -10 2657.45 546.558   8
   1  -6 -10 3772.48 544.088   5
   1   6 -10 3341.77 551.134   4
  -1  -6 -10 3725.32 559.763   8
   1   6 -11 887.484 188.214   4
   6   1 -11 739.096 172.313   1
  -6  -1  11 1017.90 194.162   7
  -1  -6 -11 924.072 199.340   8
   1   6  11 1094.69 184.589   3
  -6  -1  11 678.641 203.675   6
  -1  -6  11 1133.11 178.395   6
  -1  -6  11 1351.25 181.621   7
  -1  -6 -11 889.063 181.110   5
   1  -6 -11 732.512 185.741   8
  -6   1  11 1330.68 194.927   6
  -1   6  11 1035.02 190.575   3
   1  -6 -11 1003.10 180.453   5
   1   6  12 1209.69 331.142   3
   6   1 -12 2045.55 338.512   5
   1  -6 -12 2061.39 331.780   5
  -6  -1  12 2417.76 351.559   6
  -1   6  12 2223.32 343.307   3
  -1  -6 -12 1769.43 350.476   8
   1   6 -12 2107.04 346.518   4
  -6  -1  12 1621.50 339.762   7
  -1  -6  12 2174.12 331.874   6
  -6   1  12 2359.24 346.647   6
   1  -6 -12 1802.36 339.362   8
  -1  -6  12 2060.49 331.684   7
  -1  -6 -12 1714.01 333.241   5
  -1  -6  13 3986.43 644.734   7
   1  -6 -13 3620.47 644.786   5
  -1  -6 -13 3733.11 648.159   5
   6   1 -13 3873.39 642.411   1
   1  -6 -13 3508.60 651.660   8
  -1  -6  13 4180.91 646.153   6
   1   6 -13 4421.95 656.949   4
  -6   1  13 3539.13 652.255   6
  -6  -1  14 1400.67 267.539   7
   1  -6 -14 1788.14 262.606   5
   6  -1 -14 1501.21 253.079   1
   1  -6 -14 675.171 269.292   8
  -1   6  14 1393.79 268.874   3
  -6   1  14 1388.07 272.237   6
   1   6  14 1323.72 263.267   3
  -1  -6 -14 1387.86 266.597   5
  -1  -6  14 1618.22 260.628   6
  -1  -6  14 1642.18 260.947   7
  -1  -6 -14 1447.05 289.511   8
  -6  -1  14 1691.99 276.511   6
   1   6 -14 1717.11 281.609   4
   6  -1 -15 861.090 162.899   1
  -1   6  15 1002.08 183.814   3
  -6  -1  15 850.345 185.242   6
  -1  -6  15 1163.47 173.387   7
  -1  -6 -15 1056.41 185.773   5
  -6   1  15 694.775 178.948   7
   1   6 -15 761.440 194.538   4
  -6  -1  15 716.612 178.918   7
   1   6  15 845.467 176.085   3
   6   1 -15 1105.23 166.476   4
   1  -6 -15 774.383 173.720   5
   6   1 -15 1006.72 171.820   1
  -6   1  15 662.828 188.324   6
  -1  -6 -15 596.359 204.024   8
   1  -6 -15 831.676 191.296   8
  -1  -6  15 994.381 170.885   6
   6   1 -16 1747.78 317.012   1
  -6  -1  16 1260.96 324.754   6
  -1  -6  16 1624.98 321.857   6
   1   6 -16 2001.31 344.029   4
   6  -1 -16 2051.14 313.528   1
  -1  -6 -16 2189.33 352.417   8
  -6  -1  16 2002.28 326.974   7
  -6   1  16 1981.51 327.539   6
  -6   1  16 1555.43 323.941   7
   1   6  16 1609.88 320.596   3
   6   1 -16 2118.76 314.311   4
  -1  -6 -16 1834.09 327.794   5
   1  -6 -16 1827.64 337.383   8
   1  -6 -16 2099.62 322.709   5
  -1   6  16 1856.09 323.596   3
  -1  -6  16 2008.36 323.313   7
   6  -1 -16 1586.12 310.643   4
  -6  -1  17 87.2568 93.7353   6
   6   1 -17 134.103 61.9471   4
  -6  -1  17 204.107 94.3543   7
  -1  -6 -17 98.1914 97.6266   5
  -1  -6  17 22.1454 68.1584   6
  -6   1  17 65.0899 94.0053   7
  -6   1  17 147.806 95.4180   6
  -1  -6  17 140.991 87.1566   7
  -1   6  17 259.514 89.5277   3
  -1  -6 -17 265.209 142.859   8
   6   1 -17 142.602 81.1472   1
   1  -6 -17 222.822 84.2893   5
   1  -6 -17-15.6308 118.095   8
   1   6  17 177.562 85.7070   3
   1   6 -17 99.0611 117.995   4
   1   6  18 1950.86 307.228   3
  -1  -6 -18 1138.71 336.932   8
   6   1 -18 1630.11 297.219   4
  -1  -6  18 1759.06 302.853   6
  -6  -1  18 1867.51 308.998   7
  -1  -6  18 1804.05 306.066   7
   6   1 -18 1713.96 303.224   1
   1  -6 -18 1699.77 326.285   8
  -6  -1  18 1991.30 311.522   6
   1  -6 -18 1915.15 308.525   5
   1   6 -18 1154.66 323.434   4
  -1   6  18 1607.93 305.877   3
  -1  -6 -18 1440.84 314.194   5
  -1  -6 -19 1637.27 276.554   5
   1  -6 -19 1640.44 294.866   8
  -6  -1  19 1836.84 264.489   6
  -6  -1  19 1196.82 260.396   7
   6   1 -19 1351.51 262.116   1
  -1  -6 -19 1970.12 308.158   8
   6   1 -19 1135.04 254.164   4
  -1  -6  19 1422.75 264.357   7
   1  -6 -19 1521.19 264.440   5
   1   6  19 892.544 259.634   3
  -1  -6  19 1232.98 258.704   6
   1   6 -19 1715.84 296.084   4
  -1   6  19 1989.60 269.994   3
   1  -6 -20 1232.12 280.293   8
   6   1 -20 1294.31 246.395   4
   1  -6 -20 1112.40 253.032   5
  -1  -6 -20 1284.63 286.659   8
  -1  -6  20 1397.30 253.438   7
  -6  -1  20 1620.28 252.134   7
   6   1 -20 1472.20 255.437   1
   1   6  20 1267.33 253.888   3
   1   6 -20 1667.56 282.901   4
  -1   6  20 1215.25 254.770   3
  -6  -1  20 1260.50 252.465   6
   1  -6 -21 708.941 215.304   8
   1  -6 -21 944.427 185.682   5
  -1  -6 -21 608.277 232.975   8
   1   6 -21 814.356 214.157   4
  -1  -6  21 764.976 176.327   7
  -1   6  21 863.473 175.771   3
   1  -6 -22 553.460 165.912   5
  -1  -6 -22 538.245 203.337   8
  -1   6  22 773.518 160.861   3
   1  -6 -22 526.002 201.994   8
   1  -6 -23 434.524 201.520   8
  -1  -6  23 198.549 132.855   7
  -1   6  23 375.610 138.591   3
   1  -6 -23 98.8911 132.363   5
  -1   6  24 474.540 153.492   3
  -1  -6 -24 379.772 222.326   8
  -1  -6  24 789.464 153.041   7
   1  -6 -24 476.730 173.922   5
  -1  -6 -25-170.768 213.133   8
  -1  -6 -26 149.937 205.601   8
   2   6   0 1719.81 338.138   3
  -2  -6   0 2310.98 340.277   8
   2   6  -1 14613.9 2213.26   3
  -2  -6   1 11305.2 2210.85   8
   2   6   1 15555.4 2213.55   3
  -2  -6  -1 13363.3 2212.05   6
  -2  -6  -1 13741.6 2210.18   7
  -2  -6   1 12384.9 2208.46   5
  -2   6   1 16268.3 2221.48   2
   2   6   1 13290.8 2210.58   1
  -2  -6  -2 845.884 143.668   7
   2  -6  -2 654.987 162.305   5
   2   6  -2 819.539 146.345   3
  -2  -6   2 684.386 142.324   8
  -2   6   2 911.518 165.472   2
  -2  -6  -2 1006.22 149.845   6
  -2  -6   2 788.825 138.032   5
  -2  -6   3 3148.06 510.876   5
   2   6   3 3447.71 511.938   1
  -2  -6   3 2604.21 511.229   8
   2   6  -3 3400.86 519.268   2
  -2   6   3 2864.21 526.611   2
  -2  -6   3 2887.52 512.591   7
   2   6  -3 3476.79 516.264   3
  -2  -6  -4 3166.65 531.217   5
   2  -6  -4 3425.13 543.065   5
   2   6   4 2865.97 533.204   3
   2   6  -4 3350.38 532.330   3
  -2  -6   4 3170.30 531.446   7
  -2  -6   4 2993.83 527.426   5
   2   6  -4 3447.33 534.884   2
   2  -6  -4 3313.80 529.355   7
   2   6  -4 3329.26 530.977   4
   2  -6  -5 3400.76 504.892   7
  -2  -6   5 3363.72 508.016   7
   2   6  -5 3183.38 509.915   3
  -2  -6   5 2680.38 503.888   5
   2   6  -5 3021.14 508.391   4
   2  -6  -5 2784.86 516.852   5
  -2  -6   5 2883.84 510.796   6
  -2  -6  -5 3192.16 509.592   6
   2   6  -5 2942.56 510.814   2
  -2   6   6 6440.81 973.104   2
  -2  -6   6 5955.31 952.788   5
  -2  -6  -6 6524.55 959.211   5
   2  -6  -6 4850.67 951.340   7
   2   6  -6 5828.07 957.693   4
   2  -6  -6 5969.99 956.368   8
  -2  -6   6 7201.39 958.083   7
  -2  -6   6 6163.33 960.527   6
  -2  -6   6 5647.10 952.184   8
   2   6  -6 6058.47 957.207   3
  -2  -6  -7 5877.75 1036.80   5
   2   6   7 4512.72 1035.15   3
  -2  -6   7 6419.38 1038.15   6
  -2  -6   7 7348.72 1035.87   7
   2   6  -7 6687.92 1034.29   3
  -2   6   7 6854.49 1050.81   2
   2   6  -7 6406.75 1036.26   4
  -2  -6   7 6319.80 1030.07   5
   2   6  -8 3441.32 633.998   4
  -2   6   8 4144.12 651.375   2
   2  -6  -8 3675.99 638.634   5
  -2  -6   8 3382.07 634.464   6
  -2  -6   8 3692.70 626.843   5
  -2  -6   8 4354.67 633.064   7
   6   2  -8 4019.20 632.263   1
   2   6  -8 3962.27 630.964   3
  -2  -6   9 5796.83 959.084   5
  -2  -6  -9 5917.55 968.296   5
   2  -6  -9 5019.99 965.007   8
  -2   6   9 6462.40 981.122   2
  -2  -6   9 5864.92 967.656   6
   2  -6  -9 5921.58 969.670   5
   6   2  -9 6454.90 965.566   1
   2   6 -10 386.420 123.629   4
   6   2 -10 459.521 113.669   1
   2   6  10 464.538 119.674   3
  -2  -6 -10 654.776 157.938   8
  -2  -6  10 442.580 101.338   5
  -2   6  10 1494.67 202.247   2
  -2   6  10 935.399 182.698   3
   2  -6 -10 1060.04 136.496   8
  -6  -2  10 583.536 165.453   6
  -2  -6  10 883.227 128.743   6
   2  -6 -10 622.447 136.374   5
  -6  -2  10 374.821 149.892   7
  -2  -6 -10 626.836 131.759   5
  -2  -6  11 11413.5 1648.81   7
   2   6 -11 11015.2 1653.65   4
   2  -6 -11 11291.6 1651.97   5
   2   6  11 10368.8 1652.32   3
  -2   6  11 10346.5 1659.20   3
  -2  -6 -11 7163.15 1654.09   8
  -2  -6  11 8305.52 1648.57   6
  -6  -2  12 2674.25 315.883   7
   6  -2 -12 1449.78 311.456   5
   2  -6 -12 1763.10 300.380   8
  -2  -6 -12 1188.22 300.943   5
  -2  -6 -12 2156.41 321.703   8
  -2   6  12 2084.24 327.125   2
  -2   6  12 1707.10 314.243   3
  -2  -6  12 1827.86 298.587   6
   2   6  12 1604.80 302.286   3
   2   6 -12 2095.98 308.004   4
   6   2 -12 1357.11 295.954   1
  -6  -2  12 1621.85 314.364   6
   2   6  13 3325.38 613.314   3
  -2  -6  13 2996.41 609.773   6
  -2  -6  13 3874.18 609.458   7
  -2   6  13 4202.96 630.389   2
   2  -6 -13 3576.95 613.372   8
   6   2 -13 3746.90 610.348   1
  -2   6  13 3756.77 621.554   3
  -6  -2  13 3776.57 621.329   6
  -2  -6 -13 4228.19 628.003   8
  -6  -2  13 3673.88 617.243   7
  -2   6  14 1896.29 360.332   3
   2  -6 -14 1988.92 350.333   8
  -2  -6 -14 1856.27 355.706   5
   2   6  14 1810.54 348.779   3
  -2   6  14 1919.28 368.322   2
   6  -2 -14 2016.25 355.091   5
  -6   2  14 1765.80 355.712   6
  -6  -2  14 1487.99 358.854   6
  -2  -6  14 1886.92 344.443   6
  -2  -6  14 2603.93 345.915   7
  -6  -2  14 2079.89 351.816   7
   2  -6 -14 2302.06 347.546   5
  -2  -6 -14 1972.72 368.254   8
   2   6 -14 1937.84 358.210   4
   2   6  15 4474.97 800.393   3
   2   6 -15 5156.59 808.802   4
  -2  -6 -15 5026.39 805.864   5
  -6   2  15 5455.09 804.199   6
   6   2 -15 4512.02 793.191   4
  -2  -6  15 5193.65 796.368   7
  -2   6  15 5122.93 816.660   2
   6   2 -15 4585.34 798.444   1
  -6  -2  15 5241.44 806.997   6
   6  -2 -15 4736.15 799.937   5
  -2  -6  15 4593.14 796.906   6
   2  -6 -15 4438.27 797.433   5
  -2  -6 -15 4180.00 810.443   8
  -2  -6  16 82.8220 68.1752   6
   2  -6 -16-11.9614 98.0007   8
  -2  -6 -16 75.1677 101.064   5
   2  -6 -16 86.3757 67.7875   5
  -2  -6 -16 72.9507 131.493   8
  -2   6  16 137.278 97.2334   3
  -2  -6  16 154.833 68.0609   7
   2   6  16 102.802 73.0165   3
   6   2 -16 127.054 67.7720   4
  -6  -2  16 233.994 105.775   6
   6  -2 -16 86.7515 81.4462   5
  -2   6  16 343.020 154.409   2
   6   2 -16 98.2678 71.1857   1
  -6  -2  16 357.268 90.4377   7
   2   6 -16 392.128 129.179   4
  -6  -2  17 4642.47 741.667   6
   2   6  17 3998.89 739.112   3
  -2  -6  17 4825.09 734.635   7
  -2   6  17 4072.79 739.619   3
   2  -6 -17 4729.73 735.178   5
  -2  -6 -17 4005.61 751.517   8
  -6  -2  17 4083.30 736.791   7
  -6  -2  18 1341.40 213.468   7
   2   6 -18 1411.47 241.143   4
   2  -6 -18 1260.35 224.677   8
  -2  -6  18 1007.68 209.087   7
  -2  -6 -18 687.806 236.178   8
   2  -6 -18 1385.42 213.026   5
  -2   6  18 848.536 218.832   3
   6   2 -18 890.804 214.920   1
   6   2 -18 1233.58 207.577   4
  -2  -6  18 935.487 210.678   6
  -6  -2  18 1261.87 218.584   6
  -2   6  19 3936.90 658.662   3
   2   6 -19 4393.75 673.737   4
   2  -6 -19 4292.34 663.682   8
  -2  -6 -19 3871.20 677.242   8
   6   2 -19 3033.17 647.893   4
  -6  -2  19 4105.01 653.645   7
  -2  -6  19 4564.06 654.200   7
   6   2 -19 3519.08 657.436   1
   2  -6 -20 1754.33 340.407   5
  -2  -6 -20 1827.21 377.742   8
  -6  -2  20 2378.77 346.094   6
   6   2 -20 2120.83 339.537   4
   2  -6 -20 1743.62 355.825   8
  -6  -2  20 1782.20 338.738   7
  -2   6  20 1672.17 346.036   3
   6   2 -20 1722.94 342.745   1
  -2  -6  20 2085.82 338.863   6
  -2  -6  20 2142.68 342.093   7
   2   6 -20 1638.59 363.274   4
   2   6 -21 3081.41 529.863   4
   2  -6 -21 3583.75 511.103   5
  -6  -2  21 2895.25 506.432   7
   6   2 -21 3243.33 507.185   4
  -2  -6  21 3232.05 506.553   6
   2  -6 -21 2548.35 520.572   8
  -6  -2  21 3465.49 511.442   6
  -2   6  21 1758.18 503.427   3
  -2   6  22 893.372 166.492   3
  -6  -2  22 641.090 152.154   6
  -6  -2  22 536.573 147.698   7
   2  -6 -22 705.269 189.613   8
   2  -6 -22 549.248 154.362   5
  -2   6  23 1090.12 224.199   3
  -2  -6  23 901.558 212.682   7
   2  -6 -23 1256.86 247.659   8
   2  -6 -23 1184.54 226.318   5
  -2  -6  24 39.9908 100.450   7
   2  -6 -24 63.4228 127.086   5
   2   6 -24-171.355 164.322   4
  -2  -6  25 2025.41 361.570   7
  -2  -6  26 236.117 116.565   7
  -2  -6  27 1638.24 311.889   7
  -2  -6  28 347.650 140.780   7
  -2  -6  29 1769.55 336.925   7
   3   6   0 3066.60 526.331   3
  -3  -6   0 3280.84 530.296   8
  -3  -6   1 680.178 142.922   5
  -3  -6  -1 825.121 159.423   6
   3   6   1 1006.14 147.924   3
   3   6  -1 738.109 146.252   3
  -3  -6   1 1050.77 155.717   8
   3   6  -2 8972.69 1502.34   1
  -3  -6   2 10566.3 1502.16   7
  -3  -6  -2 8591.64 1504.39   8
  -3  -6  -2 8254.65 1503.68   7
  -3  -6   2 8799.23 1498.13   5
  -3   6   2 9829.52 1511.42   2
   3   6  -3 140.301 43.0014   3
   3  -6  -3 155.033 42.1790   8
   3  -6  -3 297.161 91.7557   5
  -3  -6   3 133.528 54.2754   8
  -3  -6  -3 233.107 51.8280   5
   3   6   3 206.999 52.6307   3
  -3  -6   3 122.205 47.5219   7
   3   6  -3 76.1530 60.6172   1
  -3  -6  -3 212.211 64.8645   6
  -3  -6  -3 237.118 72.3193   8
  -3  -6   3 113.044 63.5500   6
  -3  -6   3 107.801 38.2878   5
  -3  -6   4 3574.19 540.453   8
   3  -6  -4 3378.29 555.398   5
   3   6  -4 3344.30 545.907   1
  -3  -6   4 3400.26 540.370   7
  -3  -6  -4 2565.21 541.671   5
  -3  -6   5 6123.57 929.971   7
  -3  -6   5 5319.68 934.124   6
   3   6   5 5717.84 932.376   3
  -3   6   5 6107.15 944.096   2
   3  -6  -5 5864.81 928.763   8
  -3  -6   5 5237.29 926.843   8
   3   6  -5 5282.32 935.013   1
  -3   6   6 4279.85 647.197   2
  -3  -6  -6 4696.72 644.019   8
   3   6  -6 3662.65 626.635   3
  -3  -6   6 3769.35 625.209   5
   3   6   6 4015.61 634.112   3
  -3  -6   6 3929.52 630.243   7
   3  -6  -6 4235.10 644.409   5
   3   6  -6 3358.52 629.745   2
   3   6  -6 3729.72 638.307   1
  -3  -6   6 3700.31 625.076   8
  -3  -6   7 4976.23 825.981   5
   3   6   7 4510.53 833.750   3
   3   6  -7 4908.11 831.251   4
   6   3  -7 5425.12 832.074   1
  -3  -6  -7 4603.83 835.507   5
   3  -6  -7 5267.17 830.680   8
  -3  -6   7 4874.92 825.260   8
  -3  -6   7 5017.42 836.625   6
  -6  -3   7 5210.64 847.398   6
   3   6  -7 5014.51 827.191   3
  -3   6   7 4951.59 846.600   2
   3   6  -7 5093.74 830.426   2
  -6  -3   7 5795.25 845.678   7
  -3  -6  -7 5431.69 843.079   8
  -3  -6   7 5216.76 831.338   7
  -3  -6  -8 9998.09 1347.85   8
   3  -6  -8 8395.72 1333.71   8
   3   6  -8 7906.73 1329.38   3
  -3  -6   8 8946.09 1334.77   7
  -3  -6   8 7882.22 1338.01   6
   3   6  -8 7532.45 1331.20   2
  -6  -3   8 9294.86 1350.20   6
  -3  -6   8 7790.59 1328.25   5
  -6  -3   9 3147.20 488.254   7
  -3  -6  -9 3336.22 481.699   5
  -3  -6   9 2488.06 460.519   5
   6   3  -9 3338.30 471.949   1
   3   6  -9 2543.37 461.124   3
  -6  -3   9 3422.71 496.776   6
  -3  -6   9 3665.73 480.498   6
   3   6  -9 3606.45 477.938   4
  -3   6   9 3646.67 506.073   2
   3  -6  -9 2721.70 468.632   8
   6   3 -10 9080.30 1612.69   1
  -3  -6 -10 9489.65 1617.75   5
  -6  -3  10 9616.72 1624.18   6
   3   6 -10 10277.2 1614.06   4
   3  -6 -10 10296.7 1611.42   8
  -3   6  10 9514.95 1627.12   2
  -3  -6  10 9878.53 1612.05   7
   3  -6 -11 310.348 85.9380   8
  -6  -3  11 159.986 97.0989   7
   3  -6 -11 318.201 104.086   5
  -3  -6  11 432.545 85.9048   7
   3   6 -11 460.523 97.4662   4
   3   6  11 305.673 89.4427   3
  -3  -6  11 425.505 92.7603   6
  -3  -6 -11 622.280 110.495   5
   6  -3 -11 488.746 135.211   5
   6   3 -11 215.780 85.9609   1
  -6  -3  11 443.688 122.783   6
  -3   6  11 533.391 136.183   3
  -3   6  11 464.862 137.432   2
  -3  -6 -11 403.125 130.401   8
  -3  -6  12 7641.17 1132.40   7
   3   6  12 6329.93 1135.81   3
   3  -6 -12 7562.52 1137.81   5
   6  -3 -12 7774.64 1145.65   5
  -3  -6  12 6156.46 1134.74   6
  -3   6  12 6416.35 1146.25   3
   3   6 -12 6735.45 1135.11   4
  -3   6  12 6098.47 1147.55   2
   3  -6 -12 6696.82 1131.62   8
  -6  -3  12 6869.08 1138.88   7
  -3  -6 -13 2592.96 356.771   8
  -3   6  13 1919.92 356.555   2
  -6  -3  13 1627.93 333.659   7
  -3  -6  13 2089.50 327.835   7
   3  -6 -13 1784.80 332.226   5
   3  -6 -13 2405.72 330.829   8
   6  -3 -13 1991.20 341.478   5
  -6  -3  13 2235.60 347.782   6
   3   6 -13 1612.05 335.565   4
  -3  -6  13 1724.15 330.461   6
  -3   6  13 2110.24 353.574   3
   6   3 -13 1407.85 328.704   1
   6  -3 -14 4371.53 727.374   5
  -6   3  14 4632.56 730.552   2
   6   3 -14 4240.60 716.010   4
   6   3 -14 4128.39 721.867   1
   3   6 -14 3647.58 724.058   4
  -3  -6  14 4405.02 718.430   7
   3  -6 -14 4470.49 721.125   5
  -3  -6  14 4431.85 721.476   6
  -3   6  14 4472.19 737.422   2
  -3   6  14 4524.28 734.619   3
  -6  -3  15 992.823 172.545   7
  -6  -3  15 616.429 179.267   6
  -3   6  15 674.395 188.566   3
   6  -3 -15 1173.95 180.854   5
  -6   3  15 1289.05 193.092   2
  -3   6  15 749.874 199.896   2
   3   6 -15 567.786 174.690   4
   6   3 -15 871.502 158.122   4
  -3  -6  15 554.184 161.585   7
   3  -6 -15 989.021 166.898   5
   3  -6 -15 901.434 166.154   8
  -3  -6  15 733.674 167.922   6
   6   3 -15 986.078 174.949   1
   6  -3 -16 3900.08 567.677   5
  -3  -6  16 3438.18 558.857   7
   3  -6 -16 3766.87 562.225   5
   6   3 -16 3405.61 558.540   4
  -3  -6  16 3116.93 561.444   6
  -3   6  16 3335.77 584.986   2
  -3   6  16 3416.03 573.784   3
   6   3 -16 3553.34 566.481   1
   3   6 -16 3284.98 571.419   4
   6  -3 -16 2718.18 553.855   8
  -6   3  16 3295.96 574.161   2
   3  -6 -16 3325.20 563.089   8
  -3   6  17 216.054 167.785   2
  -3   6  17 198.514 121.633   3
   6  -3 -17 52.2731 91.0101   5
  -6  -3  17 13.3359 95.0875   6
  -3  -6  17 133.939 89.8964   6
   3  -6 -17-52.1051 95.0947   8
   3   6 -17 366.808 142.160   4
   6   3 -17 13.0105 99.8120   1
  -6   3  17 188.082 144.386   3
   3  -6 -17 81.0242 76.7498   5
  -3  -6  17 282.360 77.2128   7
   6   3 -17 139.992 86.2541   4
   6  -3 -17 245.217 64.6794   8
  -6  -3  17 166.415 89.9569   7
  -6   3  17 16.2161 120.625   2
   3  -6 -18 4799.99 859.794   8
  -6  -3  18 5437.47 865.062   6
  -3   6  18 5078.95 866.656   3
   6   3 -18 5101.68 857.171   4
   3   6 -18 5213.57 869.388   4
  -6  -3  18 4938.08 859.274   7
  -3   6  18 4985.89 880.277   2
  -3  -6  18 5521.19 858.352   7
  -3   6  19 1269.21 365.911   2
  -3   6  19 1754.61 347.111   3
   6   3 -19 1932.74 348.765   1
   3  -6 -19 1971.87 341.413   8
   6   3 -19 1980.06 336.179   4
  -3  -6  19 2349.61 335.463   7
  -3  -6  19 1682.87 336.355   6
   3   6 -19 1975.21 360.014   4
  -6  -3  19 1915.83 341.311   6
  -6  -3  19 1839.41 336.979   7
   3   6 -20 3330.36 593.902   4
  -3  -6  20 2849.42 571.468   6
  -3   6  20 2302.97 597.182   2
  -3   6  20 3626.54 586.265   3
   6   3 -20 3014.80 574.326   4
  -6  -3  20 3651.62 574.484   7
   6   3 -20 3226.66 585.253   1
  -6  -3  20 3561.30 579.791   6
   3  -6 -20 3938.42 576.969   5
   3  -6 -20 4055.59 580.732   8
   6   3 -21 1225.40 240.250   4
   6   3 -21 764.502 246.955   1
  -6  -3  21 1104.80 239.382   6
  -6  -3  21 1351.28 240.961   7
  -3   6  21 1605.13 296.817   2
   3  -6 -21 1528.90 252.457   8
  -3  -6  21 1242.06 235.585   6
  -3   6  21 1015.37 249.805   3
   3  -6 -21 1569.60 242.848   5
   3   6 -21 1522.95 282.580   4
  -3   6  22 1879.18 333.056   3
   3  -6 -22 1706.66 334.497   8
  -3   6  22 1248.16 363.339   2
  -6  -3  22 1800.53 319.219   7
   6   3 -22 1397.45 322.022   4
  -6  -3  22 2113.45 322.744   6
   6   3 -22 1752.81 339.963   1
   3  -6 -22 1948.81 323.711   5
   3  -6 -23 44.2094 137.864   8
   6   3 -23-72.7812 131.367   1
  -3   6  23 47.9842 185.633   2
   3  -6 -23 91.5389 97.2683   5
  -6  -3  23 86.1539 89.5327   7
  -6  -3  23 69.2508 96.1694   6
  -3  -6  23 86.0021 92.4732   7
   6   3 -23 205.341 124.621   4
  -3   6  23-32.3304 113.990   3
  -3  -6  24 1358.26 204.031   7
   3   6 -24 1297.10 246.562   4
  -3  -6  25 132.956 98.6170   7
   3   6 -25 197.492 173.234   4
  -3  -6  25 41.9524 97.9535   6
  -3  -6  26 1527.57 304.910   6
   3   6 -26 955.133 337.014   4
  -3  -6  27 72.3099 114.058   7
   3   6 -27 163.240 171.295   4
  -3  -6  28 1546.24 295.214   7
  -3  -6  29 126.612 121.043   7
  -4  -6   0 1845.88 310.308   6
  -4  -6   0 1667.32 305.909   7
  -4  -6   1 1266.89 257.911   7
  -4  -6   1 1428.65 263.283   6
  -4  -6   1 1704.72 257.014   8
  -4  -6   2 609.521 109.295   8
   4   6  -2 586.903 105.951   1
  -4  -6  -2 592.170 116.767   8
  -4  -6   2 304.729 125.508   6
  -4  -6   2 531.778 115.405   7
  -4  -6   3 3238.70 543.861   6
  -4  -6   3 3367.22 537.527   7
  -4  -6   3 3051.00 533.444   8
  -4  -6  -4 130.548 74.8168   8
  -4  -6   4 178.823 88.4469   6
  -4  -6   4 146.738 60.0310   7
   4   6  -4 135.810 62.3948   1
  -4  -6   4 123.580 56.1145   8
  -4   6   5 1685.00 365.595   2
   4  -6  -5 1715.62 370.154   5
  -4  -6   5 2500.66 353.219   8
  -4  -6   5 2023.38 362.792   6
   4   6  -5 1881.05 357.100   1
  -4  -6   5 2189.49 354.510   7
  -4  -6   6 3692.04 636.912   8
  -4  -6   6 4002.67 641.123   7
  -6  -4   6 4371.51 656.810   6
  -4   6   6 3888.13 656.199   2
  -4  -6   6 3518.87 647.759   6
  -6  -4   6 3867.88 654.074   7
   4  -6  -6 3852.30 637.467   8
   4  -6  -7 2650.81 498.715   8
  -4  -6   7 3004.97 496.192   8
   4   6  -7 3226.88 501.423   4
   4   6  -7 3188.71 509.925   1
   6   4  -7 3094.96 501.441   1
  -4  -6   8 3322.93 569.853   8
  -6  -4   8 3593.58 600.062   6
  -4  -6   8 4406.61 594.768   6
  -4   6   8 3502.90 600.135   2
  -4  -6   9 4212.45 777.233   6
   6   4  -9 4821.36 772.052   1
   4   6  -9 4951.25 770.598   4
  -6  -4   9 4157.90 786.418   6
  -4   6   9 4574.07 786.344   2
   6  -4 -10 216.215 112.495   5
  -4   6  10 156.636 115.806   2
  -6  -4  10 232.541 113.507   6
   4  -6 -10 143.077 85.1634   5
   4   6 -10 243.170 68.2409   4
  -4  -6  10 180.188 80.0546   6
   4   6 -10 109.400 96.2156   1
   4  -6 -10 187.072 57.0069   8
   6   4 -10 154.062 67.6621   1
  -6  -4  10 110.519 87.2159   7
  -4  -6  10 113.778 56.6726   7
   6   4 -11 6364.92 980.483   1
   4  -6 -11 5987.01 975.000   8
  -4  -6  11 5856.19 981.956   6
  -6  -4  11 5144.26 982.833   7
  -4  -6  11 6039.71 976.313   7
  -4   6  11 5623.31 993.747   2
  -6  -4  12 1541.28 382.336   6
   4   6 -12 2301.42 370.665   4
   4  -6 -12 2438.54 366.956   8
   6   4 -12 1877.81 370.646   1
   6  -4 -12 2109.70 391.269   5
   4   6 -12 1820.48 385.620   1
  -4  -6  12 2411.41 368.207   7
  -4   6  12 2158.10 396.332   2
  -4  -6  13 1079.55 190.018   7
   6   4 -13 1156.08 188.550   4
   4  -6 -13 976.459 189.287   8
  -6  -4  13 827.438 200.125   7
   4   6 -13 1667.65 230.318   1
  -4   6  13 660.726 228.704   2
   6   4 -13 825.767 197.703   1
   4  -6 -13 1221.97 204.868   5
   6  -4 -13 1557.19 222.408   5
  -6  -4  13 759.656 215.734   6
  -6   4  13 871.650 210.015   2
  -4   6  13 745.261 226.784   3
  -4  -6  13 1272.86 201.026   6
   4   6 -13 998.897 199.003   4
   4  -6 -14 1881.92 340.970   8
   6  -4 -14 2747.97 364.080   5
  -4   6  14 2241.95 374.452   2
  -4   6  14 2017.13 368.023   3
   4  -6 -14 2375.59 353.760   5
  -4  -6  14 1756.21 339.778   7
   6   4 -14 1974.63 350.033   1
  -6  -4  14 1866.61 358.073   6
   6  -4 -14 1830.95 337.165   8
  -4  -6  14 2000.78 348.266   6
  -6   4  14 1758.11 357.723   2
   4   6 -14 2245.12 349.301   4
   4  -6 -15 2462.95 415.524   5
  -4   6  15 1643.56 429.988   2
   6  -4 -15 2165.37 404.180   8
   6   4 -15 2345.42 408.395   4
  -4  -6  15 2805.23 409.992   7
  -6   4  15 2742.88 428.944   2
   4  -6 -15 2395.07 408.952   8
   6  -4 -15 2726.21 422.255   5
   4   6 -15 2277.38 414.848   4
  -4  -6  15 2650.01 416.704   6
  -6  -4  15 2252.75 421.798   6
  -4   6  15 2131.78 436.627   3
   6   4 -15 2488.35 417.818   1
  -4   6  16-71.4437 132.806   3
  -4  -6  16 58.7904 79.3610   6
  -4   6  16 40.5774 147.374   2
   6  -4 -16 49.0573 88.5718   5
   4  -6 -16 43.9550 82.2116   5
  -4  -6  16 17.8471 69.3176   7
   4  -6 -16 17.5419 69.0746   8
   6  -4 -16 36.1684 56.3509   8
   4   6 -16 84.7035 103.601   4
  -6  -4  16 109.880 78.7872   7
   6   4 -16 61.8032 72.7071   4
  -6  -4  16 41.5535 97.9506   6
  -6   4  16-34.5130 122.921   2
   6   4 -16 109.394 98.6893   1
   6  -4 -17 1031.02 251.861   8
   6  -4 -17 1794.39 267.076   5
  -4  -6  17 1607.50 258.402   7
   4  -6 -17 1502.74 260.069   8
  -6  -4  17 1573.01 264.058   7
   4   6 -17 1503.34 272.239   4
  -6   4  17 1500.84 299.922   3
  -6  -4  17 1769.82 273.841   6
  -4   6  17 1189.77 292.907   3
  -4   6  17 1310.35 299.070   2
   6   4 -17 1546.80 274.619   1
   4  -6 -17 1543.32 264.712   5
   6   4 -17 1589.82 260.664   4
  -6   4  17 1135.51 276.076   2
  -4  -6  17 1121.28 264.141   6
   4  -6 -18 1141.65 172.334   8
   6   4 -18 1034.53 170.943   4
  -4  -6  18 775.826 161.784   7
   4   6 -18 659.766 182.432   4
   4  -6 -18 727.093 169.048   5
  -4  -6  18 757.345 171.330   6
   6   4 -18 560.498 188.974   1
  -4   6  18 916.662 196.509   3
   6  -4 -18 749.078 172.850   5
   6  -4 -18 958.429 161.088   8
  -6  -4  18 684.143 167.391   7
  -6   4  18 1034.87 228.076   3
  -6  -4  18 857.588 179.140   6
  -4   6  18 640.376 225.022   2
  -6   4  18 858.424 201.967   2
   6   4 -19 1715.36 294.257   1
  -4   6  19 1580.29 294.030   3
   4  -6 -19 1606.23 271.314   8
  -4   6  19 769.164 303.094   2
  -6  -4  19 1612.01 281.770   6
  -6  -4  19 1405.24 273.953   7
   4  -6 -19 1812.24 274.616   5
   4   6 -19 1446.07 287.901   4
  -4  -6  19 1075.49 273.259   6
  -4  -6  19 1730.05 270.162   7
   6   4 -19 1375.60 274.940   4
  -6  -4  20 1570.58 278.497   6
  -4  -6  20 1501.84 274.482   6
  -6  -4  20 1184.61 270.085   7
   4   6 -20 1784.23 297.663   4
   4  -6 -20 1237.00 272.316   8
  -4  -6  20 1440.83 268.489   7
   6   4 -20 1377.57 274.157   4
  -4   6  20 1478.46 288.394   3
  -4   6  20 1467.99 328.200   2
   4  -6 -20 1868.20 273.353   5
   6   4 -20 1797.04 298.039   1
  -6  -4  21 1036.12 269.969   7
  -4   6  21 1282.86 327.200   2
   4  -6 -21 1982.62 275.499   5
  -6  -4  21 1191.35 275.212   6
   6   4 -21 1741.23 302.534   1
  -4   6  21 1323.83 296.875   3
   6   4 -21 1756.78 283.156   4
   4  -6 -21 1565.70 275.282   8
  -4   6  22 699.507 277.892   2
   4  -6 -22 420.849 171.993   8
   6   4 -22 723.373 184.880   4
  -4   6  22 811.383 203.607   3
  -4  -6  22 404.441 136.557   7
   4  -6 -22 550.034 158.349   5
  -6  -4  22 688.072 158.398   6
  -4  -6  23 52.0286 85.3157   6
  -4  -6  23 140.121 91.0553   7
   4   6 -23 120.338 156.335   4
   6   4 -24 86.3839 169.151   1
  -4  -6  24 24.3650 90.8105   7
  -6  -4  24 12.9076 95.1302   7
   4   6 -24-83.2144 165.132   4
  -4  -6  24 13.3402 90.5050   6
   4   6 -25 1169.52 234.649   4
  -4  -6  25 827.100 189.058   7
  -4  -6  25 702.869 184.794   6
   6   4 -25 1052.69 219.121   4
  -6  -4  25 761.310 198.315   7
  -6  -4  25 1048.53 196.917   6
  -4  -6  26 200.150 97.7462   6
  -4  -6  26 292.562 112.258   7
   4   6 -26 22.3985 178.140   4
   4   6 -27 348.324 235.668   4
  -4  -6  27 591.858 176.613   6
  -4  -6  28 276.708 113.630   6
   4   6 -28 23.9748 193.598   4
  -4  -6  28 320.036 126.659   7
  -4  -6  29 175.693 114.049   6
  -4  -6  29 395.826 136.138   7
  -5  -6   1 1436.72 266.509   6
   5   6  -2 63.9154 42.8821   1
  -5  -6   2 49.4673 54.2257   8
  -5  -6   2 263.721 87.1895   7
  -5  -6   2 40.7858 91.9395   6
   5   6  -3 69.3556 44.7319   1
  -5  -6   3 13.9878 83.0591   6
  -5  -6   3 80.5936 49.4507   8
  -5  -6   3 12.4844 71.1410   7
  -5  -6   4 605.256 118.694   8
  -6  -5   4 895.352 155.567   6
   5   6  -4 549.047 120.131   1
  -5  -6   4 640.004 134.579   7
   6   5  -4 587.785 120.258   1
  -5  -6   4 943.308 158.776   6
   6   5  -5 819.165 154.553   1
   5   6  -5 749.304 159.055   1
  -5  -6   5 952.665 167.481   7
  -6  -5   5 736.795 176.539   7
  -5  -6   5 872.412 154.044   8
  -5  -6   5 1040.67 185.558   6
  -6  -5   5 973.228 191.602   6
  -6  -5   6 556.641 154.454   6
  -5  -6   6 204.573 72.8301   8
  -5  -6   6 216.832 90.2425   7
  -5  -6   6 345.870 135.142   6
   5   6  -6 246.719 88.0809   1
  -5  -6   7 1440.24 326.646   6
  -6  -5   7 2197.41 340.483   6
  -5  -6   7 2202.74 308.617   8
  -5  -6   7 1517.47 315.964   7
   5   6  -7 1486.07 315.109   1
   5  -6  -7 2099.88 339.320   5
  -5   6   8 1384.99 230.999   2
   6   5  -8 1186.07 204.960   1
  -6  -5   8 909.471 217.060   7
   5  -6  -8 1199.64 232.216   5
  -5  -6   8 1009.32 223.295   6
  -6  -5   8 1236.93 236.544   6
   6   5  -9 827.270 155.070   1
  -5  -6   9 941.430 178.397   6
   5   6  -9 878.692 149.613   4
  -6  -5   9 716.075 169.251   7
  -6  -5   9 826.651 182.226   6
   5  -6  -9 609.515 183.636   5
   5  -6  -9 758.381 146.670   8
  -5   6   9 892.811 180.539   2
   5  -6 -10 712.750 164.421   5
   6  -5 -10 318.661 165.496   5
  -6  -5  10 661.040 150.257   7
   5   6 -10 635.162 143.945   1
   5  -6 -10 530.724 123.716   8
  -5  -6  10 526.043 146.640   6
   5   6 -10 763.516 126.063   4
  -5   6  10 977.988 165.812   2
  -5  -6  10 669.856 126.816   7
  -6  -5  10 750.149 164.209   6
   6   5 -10 595.764 132.402   1
   6  -5 -11 961.378 227.923   5
   5  -6 -11 1194.82 218.271   5
  -6  -5  11 796.860 199.836   7
  -5  -6  11 1146.24 193.969   7
   5   6 -11 1135.73 191.392   4
   5   6 -11 1245.76 207.147   1
  -5  -6  11 880.311 204.722   6
   5  -6 -11 956.503 185.826   8
  -5   6  11 853.484 217.042   2
  -6  -5  11 749.881 217.398   6
   6   5 -11 1380.52 201.367   1
  -5   6  12 146.440 135.405   2
   6   5 -12 291.296 96.1848   1
   5   6 -12 492.840 90.4905   4
   6  -5 -12 338.762 138.097   5
  -6   5  12 318.097 113.010   2
  -5  -6  12 236.190 108.499   6
   5  -6 -12 273.618 115.926   5
  -5  -6  12 322.052 86.7057   7
   5   6 -12 288.460 113.437   1
  -6  -5  12 122.961 126.486   6
   5  -6 -12 343.932 79.5874   8
  -6  -5  12 375.478 102.242   7
  -6  -5  13 1980.15 320.634   7
   6  -5 -13 1878.25 335.282   5
  -5   6  13 1631.95 343.595   2
   6   5 -13 1503.60 320.257   1
   6   5 -13 2003.83 311.941   4
   5   6 -13 1776.97 313.713   4
   5  -6 -13 2176.22 328.646   5
  -5  -6  13 1906.90 324.976   6
  -6  -5  13 2373.21 337.466   6
   5   6 -13 1613.64 330.802   1
  -5  -6  13 1548.74 313.210   7
  -6   5  13 1289.93 332.496   2
   6  -5 -14 36.6221 59.1333   8
  -6   5  14 159.076 118.670   2
   6   5 -14 142.773 67.9209   4
   6   5 -14 53.8471 84.9309   1
  -5  -6  14 13.0398 90.1177   6
   5   6 -14 16.3751 118.359   1
  -6  -5  14 206.066 110.726   6
  -5  -6  14 121.781 72.6898   7
   5  -6 -14 99.6705 56.5733   8
   5   6 -14 242.687 89.0076   4
   5  -6 -14 159.066 101.380   5
  -6  -5  14-33.5067 80.5240   7
  -5   6  14 97.6268 131.503   2
   6  -5 -14 44.9313 106.261   5
  -5   6  15 1175.90 260.197   3
   5  -6 -15 1093.31 198.524   8
   5  -6 -15 1153.35 213.321   5
   6   5 -15 1323.47 201.592   4
   5   6 -15 1194.84 208.575   4
   6  -5 -15 1160.15 195.791   8
  -5   6  15 562.782 234.585   2
   6  -5 -15 1743.35 226.243   5
   5   6 -15 1028.23 236.487   1
  -5  -6  15 825.759 198.711   7
   6   5 -15 932.932 215.505   1
  -6   5  15 838.578 226.833   2
  -6  -5  15 834.149 204.088   7
  -5  -6  15 1278.82 210.018   6
  -6  -5  15 1112.32 223.814   6
  -5   6  16 491.785 178.610   3
  -5   6  16 247.889 162.899   2
   6   5 -16 210.089 104.284   4
   5   6 -16 45.1783 134.273   4
   5  -6 -16 347.563 121.507   5
   5  -6 -16 491.693 98.0075   8
   6   5 -16 428.579 132.586   1
  -5  -6  16 262.568 107.692   7
   6  -5 -16 320.999 121.054   5
   5   6 -16-37.0960 148.728   1
  -5  -6  16 406.265 129.978   6
  -6  -5  16 377.867 108.949   7
  -6  -5  16 272.725 128.475   6
   6  -5 -16 550.253 92.3033   8
  -6   5  16 318.446 141.524   2
   5  -6 -17-34.9052 75.5012   8
  -5   6  17 122.801 160.011   3
  -5  -6  17 69.3571 72.1760   7
   6  -5 -17 206.173 108.544   5
   6  -5 -17 40.8699 62.7044   8
  -6   5  17 38.5147 133.260   2
   5   6 -17 84.8705 95.7107   4
  -5  -6  17-13.0760 83.4062   6
   6   5 -17 62.2365 81.7464   4
   5   6 -17 137.110 141.837   1
   5  -6 -17 84.5113 91.7570   5
  -6  -5  17 134.142 75.3397   7
  -6   5  17 21.4066 172.367   3
  -6  -5  17 71.5446 106.226   6
  -5   6  17-21.2376 157.940   2
   6   5 -17-16.0577 104.801   1
  -6   5  18 99.1297 138.903   2
  -6   5  18-214.035 168.407   3
  -5  -6  18 122.312 73.5530   7
   6  -5 -18 37.3008 100.330   5
   6  -5 -18 68.1629 67.4834   8
   5   6 -18-12.9725 108.252   4
   5  -6 -18 58.6558 96.1973   5
  -5   6  18 21.8348 161.108   2
  -5  -6  18 39.4694 87.1980   6
  -6  -5  18 22.5200 83.3946   7
   6   5 -18-17.1462 123.207   1
   5  -6 -18 100.154 70.1099   8
  -5   6  18 161.147 153.122   3
   6   5 -18 22.3930 89.2653   4
  -6  -5  18 14.1794 92.5764   6
   5   6 -18 146.084 142.434   1
  -6  -5  19 1301.74 245.877   7
   5  -6 -19 1823.95 252.159   5
  -5   6  19 1077.08 295.560   2
   6  -5 -19 996.585 235.237   8
   5   6 -19 1328.50 256.901   4
   5  -6 -19 1722.50 244.721   8
  -5  -6  19 1022.42 237.463   7
   6  -5 -19 1634.92 251.439   5
  -6   5  19 1882.37 293.871   3
   5   6 -19 1059.99 283.230   1
  -6  -5  19 1623.41 258.111   6
  -5   6  19 999.828 277.446   3
   6   5 -19 1152.59 272.648   1
   6   5 -19 1182.28 249.745   4
  -5  -6  19 1258.07 253.314   6
  -6   5  19 1411.21 287.977   2
   5  -6 -20 369.062 125.570   5
  -6  -5  20 210.134 120.607   7
   5  -6 -20 524.767 124.268   8
  -5   6  20 483.700 172.577   3
   6   5 -20 803.166 150.220   4
  -5   6  20 553.257 192.379   2
  -6  -5  20 687.709 145.373   6
   5   6 -20 364.145 159.041   4
   6   5 -20 230.898 150.888   1
  -5  -6  20 595.222 140.861   6
   5  -6 -21 524.173 136.710   5
  -5   6  21 733.324 188.489   3
   5  -6 -21 773.248 149.706   8
   6   5 -21 485.239 157.836   4
  -5   6  21 332.659 222.591   2
  -6  -5  21 576.720 149.070   6
   5   6 -22-158.771 203.078   1
  -6  -5  22 12.3502 86.9065   7
  -5  -6  22-57.6854 85.1867   7
   5   6 -22-17.4241 137.035   4
   6   5 -23-22.7480 168.332   1
   5   6 -23-140.424 212.459   1
  -6  -5  23-89.1567 99.5453   7
   5   6 -23-206.375 156.634   4
  -5  -6  23 27.8192 97.8171   6
   6   5 -23-81.1176 134.663   4
  -5  -6  23 119.682 99.1022   7
  -6  -5  23-44.1445 105.611   6
   5   6 -24 178.938 244.417   1
  -5  -6  24 99.4490 98.7038   7
  -5  -6  24 153.847 101.402   6
  -6  -5  24 148.465 118.721   6
   5   6 -24 20.0355 150.616   4
   6   5 -24 17.5711 131.462   4
  -6  -5  24 52.6368 92.9785   7
   6   5 -24 622.841 190.540   1
   5   6 -25 724.182 267.343   1
  -6  -5  25 449.347 146.596   7
   5   6 -25 769.257 206.031   4
   6   5 -25 625.718 183.105   4
  -5  -6  25 542.997 142.303   7
  -5  -6  25 356.387 144.617   6
   6   5 -25 428.853 225.079   1
  -6  -5  25 779.949 155.372   6
  -6  -5  26 105.891 118.227   6
  -5  -6  26-57.8481 109.574   6
   5   6 -26 110.690 185.082   4
  -6  -5  26-56.4495 109.622   7
  -5  -6  26 228.819 108.486   7
   5   6 -26 33.4350 260.337   1
   6   5 -26 371.746 215.857   1
   6   5 -26 61.0253 167.073   4
  -5  -6  27 445.659 128.679   6
  -6  -5  27 322.156 132.494   7
   5   6 -27 532.375 288.061   1
  -5  -6  27 504.948 133.707   7
   5   6 -27 298.707 202.464   4
  -5  -6  28 30.7192 103.897   6
   5   6 -28 188.132 283.594   1
   5   6 -28 71.4556 172.918   4
  -5  -6  28-162.069 116.337   7
  -6  -6   2 2327.91 419.835   6
   6   6  -3 47.7067 58.3823   1
  -6  -6   3 283.171 129.655   6
   6   6  -4-7.14927 50.8056   1
  -6  -6   4-162.775 128.068   6
  -6  -6   4-62.3236 114.099   7
   6   6  -5 30.6732 47.7118   1
  -6  -6   5 74.5585 87.7937   7
  -6  -6   5 99.3201 121.747   6
  -6  -6   6 1440.40 286.861   7
  -6  -6   6 1600.41 298.614   6
   6   6  -6 1590.61 269.882   1
  -6  -6   7-16.9771 122.685   6
  -6  -6   7 13.5598 87.7323   7
  -6  -6   8 993.967 212.491   6
  -6  -6   9-49.3183 78.1792   7
  -6  -6   9 66.5135 109.696   6
   6   6  -9 42.4102 71.9172   1
  -6  -6  10-47.3232 83.9268   7
  -6  -6  10 81.3995 114.438   6
   6  -6 -10 37.0921 132.509   5
   6   6 -10 78.9530 77.3461   1
  -6  -6  11 128.057 113.361   6
   6   6 -11-97.7568 86.1828   1
  -6  -6  11-11.6388 76.0517   7
  -6   6  11-17.6076 104.513   2
   6  -6 -11 89.7019 122.235   5
  -6  -6  12 1593.76 275.227   7
   6  -6 -12 948.207 279.400   5
  -6  -6  12 1831.59 290.094   6
  -6   6  12 1645.72 292.090   2
   6   6 -12 1587.06 263.892   4
   6   6 -12 1469.55 277.542   1
   6  -6 -13-82.2688 122.627   5
  -6  -6  13 78.4122 80.6388   7
   6   6 -13-13.8517 96.8786   1
  -6  -6  13 61.0995 98.8372   6
  -6   6  13 93.0440 114.290   2
   6   6 -13-93.9880 70.6716   4
   6  -6 -13-15.3055 57.2599   8
  -6  -6  14 1359.21 255.675   7
   6  -6 -14 1536.24 248.792   8
   6   6 -14 1611.40 253.156   4
  -6   6  14 1223.92 276.710   2
   6   6 -14 1225.63 263.157   1
   6  -6 -14 1159.59 273.594   5
  -6  -6  14 1374.03 271.255   6
   6   6 -15-97.5893 89.6073   4
   6  -6 -15-32.5569 65.8486   8
   6  -6 -15 44.9722 120.712   5
  -6  -6  15-133.324 139.344   6
  -6  -6  15-111.526 98.0841   7
  -6   6  15-39.2311 137.088   2
   6   6 -15-110.198 131.094   1
   6  -6 -16 187.273 117.923   5
  -6  -6  16 385.118 105.036   7
   6   6 -16 251.838 126.879   1
  -6  -6  16 397.420 122.918   6
  -6   6  16 182.210 152.028   2
   6   6 -16 302.884 103.310   4
   6  -6 -16 404.812 90.5701   8
  -6   6  17 93.7285 168.032   3
   6  -6 -17-97.2707 108.172   5
   6  -6 -17 17.5224 71.6855   8
   6   6 -17-123.490 87.7233   4
  -6  -6  17 14.6643 96.8247   6
   6   6 -17 53.6955 127.860   1
  -6  -6  17-45.5450 85.8970   7
  -6   6  17 20.8112 143.735   2
  -6   6  18 595.638 224.651   2
  -6   6  18 1173.67 258.570   3
   6   6 -18 869.481 182.723   4
   6  -6 -18 912.337 189.182   5
  -6  -6  18 872.932 175.570   7
   6   6 -18 583.000 206.284   1
   6  -6 -18 938.841 171.355   8
  -6  -6  18 938.450 188.914   6
   6  -6 -19 12.9603 105.542   5
  -6   6  19 43.8632 162.832   2
   6   6 -19-64.8927 110.849   4
  -6   6  19 69.5997 185.949   3
   6  -6 -19-18.9688 75.7762   8
  -6  -6  19 14.7120 101.129   6
   6  -6 -20 1152.18 210.875   5
   6  -6 -20 1178.69 199.149   8
  -6   6  20 542.225 248.297   3
  -6   6  20 724.043 251.467   2
  -6  -6  21-12.2473 95.5194   7
   6   6 -21-133.358 181.126   1
   6   6 -22 117.149 181.793   1
  -6  -6  22 226.933 100.805   7
   6   6 -22 128.238 134.932   4
  -6  -6  22 134.360 112.914   6
   6   6 -23-69.3573 143.865   4
  -6  -6  23 52.0132 108.490   7
   6   6 -23-75.1112 171.740   1
  -6  -6  23-180.541 113.146   6
  -6  -6  24 803.081 190.351   6
  -6  -6  24 900.022 184.045   7
   6   6 -24 1003.90 267.507   1
   6   6 -24 692.083 216.567   4
   6   6 -25 27.8789 190.276   1
  -6  -6  25-69.4928 109.432   7
   6   6 -25-261.485 163.669   4
  -6  -6  25 15.2466 118.322   6
   6   6 -26 529.723 249.172   1
  -6  -6  26 547.342 157.846   7
   6   6 -26 794.006 207.966   4
  -6  -6  26 620.542 154.933   6
   6   6 -27-30.6531 233.587   1
   6   6 -27-247.834 174.179   4
  -6  -6  27-15.5776 108.674   6
  -6  -6  27 14.9462 109.059   7
   6   6 -28 23.6711 190.182   4
  -6  -6  28 248.582 123.192   7
  -6  -6  28 173.686 114.745   6
   0  -7   0 4.26284 27.2096   7
   0   7   0 12.4243 75.0482   2
   0  -7   0-4.60692 30.8591   8
   0   7   0-38.2788 42.5121   4
   0  -7   0-22.8456 32.9219   6
   0   7   1 1944.88 296.993   2
   0   7  -1 1438.98 280.226   4
   0  -7  -1 1825.82 283.414   5
   0   7   1 1586.02 278.722   4
   0  -7  -2-7.85024 49.2588   5
   0   7   2 23.4579 73.5968   3
   0   7   2 5.16061 34.8447   4
   0  -7  -2-17.5541 22.9386   7
   0   7   2 25.8424 79.7877   2
   0  -7  -2-11.5106 40.4186   8
   0  -7  -2 29.5187 27.9725   6
   0  -7  -3 2217.03 374.214   8
   0  -7   3 1970.89 372.082   7
   0  -7  -3 2337.89 368.113   7
   0   7   3 2918.85 392.882   2
   0   7   3 2046.87 385.763   3
   0   7   3 2129.94 370.760   4
   0  -7   4-14.0296 37.8064   6
   0  -7  -4 25.1916 21.5886   7
   0   7   4-49.2224 83.8501   3
   0  -7  -4 7.20041 43.7509   8
   0  -7   4-25.8151 35.7653   7
   0   7   4-26.6789 80.1115   2
   0  -7  -4 30.9113 48.7629   5
   0   7   4 4.86681 35.0545   1
   0   7  -4 17.9060 60.4654   4
   0   7  -4 76.6523 64.1176   2
   0  -7   4 10.5598 65.9244   5
   0  -7  -4 4.11209 28.5424   6
   0  -7  -5 310.626 84.5849   5
   0  -7  -5 387.811 69.6338   7
   0  -7   5 332.783 105.476   5
   0   7   5 393.717 74.1342   1
   0   7   5 314.576 70.9291   4
   0  -7   5 493.219 82.0398   7
   0   7  -5 229.593 91.2134   4
   0  -7   5 371.296 81.1623   6
   0  -7  -5 296.939 86.5694   8
   0   7   5 333.169 110.964   3
   0  -7  -5 448.707 71.2066   6
   0  -7  -6-39.1418 46.7367   5
   0   7   6 28.2622 25.3310   4
   0  -7   6-46.3528 79.3038   5
   0   7   6-12.4055 75.3437   3
   0   7   6 3.05581 26.1729   1
   0  -7  -6 3.42220 29.3111   7
   0   7  -6 10.1834 64.9000   4
   0  -7  -6-3.24082 25.2099   6
   0  -7   6-7.79453 43.7457   6
   0  -7  -6-17.9340 61.6365   8
   0  -7   6-7.44827 45.4899   7
   0  -7   7 939.100 153.575   6
   0  -7  -7 832.290 142.042   6
   0   7  -7 639.217 163.359   4
   0  -7  -7 912.167 154.842   5
   0   7   7 955.379 169.197   3
   0  -7   7 955.094 155.276   7
   0  -7  -7 651.620 161.837   8
   0   7   7 795.618 142.404   4
   0  -7  -8 7.93428 69.7907   5
   0   7  -8-91.8740 102.520   4
   0   7   8-47.6633 29.6508   4
   0  -7   8-42.7928 58.6496   6
   0  -7   8-58.5306 61.7087   7
   0  -7  -8-46.6249 25.5171   6
   0  -7   9 44.8442 54.5610   6
   0  -7  -9-73.2096 71.1453   5
   0  -7  -9-175.207 108.649   8
   0  -7   9 26.5229 62.9513   7
   0   7  -9-121.527 96.6796   4
   0   7   9-37.0611 103.293   3
   0  -7  10-9.38842 46.4274   6
   0  -7 -10 16.7972 51.0099   5
   0  -7  10 18.6685 60.9882   7
   0   7  10 12.3384 68.3315   3
   0  -7 -10-12.5784 89.0758   8
   0   7 -10-25.6601 83.0104   4
   0   7  11 3580.32 577.936   3
   0   7 -11 3404.57 580.435   4
   0  -7 -11 2742.71 579.133   8
   0  -7  11 3657.61 571.111   6
   0   7  12-12.3365 82.5368   3
   0  -7  12-51.1863 61.8267   6
   0  -7 -12 72.4175 109.932   8
  -7   0  12 101.586 105.702   6
   0  -7 -12-9.02467 57.5171   5
   0   7 -12 14.1779 95.2945   4
   0  -7 -13 5756.49 953.211   8
   0   7  13 5366.93 946.396   3
   0  -7 -13 5438.73 941.531   5
   0  -7  13 5639.47 943.125   6
   0   7 -13 6513.09 954.058   4
  -7   0  14-30.7643 117.013   6
   0  -7 -14 10.0312 71.7566   5
   0  -7  14 22.2633 66.9154   6
   0   7  14 88.3033 87.8155   3
   0  -7  14 91.9683 73.6808   7
   0  -7 -14 193.225 132.982   8
   0   7 -14 15.5620 112.283   4
   0   7  15 1894.77 399.812   3
   0  -7 -15 2369.92 398.640   5
  -7   0  15 2871.51 417.021   6
   0   7 -15 2188.05 416.608   4
   0  -7 -15 2213.54 420.141   8
   0  -7  15 2479.28 401.938   7
  -7   0  16 62.1015 99.0534   7
   0  -7  16 63.7195 79.2548   7
   0  -7 -16 157.032 141.715   8
   0   7  16 26.2347 83.7268   3
  -7   0  16-60.7873 118.305   6
   0   7 -16 101.059 121.321   4
   7   0 -16 15.3563 54.7940   1
   0  -7 -16-22.5082 86.7636   5
   0  -7  17-40.1914 93.3389   7
   0  -7 -17-24.3672 89.8228   5
   0   7  17-26.7240 92.6960   3
  -7   0  17-15.9432 110.586   7
   0  -7 -17-18.1379 149.566   8
  -7   0  17 59.7286 107.518   6
   7   0 -17-24.1650 57.1190   1
   7   0 -18 7.41980 61.9139   4
   7   0 -18 8.47447 61.2405   1
   0  -7 -18-39.5653 99.0152   5
   0  -7 -18-94.1745 151.448   8
   0   7  18 110.401 92.7546   3
  -7   0  18-57.7266 108.349   6
  -7   0  18-32.5900 110.524   7
   0  -7 -19 228.039 114.673   5
   0  -7 -19 156.363 167.311   8
   0   7  19 338.172 103.709   3
   0  -7 -20-20.2595 157.814   8
   0   7  20-43.2724 86.5136   3
   0  -7 -20-75.9102 121.967   5
   0  -7 -21 65.1229 112.666   5
   0  -7 -21-20.9855 173.714   8
   0   7  21 60.1569 99.9839   3
   0  -7 -22-69.7486 137.502   5
   0  -7 -23-43.9304 182.333   8
   0   7  24-34.2059 110.862   3
   0  -7 -24-19.6130 138.482   5
   0  -7 -24-90.8280 183.293   8
   0   7  25 328.048 154.704   3
   0  -7 -25 304.945 202.035   8
   0  -7 -26 282.967 191.603   8
   0  -7 -27 633.006 241.633   8
   1   7   0 5278.18 978.557   4
   1  -7   0 6248.36 980.004   7
  -1   7   0 6506.44 993.118   2
  -1  -7   0 6025.78 980.666   6
   1  -7   0 6137.68 978.985   8
  -1  -7  -1 2111.41 343.628   6
  -1  -7  -1 1917.26 345.689   8
  -1   7   1 2145.55 349.153   4
  -1  -7  -1 2025.26 340.683   7
   1  -7   1 2183.39 341.763   8
  -1   7  -1 2028.98 350.293   4
   1   7   1 2075.96 341.531   4
  -1   7  -1 1685.83 355.746   2
  -1   7   1 1850.26 357.635   2
  -1   7   2 1468.69 252.327   2
   1   7   2 1195.62 242.068   3
   1   7   2 1323.42 226.940   4
  -1  -7  -2 1263.63 234.190   8
  -1   7  -2 1229.65 241.059   2
   1   7  -2 1497.26 243.839   3
  -1  -7  -2 1297.37 227.018   7
  -1  -7   2 1584.55 230.507   7
   1  -7  -2 1397.34 228.096   7
  -1  -7  -2 1507.24 230.136   6
   1   7   2 1064.60 232.430   1
   1  -7  -2 1626.21 243.885   5
   1  -7  -2 1226.93 228.727   8
   1   7   3 1341.46 202.060   3
   1   7   3 983.973 184.410   1
  -1   7   3 1193.40 212.161   2
  -1  -7  -3 1246.98 188.364   5
   1   7  -3 1104.28 186.738   4
   1  -7  -3 840.776 183.116   8
  -1  -7  -3 1241.47 195.062   8
  -1  -7  -3 1086.76 182.151   7
   1   7   3 1192.16 180.839   4
  -1  -7   3 1346.50 186.107   7
   1  -7   3 1079.55 188.327   7
   1   7  -3 897.229 200.025   2
  -1  -7  -3 1000.78 183.885   6
  -1  -7   3 769.078 185.768   5
   1  -7  -3 758.215 194.924   5
  -1  -7   3 1063.36 187.367   6
   1   7  -4-68.8939 67.7171   2
   1  -7  -4 9.58860 57.3240   5
   1  -7  -4 17.4979 37.2924   8
  -1  -7  -4 52.9768 40.5548   5
  -1  -7   4-7.17958 40.6690   6
   1   7   4 117.432 70.1531   3
  -1   7   4 14.6358 92.8469   2
  -1  -7  -4 48.9615 61.5177   8
  -1  -7  -4 18.1365 32.2481   7
   1   7   4 8.83007 21.3959   4
   1  -7   4 30.9908 43.2995   7
  -1  -7   4 16.4924 34.0783   7
   1   7  -4-21.2573 47.0609   4
   1   7   4 18.4013 33.1148   1
  -1  -7  -4 23.2511 35.1684   6
  -1   7  -4 49.7028 65.9554   4
  -1  -7   4 56.4383 42.8295   5
   1  -7  -4 42.0419 23.5785   7
  -1  -7   4-10.9867 25.7854   8
  -1  -7   5 1059.87 164.212   7
   1   7  -5 691.590 172.562   2
  -1   7   5 877.714 190.698   2
  -1  -7   5 968.854 166.708   5
  -1  -7  -5 765.214 164.458   5
   1   7   5 819.639 156.749   4
   1   7   5 781.399 175.102   3
   1  -7  -5 1125.20 156.790   7
  -1  -7  -5 1198.77 182.476   8
   1  -7  -5 992.089 165.506   8
   1  -7   5 812.952 169.299   7
   1   7  -5 749.276 168.956   4
   1  -7  -5 817.730 175.239   5
  -1  -7  -5 849.499 161.065   6
  -1  -7  -5 1109.40 164.865   7
  -1   7  -5 898.359 179.954   4
  -1  -7   5 927.115 167.055   6
  -1  -7  -6 993.370 142.831   5
  -1  -7   6 849.572 140.233   5
  -1  -7  -6 687.666 134.629   6
   1  -7  -6 896.471 150.983   5
  -1  -7   6 625.812 141.699   6
   1   7   6 697.506 151.289   3
   1   7   6 811.731 129.072   4
  -1  -7  -6 633.528 159.577   8
  -1  -7   6 707.697 138.727   7
  -1   7   6 811.776 169.006   3
   1  -7   6 743.146 142.731   7
   1   7  -6 678.675 146.744   4
   1  -7  -6 643.233 140.729   8
  -1   7  -6 767.251 156.210   4
  -1   7   7 982.583 180.755   3
  -1  -7   7 662.589 155.357   5
   1  -7  -7 761.916 142.184   7
  -1  -7  -7 678.181 174.577   8
   1  -7  -7 1066.02 161.908   5
  -1  -7   7 1084.97 154.501   7
   1  -7   7 874.939 159.967   7
  -1  -7   7 1077.11 158.526   6
   1   7   7 807.680 164.080   3
  -1  -7  -7 812.502 148.131   6
  -1   7  -7 931.635 170.087   4
   1   7  -7 834.830 165.000   4
  -1  -7  -7 927.336 154.684   5
   1   7  -8 1179.64 223.718   4
   1   7   8 1359.02 219.840   3
   1  -7  -8 1419.88 221.132   5
  -1  -7   8 1469.17 214.887   5
  -1  -7   8 1462.81 213.000   6
   1  -7  -8 622.966 211.688   8
  -1   7  -8 938.506 225.339   4
  -1  -7   8 1445.53 209.184   7
   1  -7   8 1307.60 217.727   7
  -1  -7  -8 1077.50 202.298   6
  -1   7   8 882.959 251.862   2
  -1   7   8 902.116 236.865   3
  -1  -7   9 3998.58 597.701   5
   1  -7  -9 4136.21 598.808   5
  -1  -7   9 3937.29 594.676   7
  -1  -7   9 3284.85 594.881   6
   1   7  -9 3341.80 599.862   4
  -1   7   9 3215.61 612.220   2
   1  -7  -9 2854.03 596.603   8
  -1   7  10 1837.12 316.085   3
  -1  -7  10 1856.28 297.158   7
   1   7  10 1271.75 299.707   3
  -7  -1  10 1611.19 314.408   6
   1   7 -10 1934.28 307.632   4
  -1  -7 -10 1487.83 314.707   8
   1  -7 -10 1832.12 303.489   8
  -1  -7  10 1855.67 298.631   6
   1  -7 -11 2108.92 292.753   5
  -1  -7 -11 1027.18 311.178   8
  -1  -7 -11 1764.12 289.290   5
  -1   7  11 1477.80 301.548   3
  -1  -7  11 1622.02 288.415   6
   1   7  11 1574.93 293.258   3
   1   7 -11 1515.91 302.267   4
   1  -7 -11 1801.99 295.439   8
  -7  -1  11 1558.72 312.104   6
  -1   7  12 3546.85 607.103   3
  -7   1  12 3883.67 611.691   6
   1   7 -12 3710.20 607.985   4
   1  -7 -12 3766.06 605.221   8
  -1  -7 -12 3136.67 615.537   8
  -7  -1  12 3463.62 614.568   6
  -1  -7  12 3451.51 598.755   6
  -1  -7  13 1248.64 212.048   6
   7  -1 -13 1492.08 236.640   5
   1  -7 -13 1186.90 226.345   8
  -1  -7 -13 1219.59 215.460   5
  -1   7  13 1246.51 228.768   3
  -1  -7 -13 931.862 243.524   8
  -1  -7  13 973.337 210.140   7
   1  -7 -13 991.770 211.868   5
   1   7 -13 1241.81 234.259   4
   1   7  13 961.107 218.745   3
   7   1 -13 1341.99 206.829   1
  -7   1  13 1318.17 232.822   6
  -7  -1  13 1205.88 227.216   7
  -7  -1  13 1028.22 242.209   6
   1  -7 -14 5115.79 780.050   8
  -1  -7 -14 4518.18 775.781   5
   7   1 -14 4947.32 768.624   1
   1   7 -14 5037.85 785.448   4
  -7  -1  14 3835.29 779.909   7
  -1  -7  14 4229.81 771.278   7
  -1  -7  14 4823.16 772.419   6
  -1   7  14 4240.52 777.648   3
   7  -1 -14 5157.85 786.386   5
  -7   1  14 4334.13 783.117   6
  -1  -7  15 1003.42 190.255   6
  -1   7  15 1173.72 210.677   3
  -7   1  15 1053.37 216.983   6
   7   1 -15 775.896 184.195   1
  -7  -1  15 1043.19 211.820   6
  -1  -7 -15 1431.28 206.132   5
   1  -7 -15 1152.02 212.537   8
  -7  -1  15 896.141 213.786   7
  -1  -7  15 1111.99 194.223   7
  -1  -7 -15 1289.17 238.247   8
   1   7  15 896.773 198.492   3
   1   7 -15 890.135 211.767   4
   1  -7 -15 1147.86 196.689   5
  -1  -7  16 956.746 169.322   6
  -1  -7 -16 620.499 218.268   8
   1  -7 -16 964.459 169.008   5
  -1  -7  16 1050.00 169.770   7
  -7   1  16 1073.23 203.055   6
  -1  -7 -16 814.849 177.209   5
   7   1 -16 490.142 159.128   1
  -1   7  16 961.020 182.591   3
   1  -7 -16 968.903 198.375   8
   1   7  16 864.367 175.205   3
  -7  -1  16 915.439 194.055   7
  -7  -1  16 943.779 198.827   6
   1   7 -16 818.696 195.495   4
  -1  -7  17 1235.21 219.149   7
   1  -7 -17 1069.61 237.060   8
  -1  -7 -17 1173.76 229.084   5
   1  -7 -17 1124.75 220.149   5
  -1  -7 -17 1265.78 267.777   8
   1   7 -17 1063.73 246.005   4
  -7  -1  17 1243.09 241.529   7
   1   7  17 1253.21 223.580   3
  -1   7  17 1532.57 231.878   3
  -7   1  17 1542.93 241.786   6
   7   1 -17 975.521 208.381   4
   7   1 -17 1198.99 213.321   1
  -7  -1  17 1014.25 237.473   6
  -1  -7  17 970.166 216.190   6
   7   1 -18-28.7645 65.1606   1
  -7  -1  18-62.7738 109.240   7
  -1  -7  18 108.204 85.3328   6
   1   7  18 178.456 91.4953   3
   7   1 -18 63.3780 64.4256   4
  -1  -7 -18 41.5619 158.588   8
  -1  -7  18 46.7014 75.0291   7
   1   7 -18 36.2734 125.582   4
   1  -7 -18-11.6493 86.7004   5
  -1  -7 -18-90.4746 107.656   5
   1  -7 -18 259.248 124.237   8
  -7  -1  18 340.708 116.807   6
  -1   7  18 113.849 95.6978   3
   7   1 -19 1000.19 213.489   4
   1   7 -19 1470.43 262.426   4
   1  -7 -19 1315.70 255.874   8
   1  -7 -19 1308.55 229.434   5
  -1  -7 -19 1068.22 243.630   5
   7   1 -19 1390.32 220.287   1
  -1  -7 -19 944.306 270.107   8
  -7  -1  19 1168.87 237.298   6
   1   7  19 1201.80 228.707   3
  -1  -7  19 863.065 223.086   6
  -1  -7  19 1392.18 227.316   7
  -1   7  19 1245.99 231.999   3
  -7  -1  19 1186.91 236.940   7
   1  -7 -20 700.139 132.623   5
  -1  -7 -20 224.538 145.019   5
  -7  -1  20 264.642 136.299   7
   1  -7 -20 263.411 156.642   8
  -1   7  20 590.783 128.494   3
  -1  -7 -20 353.310 181.417   8
   1   7 -20 587.656 184.265   4
  -7  -1  20 216.919 129.213   6
   1   7  20 325.842 121.870   3
  -1   7  21 571.859 153.557   3
   1  -7 -21 548.114 178.033   8
   1   7  21 741.939 159.069   3
  -1  -7 -21 584.665 174.899   5
   1  -7 -21 631.406 159.510   5
  -1   7  22-78.1368 118.193   3
   1  -7 -22 154.758 140.199   5
  -1  -7  22-13.8433 104.322   7
  -1  -7 -23 310.601 242.102   8
  -1  -7  23 944.222 179.806   7
  -1  -7 -24-49.0226 199.876   8
   1  -7 -24 159.313 166.500   8
  -1   7  25 120.343 128.365   3
   1  -7 -25 208.515 145.844   5
   1  -7 -25 186.405 187.886   8
  -1  -7 -25 448.925 210.280   8
  -1  -7 -26 945.061 275.459   8
   1  -7 -26 999.479 227.056   5
   1  -7 -26 604.273 237.370   8
  -1  -7 -27 491.972 232.969   8
   2  -7   0 6334.57 1043.59   5
  -2   7   0 6897.06 1040.64   2
   2  -7   0 6009.92 1027.48   8
   2  -7  -1 5430.17 870.718   5
  -2  -7  -1 4833.87 862.067   8
  -2  -7   1 5499.98 855.955   7
   2  -7  -1 5351.49 855.222   8
  -2   7   1 4174.33 865.963   2
   2  -7  -1 5196.28 857.961   7
   2  -7  -2 3253.59 561.006   7
  -2  -7   2 3625.24 563.895   6
   2   7   2 2933.29 560.396   1
   2   7  -2 4621.17 571.964   2
   2   7  -2 3364.76 564.497   3
  -2   7   2 3452.27 574.247   2
  -2  -7   2 3234.25 559.480   7
  -2   7   3 44.5339 89.9492   2
   2   7   3 306.911 64.5872   3
   2   7  -3 135.457 63.5210   3
  -2  -7   3 91.5059 42.8756   8
   2  -7  -3 78.1971 84.6738   5
   2  -7  -3 168.357 50.6298   7
   2   7  -3 234.522 78.2781   2
  -2  -7   3 162.858 43.9481   5
  -2  -7  -3 61.3474 52.8402   7
   2   7   3 142.574 46.3211   1
  -2  -7  -3 134.428 77.7830   8
   2   7  -3 237.163 50.5612   4
  -2  -7  -3 208.037 49.7747   5
  -2  -7   3 188.512 47.4985   7
  -2  -7  -3 126.395 59.6162   6
  -2  -7   3 132.617 56.2567   6
   2  -7  -3 198.275 48.8428   8
  -2  -7  -4 1871.64 329.875   5
   2   7  -4 1859.22 334.922   3
  -2  -7  -4 2106.68 343.257   8
  -2  -7  -4 1889.21 333.434   7
  -2  -7   4 1835.79 325.993   8
  -2   7   4 1672.54 350.547   2
   2  -7  -4 2200.48 344.136   5
   2   7   4 2278.25 327.110   1
   2  -7  -4 1834.01 327.162   7
  -2  -7   5 501.633 88.8025   6
  -2  -7   5 363.578 75.2824   5
   2   7  -5 488.235 101.732   2
  -2  -7  -5 339.996 81.3643   5
  -2  -7  -5 215.368 112.370   8
   2   7   5 490.380 93.4188   3
   2  -7  -5 395.071 107.185   5
   2   7  -5 347.864 86.0301   4
  -2  -7   5 437.317 79.0329   7
  -2  -7  -5 482.331 89.9009   6
   2  -7  -5 355.842 74.1367   7
   2  -7  -5 339.867 78.5734   8
   2   7  -5 319.183 90.7465   3
  -2  -7   5 403.264 73.6352   8
  -2  -7   6 2856.09 552.340   5
  -2  -7  -6 3094.85 557.344   6
  -2  -7   6 3732.74 552.866   8
   2   7  -6 3414.20 561.873   2
  -2  -7   6 3867.21 557.811   7
  -2  -7   6 3603.42 561.637   6
   2   7  -6 2983.26 559.147   4
   2  -7  -6 3557.84 566.565   5
  -2  -7  -6 3489.15 571.209   8
   2  -7  -6 3298.76 551.102   7
  -2   7   7 2183.92 479.084   2
   2   7  -7 3063.77 462.858   2
  -2  -7  -7 2896.21 460.265   6
   2  -7  -7 2654.65 459.580   8
  -2  -7  -7 3090.79 462.437   5
   2   7  -7 2196.07 462.269   4
  -2  -7   7 2845.05 454.454   8
   2   7   7 2538.58 465.155   3
   2  -7  -7 2829.77 467.684   5
  -2  -7  -7 2601.02 474.921   8
  -2  -7   7 2590.57 454.319   5
  -2  -7   7 3190.29 465.318   6
  -2  -7   8 6839.87 1055.47   5
  -2  -7   8 6604.18 1064.52   6
   2   7  -8 5932.70 1062.73   4
  -2  -7   8 6278.08 1059.58   7
   2  -7  -8 6293.45 1060.24   8
  -2   7   8 5718.76 1077.54   2
  -2   7   9 46.7495 110.850   3
   2  -7  -9-7.52572 55.5343   8
  -2  -7   9 21.6521 31.7421   5
   2   7  -9 28.6415 63.0526   4
  -2  -7   9 18.2882 56.2371   6
   2  -7  -9 10.2382 65.9801   5
  -2  -7   9 14.2916 47.9029   7
  -7  -2   9 60.7006 100.153   6
  -2   7   9 17.2207 113.099   2
  -2  -7  -9-9.16701 60.8348   5
   2   7   9 52.6463 59.5576   3
   2   7 -10 7867.03 1237.41   4
  -2   7  10 8486.43 1251.35   2
  -7  -2  10 4994.40 1240.69   6
  -2  -7  10 7922.93 1232.09   7
   7   2 -10 7968.11 1231.07   1
  -2  -7  10 7626.67 1234.16   6
   2  -7 -10 6986.23 1231.69   8
   2   7  11 1990.70 353.628   3
  -7  -2  11 2119.71 373.516   6
  -2   7  11 2714.68 380.474   2
  -2  -7 -11 2283.39 355.640   5
  -7  -2  11 1878.50 364.324   7
  -2  -7 -11 1745.40 368.488   8
  -2  -7  11 2043.78 351.728   6
  -2   7  11 2143.21 373.790   3
   2  -7 -11 1762.19 352.471   8
   2   7 -11 2088.48 358.278   4
  -2   7  12 2850.04 594.433   3
  -2  -7 -12 3597.88 585.448   5
   2   7  12 3090.47 584.360   3
  -2  -7  12 3520.71 582.366   6
  -7  -2  12 3320.50 595.889   7
   2   7 -12 3674.39 589.677   4
   7   2 -12 3626.17 578.799   1
  -2   7  12 3560.86 600.589   2
  -2  -7  12 3734.91 580.194   7
  -2  -7 -12 3015.77 598.295   8
  -7   2  13 4718.39 656.413   6
   2   7  13 3611.04 648.187   3
  -2  -7 -13 3444.66 662.195   8
  -7  -2  13 3665.17 657.208   7
  -2   7  13 3036.26 654.189   3
  -7  -2  13 4644.38 663.724   6
  -2  -7  13 4445.61 644.690   7
  -2  -7  13 3543.88 645.689   6
  -2  -7 -13 3665.11 649.551   5
   7   2 -13 3778.78 641.908   1
  -2   7  14 2240.35 472.721   3
  -7  -2  14 2694.35 472.737   7
   7  -2 -14 3077.06 480.813   5
   2  -7 -14 3457.59 464.549   5
  -2  -7  14 2290.19 455.373   7
   2  -7 -14 3026.40 466.198   8
   2   7 -14 2314.58 467.656   4
  -7  -2  14 2492.00 478.096   6
  -2   7  14 2742.97 483.620   2
  -2  -7 -14 3055.40 489.128   8
   2   7  14 3142.48 465.295   3
  -7   2  14 2859.67 476.029   6
  -2  -7  14 2287.05 457.922   6
  -2  -7 -14 2781.74 466.858   5
  -2   7  15 2986.81 595.646   3
   2   7 -15 3685.94 599.925   4
   2  -7 -15 3721.03 586.472   5
  -2   7  15 4069.16 611.075   2
  -7  -2  15 1792.67 597.942   6
   2   7  15 3948.27 591.324   3
  -2  -7  15 3697.51 584.984   7
   2  -7 -15 3474.20 588.262   8
  -7   2  15 3446.55 596.519   6
  -2  -7  15 3708.01 586.573   6
  -2  -7 -15 3069.94 608.881   8
  -2  -7  16 3254.68 530.804   6
  -7  -2  16 2807.22 543.314   6
   7   2 -16 2925.34 529.002   1
  -2   7  16 3573.14 546.138   3
  -2   7  16 3102.06 553.144   2
   2   7  16 2339.76 532.444   3
  -2  -7 -16 3073.32 559.222   8
  -2  -7  16 3491.35 530.470   7
  -2  -7 -16 2932.01 540.302   5
   2  -7 -16 3525.59 533.609   5
   2  -7 -16 3352.54 538.757   8
   2   7 -16 3198.21 547.280   4
  -2  -7  17 33.3395 69.3218   6
  -7  -2  17 180.383 112.263   7
  -2   7  17-29.9170 107.490   3
  -7  -2  17-15.4731 112.031   6
   2  -7 -17 87.0556 95.8437   8
   2   7  17 95.3859 85.4670   3
  -2   7  17 20.2473 151.377   2
   7   2 -17 175.132 65.3533   4
  -2  -7 -17-41.9777 153.355   8
   7   2 -17 71.5909 78.2941   1
  -2  -7  17-9.97154 73.9165   7
  -2  -7 -17 96.8327 108.656   5
   2  -7 -17 95.0663 83.3384   5
   2   7 -17 204.610 128.588   4
   2  -7 -18 3211.68 583.570   8
   7   2 -18 3243.82 573.001   4
  -2  -7 -18 3151.57 603.289   8
  -2   7  18 3652.11 587.396   3
  -2  -7  18 3441.37 576.247   7
  -7  -2  18 3452.89 588.322   7
   2  -7 -18 3401.86 578.268   5
   2   7 -18 2730.60 596.648   4
  -2   7  18 3633.66 605.280   2
  -2  -7 -18 4520.75 599.368   5
  -2   7  19 347.034 138.690   3
  -7  -2  19 554.602 138.361   6
  -7  -2  19 694.015 138.504   7
   7   2 -19 438.935 108.608   4
   2  -7 -19 502.615 146.060   8
   2  -7 -19 346.212 119.283   5
   2   7 -19 334.543 164.125   4
   2   7  19 469.152 129.815   3
   7   2 -19 493.419 122.471   1
  -2  -7 -19 199.369 192.631   8
  -2  -7  19 512.776 115.395   7
  -2  -7  19 285.566 107.026   6
  -2   7  19 560.426 191.216   2
  -2   7  20 2060.74 384.927   3
   2  -7 -20 2195.96 379.932   5
   7   2 -20 2398.24 376.072   4
  -7  -2  20 2340.53 387.685   7
   2  -7 -20 1967.48 390.576   8
  -7  -2  20 2316.48 386.299   6
   2   7 -20 2427.50 408.277   4
  -2   7  20 2850.08 422.225   2
  -2  -7  20 1705.64 375.302   6
   7   2 -20 1970.79 378.861   1
   2  -7 -21 217.914 107.045   5
   7   2 -21 229.789 99.7709   4
   2  -7 -21-15.2188 133.421   8
  -2   7  21 125.435 113.837   3
  -7  -2  21 44.9030 111.373   7
   7   2 -21 202.477 96.8844   1
  -2  -7  21 83.6393 88.1100   7
  -2   7  21 229.173 175.165   2
  -7  -2  21 14.8984 109.624   6
  -2  -7  22 677.895 220.619   6
   2  -7 -22 1504.59 234.999   5
  -2   7  22 1550.91 243.734   3
  -7  -2  22 1032.34 245.962   7
  -2  -7  22 888.544 233.540   7
  -2  -7 -22 1569.17 312.113   8
   2   7 -22 1541.42 300.000   4
   2   7 -23 64.8607 168.550   4
  -2  -7  23-104.900 107.028   7
  -2  -7  23-69.0238 95.1297   6
  -2  -7  24 1118.89 226.193   7
   2  -7 -24 1007.48 252.426   8
  -2   7  24 409.052 298.449   2
   2  -7 -25 683.011 201.267   5
   2  -7 -25 272.460 214.943   8
  -2  -7  26 214.168 120.481   7
  -2  -7  27 1555.31 296.988   7
  -2  -7  28 1156.26 246.893   7
  -3  -7   0 7549.14 1157.18   8
  -3  -7   0 7103.97 1151.67   7
   3   7   0 6525.24 1150.33   1
  -3  -7   1 2337.72 377.939   7
  -3  -7  -1 2052.37 385.623   8
  -3   7   2 3138.44 524.217   2
  -3  -7   2 3125.82 508.263   5
  -3  -7  -2 2855.15 510.155   5
   3   7  -2 3152.10 515.042   1
  -3  -7   2 2899.75 515.936   6
  -3  -7  -2 3014.50 519.536   8
   3   7  -2 3231.59 511.811   3
  -3  -7   3 4178.35 730.475   6
  -3  -7   3 4282.61 726.284   8
  -3   7   3 4954.83 740.496   2
   3  -7  -4 16.9822 37.3910   8
   3   7   4-17.6520 50.2183   3
   3   7  -4 74.5186 43.4689   3
  -3  -7   4-19.3274 60.3477   6
  -3  -7   4 4.17175 25.6903   5
  -3  -7  -4-12.3507 79.5341   8
   3  -7  -4 30.9012 85.0068   5
   3   7  -4-41.7570 67.2329   1
  -3  -7   4 45.1458 42.7897   7
  -3  -7   4 5.58237 45.6401   8
   3   7  -4-5.74864 38.6849   4
  -3  -7  -4 23.3548 47.0532   5
  -3  -7  -4-26.1809 66.5034   6
  -3   7   4 106.708 83.8709   2
  -3  -7   5 1509.66 287.323   5
   3   7  -5 2059.15 293.995   3
  -3  -7  -5 1502.28 306.318   8
  -3  -7   5 1818.93 289.344   8
   3   7  -5 2319.45 301.966   2
  -3  -7  -5 1292.50 296.593   6
  -3  -7   5 1718.45 292.297   7
  -3  -7   5 1986.42 300.690   6
   3  -7  -5 1767.44 313.816   5
   3   7  -5 1526.49 304.359   1
   3  -7  -6 1324.92 273.881   5
  -3  -7   6 1583.61 247.114   5
  -3  -7  -6 1056.88 256.276   5
   3   7  -6 1628.04 260.286   2
   3   7  -6 1314.66 255.049   4
  -3  -7  -6 1367.89 271.484   8
   3   7  -6 1613.90 252.405   3
   3   7   6 1522.03 259.424   3
  -3  -7   6 1582.01 253.302   7
  -3   7   6 805.519 277.054   2
   3   7  -6 1234.75 264.459   1
  -3  -7   6 1531.72 247.163   8
  -3  -7   6 1737.56 264.705   6
   3  -7  -7 5311.71 935.803   8
   3   7  -7 5046.69 937.861   4
  -3  -7   7 6523.67 939.880   7
   3   7  -7 5036.66 939.438   2
  -3   7   7 4949.02 956.744   2
   3   7  -7 6092.79 936.124   3
  -3  -7   7 6452.70 946.812   6
  -3  -7   7 5476.12 931.872   5
  -3  -7  -7 4797.23 940.089   5
  -3  -7   7 6255.67 932.075   8
  -7  -3   8 1271.46 226.082   6
  -3  -7   8 1034.48 184.498   5
   3   7  -8 1190.95 198.371   4
   3  -7  -8 773.378 209.468   5
   3   7   8 1013.12 200.115   3
  -3   7   8 1088.31 231.495   2
  -3  -7  -8 1165.96 221.107   8
  -3  -7  -8 1204.15 202.746   5
  -3  -7   8 1023.09 192.710   7
   3  -7  -8 1078.97 193.872   8
   3   7  -8 1221.76 196.881   2
  -3  -7   8 1094.83 202.293   6
   3   7  -8 1243.35 190.064   3
   3   7   9 10369.2 1876.99   3
   3   7  -9 11488.1 1875.77   4
   7   3  -9 11577.9 1873.41   1
  -3   7   9 11106.2 1890.71   2
  -7  -3   9 12755.4 1891.11   6
  -3  -7   9 11513.4 1877.42   6
   3  -7 -10 363.823 81.5167   8
   7   3 -10 174.447 75.1963   1
   3  -7 -10 409.548 110.875   5
  -7  -3  10 572.038 147.671   6
   3   7 -10 402.843 100.724   4
  -7  -3  10 182.185 117.658   7
  -3  -7 -10 546.858 105.725   5
   3   7  10 592.006 96.2938   3
  -3  -7  10 341.463 93.6629   6
  -3   7  10 261.146 143.942   2
   3   7  11 4142.05 609.776   3
  -3  -7 -11 3762.38 612.681   5
   3  -7 -11 3694.39 603.881   8
   3   7 -11 3382.73 607.168   4
   7   3 -11 3449.17 603.453   1
  -3  -7  11 3375.62 607.546   6
   3   7  12 3880.24 689.693   3
  -7  -3  12 4637.51 708.169   6
  -3  -7  12 4279.66 689.450   6
  -7  -3  12 5164.65 704.017   7
  -3   7  12 2278.55 699.300   3
   3   7 -12 3999.37 691.483   4
  -3  -7  12 4288.67 686.633   7
  -3   7  12 3975.83 706.042   2
   7   3 -12 4319.10 686.524   1
   3   7 -13 3543.32 640.189   4
  -3  -7  13 4065.89 634.575   7
  -7   3  13 3902.77 642.900   6
   7  -3 -13 3963.53 660.841   5
  -3  -7 -13 4413.15 660.480   8
  -7  -3  13 3496.22 653.528   6
  -3   7  13 3082.42 656.678   2
   7   3 -13 3728.86 634.261   1
   3  -7 -14 4331.63 681.337   8
  -3   7  14 3864.75 708.024   2
  -7  -3  14 4151.60 694.927   7
   3   7 -14 3507.22 688.121   4
  -3  -7 -14 4531.10 705.491   8
  -3  -7  14 4039.30 683.920   6
   3   7  15 1712.98 376.870   3
  -3   7  15 2092.74 406.384   2
  -3   7  15 1946.79 401.093   3
  -3  -7  15 2263.88 374.068   7
  -3  -7 -15 2115.59 402.414   8
   7   3 -15 2521.07 377.634   1
   3   7 -15 2432.64 390.430   4
  -7  -3  15 1828.90 392.357   6
  -7  -3  15 2033.58 389.464   7
  -3  -7  15 1877.40 377.034   6
   3  -7 -15 2519.45 378.587   5
   7  -3 -15 2466.11 397.312   5
   3  -7 -15 2273.13 377.016   8
   3  -7 -16 1574.83 282.842   5
  -3   7  16 1687.40 313.959   3
   7   3 -16 1177.83 277.059   1
  -7  -3  16 1590.00 295.673   7
   3  -7 -16 1883.17 286.424   8
   7  -3 -16 1330.36 294.064   5
  -3  -7 -16 2049.73 327.876   8
  -3   7  16 1842.58 347.899   2
  -3  -7  16 1552.05 276.107   7
   3   7 -16 1943.69 306.433   4
  -7  -3  16 1704.63 301.520   6
   7   3 -16 1352.53 269.512   4
  -3  -7  16 1468.13 280.795   6
   3  -7 -17 3398.86 573.095   8
  -7  -3  17 3589.19 582.043   7
   3  -7 -17 3677.43 572.617   5
  -3  -7  17 3752.57 571.139   7
   3   7 -17 3502.66 585.054   4
  -3  -7  17 2855.40 570.485   6
  -3   7  17 3482.88 603.597   2
   7   3 -17 2971.68 572.533   1
  -3   7  17 3352.77 588.261   3
   7   3 -18 12.2602 93.3825   1
  -7  -3  18 138.935 117.008   6
  -3   7  18 33.2902 123.827   3
  -3   7  18 43.9341 165.712   2
   7   3 -18 54.7669 72.6300   4
  -7  -3  18 115.110 100.500   7
   3  -7 -18 11.4944 93.6352   8
  -3  -7  18-11.8644 77.5349   6
  -3  -7  18 92.7488 76.6224   7
   3  -7 -18 77.0786 83.6398   5
   3   7 -18-68.2802 135.265   4
  -3   7  19 3247.90 530.352   3
   3  -7 -19 3589.33 515.419   5
   7   3 -19 2629.34 508.577   4
  -7  -3  19 2313.64 517.594   7
  -3   7  19 2532.69 544.677   2
   3   7 -19 4216.31 541.464   4
   7   3 -19 3331.68 517.673   1
   3  -7 -19 3348.99 517.108   8
  -3  -7  19 2533.44 510.493   6
   7   3 -20 340.953 106.785   4
   3  -7 -20 200.778 117.310   8
  -7  -3  20 243.519 129.508   6
   3  -7 -20 278.624 107.460   5
  -3   7  20 362.845 146.811   3
   7   3 -20 230.580 105.451   1
  -7  -3  20 241.635 116.889   7
  -3   7  21 693.435 248.305   2
   3  -7 -21 896.832 195.694   5
   3  -7 -21 1155.56 207.913   8
  -7  -3  21 912.382 205.196   7
   7   3 -21 1073.49 197.257   4
  -3  -7  21 397.109 181.975   7
   7   3 -21 1224.93 202.000   1
  -3   7  21 1062.18 218.750   3
  -7  -3  21 1420.13 213.848   6
  -3  -7  22-51.7456 80.3793   6
  -7  -3  22-14.5016 114.766   7
   7   3 -22-50.5703 108.331   4
   7   3 -22 150.167 119.232   1
  -3   7  22-33.2477 151.385   3
   3  -7 -22 25.3587 96.9811   5
  -3  -7  22-24.3907 95.5677   7
  -7  -3  22-76.3144 116.722   6
   3   7 -22-102.909 173.299   4
  -3  -7  23 1682.15 267.669   7
   3   7 -23 1364.24 301.778   4
   7   3 -23 1332.27 273.832   4
  -3  -7  23 1257.50 255.385   6
  -7  -3  23 1384.40 272.640   6
  -3  -7  24 401.802 113.699   6
  -3  -7  24 249.766 120.997   7
  -3   7  24 317.527 220.618   2
   3  -7 -24 201.562 165.628   8
   3   7 -24 486.892 186.808   4
  -3  -7  25 415.538 173.655   6
   3   7 -25 615.152 234.939   4
  -3  -7  26 653.962 190.712   6
  -3  -7  26 1281.28 208.097   7
   3   7 -26 989.060 249.148   4
  -3  -7  27 1567.97 296.924   7
   3   7 -27 1542.51 334.450   4
  -3  -7  28 938.573 207.987   7
  -3  -7  29 669.143 177.247   7
  -3  -7  30-17.1004 127.942   7
  -3  -7  31 625.232 182.971   7
   4   7   0 12.6167 40.2895   1
  -4  -7   0 33.2022 68.7611   7
  -4  -7   0 30.8113 70.9537   8
  -4  -7   0-11.9112 81.1955   6
   4   7   1 4747.86 773.111   3
  -4  -7   1 4085.90 775.929   7
  -4  -7  -1 5255.65 780.046   8
  -4  -7  -1 4912.50 782.710   6
  -4  -7   1 5612.75 784.544   6
   4   7   1 4184.08 769.783   1
   4   7  -1 4698.75 772.051   1
   4   7   2 932.132 152.886   3
  -4  -7   2 1000.65 160.704   7
  -4  -7  -2 818.670 152.851   5
  -4  -7  -2 1172.63 167.617   8
  -4  -7   2 583.633 146.852   5
   4   7  -2 937.669 150.390   3
  -4  -7  -2 444.265 163.520   6
   4   7  -2 942.357 153.270   1
  -4  -7   2 530.268 168.698   6
   4   7  -3 862.101 160.041   1
  -4  -7   3 1016.54 161.961   7
   4   7  -3 893.148 154.613   3
   4   7   3 716.140 157.063   3
  -4  -7   3 839.797 165.387   8
  -4  -7  -3 609.711 160.246   5
  -4  -7  -3 1014.73 172.186   8
  -4  -7   3 1003.46 154.877   5
  -4  -7   3 652.073 172.004   6
   4   7  -4 1703.06 282.288   3
  -4  -7   4 1667.10 299.900   6
   4   7   4 1733.19 288.808   3
  -4  -7   4 1741.68 282.666   5
  -4  -7  -4 1290.13 288.300   5
  -4  -7   4 1580.42 286.159   7
   4   7  -4 1600.59 290.247   1
  -4  -7   4 1737.63 289.827   8
  -4  -7  -4 1981.04 301.129   8
   4   7  -5 140.179 69.3697   3
  -4  -7   5 122.070 64.3400   5
  -4   7   5 484.284 140.993   2
  -4  -7  -5 309.669 111.024   5
   4   7  -5 303.993 110.031   1
   4  -7  -5 420.059 152.146   5
   4   7   5 286.233 83.2298   3
  -4  -7  -5 526.840 134.662   8
  -4  -7   5 202.827 87.9394   7
  -4  -7   5 104.276 87.9622   8
  -4  -7   5 157.444 123.490   6
   4   7   6 1443.80 206.446   3
  -4  -7   6 1156.02 199.852   7
   4   7  -6 1341.12 193.606   3
  -4  -7   6 936.374 213.758   6
  -4  -7   6 1157.18 195.277   8
  -4  -7  -6 1277.20 209.313   5
   4   7  -6 1121.64 196.443   4
  -4  -7  -6 1303.13 222.464   8
   4   7  -6 750.597 209.880   1
   4  -7  -6 1006.42 195.208   8
   4  -7  -6 795.937 224.803   5
  -4   7   6 490.077 220.435   2
   4   7  -7 1826.18 335.913   4
   4   7  -7 2280.45 338.647   2
  -4  -7   7 2126.47 339.020   7
  -4   7   7 1675.82 359.012   2
  -4  -7  -7 2420.43 360.373   8
   4  -7  -7 1951.80 335.344   8
   4  -7  -7 2260.90 362.315   5
  -4  -7   7 1897.86 330.979   8
  -4  -7   7 2217.06 348.510   6
  -7  -4   7 2102.51 362.427   6
   4   7  -7 1903.63 347.410   1
   4   7   7 1679.18 340.541   3
   4  -7  -8 3850.94 679.066   5
   4  -7  -8 3998.05 665.026   8
   4   7  -8 3847.06 665.294   4
  -7  -4   8 4713.97 689.954   6
  -7  -4   8 3638.42 685.799   7
  -4  -7   8 4331.94 667.198   7
   4   7  -8 4095.25 676.631   1
   4   7   8 3689.91 669.547   3
  -4  -7   8 4282.34 674.572   6
  -4   7   8 3543.70 686.873   2
  -4  -7   9-7.95442 52.7739   7
   4   7  -9 14.0387 97.7868   1
   7   4  -9-7.85924 55.9336   1
  -4   7   9 36.9991 118.522   2
   4   7  -9 103.643 57.2007   4
   4  -7  -9-13.4886 47.0215   8
  -7  -4   9 52.8878 121.201   6
  -4  -7  -9-34.2671 115.710   8
  -7  -4   9 50.9954 102.099   7
   4  -7  -9 58.0582 100.232   5
  -4  -7   9-11.7464 68.9333   6
   4   7 -10 4907.92 658.440   4
  -4   7  10 4914.22 682.194   2
  -4  -7  11 1663.98 304.741   6
  -4   7  11 1845.71 329.595   2
  -7  -4  11 1057.58 328.991   6
  -7  -4  11 1987.25 317.637   7
   4  -7 -11 1823.84 313.111   5
   4   7 -11 1761.16 302.312   4
   7   4 -11 1723.13 298.386   1
  -4  -7  12 1173.46 183.810   7
   4   7 -12 1005.98 213.575   1
  -4   7  12 1165.62 228.484   2
   4  -7 -12 768.468 177.084   8
   7  -4 -12 1089.19 215.652   5
  -7  -4  12 722.036 198.798   7
  -7  -4  12 976.606 226.152   6
   4  -7 -12 1235.89 204.223   5
  -4  -7  12 1150.82 194.488   6
   7   4 -12 1018.67 184.289   1
   4   7 -12 871.402 189.702   4
   7  -4 -13 7343.06 1123.99   5
  -4   7  13 6910.68 1126.21   2
   4   7 -13 6442.72 1106.05   4
   4  -7 -13 7522.72 1103.11   8
  -4  -7  13 6958.54 1102.86   7
  -4  -7  13 6686.86 1108.49   6
   7   4 -13 5292.78 1102.93   1
  -4   7  14 1258.84 235.000   3
   4  -7 -14 1220.33 190.953   5
  -4   7  14 798.462 211.751   2
  -4  -7  14 848.118 172.042   7
  -7  -4  14 736.612 192.111   7
   7  -4 -14 941.677 207.498   5
   4   7 -14 745.486 181.758   4
  -7  -4  14 1193.86 215.370   6
   7   4 -14 829.444 177.503   1
   4  -7 -14 944.480 172.981   8
  -4  -7  14 977.607 184.677   6
  -4   7  15 2503.03 417.060   3
   7   4 -15 2430.89 377.380   4
  -4   7  15 1653.93 409.351   2
   4  -7 -15 2380.58 379.572   8
  -7  -4  15 2094.52 402.356   6
  -7  -4  15 2267.53 390.445   7
   4   7 -15 1743.46 389.665   4
   4  -7 -15 2737.02 390.015   5
  -4  -7  15 2190.16 386.881   6
   7   4 -15 1701.59 382.503   1
   7  -4 -15 2418.79 406.078   5
  -7  -4  16 1396.38 232.646   7
  -4   7  16 767.907 255.179   3
   4  -7 -16 1449.62 233.046   5
  -4   7  16 1317.84 270.464   2
   7   4 -16 1104.36 217.804   4
   7   4 -16 1065.62 225.489   1
   4   7 -16 1496.53 238.609   4
  -7  -4  16 1465.68 247.071   6
   4  -7 -16 1188.18 219.488   8
  -4  -7  16 1304.88 218.935   7
  -4  -7  16 909.749 222.598   6
   7  -4 -16 874.916 238.547   5
   4  -7 -17-9.68951 75.9331   8
   7  -4 -17 28.3399 110.634   5
   4  -7 -17 11.7354 90.3828   5
   7   4 -17 9.14792 74.5402   4
  -7  -4  17-16.1093 117.820   6
  -7  -4  17-41.4121 96.9790   7
  -4  -7  17 58.1900 70.6872   7
   4   7 -17 57.4866 118.153   4
  -4   7  17-22.4777 161.161   2
   7   4 -17-25.7308 94.4716   1
  -4  -7  17 24.8739 83.6333   6
  -4   7  17 192.745 150.979   3
  -4  -7  18 1073.75 183.433   7
  -4   7  18 1218.47 228.927   3
   4  -7 -18 925.774 190.997   5
   7   4 -18 976.089 181.859   4
   4  -7 -18 959.407 187.084   8
  -7  -4  18 949.559 193.946   7
  -4  -7  18 456.471 188.260   6
   7   4 -18 1066.57 194.867   1
  -4   7  18 874.502 250.131   2
   4   7 -18 933.772 207.818   4
  -7  -4  18 1028.38 206.387   6
   7   4 -19 169.226 89.5116   4
   7   4 -19 85.5571 110.657   1
  -4   7  19 225.887 145.153   3
  -7  -4  19 69.4546 106.389   7
  -4   7  19 141.749 179.679   2
   4  -7 -19 118.027 95.3641   8
   4  -7 -19 116.338 90.0190   5
   4   7 -19 181.615 139.888   4
  -7  -4  19 63.0422 116.802   6
  -4  -7  19 76.8174 90.4154   6
  -4   7  20 945.741 260.179   2
  -4   7  20 915.602 221.530   3
  -7  -4  20 818.678 190.701   7
  -7  -4  20 873.165 196.487   6
   4  -7 -20 908.420 183.917   8
   4  -7 -20 868.500 186.348   5
   7   4 -20 697.184 190.163   1
   7   4 -20 969.486 184.164   4
  -4  -7  21-26.2833 90.4044   6
  -4   7  21-249.684 234.072   2
   4  -7 -21 250.971 118.500   5
   7   4 -21 123.148 112.178   4
   4  -7 -21-11.9775 130.225   8
  -7  -4  21-156.417 131.730   6
  -4  -7  21 56.1783 86.8752   7
   4   7 -21-94.9288 178.839   4
  -4   7  21 36.3768 157.139   3
  -4  -7  22 315.476 100.576   7
   4  -7 -22 221.175 123.497   5
   4   7 -22 59.8870 153.080   4
  -4  -7  22 158.348 99.0376   6
   7   4 -23 105.456 124.239   1
  -4  -7  23 227.211 101.401   6
   4   7 -23-42.0042 173.779   4
  -4  -7  23 206.773 105.207   7
  -7  -4  23 101.849 113.046   7
  -4  -7  24 543.269 123.161   7
   4   7 -24 434.279 194.725   4
  -7  -4  24 283.729 127.952   7
  -7  -4  24 506.848 138.280   6
   7   4 -24 73.4193 159.083   1
   7   4 -24 217.818 149.955   4
  -4  -7  24 357.451 117.084   6
  -4  -7  25 593.137 153.078   7
  -7  -4  25 476.130 165.506   7
   4   7 -25 1059.43 232.576   4
  -4  -7  25 467.385 142.147   6
  -7  -4  25 609.101 165.683   6
  -4  -7  26 161.216 133.122   6
   4   7 -26 607.596 197.749   4
  -4  -7  26 770.656 147.238   7
  -4  -7  27 862.065 243.003   6
   4   7 -27 1298.65 308.285   4
  -4  -7  27 1782.87 255.974   7
   4   7 -28 99.1351 187.518   4
  -4  -7  28 255.574 130.239   7
  -4  -7  28 376.235 120.815   6
   4   7 -29 25.3890 194.238   4
  -4  -7  29 276.128 120.735   6
  -4  -7  29 204.454 134.703   7
  -4  -7  30 82.2926 125.811   7
   4   7 -30 25.9279 189.140   4
  -5  -7   0 7388.38 968.000   6
   5   7   0 4666.08 942.874   1
  -5  -7   0 7508.53 956.208   8
  -5  -7   1 586.195 126.175   8
  -5  -7   1 1323.92 191.374   7
  -5  -7  -1 634.272 138.920   8
  -5  -7  -1 1242.11 178.691   6
  -5  -7   1 985.403 181.163   6
  -5  -7   2 944.926 245.376   6
  -5  -7  -2 1136.54 229.617   8
   5   7  -2 1222.21 209.970   1
  -5  -7   2 1278.75 239.487   7
   5   7  -3 7.90191 60.0387   1
  -5  -7   3-103.384 115.816   6
  -5  -7   3-87.0103 102.016   7
  -5  -7   4 230.760 88.4458   7
  -5  -7   4 278.885 77.0892   8
   5   7  -4 196.823 64.8997   1
  -5  -7   4 89.6056 97.7665   6
   5   7  -5 227.126 75.6844   1
  -5  -7   5 258.372 78.6401   7
  -5  -7   5 163.544 116.639   6
  -5  -7   5 179.646 73.7161   8
   5   7  -6 513.607 126.749   1
  -5  -7   6 628.050 124.537   8
  -5  -7   6 537.094 126.521   7
  -5  -7   6 515.822 150.366   6
  -7  -5   6 948.082 169.263   6
   7   5  -7 115.103 59.9250   1
   5  -7  -7 179.603 112.562   5
   5   7  -7 133.764 85.6321   1
  -7  -5   7 365.693 118.069   6
  -5  -7   7 246.280 111.660   6
  -5   7   7 167.983 115.191   2
  -7  -5   7 52.5107 104.515   7
  -5  -7   7 149.699 71.9640   7
  -5   7   8 382.909 157.719   2
   5  -7  -8 535.553 152.882   5
   5   7  -8 734.740 112.392   4
   7   5  -8 701.393 112.746   1
  -5  -7   8 600.920 119.502   7
   5  -7  -8 274.971 106.681   8
  -7  -5   8 588.450 151.079   7
   5   7  -8 568.833 130.057   1
  -7  -5   8 570.247 170.140   6
  -5  -7   8 514.132 138.294   6
   5  -7  -9 1041.79 240.165   5
  -5  -7   9 1138.22 232.302   6
   5  -7  -9 1276.95 207.176   8
  -7  -5   9 1602.73 243.653   7
  -5  -7   9 1242.76 217.051   7
  -7  -5   9 1228.91 252.527   6
  -5   7   9 1029.87 242.837   2
   5   7  -9 982.815 207.386   4
   7   5  -9 1205.88 209.780   1
   5  -7 -10 282.557 148.001   5
  -7  -5  10 320.069 130.622   7
   5  -7 -10 643.393 104.655   8
  -5  -7  10 330.398 122.511   6
   5   7 -10 469.187 107.957   4
   7   5 -10 567.314 110.646   1
  -7  -5  10 598.117 166.094   6
  -5   7  10 409.682 154.395   2
  -5  -7  11-13.6448 78.0908   6
  -5  -7  11-9.49402 61.7476   7
   7   5 -11-19.7159 64.4266   1
   5   7 -11 51.7195 64.7338   4
  -7  -5  11-31.2052 108.660   7
  -7  -5  11-18.4972 130.999   6
   5  -7 -11 22.3322 51.4146   8
   5  -7 -11-15.8361 110.286   5
  -5   7  11 19.2625 128.882   2
   5   7 -11 89.1479 104.794   1
   7  -5 -12 2710.38 540.364   5
   5  -7 -12 2942.15 531.202   5
  -5  -7  12 3632.83 533.223   6
  -5   7  12 2952.61 544.692   2
  -5  -7  12 3006.32 520.985   7
   5   7 -12 3156.76 520.225   4
  -7  -5  12 3120.26 543.264   6
   5   7 -12 2987.31 536.625   1
   5  -7 -13 237.189 69.8882   8
  -7  -5  13 267.329 138.568   6
   5  -7 -13 28.9159 104.622   5
  -7  -5  13 87.4481 101.177   7
   5   7 -13 168.101 111.006   1
  -5  -7  13 48.0738 65.4557   7
  -5   7  13 123.035 137.926   2
   5   7 -13 78.8957 74.9443   4
   7   5 -13 67.6100 78.8536   1
   7  -5 -13 192.784 133.927   5
  -5  -7  13 135.013 93.6076   6
  -5  -7  14 3301.05 563.903   6
   7  -5 -14 2086.22 571.411   5
   5  -7 -14 3272.82 566.668   5
  -7  -5  14 3318.26 564.804   7
   5  -7 -14 3367.35 552.178   8
   7   5 -14 3082.41 560.304   1
   7   5 -14 3785.96 553.359   4
   5   7 -14 3373.76 560.018   4
  -5  -7  14 3399.69 556.058   7
   5   7 -14 3196.38 575.116   1
  -7  -5  14 2896.53 576.250   6
  -5   7  14 3476.48 585.429   2
   5  -7 -15 101.843 65.3768   8
  -5   7  15-21.9699 180.591   3
  -5   7  15-43.3299 173.660   2
  -7  -5  15 42.2059 104.084   7
  -7  -5  15 84.8976 119.766   6
   7   5 -15 60.9216 72.0069   4
   7   5 -15 12.6895 90.6303   1
   7  -5 -15 119.509 123.885   5
  -5  -7  15-59.5334 103.025   7
   5   7 -15-182.662 128.587   4
  -5  -7  15-134.916 139.261   6
   5   7 -15-474.163 173.126   1
   5  -7 -15 41.2516 105.141   5
   5   7 -16 519.774 182.671   1
  -5   7  16 378.375 191.288   3
  -5   7  16 422.352 191.621   2
   5   7 -16 454.041 133.464   4
   7  -5 -16 517.192 149.812   5
  -5  -7  16 403.093 113.377   7
   5  -7 -16 733.698 117.537   8
   7   5 -16 386.832 114.127   4
   5  -7 -16 385.950 134.795   5
   7   5 -16 445.083 130.905   1
  -5  -7  16 487.607 138.861   6
  -7  -5  16 513.652 160.902   6
  -7  -5  16 527.418 135.130   7
  -5  -7  17 13.5848 88.3986   6
  -5   7  17-22.2381 168.219   3
  -5   7  17-91.2879 160.986   2
   7  -5 -17 107.600 113.750   5
   5   7 -17-63.7754 140.949   1
   7   5 -17-9.79158 78.8133   4
  -7  -5  17-13.7471 91.1873   7
   5  -7 -17-77.5697 97.8381   5
   5  -7 -17 27.6923 79.8083   8
  -7   5  17 76.1946 128.667   2
   5   7 -17-26.2087 96.9918   4
  -5  -7  17-103.364 79.6546   7
   7   5 -17-14.3279 100.686   1
  -7  -5  17-16.3731 114.071   6
  -7  -5  18 123.053 108.971   7
   7  -5 -18 132.057 116.145   5
   5  -7 -18 179.007 102.300   5
   5  -7 -18 144.051 88.6818   8
  -5   7  18 187.377 182.705   2
  -7   5  18 155.508 137.706   2
  -5   7  18 132.906 172.985   3
  -7  -5  18 162.315 114.880   6
   5   7 -18 195.666 122.019   4
   7   5 -18 253.123 95.5145   4
   7   5 -18 59.8161 115.489   1
  -5  -7  18 109.121 93.0581   6
   7   5 -19 190.946 124.643   1
   7   5 -19 33.9843 94.2480   4
  -7  -5  19 111.975 119.218   6
  -5   7  19-129.673 182.290   3
   5  -7 -19 237.034 99.9779   5
   5  -7 -19 70.4379 84.3700   8
  -5   7  19 263.813 184.854   2
  -5   7  20 172.389 189.937   2
  -5   7  20 425.672 186.582   3
   5  -7 -20 324.187 122.777   5
   5  -7 -20 493.741 109.744   8
  -5  -7  20 201.575 109.507   7
   5   7 -20 252.923 184.881   1
   5   7 -21-241.270 208.715   1
   7   5 -21 53.1412 129.313   1
  -5   7  21-101.180 194.929   2
  -5   7  21-82.4042 167.986   3
   5  -7 -21-44.2715 98.0849   8
  -5  -7  21-23.0119 88.3877   7
   5   7 -21-104.056 148.375   4
  -7  -5  21-42.4946 102.326   7
   5  -7 -21-62.4566 103.664   5
  -5  -7  21-70.2408 100.273   6
   5   7 -22 113.786 227.280   1
  -5   7  22-264.397 168.719   3
   7   5 -22 18.5343 106.758   1
  -7  -5  22 56.9984 114.977   7
   7   5 -22 14.0989 119.415   4
  -5  -7  22-35.7072 82.5730   7
   5   7 -22 18.6530 148.562   4
  -7  -5  22 16.0714 107.060   6
   5  -7 -22 62.7636 100.971   5
  -5  -7  22 113.067 94.1582   6
  -5  -7  23 14.3821 101.040   6
   5   7 -23-30.2181 221.825   1
   7   5 -23 165.788 121.993   4
   7   5 -23 98.7671 141.064   1
  -5  -7  23-111.010 103.874   7
  -7  -5  23-14.6036 112.066   7
   5   7 -23 79.8279 169.984   4
  -7  -5  23 80.7075 113.392   6
   7   5 -24 281.314 154.011   4
  -5  -7  24 486.367 130.953   7
   5   7 -24 770.971 263.440   1
   5   7 -24 523.517 197.316   4
  -7  -5  24 374.917 147.015   7
   7   5 -24 351.466 196.982   1
  -5  -7  24 504.734 132.222   6
  -7  -5  24 553.077 147.263   6
  -5  -7  25 14.4486 102.762   6
  -5  -7  25 120.318 106.128   7
   7   5 -25-194.764 175.685   1
   7   5 -25-107.681 151.541   4
   5   7 -25 34.1682 284.269   1
  -7  -5  25 15.4325 120.884   7
   5   7 -25 111.340 175.002   4
  -7  -5  25 16.4345 130.028   6
  -5  -7  26 593.451 217.515   6
   5   7 -26 668.794 268.524   4
   5   7 -26 2399.84 396.708   1
  -7  -5  26 1622.76 245.842   7
  -5  -7  26 1418.66 231.935   7
   7   5 -26 747.425 266.437   1
   7   5 -26 1416.34 269.630   4
  -7  -5  26 1292.01 237.146   6
  -5  -7  27 76.0133 99.3312   6
   5   7 -27-192.357 270.179   1
   5   7 -27-23.8194 183.375   4
  -5  -7  27-28.9777 108.380   7
  -5  -7  28 235.284 139.757   6
   5   7 -28 573.043 335.491   1
   5   7 -28 788.548 234.558   4
  -5  -7  28 830.953 164.036   7
  -5  -7  29-32.4374 116.512   6
  -5  -7  29 31.5348 123.300   7
   5   7 -29 348.069 359.875   1
   5   7 -29 228.052 210.311   4
  -5  -7  30 16.5827 127.229   7
  -5  -7  30-33.5272 111.650   6
  -6  -7   1 1186.77 245.855   6
   6   7  -2 35.0621 44.1915   1
  -6  -7   2 48.8100 100.651   6
  -6  -7   3 64.6425 106.589   7
  -6  -7   3 267.501 115.446   6
   6   7  -3 272.374 65.8871   1
   6   7  -4 252.574 79.1816   1
  -6  -7   4 216.106 113.971   7
   7   6  -5 324.480 95.0989   1
   6   7  -5 618.029 101.077   1
  -6  -7   5 309.610 125.918   7
  -6  -7   5 496.929 98.4127   8
  -7  -6   5 558.932 163.557   6
  -6  -7   5 348.112 141.884   6
   7   6  -6 7.86419 50.9529   1
  -6  -7   6-14.0026 83.6423   7
  -6  -7   6-35.0664 128.727   6
   6   7  -6 46.5252 61.1507   1
  -7  -6   6 56.8793 137.581   6
  -7  -6   6 36.0017 114.753   7
   6   7  -7 1520.79 315.733   1
  -6  -7   7 1895.18 337.427   6
  -6  -7   7 2223.38 327.248   7
  -7  -6   7 1899.56 346.083   6
  -6  -7   8 51.4834 124.019   6
  -7  -6   8-38.8584 131.787   6
   6   7  -8 21.3916 71.2356   1
  -6  -7   8-12.7075 86.9706   7
  -7  -6   9 16.3357 113.106   7
  -6  -7   9 101.425 120.017   6
  -7  -6   9-38.8978 111.619   6
   7   6  -9 75.0203 59.1599   1
   6  -7 -10-38.3075 126.957   5
  -7  -6  10-15.5544 107.388   7
  -7  -6  10 115.357 134.457   6
   7   6 -10 10.1056 66.6713   1
   6   7 -10-31.6554 52.7095   4
  -6  -7  10 16.4720 114.708   6
  -7  -6  11 150.834 141.234   6
   6  -7 -11 297.437 148.503   5
   6   7 -11 347.655 109.747   1
  -7  -6  11 394.165 120.934   7
   7   6 -11 381.542 103.617   1
  -6  -7  11 435.370 127.932   6
  -6   7  11 492.706 149.009   2
   6   7 -11 265.809 86.8956   4
  -6  -7  11 336.471 104.263   7
  -7  -6  12 203.576 135.682   6
   7  -6 -12 284.523 142.056   5
  -6  -7  12 142.692 114.748   6
   6   7 -12 142.338 105.249   1
   6  -7 -12 174.388 69.1365   8
   6   7 -12 70.1054 71.5621   4
  -7  -6  12 275.488 112.260   7
  -6  -7  12 80.3515 73.9659   7
   7   6 -12 242.703 82.5237   1
  -6   7  12 175.202 130.383   2
   6  -7 -12 178.226 121.457   5
  -6   7  13 1698.06 359.780   2
  -7  -6  13 1534.06 336.331   7
   7  -6 -13 1643.03 361.802   5
   6  -7 -13 1938.50 353.245   5
   6   7 -13 1660.84 327.380   4
   6  -7 -13 1793.56 321.404   8
  -6  -7  13 1651.94 331.510   7
  -6  -7  13 2816.62 351.604   6
   7   6 -13 1938.04 323.094   4
  -7  -6  13 2122.19 353.014   6
   7   6 -13 2096.05 337.633   1
   6   7 -13 1940.86 341.239   1
   7   6 -14 65.1148 102.253   1
  -6  -7  14-154.596 140.233   6
   6   7 -14 29.9700 82.4304   4
   6  -7 -14-16.2479 121.752   5
   6  -7 -14-25.1885 63.6823   8
  -7  -6  14-167.460 116.325   7
   7   6 -14 44.1224 71.5523   4
   6   7 -14-209.967 141.613   1
  -6   7  14-123.454 154.078   2
  -6  -7  14-113.794 98.0078   7
  -7  -6  14-105.417 134.030   6
   7  -6 -14 18.9874 136.858   5
  -6  -7  15 1119.03 203.770   6
   7   6 -15 974.252 186.680   4
  -7  -6  15 672.813 212.163   6
  -7  -6  15 1224.66 203.328   7
   6  -7 -15 1076.57 215.245   5
  -6  -7  15 1115.59 193.693   7
   6   7 -15 886.159 188.722   4
   7  -6 -15 922.252 225.513   5
   6   7 -15 1032.77 223.793   1
   6  -7 -15 935.067 182.115   8
   7   6 -15 830.700 200.662   1
  -6   7  15 992.273 237.693   2
   7   6 -16 258.518 90.4577   4
   7  -6 -16 223.777 133.092   5
  -7  -6  16 187.116 133.838   6
  -7   6  16 119.461 134.993   2
   6   7 -16 57.2788 91.7672   4
   7   6 -16 102.984 111.734   1
   6  -7 -16 179.072 74.7927   8
  -7  -6  16 218.018 102.436   7
  -6  -7  16 197.894 114.161   6
   6   7 -16 183.303 130.140   1
   6  -7 -16 107.466 121.285   5
  -6  -7  16 104.049 91.9457   7
  -6   7  16-43.3186 156.711   2
   7   6 -17-78.2490 107.809   1
  -7  -6  17 54.1418 98.9743   7
  -6   7  17 222.424 154.717   2
   7  -6 -17 131.564 127.207   5
   6  -7 -17 118.630 112.013   5
   6  -7 -17 185.676 81.5713   8
   7   6 -17 148.145 84.0681   4
   6   7 -17-24.5945 99.6489   4
  -6   7  17-25.3215 186.276   3
  -7  -6  17 16.6473 117.562   6
  -7   6  17 121.893 135.850   2
  -6  -7  17 30.3195 118.972   6
   6  -7 -18-38.5596 75.8623   8
  -6   7  18 76.3289 204.061   3
   7  -6 -18-31.5324 102.778   5
   7  -6 -18-45.8483 68.9892   8
   6  -7 -18-85.9696 113.966   5
   7   6 -18-79.1497 93.2313   4
  -6   7  18 45.7639 164.864   2
  -7   6  18-62.3290 133.960   2
  -7  -6  18-49.5078 120.894   6
  -6   7  19 935.558 249.486   2
  -6   7  19 932.121 265.286   3
   6  -7 -19 1075.23 186.074   5
   7  -6 -19 828.209 164.344   8
   6   7 -19 948.468 231.646   1
   6  -7 -19 961.269 167.968   8
  -6  -7  19 504.515 170.750   7
   7  -6 -19 862.304 185.840   5
  -7   6  19 791.626 271.333   3
  -7   6  19 446.843 211.373   2
   7   6 -20 26.0822 113.579   4
   6   7 -20-114.987 191.329   1
  -6   7  20 96.4005 180.940   2
  -6   7  20 74.7515 224.006   3
   6  -7 -20 27.3566 112.431   5
  -7  -6  20-69.7776 112.937   7
  -6  -7  20-123.105 108.092   7
   6   7 -20 14.8129 137.208   4
   7   6 -20 18.5670 157.676   1
   6  -7 -20 20.8642 92.3363   8
  -6  -7  20 75.8557 120.023   6
   6   7 -21 630.186 205.017   1
  -6   7  21 650.640 225.912   3
   7   6 -21 175.007 173.419   1
   6   7 -21 969.480 177.569   4
  -6  -7  21 730.705 165.115   6
   6  -7 -21 785.908 149.624   5
   7   6 -21 686.140 163.200   4
  -7  -6  21 644.688 143.669   7
  -6  -7  21 164.323 135.845   7
  -7  -6  21 606.308 165.170   6
   6   7 -22-255.720 170.299   1
  -6  -7  22 45.9215 97.5651   6
   7   6 -22-387.144 165.414   1
  -6  -7  22 25.7751 101.963   7
   6   7 -22 17.1658 129.357   4
  -7  -6  22 100.357 114.174   7
  -7  -6  22 32.7974 114.689   6
   7   6 -22 74.7082 123.194   4
  -6  -7  23-46.0629 105.269   6
   6   7 -23-27.0060 222.060   1
  -6  -7  23-106.284 98.8422   7
  -7  -6  23 73.4954 111.347   7
   7   6 -23 15.9369 131.544   4
   7   6 -23 108.775 169.348   1
   6   7 -23-370.009 154.963   4
  -7  -6  23 49.3347 117.586   6
  -6  -7  24-46.7946 112.336   6
  -7  -6  24-99.3113 117.276   6
   6   7 -24-28.5329 193.567   1
   6   7 -24 39.7733 163.999   4
   7   6 -24 414.162 149.100   4
   7   6 -24-68.4494 163.612   1
  -7  -6  24-15.0996 121.474   7
  -6  -7  24 54.8621 104.918   7
  -6  -7  25 501.203 151.352   6
  -6  -7  25 780.539 159.853   7
   6   7 -25 181.086 242.870   1
   6   7 -25 482.046 211.711   4
   7   6 -25 430.878 226.987   1
  -7  -6  25 761.626 167.632   7
   7   6 -25 447.914 191.406   4
  -7  -6  25 566.556 159.928   6
  -6  -7  26-47.0519 106.156   6
  -6  -7  26-14.7028 105.235   7
   6   7 -26-89.1698 169.969   4
   7   6 -26 100.471 188.027   1
   6   7 -26 63.8518 255.167   1
   7   6 -26 20.1281 147.929   4
  -7  -6  26 16.7660 117.481   6
  -7  -6  26-224.398 127.433   7
  -6  -7  27 429.994 134.619   6
   6   7 -27 574.112 262.591   1
   7   6 -27 324.702 209.860   4
  -6  -7  27 716.724 161.033   7
  -7  -6  27 455.300 151.463   6
   7   6 -27 421.555 223.613   1
  -7  -6  27 695.317 161.194   7
   6   7 -27 142.151 199.565   4
  -6  -7  28 16.1069 108.259   6
  -6  -7  28-63.9766 122.700   7
   6   7 -28-142.878 266.193   1
   6   7 -28-122.333 201.712   4
  -7  -6  28 188.428 145.885   7
  -6  -7  29 264.040 123.798   6
  -6  -7  29 33.2782 124.787   7
   6   7 -29 253.141 215.607   4
   6   7 -29-37.7621 278.156   1
  -7  -7   3 110.815 144.319   6
   7   7  -4 463.942 96.1856   1
  -7  -7   4 440.494 165.597   6
   7   7  -5-16.1111 52.4355   1
  -7  -7   5-97.5651 145.439   6
  -7  -7   5 55.5445 119.221   7
   7   7  -6 2167.19 393.594   1
  -7  -7   6 2568.73 415.398   7
  -7  -7   6 2474.09 424.744   6
  -7  -7   7-140.050 103.912   7
   7   7  -7 36.4382 59.2391   1
  -7  -7   7-20.0854 134.383   6
  -7  -7   8 2375.47 356.281   7
   7   7  -8 1777.11 331.487   1
  -7  -7   8 1866.54 358.982   6
  -7  -7   9-19.8464 140.582   6
   7   7 -10 156.395 73.0356   1
  -7  -7  10 97.6627 111.281   6
  -7  -7  11 14.8004 81.4680   7
   7   7 -11-82.9151 82.5417   1
  -7  -7  11 38.1137 114.475   6
   7  -7 -12 184.010 176.003   5
  -7  -7  12 745.620 189.478   6
   7   7 -12 541.001 126.343   4
   7   7 -12 640.747 155.146   1
  -7  -7  12 608.106 161.264   7
   7   7 -13-17.9877 72.4592   4
   7   7 -13-68.0667 96.9074   1
  -7  -7  13-54.5864 128.932   6
  -7  -7  13 14.2045 98.1689   7
   7  -7 -13-19.7338 128.386   5
   7   7 -14 1486.49 273.911   4
  -7  -7  14 1426.22 286.577   7
  -7  -7  14 1926.32 301.486   6
   7  -7 -14 1002.20 300.678   5
   7   7 -14 1922.64 294.569   1
  -7  -7  15-41.4619 93.0720   7
   7   7 -15 30.1569 106.051   1
   7  -7 -15 18.5166 140.661   5
  -7  -7  15-17.5521 123.401   6
   7   7 -15-91.0651 84.6287   4
  -7   7  15-41.5017 135.043   2
   7  -7 -16 141.802 134.289   5
   7   7 -16 10.7519 85.1504   4
  -7   7  16-21.1664 149.485   2
  -7  -7  16 121.040 127.174   6
   7  -7 -17-17.0287 126.907   5
   7  -7 -17 9.40404 66.8777   8
  -7   7  17 21.6346 143.400   2
  -7   7  18 730.659 211.149   2
   7  -7 -18 705.209 175.825   5
   7   7 -18 472.480 182.079   1
   7  -7 -18 808.490 146.540   8
  -7   7  18 528.550 263.837   3
  -7  -7  18 580.267 161.976   7
   7  -7 -19 10.0782 81.0992   8
   7   7 -19 19.0160 153.564   1
  -7  -7  19 134.584 125.578   6
   7  -7 -19 96.6608 142.011   5
  -7  -7  19 13.8102 104.314   7
  -7   7  19 88.5817 242.054   3
  -7   7  19 113.018 171.097   2
   7   7 -19 13.1762 119.579   4
  -7   7  20 2771.40 494.970   3
   7   7 -20 953.444 428.219   1
  -7  -7  20 2405.07 415.312   7
   7   7 -20 2668.44 420.875   4
  -7   7  20 2064.52 438.552   2
   7  -7 -20 2856.29 424.009   5
  -7  -7  20 2700.41 425.388   6
   7   7 -21 63.8037 159.096   1
   7   7 -21-119.009 116.524   4
  -7  -7  21-14.3549 105.385   7
  -7  -7  21 100.517 122.511   6
  -7  -7  22 144.579 110.859   7
   7   7 -22 110.805 135.790   4
   7   7 -22 44.6261 163.972   1
  -7  -7  22 284.400 118.896   6
  -7  -7  23 14.8231 111.347   7
   7   7 -23-23.4297 176.586   1
   7   7 -23 67.9058 140.859   4
  -7  -7  23 16.7639 125.911   6
   7   7 -24-50.0956 192.848   1
  -7  -7  24 30.4544 123.638   7
   7   7 -24 73.2819 147.806   4
  -7  -7  24-16.8355 130.086   6
   7   7 -25-78.9943 159.409   4
  -7  -7  25-31.3580 106.024   7
  -7  -7  25-16.8676 115.068   6
   7   7 -25-26.3385 185.837   1
  -7  -7  26 242.474 131.378   7
   7   7 -26 27.6953 220.221   1
   7   7 -26-21.2219 173.764   4
  -7  -7  26 445.481 132.322   6
   7   7 -27-116.485 210.443   1
  -7  -7  27-16.6981 127.649   7
  -7  -7  27 68.7676 117.131   6
   7   7 -27-22.3623 177.491   4
  -7  -7  28 34.4365 146.074   6
  -7  -7  28 259.216 143.178   7
   7   7 -28 23.7968 213.884   4
   7   7 -28 150.455 258.598   1
  -7  -7  29-53.7334 133.485   7
   7   7 -29 25.2984 202.115   4
  -7  -7  29 17.2395 115.346   6
   0  -8   0 981.603 177.130   8
   0  -8   0 1304.70 189.816   5
   0   8   0 704.141 200.871   2
   0  -8  -1-30.8029 36.5401   6
   0  -8   1-37.3420 38.5770   7
   0  -8   1 9.52323 64.7003   5
   0  -8  -1-8.99622 56.8681   5
   0  -8  -1-28.2064 42.5167   8
   0   8   1-29.5242 108.421   2
   0  -8   1-4.84789 35.2305   8
   0   8   1-35.3424 50.1947   4
   0   8  -1-41.5540 90.1367   2
   0  -8  -2 2435.27 450.912   8
   0   8  -2 2985.85 469.166   2
   0  -8   2 3407.77 461.783   5
   0  -8   2 2814.36 450.967   7
   0  -8   2 2840.42 449.199   8
   0   8   2 2267.72 452.253   4
   0   8  -2 2586.67 456.631   4
   0   8   2 2658.54 468.065   3
   0  -8  -3 21.5474 36.2095   6
   0  -8  -3 18.3095 27.9972   7
   0  -8   3-22.2329 39.9201   6
   0  -8   3 9.48225 33.8543   8
   0  -8  -3 8.68312 49.3721   5
   0  -8  -3-20.3401 48.2137   8
   0   8   3-45.4511 106.846   2
   0  -8   3-38.2276 44.7467   7
   0   8   3-41.7558 43.2796   4
   0   8  -3 37.9273 61.9528   4
   0   8   3 68.6322 96.8038   3
   0   8  -3-24.4709 77.5804   2
   0  -8  -4 570.539 112.496   6
   0   8  -4 535.264 138.113   2
   0   8   4 494.658 115.758   1
   0  -8  -4 545.661 124.213   5
   0   8   4 521.938 158.584   2
   0  -8   4 470.498 111.441   8
   0  -8  -4 796.732 109.805   7
   0   8  -4 695.208 135.838   4
   0   8   4 749.762 117.865   4
   0   8   4 558.160 149.637   3
   0  -8   4 744.126 119.121   6
   0  -8  -4 418.174 119.993   8
   0  -8   4 710.548 120.602   7
   0  -8  -5-106.418 60.2428   6
   0  -8   5 16.2747 63.2166   6
   0   8   5-295.886 146.882   3
   0  -8  -5-277.162 111.841   8
   0  -8  -5-164.231 91.2989   5
   0  -8   5-104.382 60.9106   7
   0   8   5-199.582 81.9304   4
   0  -8  -5-63.7936 47.1158   7
   0   8  -5-138.752 99.8898   4
   0  -8  -6 857.620 162.340   7
   0  -8   6 1119.51 173.119   6
   0   8   6 431.215 213.837   3
   0  -8   6 1475.70 175.392   7
   0  -8  -6 595.005 178.345   8
   0   8  -6 983.673 188.797   4
   0  -8  -6 891.324 177.436   5
   0   8   6 1027.75 214.095   2
   0  -8  -6 1311.10 166.727   6
   0   8   6 837.953 166.241   4
   0   8   6 692.186 163.255   1
   0  -8   7 35.3781 50.0057   6
   0  -8  -7 30.0061 71.7320   8
   0  -8   7-13.3981 96.4570   5
   0   8   7-55.3273 97.1599   3
   0  -8  -7-8.70015 56.8803   5
   0   8   7-32.9689 26.8830   1
   0  -8   7 59.2678 55.8911   7
   0   8   7-25.0040 37.2304   4
   0   8  -7-35.6837 77.3639   4
   0   8  -8 325.846 92.9028   4
   0  -8  -8 8.78866 53.1753   5
   0  -8  -8 53.7574 75.2620   8
   0   8   8 123.433 98.2521   3
   0  -8   8 138.383 62.1398   6
   0  -8   8 142.558 64.1501   7
   0  -8   9-46.8103 63.9152   7
   0   8   9-13.6066 76.9738   3
   0  -8  -9-53.4068 67.1962   5
   0  -8   9 38.4584 53.7591   6
   0   8  -9-79.1350 86.2701   4
   0  -8 -10 1267.01 216.213   8
   0  -8  10 1157.38 205.253   7
   0  -8 -10 1140.50 202.895   5
   0   8  10 398.865 214.494   3
   0  -8  10 1299.95 202.916   6
   0   8 -10 1205.32 221.868   4
   0   8  11 13.6629 90.2612   3
   0  -8  11-62.2488 64.2465   7
   0  -8 -11-40.0196 93.4148   8
   0  -8 -11-74.8479 63.6429   5
   0   8 -11 14.5209 107.919   4
   0  -8  11 41.5865 62.2583   6
   0  -8 -12 4642.19 822.534   8
   0  -8 -12 4978.47 813.252   5
   0   8  12 4751.81 820.084   3
   0  -8  12 5209.32 815.588   7
   0  -8  12 4699.53 813.967   6
   0   8  13-13.5389 82.8979   3
   0  -8 -13-70.2976 67.4460   5
   0  -8 -13 118.701 109.071   8
   0   8 -13-47.5460 103.214   4
   0  -8  13-44.9866 65.0274   6
  -8   0  13-82.9948 128.813   6
   0  -8 -14 4523.45 672.057   5
   0   8  14 3357.21 673.772   3
   0  -8 -14 4347.29 684.139   8
   0   8 -14 4213.40 683.276   4
  -8   0  14 4182.17 688.326   6
   0  -8  14 3606.36 669.059   6
  -8   0  15-89.5372 143.610   6
   0  -8  15 12.4253 80.1371   7
   0  -8 -15-44.1744 81.2063   5
   0   8  15-13.7790 88.8378   3
   0  -8 -15-82.3141 128.153   8
   0   8 -15-17.1486 132.107   4
   0  -8 -16 895.037 194.917   8
   0  -8 -16 791.830 156.259   5
   0  -8  16 859.179 164.572   7
  -8   0  16 400.774 182.401   6
   0   8  16 636.285 162.533   3
   0   8 -16 603.816 183.681   4
   0  -8 -17 12.4351 90.7743   5
   0  -8 -17 90.9211 143.505   8
  -8   0  17 109.040 135.569   6
   0  -8  17 27.2745 85.7858   7
   0   8  17 14.3125 100.697   3
   0  -8 -18-169.453 157.576   8
  -8   0  18 124.944 134.988   6
   0  -8 -18 66.1549 94.4684   5
   0   8  18-58.0061 93.3589   3
   0  -8 -19-71.3374 102.271   5
   0   8  19-89.3812 103.244   3
   0  -8 -19 77.9082 164.697   8
   0  -8 -20 245.779 118.535   5
   0   8  20 166.417 114.428   3
   0  -8 -21-145.585 195.485   8
   0  -8 -22-34.8582 133.629   5
   0   8  22 159.694 113.085   3
   0  -8 -22 20.8778 166.568   8
   0  -8 -23 73.9616 130.942   5
   0   8  23-16.3986 103.438   3
   0  -8 -23-86.1123 177.487   8
   0  -8 -24 1008.14 202.226   5
   0   8  24 616.813 168.448   3
   0  -8 -25-83.3111 152.838   5
   0  -8 -25-45.7132 183.060   8
   0   8  25-89.2702 117.926   3
   0   8  26 1686.91 301.528   3
   0  -8 -26 1301.99 330.153   8
   0  -8 -27 282.024 192.755   8
   0  -8 -28 703.766 236.937   8
  -1  -8   0 732.117 164.377   5
   1   8   0 680.943 177.627   3
   1  -8   0 908.867 186.150   5
   1  -8   0 1074.05 160.144   8
  -1  -8   0 952.804 159.202   7
  -1   8   0 873.535 183.052   2
   1   8   0 1038.11 187.105   2
  -1  -8   0 856.746 162.202   8
   1   8   1 3346.16 527.780   3
  -1  -8   1 3332.68 516.928   5
  -1  -8  -1 2742.30 515.905   5
   1  -8   1 3561.87 531.369   5
  -1   8   1 2860.21 520.170   4
  -1   8   1 2971.68 531.322   2
  -1  -8   1 3006.23 512.808   8
  -1   8  -1 3362.42 530.359   2
  -1  -8  -2 293.506 72.3600   8
  -1  -8   2 335.370 62.4953   7
  -1   8   2 349.208 118.183   2
  -1  -8  -2 232.765 68.4698   5
   1  -8   2 211.148 57.4419   8
   1   8  -2 320.193 109.305   2
  -1  -8   2 200.821 56.3114   8
   1   8  -2 126.211 69.3261   4
   1  -8  -2 210.782 59.5625   8
   1   8   2 315.641 92.3571   3
  -1   8  -2 344.057 82.4627   4
   1   8   2 268.034 58.7301   4
   1  -8  -2 292.181 59.9530   7
   1  -8   2 300.274 66.9511   7
   1   8   2 179.050 103.121   2
   1  -8  -2 316.031 91.6639   5
  -1   8  -2 305.815 92.8093   2
  -1  -8  -2 382.296 65.0379   6
   1  -8   2 286.086 102.807   5
  -1  -8   2 236.626 65.9502   6
  -1  -8  -2 192.038 56.4625   7
  -1  -8  -3 785.833 180.973   7
  -1  -8  -3 1118.61 187.913   5
   1  -8   3 1161.35 212.977   5
   1  -8  -3 878.391 197.321   5
   1   8   3 1176.30 206.122   3
   1  -8  -3 1206.83 181.686   7
   1  -8  -3 968.594 185.716   8
  -1   8   3 1501.48 221.562   2
   1  -8   3 936.833 190.132   7
  -1  -8   3 1413.24 186.418   7
   1   8  -3 741.796 187.882   4
  -1  -8  -3 1136.76 184.507   6
   1   8   3 1051.90 186.973   1
  -1  -8  -3 1052.10 193.999   8
  -1   8  -3 1216.88 197.705   4
  -1  -8  -4 607.074 123.446   8
   1   8   4 407.169 106.246   1
   1  -8   4 235.913 142.949   5
  -1  -8   4 683.508 111.031   6
   1  -8  -4 708.843 112.004   8
   1   8   4 362.180 128.728   3
  -1  -8  -4 575.623 113.740   5
  -1   8   4 366.885 151.239   2
  -1  -8  -4 640.760 107.366   7
  -1   8  -4 607.998 134.389   4
   1  -8  -4 479.984 98.9976   7
   1   8   4 467.857 99.6156   4
   1  -8  -4 610.351 127.000   5
   1  -8   4 664.726 113.807   7
   1   8  -4 321.853 114.892   4
  -1  -8  -4 717.413 106.846   6
  -1  -8   4 732.641 108.999   7
   1  -8  -5 133.956 50.4583   7
  -1  -8  -5 237.883 78.4328   7
   1   8   5 917.579 156.171   3
  -1  -8  -5 433.744 85.5780   5
  -1  -8   5-36.7383 61.6759   5
   1  -8  -5 425.085 119.605   5
   1  -8  -5 123.744 79.6620   8
  -1   8   5 1219.50 183.403   2
  -1   8  -5 634.662 131.225   4
   1   8   5 216.767 64.7197   1
  -1  -8  -5 48.8156 62.3927   6
  -1  -8   5 19.2957 64.5232   7
   1   8  -5 394.558 100.931   4
   1  -8   5 130.791 76.7262   7
  -1  -8   5 114.557 78.6422   6
   1   8   5 191.996 59.1398   4
  -1  -8  -5 699.749 127.146   8
  -1   8   6 246.598 157.532   3
  -1  -8   6 423.314 87.4330   7
   1   8   6 463.677 78.0580   1
  -1  -8   6 522.570 93.8233   5
   1  -8  -6 301.407 107.078   5
   1   8   6 219.247 115.023   3
  -1  -8  -6 307.107 80.7273   6
   1   8   6 454.755 75.9476   4
  -1  -8  -6 263.523 90.0387   7
   1  -8  -6 290.947 93.6685   8
  -1  -8  -6 167.240 124.725   8
  -1   8   6 205.797 173.659   2
   1  -8   6 581.806 99.5796   7
  -1  -8  -6 501.508 96.9531   5
   1  -8  -6 463.550 74.0173   7
   1   8  -6 532.969 110.412   2
   1   8  -6 297.338 106.385   4
  -1   8  -6 433.234 117.477   4
  -1  -8   6 370.336 90.5289   6
  -1   8   7 532.501 153.431   3
   1  -8  -7 348.990 118.866   5
  -1  -8  -7 532.095 100.193   6
  -1  -8   7 674.858 115.197   5
  -1  -8  -7 487.676 134.755   8
  -1  -8   7 583.399 108.050   7
  -1  -8  -7 500.261 111.586   5
   1   8   7 582.037 127.491   3
   1   8   7 502.032 94.2796   4
   1  -8  -7 494.376 113.942   8
   1   8  -7 619.141 126.495   4
  -1   8  -7 514.869 135.782   4
   1  -8   7 536.590 111.527   7
  -1  -8   7 784.757 117.616   6
   1   8   8 1472.39 244.922   3
  -1  -8   8 1079.78 236.694   5
   1  -8  -8 1409.33 238.633   5
  -1  -8  -8 1375.59 236.200   5
   1   8  -8 1372.25 248.519   4
  -1   8   8 657.740 252.903   3
  -1  -8   8 1498.02 236.639   6
   1  -8   8 1728.11 240.965   7
  -1  -8   8 1086.18 229.528   7
  -1  -8  -8 1706.18 259.528   8
  -1   8  -8 1372.43 250.249   4
  -1  -8   9 753.979 141.088   6
  -1  -8   9 723.073 136.609   7
  -1  -8   9 691.084 144.194   5
  -1   8   9 672.862 171.809   3
   1  -8  -9 789.860 143.017   5
   1   8  -9 856.997 162.002   4
   1   8   9 648.660 151.730   3
  -1  -8  -9 557.800 168.552   8
   1  -8  -9 742.783 146.381   8
  -1  -8  -9 584.038 136.817   5
   1  -8   9 725.513 143.470   7
  -1   8   9 905.755 190.951   2
   1  -8 -10 1125.11 201.558   5
  -1  -8 -10 1099.65 197.650   5
  -1   8  10 979.945 218.867   3
   1   8 -10 979.972 216.672   4
   1  -8 -10 909.073 202.325   8
  -1   8  10 1336.91 233.440   2
  -1  -8  10 1270.85 194.765   7
   1   8  10 895.343 205.070   3
  -1  -8  10 1039.07 195.838   6
  -1   8  11 2587.02 505.587   3
   1   8  11 2489.71 495.007   3
   1  -8 -11 3055.81 493.792   5
  -1   8  11 3664.45 521.460   2
   1   8 -11 3593.39 506.688   4
  -1  -8 -11 2421.81 509.397   8
   1  -8 -11 2885.82 495.633   8
   1  -8 -12 1180.60 206.500   8
  -1   8  12 731.895 205.245   3
   1  -8 -12 1074.17 194.103   5
   1   8  12 914.571 199.601   3
   1   8 -12 1433.68 221.974   4
  -1  -8  12 1328.01 192.320   7
  -1   8  12 1184.37 235.565   2
  -1  -8 -12 680.468 191.025   5
  -8  -1  12 1118.97 221.157   6
  -1  -8 -12 688.070 224.702   8
  -1  -8  12 1086.43 190.520   6
   1   8  13 5243.19 841.899   3
  -1  -8 -13 5178.65 839.316   5
  -1   8  13 4700.12 845.242   3
   1   8 -13 5141.47 850.137   4
  -1  -8  13 4958.17 837.350   6
  -1  -8 -13 4809.72 853.328   8
  -1  -8  14 313.300 92.2359   6
  -1  -8 -14 168.705 157.437   8
  -1  -8  14 369.667 99.7925   7
  -8  -1  14 217.288 149.743   6
  -1   8  14 479.798 131.074   3
  -8   1  14 775.413 155.931   6
   1  -8 -14 360.497 121.372   8
   1   8  14 330.116 108.462   3
   1  -8 -14 319.178 98.6577   5
   1   8 -14 568.429 148.812   4
  -1  -8 -14 400.972 111.237   5
  -1   8  15 3512.65 536.480   3
  -1  -8  15 3016.58 523.469   7
  -1  -8 -15 2915.21 548.856   8
   1   8  15 2447.58 526.738   3
   1  -8 -15 3153.19 533.669   8
  -8  -1  15 2736.09 548.216   6
  -1  -8  15 3012.06 521.584   6
   1   8 -15 3019.14 540.304   4
  -1  -8 -15 3578.43 530.133   5
  -8   1  15 3644.48 549.511   6
   8   1 -16 557.845 113.216   1
  -1  -8  16 383.171 121.090   6
   1  -8 -16 483.706 124.512   5
  -8   1  16 700.363 182.899   6
  -1  -8 -16 422.571 178.761   8
  -8  -1  16 646.567 179.213   6
   1  -8 -16 572.832 154.998   8
   1   8  16 370.661 135.981   3
  -1  -8 -16 633.583 145.426   5
  -1   8  16 519.133 144.321   3
  -1  -8  16 687.180 129.095   7
   1   8 -16 707.217 174.163   4
   8   1 -17 112.595 67.5265   1
  -1  -8  17 84.2954 82.3975   6
  -1  -8 -17-124.831 146.312   8
  -1  -8  17 125.424 80.5523   7
  -1  -8 -17-14.2379 101.589   5
   1   8  17 125.331 97.7826   3
   1  -8 -17 92.0494 86.1758   5
   1  -8 -17 252.601 128.554   8
  -8  -1  17 73.1361 137.634   6
  -8  -1  17-37.4791 115.487   7
   1   8 -17 128.706 139.405   4
  -1   8  17 223.280 107.821   3
  -1  -8  18 662.018 138.382   6
  -8  -1  18 558.547 181.839   6
   8   1 -18 693.597 126.797   1
   1  -8 -18 308.315 161.340   8
  -1  -8 -18 472.566 198.997   8
   1  -8 -18 722.066 143.979   5
  -1   8  18 377.274 149.387   3
   1   8  18 675.018 141.372   3
  -8  -1  18 286.759 165.103   7
  -1  -8 -18 650.744 154.316   5
   1   8 -18 762.477 195.703   4
   1  -8 -19 49.5500 141.887   8
  -8  -1  19-19.4299 128.642   7
  -8  -1  19 88.0458 131.196   6
   1  -8 -19 63.3137 95.3486   5
  -1  -8 -19-16.2047 116.684   5
   8   1 -19 77.0870 74.5817   4
   1   8  19-14.6428 91.0784   3
   8   1 -19 187.549 70.4779   1
  -1   8  19 30.6063 103.437   3
  -8  -1  20 472.013 160.529   7
  -1   8  20 455.296 130.712   3
  -1  -8  20 452.038 127.271   7
   1  -8 -20 350.984 132.161   5
  -8  -1  20 432.871 155.127   6
  -1  -8  21 162.223 121.083   7
  -1  -8 -21 672.737 253.453   8
   1   8 -21 336.799 192.583   4
  -1  -8 -22 142.871 195.669   8
  -1  -8  22 548.142 126.550   7
  -1  -8 -22 389.224 154.647   5
   1  -8 -22-18.4138 162.506   8
   1   8  22 179.804 110.335   3
   1  -8 -23 369.533 164.371   8
   1  -8 -23 66.3750 131.420   5
  -1  -8 -23 244.132 199.857   8
   1   8  23 273.553 110.959   3
  -1   8  23 230.316 124.666   3
   1  -8 -24 229.749 173.673   8
  -1   8  24 85.2201 116.634   3
   1  -8 -24 283.673 131.858   5
  -1  -8 -24 98.3068 195.938   8
  -1   8  25 1434.56 269.171   3
   1  -8 -25 1474.89 275.301   5
   1  -8 -25 872.897 285.960   8
  -1  -8 -25 1382.79 314.650   8
  -1  -8 -26-128.425 192.861   8
  -1   8  26-36.1429 111.635   3
   1  -8 -26 40.0700 151.552   5
   1  -8 -26 267.162 180.465   8
   1  -8 -27 1319.16 268.101   8
   1  -8 -27 1083.21 255.877   5
  -1  -8 -27 720.224 278.860   8
   2   8   0 10057.3 1558.82   3
   2  -8   0 8513.19 1566.62   5
  -2  -8   0 9557.78 1551.65   5
   2   8   0 8649.64 1554.47   1
   2   8   0 9400.31 1550.24   4
  -2  -8   0 9432.12 1551.30   7
  -2   8   0 10201.7 1566.18   2
  -2  -8   0 9708.73 1554.31   6
   2   8  -1 2115.31 352.638   3
   2   8   1 1518.51 349.435   3
   2  -8  -1 2072.87 367.951   5
  -2  -8  -1 1802.08 342.284   5
   2  -8   1 2382.60 369.236   5
  -2  -8   1 1974.23 343.956   8
   2  -8  -1 2227.05 342.535   8
   2   8  -1 1830.10 341.739   4
   2   8  -1 2427.79 358.631   2
  -2  -8  -1 2152.61 342.858   7
  -2   8   1 2472.71 365.575   2
  -2  -8   1 2382.01 346.914   6
   2   8   1 1759.15 345.390   1
  -2  -8   1 2016.65 342.725   5
   2   8  -1 2150.26 350.591   1
   2   8   2 3477.57 515.087   3
   2  -8  -2 2841.53 521.221   5
  -2  -8   2 3216.83 505.181   8
  -2  -8  -2 3033.63 514.291   8
   2  -8  -2 2954.04 503.741   8
   2   8  -2 3104.90 505.110   4
  -2  -8   2 2990.80 504.633   7
   2  -8  -2 2611.88 505.331   7
  -2   8   2 3404.05 526.321   2
   2   8   3 110.541 38.1651   4
  -2   8   3-149.663 134.261   2
   2  -8  -3 97.0985 97.9377   5
   2  -8  -3 259.296 50.8638   8
  -2  -8  -3 197.607 51.6430   5
   2   8   3 31.1179 80.3730   3
  -2  -8   3 149.056 51.0306   7
  -2  -8  -3 23.5531 107.634   8
   2   8  -3-60.0298 80.6983   4
  -2  -8   3 132.516 59.8984   6
   2  -8  -3 80.1757 46.6704   7
  -2  -8  -3-50.8777 66.1645   6
   2  -8  -4 1281.99 190.696   5
  -2  -8  -4 989.898 153.518   5
  -2  -8   4 320.718 143.040   5
   2   8  -4 1538.96 196.556   3
   2  -8  -4 620.291 143.465   8
   2  -8  -4 1035.09 145.635   7
  -2  -8  -4 994.500 165.528   7
  -2   8   4 1311.65 220.798   2
  -2  -8   4 994.230 164.620   6
   2   8   4 847.705 145.450   1
  -2  -8  -4 712.782 156.343   6
   2   8   4 1034.21 169.509   3
  -2  -8   4 497.553 147.744   7
  -2  -8  -4 833.894 189.820   8
  -2  -8  -5 1457.32 231.901   5
   2   8  -5 1246.76 242.794   3
   2  -8  -5 1246.91 245.116   5
   2   8  -5 1329.28 245.524   2
  -2   8   5 1566.11 273.783   2
  -2  -8  -5 1289.70 233.104   6
  -2  -8   5 1108.12 235.195   6
   2   8  -5 1265.15 233.627   4
  -2  -8   5 1500.83 224.342   8
   2  -8  -5 1722.92 224.157   7
  -2  -8  -5 1077.37 248.200   8
  -2  -8  -5 797.780 233.880   7
   2   8   5 1208.56 240.124   3
  -2  -8   5 1095.62 225.176   5
  -2  -8   5 1260.90 229.175   7
   2   8  -6 668.008 124.258   2
   2  -8  -6 611.226 92.0743   7
  -2  -8   6 464.097 96.1765   5
   2   8  -6 400.338 110.446   4
  -2  -8  -6 302.928 131.030   8
   2   8   6 509.371 115.464   3
  -2  -8  -6 476.392 103.541   5
  -2  -8   6 577.401 93.6267   8
  -2   8   6 492.031 152.594   2
  -2  -8   6 538.473 101.843   7
   2  -8  -6 575.371 123.945   5
  -2  -8  -6 561.449 107.380   6
   2   8  -6 409.976 117.707   3
  -2  -8   6 386.914 104.560   6
   2  -8  -6 371.703 102.391   8
  -2  -8  -7 2631.04 488.776   5
   2  -8  -7 3207.37 496.799   5
  -2  -8   7 2491.83 482.845   5
  -2  -8   7 3347.37 483.123   8
  -2  -8  -7 2782.22 508.239   8
   2   8  -7 2746.15 491.774   4
  -2  -8  -7 2581.00 487.358   6
   2   8  -7 3649.81 495.150   2
  -2  -8   7 3044.39 491.241   6
  -2   8   8 16.8664 129.135   3
  -2  -8  -8 115.531 60.1638   5
   2   8  -8-8.42767 73.9472   3
   2  -8  -8 79.3388 76.5189   5
  -2  -8  -8 111.738 109.477   8
  -2  -8   8 13.7726 38.7531   5
  -2  -8   8 52.6497 46.7482   7
   2   8   8 22.6060 68.6394   3
  -2   8   8-18.9166 129.655   2
   2   8  -8 49.6558 76.2589   4
  -2  -8   8 47.4569 60.9163   6
   2  -8  -9 2697.79 525.423   5
  -2  -8  -9 2940.02 538.324   8
  -2   8   9 3427.21 546.827   2
  -2  -8   9 3196.27 518.240   7
   2   8  -9 3458.87 526.922   4
   2   8   9 3058.08 523.861   3
  -2   8   9 2820.36 540.879   3
  -2   8  10 1611.77 343.170   3
   2  -8 -10 1871.93 317.702   8
   2   8  10 1853.57 324.799   3
  -2   8  10 1787.98 351.073   2
  -2  -8  10 1844.21 314.662   7
   2   8 -10 1949.18 326.816   4
  -2  -8  10 1807.56 317.612   6
   2   8  11 2429.01 426.583   3
  -2   8  11 2525.18 446.346   3
   2  -8 -11 2271.80 420.646   8
  -2   8  11 1539.50 444.050   2
   2   8 -11 2390.16 429.860   4
  -2  -8  11 2933.44 420.445   7
  -8  -2  11 2790.81 448.944   6
  -2   8  12 3457.63 715.354   3
  -2  -8 -12 4232.20 699.435   5
   2   8  12 4303.29 702.445   3
   2   8 -12 3623.67 705.271   4
  -2  -8  12 4578.05 698.376   6
  -2  -8 -12 4448.43 721.431   8
   2   8 -13 997.289 238.856   4
  -2  -8 -13 1259.67 267.032   8
   2  -8 -13 1244.47 230.318   5
   2  -8 -13 1414.87 231.261   8
  -2   8  13 1169.81 249.652   3
  -2   8  13 1364.16 270.648   2
  -2  -8 -13 1229.42 232.173   5
   2   8  13 1286.18 231.504   3
  -8  -2  13 1055.09 259.600   6
  -2  -8  13 1262.87 226.346   6
   2   8  14 5280.73 979.430   3
  -2   8  14 6047.05 990.300   3
  -2  -8 -14 5883.14 982.082   5
  -2   8  14 5506.76 994.438   2
  -2  -8  14 6506.77 976.353   7
   2   8 -14 6709.73 990.279   4
  -2  -8  14 5249.13 975.848   6
   2  -8 -14 5995.83 978.730   8
   2  -8 -15 984.531 278.950   8
   2   8  15 1760.31 283.280   3
  -2   8  15 1557.85 338.456   2
  -2   8  15 1192.98 298.350   3
  -2  -8 -15 1521.72 288.983   5
   2   8 -15 1823.84 310.488   4
  -2  -8 -15 2114.60 334.191   8
  -2  -8  15 1382.59 271.471   7
  -8  -2  15 1761.63 305.725   7
   2  -8 -15 1812.96 283.224   5
   8   2 -15 1647.40 268.858   1
  -2  -8  15 1624.10 273.740   6
  -8   2  15 1446.26 302.611   6
  -8  -2  15 963.388 317.085   6
  -2   8  16 1738.89 392.260   3
   2  -8 -16 2369.84 379.914   5
   2   8 -16 2400.70 400.231   4
   2  -8 -16 1971.78 382.069   8
  -2  -8  16 2224.43 377.406   6
  -2  -8 -16 2490.36 423.719   8
  -8  -2  16 1947.01 396.323   7
  -2  -8  16 2498.55 379.317   7
  -2   8  16 2568.98 422.731   2
   2   8  16 1834.42 381.537   3
  -8  -2  16 2393.42 402.797   6
  -2  -8 -16 2012.69 388.409   5
  -2   8  17 1530.48 278.956   3
  -2  -8  17 1666.90 258.797   6
   2  -8 -17 1282.62 266.967   8
  -8  -2  17 1399.18 293.523   6
   8   2 -17 1368.53 249.840   1
  -2  -8 -17 1350.82 310.967   8
  -2  -8  17 1551.10 258.041   7
  -8  -2  17 1188.88 283.548   7
  -2   8  17 1364.51 306.228   2
   2  -8 -17 1343.73 260.524   5
   2   8  17 1439.82 262.939   3
  -2  -8 -17 1264.14 273.228   5
   2   8 -17 1375.69 289.324   4
  -2   8  18 180.896 162.112   2
   2   8 -18 37.6787 144.538   4
  -2  -8  18 11.9609 77.4069   6
  -8  -2  18 19.1084 118.007   7
   8   2 -18 58.7789 66.7691   1
  -2  -8 -18-69.0312 111.117   5
   2  -8 -18 11.5381 89.4632   5
   2   8  18 43.5631 100.266   3
  -2   8  18-16.1470 114.360   3
   2  -8 -18-92.3254 117.363   8
  -2  -8 -18-46.3048 184.374   8
   8   2 -18 25.4502 63.0102   4
  -8  -2  18-108.116 137.271   6
   8   2 -19 1406.23 217.351   4
   2  -8 -19 1119.02 224.550   5
  -8  -2  19 1444.87 253.143   6
  -8  -2  19 1158.66 252.422   7
   2   8  19 886.194 224.618   3
  -2   8  19 774.884 236.016   3
  -2  -8 -19 1277.45 251.875   5
   2  -8 -19 1288.38 239.167   8
  -2   8  19 970.548 281.592   2
   8   2 -19 1223.13 220.210   1
   2  -8 -20-25.1416 99.5770   5
   8   2 -20 48.5629 75.9821   4
  -8  -2  20-35.0412 108.309   6
  -2   8  20-65.1453 121.478   3
  -8  -2  20 18.8831 134.919   7
   8   2 -20-21.6215 77.0419   1
  -2  -8  20-23.6226 83.4523   7
  -8  -2  21 1296.49 236.488   6
  -8  -2  21 920.254 259.383   7
  -2  -8  21 991.962 212.953   6
   8   2 -21 1166.90 208.472   4
  -2  -8 -21 1343.93 301.232   8
   8   2 -21 977.551 212.335   1
  -2  -8  21 937.374 213.266   7
   2   8 -21 1158.30 279.656   4
  -2  -8  22 68.4640 90.9880   6
  -2  -8 -22 25.3758 198.175   8
   2  -8 -22 95.3794 143.786   8
  -2   8  22-101.083 203.300   2
  -2  -8  22-25.7799 99.7895   7
   2   8 -22 195.368 164.296   4
  -2  -8  23 326.044 113.284   6
  -2  -8  23 528.310 126.491   7
  -2   8  23 186.771 137.307   3
   2  -8 -23 304.776 150.648   8
   2  -8 -23 89.2115 119.515   5
  -2  -8 -23 620.281 231.895   8
  -2   8  23 78.2619 213.173   2
   2   8 -23 22.4736 170.321   4
   2  -8 -24 835.056 202.664   8
  -2   8  24 908.716 198.279   3
   2  -8 -24 686.688 187.609   5
  -2   8  24 565.936 259.190   2
  -2  -8  24 807.621 182.946   7
   2   8 -24 898.534 231.152   4
   2  -8 -25 136.995 146.559   5
  -2  -8  25 642.750 143.226   7
   2  -8 -25 330.497 159.183   8
  -2   8  25 195.733 129.161   3
  -2   8  25 334.341 222.019   2
   2   8 -25 164.911 191.535   4
   2  -8 -26 1431.56 402.838   8
   2  -8 -26 1770.09 396.273   5
  -2  -8  27 580.247 168.459   7
   3   8   0 1121.87 188.588   1
  -3  -8   0 1445.65 184.579   5
   3   8   0 1341.73 193.305   3
  -3  -8   0 431.681 203.661   8
  -3  -8   0 477.067 195.287   6
  -3  -8   0 835.391 188.944   7
   3   8   1 8171.61 1508.61   3
  -3  -8   1 9363.68 1506.83   7
   3  -8  -1 10767.2 1527.85   5
  -3  -8   1 9174.69 1503.08   5
  -3  -8  -1 8311.96 1503.81   5
  -3  -8  -1 8275.36 1508.69   7
   3   8  -1 10016.3 1509.53   3
  -3  -8   1 9455.46 1511.04   8
   3   8  -1 9624.18 1502.95   4
   3   8   1 9581.73 1505.94   1
  -3  -8   1 8658.94 1511.02   6
  -3  -8  -2 621.456 153.444   5
   3  -8  -2 788.613 223.619   5
  -3  -8  -2 840.881 180.183   7
  -3  -8  -2 563.301 190.540   6
   3   8   2 1006.99 169.336   3
   3   8   2 851.419 152.844   1
   3   8  -2 952.194 190.590   1
  -3   8   2 855.933 193.316   2
   3   8   3 4077.55 619.725   3
  -3  -8  -3 3805.26 614.040   5
  -3  -8  -3 3780.40 629.237   8
  -3  -8  -3 3380.35 621.581   7
   3  -8  -3 3519.98 635.208   5
  -3   8   3 2489.62 627.059   2
  -3  -8   3 4240.73 622.387   6
   3   8  -4 881.774 116.491   3
   3  -8  -4 373.008 146.250   5
  -3   8   4 472.767 149.623   2
  -3  -8   4 335.311 111.075   7
  -3  -8   4 565.368 102.317   5
   3   8  -4 384.646 128.813   1
   3   8   4 486.359 119.398   3
  -3  -8   4 726.808 129.740   6
   3   8  -4 681.525 111.639   4
  -3  -8  -4 553.311 147.269   8
  -3  -8  -4 517.367 114.708   5
   3  -8  -4 507.748 107.047   8
  -3   8   5 88.1898 104.694   2
  -3  -8   5 9.28249 38.6283   8
  -3  -8  -5-25.6047 52.7138   5
  -3  -8  -5-27.7256 71.6527   6
  -3  -8   5-4.47186 30.6227   5
   3   8   5-50.8942 65.8655   3
  -3  -8  -5-74.2317 103.830   8
   3   8  -5-69.3238 83.1352   2
  -3  -8   5 71.2436 71.7840   6
   3   8  -5 14.2785 53.4134   4
   3  -8  -5 44.2040 42.0669   8
   3  -8  -5-15.2835 89.6463   5
  -3  -8   5 76.8697 48.6748   7
   3   8  -5 22.4414 58.5968   3
   3   8  -5-74.8227 81.8797   1
  -3  -8  -6 1234.89 194.993   6
  -3  -8   6 1111.39 180.069   5
  -3  -8  -6 959.456 191.940   5
   3   8  -6 1162.42 208.641   1
   3   8  -6 1074.61 199.669   2
  -3  -8  -6 898.098 217.399   8
   3   8  -6 1313.23 191.783   3
   3   8  -6 1176.53 190.534   4
  -3  -8   6 998.903 186.960   7
   3   8   6 667.727 194.151   3
   3  -8  -6 752.319 212.334   5
  -3  -8   6 955.737 193.866   6
  -3  -8   7-7.18053 31.2674   8
   3   8  -7-33.1571 59.9019   4
   3  -8  -7 55.6564 92.2246   5
   3   8  -7 9.27551 74.1032   2
  -3  -8  -7 65.2748 127.807   8
  -3  -8  -7 19.8228 59.1729   5
   3   8  -7-6.82154 53.6062   3
  -3  -8   7-29.2238 47.9659   7
   3   8   7-32.0925 65.6964   3
  -3  -8  -7 33.6667 66.1412   6
  -3   8   7 95.6413 123.144   2
  -3  -8   7 20.7694 66.1829   6
  -3  -8   7 7.73633 32.7543   5
   3   8   8 3581.85 727.628   3
   3  -8  -8 4720.74 723.257   8
   3   8  -8 4854.33 728.186   4
  -3  -8  -8 4339.98 725.340   6
  -3   8   8 3938.21 744.400   2
  -3  -8  -8 4203.70 741.529   8
   3  -8  -9 400.998 122.465   5
  -3  -8  -9 541.719 112.087   5
  -3   8   9 240.462 162.599   2
   3   8   9 237.069 97.4904   3
  -3  -8  -9 249.298 143.893   8
   3   8  -9 437.997 109.314   4
  -3  -8   9 549.706 97.8446   7
  -3  -8   9 426.563 107.660   6
   3  -8  -9 456.371 96.0129   8
   3   8  10 1775.26 291.047   3
   3  -8 -10 1569.12 294.384   5
   3  -8 -10 1644.28 282.245   8
  -3   8  10 1452.29 321.997   2
  -3  -8 -10 1544.66 314.925   8
   3   8 -10 1642.97 289.986   4
  -3  -8  10 1767.07 282.210   7
  -3  -8  10 1786.59 290.456   6
  -8  -3  10 1279.62 317.702   6
  -3  -8 -10 1417.80 288.989   5
   3  -8 -11 4608.18 815.055   5
   3   8  11 4673.30 811.619   3
  -3  -8  11 5222.32 807.244   7
  -3  -8 -11 4643.41 814.227   5
  -3  -8  11 4905.94 811.146   6
   3  -8 -12 1011.16 185.989   8
   8   3 -12 855.604 181.030   1
   3   8 -12 997.641 201.825   4
  -3   8  12 783.651 227.379   3
   3  -8 -12 1201.92 201.300   5
  -3   8  12 1398.95 250.545   2
  -3  -8 -12 1116.32 201.345   5
  -8  -3  12 903.086 234.244   6
   3   8  12 936.450 193.238   3
  -3  -8  12 1106.18 190.753   6
  -3   8  13 7487.48 1248.83   3
   3   8  13 6763.65 1233.81   3
   3   8 -13 7948.99 1238.20   4
   3  -8 -13 7326.56 1229.95   8
  -3  -8  13 7418.05 1233.43   6
   8   3 -13 7714.21 1229.38   1
  -3   8  14 702.126 227.558   2
   3  -8 -14 924.375 188.360   5
  -3  -8 -14 518.721 229.109   8
  -3  -8 -14 818.128 196.114   5
   8   3 -14 1209.25 177.511   1
   3  -8 -14 880.031 181.930   8
  -8  -3  14 923.312 216.239   7
  -3   8  14 1077.19 230.317   3
   3   8  14 1032.11 190.961   3
  -3  -8  14 977.173 177.922   7
  -3  -8  14 972.366 185.596   6
   3   8 -14 641.081 198.668   4
  -8  -3  14 895.345 225.323   6
  -3   8  15 3990.85 796.964   3
   3   8  15 4416.30 783.894   3
  -3  -8 -15 5804.71 815.697   8
  -8  -3  15 3111.52 793.467   7
  -3  -8  15 5378.61 779.520   7
   3   8 -15 4978.10 791.279   4
  -3  -8  15 4950.51 782.022   6
  -3   8  15 3569.38 801.459   2
   3  -8 -15 4861.83 780.012   8
   8   3 -16 972.468 184.898   1
   3  -8 -16 934.844 190.828   8
  -3   8  16 687.530 222.369   3
   3  -8 -16 1135.62 191.505   5
   3   8  16 1152.99 194.663   3
  -3  -8 -16 528.568 244.327   8
  -3  -8  16 1211.36 188.464   7
  -3   8  16 794.335 254.195   2
   3   8 -16 816.232 216.290   4
  -8  -3  16 662.440 222.713   6
  -8  -3  16 653.664 219.319   7
  -3  -8  16 1098.27 189.434   6
  -3  -8  17 767.776 152.312   6
  -3   8  17 642.355 192.194   3
  -3  -8  17 944.404 152.279   7
   3  -8 -17 587.848 157.851   5
   3  -8 -17 706.853 161.519   8
  -3   8  17 720.187 216.818   2
  -3  -8 -17 825.266 232.870   8
  -8  -3  17 774.380 193.840   7
   8   3 -17 942.502 147.826   4
   3   8 -17 979.538 197.163   4
   8   3 -17 361.524 142.689   1
   3   8  17 763.741 163.495   3
  -8  -3  17 592.330 184.578   6
  -3  -8  18 967.569 203.576   6
   3  -8 -18 844.369 205.052   5
   3   8 -18 1248.82 248.642   4
  -3   8  18 979.943 231.069   3
   3  -8 -18 1262.19 212.338   8
  -8  -3  18 1074.83 242.488   7
  -3   8  18 758.026 261.402   2
   8   3 -18 836.474 203.567   1
   8   3 -18 1174.44 200.209   4
   3  -8 -19 107.434 98.4669   5
  -3   8  19-17.9697 123.560   3
   3  -8 -19 12.2311 99.9631   8
   8   3 -19 80.2083 84.1682   1
   8   3 -19-85.6987 81.6194   4
  -3  -8  19 44.7492 82.8091   7
  -8  -3  19 107.140 133.608   6
  -8  -3  19-55.1647 136.046   7
  -3   8  19 48.6098 187.792   2
  -3  -8  20 606.004 128.448   6
   8   3 -20 523.148 117.743   4
   8   3 -20 447.940 121.559   1
  -3   8  20 338.401 162.191   3
  -8  -3  20 421.519 162.800   6
  -3  -8  20 232.654 126.650   7
   3  -8 -20 548.972 138.243   5
   3   8 -20 360.627 174.029   4
  -8  -3  20 636.642 170.628   7
  -3  -8  21-64.8945 89.9943   6
   8   3 -21 33.0023 95.0182   4
   8   3 -21 12.5523 92.8451   1
  -3  -8  21-24.2181 89.2265   7
   3   8 -21 104.125 179.372   4
  -8  -3  21 17.5146 135.308   6
  -8  -3  21 72.1282 131.851   7
  -3  -8  22 133.511 90.6104   6
   3   8 -22 43.0598 170.696   4
   3  -8 -22-13.8338 121.885   8
  -3   8  22 26.2812 206.618   2
  -3  -8  22 214.496 108.854   7
   8   3 -22 337.025 109.293   4
  -8  -3  22 437.578 146.512   6
  -3  -8  23 151.715 99.2764   6
  -3  -8  23 402.371 119.635   7
   3  -8 -23 418.867 136.338   8
   3  -8 -23 192.554 119.826   5
  -3   8  23 54.1982 208.594   2
   3   8 -23 222.329 181.531   4
  -3   8  23 288.472 137.564   3
   3  -8 -24 173.431 123.314   5
  -3   8  24 164.683 135.541   3
   3  -8 -24 241.359 122.951   8
  -3   8  24 363.672 224.540   2
  -3  -8  24 170.512 98.1958   6
  -3  -8  24 460.652 124.870   7
   3   8 -24 69.0590 175.702   4
  -3  -8  25 2292.10 314.244   7
   3  -8 -25 1934.43 316.615   5
  -3  -8  25 1615.58 305.520   6
  -3   8  25 909.967 318.635   3
  -3   8  25 693.882 378.457   2
   3  -8 -25 1688.35 330.815   8
   3   8 -25 1725.43 354.366   4
  -3  -8  26 121.530 106.445   6
  -3  -8  26 337.000 135.541   7
   3   8 -26 268.159 210.692   4
  -3  -8  27 1517.16 324.022   7
   3   8 -27 2215.19 366.749   4
  -3  -8  28 32.0774 126.989   7
  -3  -8  29 1170.86 253.800   7
  -3  -8  30 175.133 142.820   7
  -4  -8   0 9837.15 1647.18   6
   4   8   0 10250.4 1638.49   1
   4   8   0 9891.93 1640.55   3
  -4  -8   0 10351.6 1646.08   7
  -4  -8   0 9173.06 1646.78   8
  -4  -8   1 23.2064 89.0871   8
   4   8   1 65.0835 42.0908   1
   4   8   1 89.0175 58.7490   3
   4   8  -1 8.30847 52.5174   3
  -4  -8  -1 76.5174 48.7391   5
   4   8  -1 32.2433 56.7409   1
  -4  -8  -1-12.7212 91.5722   8
  -4  -8  -1 61.9159 89.5151   6
  -4  -8   1 75.8598 89.9178   6
  -4  -8  -1 36.7754 79.3520   7
  -4  -8   1 10.3647 70.1554   7
  -4  -8   1 68.2225 47.7861   5
   4   8   2 7295.23 1213.47   3
  -4  -8   2 7211.85 1213.68   7
   4   8  -2 7180.67 1211.96   1
  -4  -8  -2 7400.33 1218.52   7
   4   8   2 7498.03 1208.14   1
  -4  -8  -3-9.52753 56.9048   5
   4   8  -3-9.87797 62.6530   1
  -4  -8  -3 27.9617 95.2678   8
  -4  -8   3-36.3857 63.6349   7
  -4  -8   3-12.5390 84.2938   6
   4   8   3 9.51806 57.8305   3
  -4  -8  -3-23.2394 83.3160   6
   4   8  -4 1270.22 189.399   3
   4   8   4 1100.25 194.098   3
   4  -8  -4 1059.37 220.220   5
  -4  -8   4 1082.78 185.546   5
  -4  -8  -4 679.724 200.733   6
  -4  -8  -4 991.544 193.209   5
   4   8  -4 794.392 194.085   1
  -4  -8   4 859.716 203.951   6
   4   8  -4 1175.35 186.275   4
  -4  -8   4 1049.22 192.476   7
  -4  -8  -4 1025.78 210.449   8
  -4   8   4 1484.25 224.071   2
   4  -8  -5 17.8749 113.400   5
  -4  -8  -5 92.0279 105.958   8
   4   8  -5 62.0498 48.7692   3
   4   8  -5 81.3262 53.7479   4
   4   8   5-10.1976 56.6017   3
  -4  -8   5 49.2039 40.9426   5
  -4  -8   5-51.0043 56.2058   7
  -4  -8  -5-10.6727 67.0765   5
  -4  -8   5 27.9347 59.0859   8
  -4  -8  -5 52.3960 77.0135   6
  -4  -8   5 49.3939 84.9646   6
   4   8  -5-81.5601 77.6835   1
  -4  -8  -6 48.0886 104.744   8
   4   8   6-10.6281 61.9794   3
  -4  -8   6-5.82405 38.8181   5
   4   8  -6-12.5896 79.0137   1
  -4  -8   6-21.6207 48.4943   8
   4   8  -6-32.1300 47.0145   3
  -4   8   6-35.8957 123.919   2
   4   8  -6-14.4527 50.3471   4
  -4  -8   6-16.7726 59.8992   7
   4  -8  -6 35.0731 121.079   5
   4   8  -6 52.3762 75.6241   2
  -4  -8  -6-22.6662 51.6163   5
  -4  -8   6 12.1775 80.3486   6
  -4  -8   7 606.969 123.468   6
   4  -8  -7 324.481 101.823   8
   4  -8  -7 333.221 140.745   5
   4   8  -7 393.142 132.612   1
  -4  -8  -7 663.500 159.020   8
  -4  -8   7 583.235 113.742   7
   4   8  -7 664.745 109.512   4
   4   8   7 547.493 114.038   3
  -4  -8  -7 457.724 118.955   5
  -4   8   7 541.422 149.800   2
  -4   8   8 155.251 117.863   2
   4  -8  -8 15.7722 96.8624   5
   4  -8  -8-7.07908 51.7630   8
  -4  -8   8 36.3635 73.2031   6
  -4  -8   8 25.1439 60.0853   7
  -4  -8  -8-50.8707 74.5916   5
   4   8  -8-66.2472 61.7128   4
  -4  -8  -8 35.4020 112.234   8
   4   8   8-22.6385 68.3601   3
   4   8  -8 14.3864 90.7464   1
  -4   8   9 319.720 143.711   2
  -4  -8   9 372.236 94.6358   7
   4   8  -9 338.259 135.566   1
   4   8  -9 525.134 102.346   4
  -8  -4   9 545.899 161.762   6
  -4  -8  -9 308.608 113.687   5
   4   8   9 327.915 101.182   3
  -4  -8  -9 317.765 137.458   8
   4  -8  -9 428.295 133.223   5
  -4  -8   9 363.751 110.686   6
   4  -8  -9 456.512 91.6735   8
   4   8  10 2363.44 442.508   3
  -4   8  10 2215.20 465.244   2
   4   8 -10 1691.90 449.327   1
   4  -8 -10 2810.49 437.022   8
  -4  -8 -10 2773.47 468.380   8
  -4  -8  10 2862.03 439.093   7
   4  -8 -10 2762.28 452.562   5
  -4  -8  10 2929.24 446.671   6
  -8  -4  10 3175.11 473.736   6
   8   4 -10 2166.50 435.348   1
  -4  -8 -10 3115.44 453.852   5
   8   4 -11 236.951 81.3071   1
  -4   8  11 424.199 167.481   2
   4   8 -11 238.181 94.6567   4
   4  -8 -11 264.533 109.967   5
  -4  -8 -11 206.193 146.188   8
  -8  -4  11 260.562 153.315   6
   4   8  11 433.947 99.5837   3
  -4  -8  11 312.381 88.0247   7
  -8  -4  11 391.046 153.647   7
   4  -8 -11 355.309 81.9968   8
  -4  -8  11 454.985 105.313   6
   4  -8 -12 7118.35 1146.18   5
   4  -8 -12 7231.25 1136.50   8
   4   8  12 7475.39 1145.40   3
  -8  -4  12 5478.94 1154.19   7
   4   8 -12 6391.71 1140.85   4
  -4  -8  12 6927.05 1142.56   6
  -4   8  13 41.8919 160.147   3
  -4   8  13-88.8760 163.745   2
   4  -8 -13-39.7001 101.919   5
   4  -8 -13-41.7490 61.3588   8
  -8  -4  13 58.1309 103.662   7
  -4  -8  13 18.1573 60.2452   7
   8   4 -13 46.2916 64.8115   1
   4   8 -13-82.6809 90.9781   4
  -4  -8  13-37.3444 72.6273   6
  -8  -4  13-181.416 168.225   6
   4  -8 -14 6663.54 1279.71   5
   4  -8 -14 8108.36 1274.67   8
   8   4 -14 6993.66 1274.34   1
  -8  -4  14 8440.55 1296.40   7
  -4  -8  14 7052.14 1274.54   7
   4   8 -14 8215.77 1283.28   4
  -4  -8  14 8534.84 1282.50   6
  -4   8  14 8841.99 1308.91   2
  -4   8  14 8573.75 1306.00   3
  -4   8  15 319.591 171.598   3
   8  -4 -15 354.093 167.966   5
   8   4 -15 163.457 80.2836   1
   4  -8 -15 232.831 111.750   5
   4  -8 -15 189.327 87.9313   8
  -8  -4  15 221.183 134.443   7
  -4  -8  15 373.385 87.6307   7
   4   8 -15 298.886 121.168   4
  -4  -8  15 305.143 103.501   6
  -8  -4  15 156.577 143.156   6
  -4   8  15 69.4002 193.732   2
   4  -8 -16 1973.31 327.625   8
   8  -4 -16 2160.81 364.185   5
   4  -8 -16 1519.77 333.604   5
  -4   8  16 2126.86 363.686   3
  -4   8  16 2031.37 374.276   2
  -8  -4  16 1282.34 355.421   6
   8   4 -16 1762.17 328.922   1
  -8  -4  16 1395.40 350.854   7
  -4  -8  16 2065.04 333.703   6
  -4  -8  16 2029.79 328.141   7
   4   8 -16 2195.56 343.076   4
  -8  -4  17 124.642 129.463   7
  -4   8  17 105.573 163.741   3
   8   4 -17 238.071 89.3337   1
   4  -8 -17-49.8889 92.6546   5
   8   4 -17 80.6802 76.3701   4
  -8  -4  17 150.334 141.286   6
   4   8 -17 93.7260 124.398   4
   4  -8 -17 49.9868 77.2109   8
  -4   8  17-24.1208 182.316   2
  -4  -8  17 90.4668 88.4213   6
   8   4 -18 95.8574 82.4721   1
  -4   8  18 184.377 165.170   3
   4  -8 -18 286.421 113.006   5
   4  -8 -18 63.4693 91.2792   8
  -8  -4  18 164.720 136.169   6
   8   4 -18 37.8538 79.2748   4
  -8  -4  18 333.097 130.591   7
  -4   8  18 295.930 196.993   2
  -4   8  19 40.4004 156.764   3
   4  -8 -19 61.5020 104.408   5
   8   4 -19 151.857 93.5281   1
   8   4 -19 71.0719 84.0217   4
  -4   8  19 252.460 208.266   2
  -4  -8  19-10.8695 83.9944   7
  -8  -4  19 86.4907 127.180   7
  -8  -4  19-54.3646 140.184   6
   4  -8 -19-44.0027 92.8943   8
  -4  -8  20 13.4383 95.4242   6
   4  -8 -20 174.773 145.980   5
  -4   8  20 279.176 212.407   3
   8   4 -20-10.8469 102.045   4
  -4  -8  20 33.7568 90.2943   7
   4   8 -20 285.635 164.851   4
  -8  -4  20 53.4343 145.019   6
  -4  -8  21-80.7856 89.8991   6
   4   8 -21 19.9848 150.681   4
  -4  -8  21-116.611 86.0611   7
  -4  -8  22 259.731 97.6387   6
   4  -8 -22 101.570 115.459   8
  -4   8  22-54.5717 229.224   2
  -8  -4  22 193.686 133.875   7
   8   4 -22 206.137 126.052   1
  -4  -8  22 108.934 91.4034   7
   4   8 -22 212.540 164.059   4
  -4  -8  23 41.4335 85.7686   6
  -8  -4  23-17.6318 115.775   6
   4   8 -23 131.812 180.023   4
   4  -8 -23-13.2791 109.497   8
   4  -8 -23-93.3804 101.635   5
  -4   8  23-19.0914 138.524   3
   8   4 -23 15.2959 110.991   1
  -8  -4  23-17.5569 135.177   7
  -4  -8  23 12.5775 90.5511   7
  -4   8  23-112.181 212.108   2
   8   4 -23-82.5576 111.011   4
   4   8 -24 1774.63 255.775   4
  -4  -8  24 1172.02 184.891   6
  -4   8  24 231.365 279.895   2
   4  -8 -24 568.367 189.762   5
  -4   8  24 884.001 222.993   3
  -8  -4  24 1003.43 219.566   7
   4  -8 -24 778.851 199.492   8
   8   4 -24 443.949 192.231   4
   8   4 -24 651.590 207.338   1
  -4  -8  24 1174.19 190.014   7
  -8  -4  24 1010.64 204.388   6
  -4  -8  25 43.6604 103.079   6
   4   8 -25 164.067 192.290   4
  -4  -8  25 40.7652 104.681   7
  -4  -8  26 1396.87 328.524   6
   4   8 -26 3320.42 398.216   4
  -4  -8  27 30.9257 97.6617   6
  -4  -8  27 88.7342 116.712   7
   4   8 -27-99.5505 188.283   4
  -4  -8  28 1514.14 240.967   7
  -4  -8  28 1198.67 231.565   6
  -4  -8  29 16.5179 113.321   6
  -4  -8  29-403.935 132.336   7
   4   8 -29 26.1666 216.788   4
  -4  -8  30 287.326 150.990   7
   4   8 -30 26.6608 205.135   4
  -4  -8  31-283.002 141.096   7
  -4  -8  32-296.331 156.162   7
   5   8   0 285.663 68.8443   1
  -5  -8   0 176.756 110.609   7
  -5  -8   0 319.262 117.746   6
  -5  -8   0 422.854 103.982   8
  -5  -8  -1 7496.63 1037.99   8
   5   8  -1 5943.30 1025.22   1
  -5  -8   1 6659.44 1038.17   7
  -5  -8  -1 6051.32 1037.28   6
  -5  -8   1 5458.34 1032.42   8
   5   8  -2 1615.38 326.859   1
  -5  -8   2 1856.20 347.780   6
  -5  -8  -2 2772.80 348.069   8
  -5  -8   2 1973.74 341.052   7
  -5  -8  -2 1738.77 343.266   6
  -5  -8   2 2059.97 336.003   8
  -5  -8  -3 1933.15 252.233   8
  -5  -8  -3 1371.81 245.930   6
  -5  -8   3 1032.29 235.530   8
  -5  -8   3 1711.68 257.825   6
   5   8  -3 1081.57 228.303   1
  -5  -8   3 1211.40 239.490   7
  -5  -8   4 460.201 120.462   7
  -5  -8  -4 622.189 136.719   8
   5   8  -4 528.327 111.023   1
  -5  -8   4 365.737 141.238   6
  -5  -8  -5 163.407 107.443   8
  -5  -8   5-75.2131 110.997   6
   5   8  -5 62.6035 66.7567   1
  -5  -8   5 10.9964 76.1448   7
   5   8  -6 214.990 82.7373   1
  -5  -8   6 169.525 84.2041   7
  -5  -8   6 148.850 108.342   6
   5   8  -7 148.831 60.4350   4
   5  -8  -7 131.686 127.774   5
  -5  -8   7 153.993 75.3874   7
   5   8  -7 85.9338 86.1296   1
  -5   8   7 146.119 115.515   2
  -5  -8   7 117.345 98.7876   6
   5  -8  -8 18.2050 125.236   5
   5   8  -8 47.1702 58.3643   4
  -5  -8   8 40.5952 69.9394   7
   5   8  -8 93.1870 98.5925   1
   5  -8  -8-7.37001 50.9063   8
  -5   8   8 132.006 120.288   2
  -8  -5   8-61.5647 144.810   6
  -5  -8   8 43.3279 94.9526   6
   5  -8  -9-7.52709 52.1951   8
   8   5  -9-8.34377 54.2542   1
   5  -8  -9 106.671 113.306   5
  -5  -8   9 14.3003 88.7843   6
  -5  -8   9 39.8752 74.0159   7
   5   8  -9 14.1767 98.3001   1
  -8  -5   9-20.7551 126.763   6
   5   8  -9-8.41234 60.0668   4
  -5   8   9-39.0529 123.810   2
   8   5 -10 138.499 62.3839   1
   5  -8 -10 185.084 59.6471   8
  -8  -5  10-19.9407 122.892   7
   5   8 -10 107.642 70.9597   4
  -5  -8  10 198.920 75.6626   7
  -8  -5  10-41.8083 153.035   6
  -5  -8  10 85.0143 90.3978   6
   5   8 -10 198.737 114.433   1
  -5   8  10 363.382 144.462   2
   5  -8 -10 236.825 122.271   5
   5   8 -11 2817.38 571.052   4
  -8  -5  11 3601.73 595.257   7
  -5   8  11 3361.20 595.444   2
  -8  -5  11 3703.91 605.704   6
  -5  -8  11 3966.00 582.992   6
   8   5 -11 3508.81 570.687   1
  -5   8  12 429.255 164.350   2
   8   5 -12 105.522 75.4936   1
   5  -8 -12 326.091 73.2708   8
   5  -8 -12 313.969 130.646   5
  -8  -5  12 20.9425 162.799   6
   5   8 -12 203.096 90.5723   4
  -8  -5  12 174.102 145.754   7
  -5  -8  12 153.864 104.339   6
   8   5 -13 4368.23 859.140   1
   5  -8 -13 5231.69 858.286   8
  -8  -5  13 4759.48 881.405   7
   5   8 -13 5978.25 869.267   4
  -5   8  13 5310.14 890.379   2
  -8  -5  13 4009.05 885.218   6
  -5  -8  13 6353.88 873.007   6
   5   8 -13 5531.29 891.733   1
  -5   8  14 384.467 170.376   2
  -8  -5  14 60.6673 142.121   6
   5  -8 -14 163.104 106.801   5
   5   8 -14 57.5162 133.108   1
  -5  -8  14 60.9943 76.2191   7
   5   8 -14 93.7693 98.8154   4
   5  -8 -14 77.7452 68.8827   8
  -8  -5  14 18.2095 124.310   7
  -5  -8  14 55.6790 100.379   6
   8   5 -14 84.8953 77.9700   1
  -5   8  15 2992.78 507.842   3
   8  -5 -15 3286.43 497.787   5
  -5   8  15 1973.71 489.242   2
   5  -8 -15 2824.36 470.907   5
  -8  -5  15 2209.05 478.203   7
  -5  -8  15 2773.79 470.632   6
  -8  -5  15 2740.73 491.832   6
   8   5 -15 2799.73 464.083   1
   5   8 -15 2805.48 492.647   1
  -8  -5  16 57.8531 138.965   6
  -5   8  16 142.873 183.420   3
  -5   8  16 95.1760 161.505   2
   8  -5 -16-60.7352 166.903   5
   5  -8 -16 56.5922 102.692   5
   5  -8 -16 176.022 81.6175   8
   5   8 -16 107.262 116.067   4
   8   5 -16 94.7308 86.8290   1
   8   5 -16 153.272 75.6934   4
  -5  -8  16 394.036 112.130   6
  -8  -5  16 139.736 136.807   7
  -8  -5  17 120.107 125.352   7
  -5   8  17 365.765 188.281   2
  -8  -5  17 151.087 151.576   6
   8  -5 -17 241.764 135.254   5
   5  -8 -17 151.066 106.148   5
   8   5 -17 200.145 99.8183   1
   8   5 -17 217.980 90.6004   4
  -5   8  17-71.7937 191.809   3
   5  -8 -17 221.742 87.0350   8
   5  -8 -18 221.264 86.4768   8
  -5   8  18 248.900 179.983   2
  -5   8  18 71.5458 194.476   3
  -5  -8  18 43.9123 77.1831   7
   5   8 -18 71.8541 149.033   1
   5  -8 -18 149.248 110.020   5
   8   5 -18 343.589 94.5455   4
  -8  -5  18 242.148 148.158   6
  -5   8  19-209.349 202.599   3
   5  -8 -19 13.4472 111.241   5
  -5  -8  19-45.1363 86.9196   7
   5   8 -19 98.1489 125.084   4
   5   8 -19-76.3551 205.328   1
  -5  -8  19-14.2062 100.228   6
   5   8 -20 322.976 212.081   1
  -5  -8  20 150.252 95.0695   7
  -8  -5  20 219.601 141.851   7
   8   5 -20 58.3264 95.5397   1
   5   8 -20 193.854 148.603   4
  -5  -8  20 316.647 111.898   6
   5  -8 -21-11.4024 94.5859   8
   5   8 -21 85.5213 211.653   1
  -5  -8  21-35.7626 90.1622   7
   8   5 -21 12.5037 96.9381   4
   8   5 -21 15.4566 109.464   1
  -5  -8  21-14.4427 102.707   6
   5   8 -21 93.0100 139.150   4
  -8  -5  21-17.9907 128.979   6
  -8  -5  21-68.5289 110.851   7
  -5  -8  22 344.787 107.537   7
  -5   8  22 82.5555 208.270   2
   5  -8 -22 240.408 108.884   5
   5  -8 -22 143.905 103.179   8
   5   8 -22 241.875 220.924   1
  -8  -5  22 215.484 136.872   6
   8   5 -22 148.157 117.044   4
  -5   8  22 133.013 173.272   3
   8   5 -22-16.0854 116.909   1
   5   8 -22-99.6743 154.113   4
  -8  -5  22 255.698 139.570   7
  -5  -8  22 117.121 105.288   6
  -5  -8  23 58.6594 98.1015   6
   5   8 -23-64.2112 215.415   1
  -5   8  23 64.4611 140.651   3
   5  -8 -23 263.545 106.592   8
  -8  -5  23 138.937 134.223   7
  -5   8  23-56.5656 210.614   2
   5   8 -23 41.8069 167.792   4
   5  -8 -23-67.6044 105.715   5
  -5  -8  23 216.646 113.367   7
   8   5 -23 87.0138 114.362   4
   8   5 -23 136.620 132.019   1
  -8  -5  23 125.019 134.090   6
  -5  -8  24 87.9055 91.4987   6
  -8  -5  24-88.6633 135.111   7
   5   8 -24-133.127 180.142   4
   5   8 -24 68.2786 270.091   1
  -5  -8  24-52.8305 103.138   7
  -8  -5  24 71.6519 135.996   6
   8   5 -24-93.1560 133.015   4
   8   5 -24-35.5529 125.403   1
   5   8 -25 835.826 369.683   1
  -8  -5  25 1386.75 274.337   7
  -5  -8  25 1357.00 251.802   7
   8   5 -25 869.800 262.072   1
   5   8 -25 2371.17 308.920   4
   8   5 -25 614.431 260.339   4
  -5  -8  25 1856.98 257.840   6
  -8  -5  25 1224.08 266.294   6
   5   8 -26 116.172 324.107   1
  -5  -8  26 15.1315 105.432   6
  -5  -8  26 14.2463 102.605   7
  -8  -5  26 236.995 135.399   7
   5   8 -26 71.8185 186.257   4
  -8  -5  26-163.407 135.859   6
  -5  -8  27 1042.11 233.182   6
   5   8 -27 949.840 362.552   1
  -5  -8  27 1610.10 243.885   7
   5   8 -27 594.268 289.813   4
  -5  -8  28 16.0045 119.337   6
  -5  -8  28-46.5945 120.053   7
   5   8 -28 43.7863 358.807   1
   5   8 -28-101.838 211.847   4
  -5  -8  29 99.0528 111.952   6
   5   8 -29 326.863 351.690   1
  -5  -8  29 275.415 130.778   7
   5   8 -29 78.7307 211.529   4
  -5  -8  30 323.544 119.884   6
  -5  -8  30 136.308 129.129   7
   5   8 -30 49.7543 353.292   1
   5   8 -30-214.619 210.289   4
   5   8 -31 52.5595 398.963   1
  -5  -8  31 105.728 114.125   6
  -5  -8  31-35.6082 131.788   7
   5   8 -31-27.5432 203.015   4
  -6  -8   0 1950.03 340.834   8
  -6  -8   0 1938.83 358.515   6
  -6  -8   1 1569.19 228.376   8
   6   8  -1 1170.19 210.958   1
  -6  -8  -1 1187.18 239.746   6
  -6  -8   1 848.855 244.085   6
  -6  -8   2 1269.11 243.318   8
  -6  -8   2 1266.04 257.556   7
  -6  -8   2 1544.63 275.448   6
   6   8  -2 1345.00 232.924   1
  -6  -8   3 1845.58 403.110   7
  -6  -8   3 2468.58 388.962   8
  -6  -8   3 2278.86 408.505   6
  -6  -8   4 405.629 125.361   7
  -6  -8   4 240.537 92.8809   8
   6   8  -4 322.389 80.5223   1
  -6  -8   4 143.168 137.926   6
  -6  -8   5 1045.21 194.078   7
   6   8  -5 771.334 164.736   1
  -6  -8   5 950.754 205.337   6
   6   8  -6 559.091 119.084   1
  -6  -8   6 524.120 140.954   7
  -6  -8   6 605.109 156.116   6
  -6  -8   7 328.860 120.901   7
   6   8  -7 472.991 115.677   1
  -8  -6   7 383.996 164.167   6
  -6  -8   7 439.899 157.009   6
  -8  -6   8 1528.27 269.423   6
   8   6  -8 1261.36 209.347   1
  -6  -8   8 950.440 225.583   7
  -6  -8   8 1405.53 247.147   6
   6   8  -8 990.256 220.214   1
   6   8  -9 874.836 191.397   1
   8   6  -9 1047.05 181.949   1
  -8  -6   9 386.335 211.757   7
  -6  -8   9 1025.90 195.022   7
   6   8  -9 925.220 180.012   4
  -8  -6   9 1222.91 233.577   6
  -6  -8   9 1381.19 214.835   6
   6   8 -10 54.9345 98.3693   1
   6  -8 -10 78.0729 148.352   5
   8   6 -10 28.0240 67.4237   1
  -6  -8  10 183.790 111.021   6
  -6  -8  10 24.3312 69.1710   7
  -8  -6  10-40.0342 118.368   7
  -8  -6  10 327.805 155.595   6
   6   8 -10 17.0984 63.7179   4
  -6   8  10 19.7991 127.066   2
   6  -8 -11 337.007 151.629   5
   8   6 -11 323.514 102.864   1
  -8  -6  11 385.363 155.652   7
  -8  -6  11 456.550 172.510   6
  -6   8  11 487.388 161.933   2
   6   8 -11 407.366 106.343   4
  -6  -8  11 706.566 137.469   6
   6  -8 -12 858.100 239.902   5
  -8  -6  12 922.555 249.546   7
   6  -8 -12 1033.80 206.507   8
  -6  -8  12 1734.44 250.204   6
   8   6 -12 1217.09 214.097   1
  -6   8  12 772.429 248.194   2
   6   8 -12 1088.17 235.453   1
   6   8 -12 1163.56 215.553   4
  -8  -6  12 1736.29 280.173   6
   6   8 -13 787.814 165.148   4
   8   6 -13 828.505 162.878   1
   6   8 -13 711.154 188.786   1
  -8  -6  13 699.415 203.955   7
   6  -8 -13 472.029 193.624   5
  -6  -8  13 851.690 177.466   7
  -8  -6  13 523.696 205.624   6
   6  -8 -13 776.622 156.485   8
  -6   8  13 878.627 210.656   2
   6  -8 -14 1489.99 272.966   5
   6  -8 -14 1460.70 245.744   8
  -8  -6  14 1143.15 273.512   7
   8   6 -14 840.939 248.660   1
   6   8 -14 1566.47 275.919   1
  -8  -6  14 1724.50 300.680   6
   6   8 -14 1726.13 256.740   4
  -6  -8  14 1536.08 268.699   6
  -6  -8  14 1379.62 253.567   7
  -6   8  14 1207.51 291.447   2
   8   6 -15 481.177 113.442   1
   6  -8 -15 230.485 147.624   5
   8  -6 -15 259.805 171.561   5
   6   8 -15 280.996 119.244   4
  -6   8  15 269.993 171.468   2
   8   6 -15 428.731 101.587   4
   6  -8 -15 465.504 103.479   8
  -8  -6  15 172.105 129.820   7
  -8  -6  15 140.539 158.047   6
  -6  -8  15 486.496 132.586   6
   6  -8 -16 103.743 83.0535   8
   6  -8 -16 31.7748 123.868   5
   8   6 -16 363.756 90.6016   4
  -8  -6  16 213.532 143.481   6
   8  -6 -16 495.825 168.183   5
  -6   8  16 161.409 163.654   2
  -6   8  17-53.9099 221.456   3
   8  -6 -17 431.639 167.332   5
   6  -8 -17 407.684 141.360   5
   6  -8 -17 536.433 105.809   8
  -6  -8  17 192.674 105.850   7
   6   8 -17 292.042 162.344   1
  -6   8  17 354.884 170.358   2
  -6   8  18 517.897 235.863   3
   8  -6 -18 690.319 177.110   5
   6  -8 -18 470.104 146.635   5
   6   8 -18 240.927 179.056   1
  -8  -6  18 234.272 145.156   7
   6   8 -18 566.192 141.487   4
   8   6 -18 590.055 145.074   1
  -6  -8  18 242.930 123.854   7
  -6  -8  18 449.730 141.678   6
   6   8 -19 513.269 197.195   1
   6  -8 -19 419.508 145.188   5
  -6  -8  19 173.780 116.128   7
  -8  -6  19 575.456 162.530   6
   8   6 -19 161.299 112.155   4
  -8  -6  19 430.110 150.846   7
   6   8 -19 120.356 142.790   4
   8   6 -19 183.076 124.855   1
  -6  -8  19 546.638 125.736   6
   6   8 -20 859.431 217.626   1
  -6  -8  20 340.009 127.626   7
  -8  -6  20 385.167 152.950   7
   8   6 -20 370.390 133.032   4
   6   8 -20 402.857 153.513   4
   8   6 -20 648.179 163.095   1
  -8  -6  20 735.607 160.320   6
  -6  -8  20 280.872 134.885   6
  -6   8  21 52.2407 197.636   2
   6   8 -21 232.945 195.248   1
  -6  -8  21 172.025 129.512   6
   8   6 -21 185.835 118.523   4
   6  -8 -21 441.865 117.055   8
  -8  -6  21 299.640 137.446   7
   6   8 -21 477.467 155.806   4
   8   6 -21 320.759 144.129   1
  -8  -6  21 493.393 151.874   6
  -6   8  22 26.9587 189.844   2
  -6   8  22 203.477 190.855   3
   6   8 -22 109.266 174.630   1
   6  -8 -22 85.6884 106.384   5
   8   6 -22 175.952 134.924   1
  -6  -8  22 62.6744 112.276   6
  -8  -6  22 54.7003 131.034   6
  -8  -6  22 67.7030 120.450   7
   6   8 -22 257.049 153.008   4
   6  -8 -22 106.402 106.170   8
  -6  -8  22 172.667 105.700   7
   8   6 -22 313.612 119.271   4
  -6  -8  23 424.102 122.205   7
  -8  -6  23 241.627 144.191   7
   6   8 -23 175.172 234.292   1
   8   6 -23 213.584 135.992   4
   6   8 -23 39.4283 163.426   4
   8   6 -23 280.699 155.268   1
  -8  -6  23 383.333 144.776   6
  -6  -8  23 221.709 111.822   6
   6   8 -24 277.966 242.685   1
  -8  -6  24 54.8161 140.982   6
  -8  -6  24 224.802 136.026   7
   8   6 -24 146.519 135.483   4
   6   8 -24 103.767 173.365   4
   8   6 -24 78.0734 155.398   1
  -6  -8  24 338.697 123.725   7
  -6  -8  24 126.962 120.229   6
   6   8 -25 163.474 241.016   1
  -8  -6  25 88.5379 127.148   7
   6   8 -25 44.2392 170.441   4
  -8  -6  25-54.9696 138.761   6
  -6  -8  25 31.7445 113.095   6
  -6  -8  25 102.116 116.011   7
   8   6 -25 35.0368 131.237   4
   8   6 -25 20.3644 144.987   1
   6   8 -26 469.330 226.739   4
   8   6 -26 722.517 212.646   1
  -8  -6  26 980.835 187.788   7
  -6  -8  26 562.426 164.865   6
   8   6 -26 398.627 200.048   4
  -6  -8  26 891.135 176.852   7
   6   8 -26 616.340 298.547   1
  -8  -6  26 701.182 182.099   6
  -6  -8  27 96.2810 115.699   6
   6   8 -27 108.902 264.864   1
  -8  -6  27 148.730 136.745   6
  -6  -8  27 109.630 119.638   7
  -8  -6  27 429.566 143.019   7
   8   6 -27 184.752 176.089   4
   6   8 -27 171.625 199.145   4
   8   6 -27 133.009 182.704   1
  -6  -8  28 179.670 120.902   6
   6   8 -28 461.983 279.436   1
  -6  -8  28 146.407 126.650   7
   6   8 -28-25.3022 204.481   4
   6   8 -29 40.8224 310.752   1
   6   8 -29 78.2009 211.906   4
  -6  -8  29 134.323 120.721   6
  -6  -8  29 372.110 129.561   7
   6   8 -30-302.887 354.849   1
   6   8 -30-134.462 205.364   4
  -6  -8  30-17.2854 120.217   6
  -6  -8  30-106.676 135.727   7
  -6  -8  31 426.435 154.328   7
  -7  -8   2 640.680 181.023   6
   7   8  -3 649.401 127.372   1
  -7  -8   3 716.058 193.767   6
   7   8  -4 726.235 144.013   1
  -7  -8   4 877.629 194.781   7
  -7  -8   4 820.924 212.219   6
   7   8  -5 2798.73 461.478   1
  -7  -8   5 3225.17 486.743   7
  -7  -8   5 1996.82 487.742   6
   7   8  -6 441.162 90.6117   1
  -7  -8   6 342.069 141.575   7
  -8  -7   6 416.003 153.544   6
  -7  -8   6 185.145 147.756   6
   8   7  -6 226.332 82.0546   1
  -8  -7   7 3712.73 668.962   7
  -7  -8   7 4005.89 661.426   7
   7   8  -7 3924.64 645.004   1
  -8  -7   7 3960.80 675.098   6
   8   7  -7 3722.79 641.990   1
  -7  -8   8 245.153 123.474   7
   7   8  -8 169.640 87.2023   1
  -7  -8   8 345.469 153.255   6
  -8  -7   8 316.569 157.220   6
  -8  -7   9 1925.09 364.448   6
  -7  -8   9 1923.92 343.838   7
  -7  -8   9 1802.22 357.457   6
   7   8  -9 1851.53 328.324   1
  -7  -8  10 561.497 173.354   7
   8   7 -10 470.540 129.054   1
  -8  -7  10 568.510 190.916   7
  -7  -8  10 531.360 191.893   6
   7   8 -11 61.2739 71.8454   4
   8   7 -11 74.8580 71.1159   1
  -7  -8  11-19.2729 132.199   6
  -8  -7  11 22.0993 164.936   6
  -8  -7  11 57.3897 140.705   7
  -7  -8  12 421.302 122.995   7
  -8  -7  12 173.440 155.572   6
  -7  -8  12 150.562 147.511   6
   7   8 -12 273.265 111.394   1
  -8  -7  12 164.408 140.863   7
   8   7 -12 451.564 99.4410   1
   7   8 -12 377.205 95.0686   4
  -7  -8  13 92.2078 140.200   6
   7  -8 -13 80.1142 140.536   5
   7   8 -13 379.048 100.664   4
  -7  -8  13 314.097 118.464   7
   8   7 -13 370.139 97.1180   1
  -8  -7  13 338.621 156.346   7
  -8  -7  13 424.701 166.963   6
   7   8 -13 266.256 119.368   1
   7   8 -14 679.974 133.599   4
   7  -8 -14 422.086 175.421   5
   8   7 -14 378.881 124.055   4
  -8  -7  14 829.830 192.985   6
  -7  -8  14 743.308 170.047   6
   8  -7 -15-109.035 153.806   5
   7  -8 -15-56.5156 144.029   5
  -7   8  15 242.264 157.265   2
   8  -7 -16 20.8852 154.478   5
   7   8 -16 52.2846 135.107   1
  -8  -7  16-33.5114 113.136   7
  -7  -8  16-41.4947 96.7295   7
   8   7 -16 14.1607 97.7641   1
  -7   8  16-67.3343 145.934   2
   7  -8 -16 72.4295 137.931   5
   8  -7 -17 659.319 187.865   5
   7  -8 -17 196.252 159.803   5
   7   8 -17 259.675 155.597   1
  -8  -7  17 511.449 154.701   7
   8   7 -17 454.768 129.534   4
  -7  -8  17 573.492 140.166   7
   7   8 -17 541.630 137.088   4
   8   7 -17 510.344 146.056   1
  -8  -7  17 616.895 176.529   6
  -7  -8  17 730.146 159.955   6
   8  -7 -18 172.400 163.770   5
   7  -8 -18 396.255 151.978   5
   7   8 -18 368.539 163.296   1
  -7  -8  18 320.820 126.385   7
   8   7 -18 390.932 110.999   4
  -8  -7  18 379.636 161.946   6
  -8  -7  18 282.625 144.812   7
   8   7 -18 239.066 132.095   1
  -7  -8  18 292.813 144.903   6
   7   8 -18 65.9527 118.060   4
   8   7 -19 2181.77 381.744   4
   8  -7 -19 2178.01 403.117   5
  -8  -7  19 2271.19 391.706   7
  -7  -8  19 2550.87 387.011   7
   7   8 -19 2370.01 389.694   4
   8   7 -19 1560.62 388.399   1
  -7  -8  19 2397.23 392.701   6
  -8  -7  19 2361.46 396.391   6
   7   8 -19 1447.64 396.542   1
   7  -8 -20 241.068 90.2163   8
   7   8 -20 120.200 129.058   4
  -7  -8  20 42.6106 102.842   7
  -8  -7  20 149.993 121.038   7
   7   8 -20 151.653 155.269   1
  -7  -8  20 238.641 137.991   6
   8   7 -20 39.3747 106.298   4
   8   7 -20 35.3001 131.980   1
  -8  -7  20 92.7611 135.461   6
  -7   8  20-24.5104 171.051   2
   7   8 -21 1356.46 254.627   4
   7  -8 -21 1209.95 252.079   5
  -7   8  21 1834.01 351.903   3
   7   8 -21 1227.17 265.575   1
   7  -8 -21 1503.39 238.896   8
  -8  -7  21 1825.27 267.758   6
   8   7 -21 506.440 236.746   4
   8   7 -21 773.309 255.512   1
  -7  -8  21 1275.28 248.440   7
  -7   8  21 402.138 269.446   2
  -7  -8  21 1541.68 257.455   6
  -8  -7  21 1758.35 260.698   7
   8   7 -22 57.6656 148.766   1
   7   8 -22-24.2776 164.733   1
  -7  -8  22 281.568 129.755   7
  -8  -7  22 270.086 128.794   7
  -8  -7  22 183.817 128.075   6
   8   7 -22 316.436 141.117   4
   7   8 -22 117.324 144.192   4
  -7  -8  22 256.216 125.986   6
   7   8 -23 178.617 228.524   1
   8   7 -23 272.843 138.793   4
   7   8 -23 72.2505 151.630   4
  -8  -7  23 344.230 139.696   7
  -7  -8  23 315.187 133.566   7
  -8  -7  23 128.282 143.903   6
   8   7 -23 204.488 169.637   1
  -7  -8  23 119.667 141.833   6
   8   7 -24 21.3676 146.904   1
  -8  -7  24-86.3942 131.180   7
   7   8 -24 107.368 188.530   1
  -7  -8  24-77.0653 124.760   7
   8   7 -24 102.461 132.414   4
   7   8 -24 58.3234 162.732   4
  -8  -7  24 110.838 137.697   6
  -7  -8  24 34.2044 123.131   6
  -8  -7  25 35.3998 130.917   7
  -7  -8  25-31.7223 119.518   7
   7   8 -25-83.4765 166.184   4
  -8  -7  25-55.5277 126.668   6
   8   7 -25-36.9457 140.210   4
   8   7 -25 201.104 185.341   1
   7   8 -25 28.2612 229.418   1
  -7  -8  25 34.5549 121.845   6
   8   7 -26 93.4604 170.667   1
  -7  -8  26 114.469 122.128   7
   7   8 -26 29.7736 236.846   1
  -8  -7  26 254.342 151.377   7
   8   7 -26 97.9349 154.380   4
   7   8 -26 65.9072 167.996   4
  -8  -7  26 241.756 144.815   6
  -7  -8  26 207.610 126.003   6
  -7  -8  27 17.2948 126.800   6
   8   7 -27 48.8727 192.255   1
   8   7 -27 63.3784 185.721   4
   7   8 -27 188.277 280.803   1
  -7  -8  27 50.6813 128.101   7
   7   8 -27 93.6785 195.643   4
  -8  -7  27 74.7510 161.230   7
  -8  -7  27 37.2928 165.728   6
  -7  -8  28 140.109 118.853   6
   8   7 -28 25.5495 176.745   1
   7   8 -28-24.8463 205.809   4
   7   8 -28-99.2466 244.576   1
  -7  -8  28 262.161 131.761   7
  -8  -7  28 115.551 142.758   7
   8   7 -28 45.4364 182.001   4
  -8  -7  28 206.019 137.331   6
  -8  -7  29 19.8753 147.010   7
   7   8 -29-181.747 205.400   4
   7   8 -29 34.8820 275.035   1
  -7  -8  29 87.5037 118.169   6
  -7  -8  29-73.3260 135.592   7
  -7  -8  30 17.8278 122.062   6
  -7  -8  30 209.316 147.437   7
   7   8 -30 134.086 225.055   4
   7   8 -30 73.4694 254.155   1
   8   8  -5-8.55496 59.8518   1
  -8  -8   5-22.2613 157.002   6
  -8  -8   6 4823.24 913.391   7
   8   8  -6 5555.68 892.087   1
   8   8  -7 9.24043 62.1729   1
  -8  -8   7-126.674 142.580   7
  -8  -8   7-46.2838 167.920   6
  -8  -8   8 5825.14 996.391   6
   8   8  -9 143.046 75.2714   1
  -8  -8   9 100.031 159.869   7
  -8  -8   9-23.0430 162.209   6
  -8  -8  10 2411.23 456.751   6
  -8  -8  11-88.8954 149.396   6
  -8  -8  12-152.301 164.643   6
  -8  -8  14 51.9499 121.764   7
   8   8 -14 27.3039 101.160   1
   8  -8 -15-63.9503 158.386   5
   8   8 -15 124.214 84.2554   4
  -8  -8  15 16.9855 117.427   7
   8   8 -15 14.4666 100.065   1
  -8  -8  15-80.9525 153.733   6
   8  -8 -16 83.9540 168.766   5
  -8  -8  16 16.6943 111.175   7
   8   8 -16 15.3302 103.041   1
   8   8 -16 32.8688 86.9636   4
  -8  -8  16-119.039 130.257   6
  -8  -8  17-235.055 121.319   7
  -8  -8  17-97.4466 145.092   6
   8   8 -17 34.8568 94.6291   4
   8   8 -17-32.5522 123.110   1
   8   8 -18 2441.62 538.960   1
   8   8 -18 3513.24 532.981   4
  -8  -8  18 3255.66 550.040   6
  -8  -8  18 3084.29 541.689   7
  -8  -8  19-98.6106 126.529   7
   8   8 -19 105.797 112.308   4
   8   8 -19-18.0244 127.645   1
  -8  -8  19 19.1183 128.502   6
  -8   8  20 3777.26 558.071   3
   8  -8 -20 2855.96 451.966   5
   8   8 -20 2730.25 427.352   4
   8   8 -20 2669.99 447.921   1
  -8  -8  20 1475.59 434.249   6
  -8  -8  20 2196.75 430.667   7
  -8  -8  21 16.8988 125.564   7
   8   8 -21 14.9286 122.804   4
  -8  -8  21-56.3537 129.781   6
   8   8 -21-99.9994 133.280   1
   8   8 -22 2653.84 388.502   1
  -8  -8  22 1469.10 355.357   7
   8   8 -22 1891.66 357.643   4
  -8  -8  22 1980.48 361.494   6
   8   8 -23-152.970 161.465   1
   8   8 -23-151.901 137.962   4
  -8  -8  23-68.8871 130.793   7
  -8  -8  23 92.9372 136.437   6
   8   8 -24 46.5974 192.545   1
  -8  -8  24 105.634 131.755   7
   8   8 -24 36.1317 143.848   4
  -8  -8  24 280.552 139.785   6
   8   8 -25-195.247 170.835   1
  -8  -8  25-54.0932 135.572   7
   8   8 -25 19.1198 152.927   4
  -8  -8  25 18.7188 131.665   6
  -8  -8  26-314.649 165.198   7
   8   8 -26-102.942 187.565   4
  -8  -8  26 18.7362 158.176   6
   8   8 -27-107.193 210.686   1
  -8  -8  27-76.1475 148.222   7
   8   8 -27-22.1127 172.716   4
  -8  -8  27 18.7522 138.846   6
   8   8 -28 28.0841 210.115   1
  -8  -8  28 19.6226 159.349   7
   8   8 -28 47.3975 186.906   4
  -8  -8  28 18.9753 129.928   6
  -8  -8  29 18.9963 121.800   6
   8   8 -29-206.096 232.205   1
  -8  -8  29 81.0505 158.250   7
   8   8 -29-149.150 190.777   4
  -8  -8  30 56.9751 134.220   6
  -8  -8  30 251.513 172.832   7
   8   8 -30 52.8153 211.862   4
   0  -9   0-14.3688 43.1664   6
   0   9   0 9.02495 68.7621   4
   0  -9   0-10.1002 64.0575   5
   0   9   0-48.9101 111.087   2
   0  -9   0-21.7472 43.1779   7
   0  -9   0 5.68530 40.7843   8
   0  -9   1 867.216 191.285   5
   0  -9  -1 1201.21 190.423   5
   0  -9   1 1038.10 178.734   8
   0   9   1 772.219 211.992   2
   0  -9   1 1097.96 179.097   7
   0   9  -1 938.427 190.590   4
   0  -9  -1 997.905 179.417   8
   0  -9   1 1016.81 181.631   6
   0   9  -1 1037.58 214.995   2
   0  -9   2-7.83842 47.0771   6
   0   9   2 30.2575 109.764   3
   0  -9   2-21.2323 68.3510   5
   0  -9  -2 39.1895 63.7080   5
   0  -9  -2 13.3455 47.0669   8
   0  -9   2-21.3725 33.3629   8
   0   9   2 85.5908 120.221   2
   0  -9   2 6.34080 43.0174   7
   0   9  -2-80.8896 73.6513   4
   0   9  -2 14.9448 108.429   2
   0  -9  -3 200.503 59.6266   6
   0  -9   3 204.823 63.0880   6
   0   9   3 245.919 119.308   3
   0  -9  -3 196.156 51.0574   7
   0  -9   3 293.142 85.9312   5
   0  -9   3 287.928 63.3789   7
   0  -9  -3 154.968 76.2829   5
   0   9   3 243.171 119.870   2
   0  -9  -3 129.700 66.3850   8
   0  -9   3 155.828 53.2716   8
   0   9   3 210.208 69.8248   4
   0   9  -3 234.934 88.1975   4
   0   9  -3 322.194 107.355   2
   0  -9  -4 29.7013 42.7604   6
   0  -9   4 8.50351 41.3351   6
   0  -9  -4-15.9054 31.1483   7
   0   9   4 46.5292 111.189   3
   0  -9   4-35.3258 77.3105   5
   0  -9  -4-46.9149 57.3975   8
   0  -9  -4 9.60926 58.0354   5
   0  -9   4 5.49923 38.2989   8
   0   9  -4 89.8388 78.2021   4
   0   9   4-7.02396 55.7529   4
   0   9   4-21.3094 57.1182   1
   0  -9   4-36.6900 51.5370   7
   0   9  -4-13.1740 80.0138   2
   0   9   4 70.2692 121.282   2
   0  -9   5 717.980 142.937   6
   0  -9   5 951.452 170.505   5
   0   9   5 949.146 141.563   1
   0  -9  -5 352.849 143.839   5
   0  -9  -5 1003.17 147.208   8
   0  -9  -5 523.854 130.298   7
   0  -9   5 783.705 143.656   7
   0   9   5 886.868 189.271   2
   0  -9  -5 898.697 135.803   6
   0   9   5 878.575 140.292   4
   0   9  -5 793.544 160.906   4
   0   9   5 838.317 182.043   3
   0  -9   6 13.3292 92.8255   5
   0  -9   6 45.9924 54.2853   6
   0   9   6-18.3538 49.3628   4
   0   9   6 46.3535 109.876   3
   0  -9  -6-28.4811 68.3415   5
   0   9  -6-112.103 88.9401   4
   0  -9  -6-18.6165 67.5407   8
   0  -9   6 66.9481 58.0354   7
   0   9   6 89.3549 124.981   2
   0  -9   7 281.138 121.547   5
   0   9   7 451.253 131.989   3
   0  -9  -7 208.799 89.1753   5
   0  -9  -7 278.318 97.6358   8
   0  -9   7 375.346 91.8558   7
   0  -9   7 391.612 87.3588   6
   0   9   7 559.560 147.316   2
   0   9  -7 625.316 123.365   4
   0  -9   8 69.3755 59.4783   6
   0   9   8 15.3690 102.923   3
   0  -9  -8 104.877 67.8335   5
   0  -9  -8 10.9577 79.6151   8
   0  -9   8 28.0474 63.2001   7
   0   9   8 110.244 134.789   2
   0   9  -8 177.653 95.7799   4
   0  -9   9 82.3494 64.2301   6
   0  -9  -9 192.064 73.9628   5
   0  -9  -9 11.7195 88.3505   8
   0   9   9 197.287 113.371   3
   0  -9   9 108.733 73.0054   7
   0   9  -9 114.505 105.910   4
   0  -9  10 21.3100 66.8617   6
   0   9  10 14.9943 107.494   3
   0  -9 -10 19.5817 63.9739   5
   0  -9  10-61.9117 71.8577   7
   0   9 -10 14.9631 108.560   4
   0  -9  11 1055.04 202.149   7
   0  -9  11 1235.18 202.770   6
   0  -9 -11 1229.79 203.098   5
   0  -9 -11 831.067 213.401   8
   0   9 -11 855.031 225.657   4
   0   9  11 1141.15 217.801   3
   0  -9  12 22.8227 71.6044   6
   0  -9 -12 72.0272 73.1676   5
   0   9  12-29.8660 104.431   3
   0  -9 -12-41.6214 106.808   8
   0  -9  12-78.6047 76.1644   7
   0   9 -12 48.5395 105.200   4
   0   9  13 3587.29 610.497   3
   0  -9 -13 2938.17 612.700   8
   0  -9 -13 4018.84 604.557   5
   0   9 -13 3502.36 619.205   4
   0  -9  13 3572.14 605.525   7
   0   9  14 14.7045 106.713   3
   0  -9 -14 99.3759 86.4501   5
   0  -9  14-48.8696 76.8852   6
   0  -9  14 171.031 88.4759   7
   0  -9 -14 322.370 152.777   8
   0   9 -14-122.462 132.191   4
   0  -9 -15 876.458 195.596   5
   0  -9 -15 836.159 222.175   8
   0   9  15 1134.27 210.125   3
  -9   0  15 1166.50 240.348   6
   0   9 -15 1031.58 224.199   4
   0   9  16-15.0647 100.369   3
   0  -9 -16 16.9450 119.043   8
   0  -9 -16 60.4000 89.4035   5
  -9   0  16-61.4185 157.089   6
   0   9 -16 56.0527 143.371   4
   0  -9 -17-50.5792 91.4662   5
   0   9  17 45.6176 95.9999   3
  -9   0  17-126.356 178.882   6
  -9   0  18-42.3820 162.143   6
   0  -9 -19 499.398 173.851   8
   0  -9 -20 15.3212 127.675   5
   0   9  20 157.701 116.675   3
   0  -9 -21 534.632 182.153   8
   0   9  21 323.760 130.871   3
   0  -9 -21 246.574 139.527   5
   0   9  22 16.4073 100.564   3
   0  -9 -22 86.9609 134.628   5
   0  -9 -22 81.5310 164.113   8
   0  -9 -23 20.9677 183.628   8
   0   9  23-84.6552 112.794   3
   0  -9 -23 55.6035 137.127   5
   0  -9 -24-21.5508 173.779   8
   0  -9 -24 78.9618 144.374   5
   0   9  24-207.695 115.462   3
   0   9  25 1062.09 187.883   3
   0  -9 -25 606.487 205.124   5
   0  -9 -25 420.510 219.960   8
   0   9  26 37.3333 113.267   3
   0  -9 -26 21.9983 175.772   8
   0   9  27 1025.53 232.240   3
   0  -9 -27 1173.60 268.930   8
   0  -9 -28 22.3879 198.702   8
   1   9   0 2953.51 534.896   3
   1   9   0 4000.97 543.980   2
   1  -9   0 3326.93 518.067   8
  -1  -9   0 3104.34 517.817   7
  -1   9   0 2830.76 527.669   4
   1   9   0 2918.30 519.747   4
  -1   9   0 3330.00 542.668   2
  -1  -9   0 3150.22 519.741   6
  -1  -9   0 2904.95 519.023   8
   1  -9   1 194.616 46.8895   8
   1   9  -1 107.134 104.499   3
  -1   9   1 136.882 113.416   2
   1  -9   1 114.553 96.8155   5
   1   9   1 192.546 97.6610   3
   1  -9  -1 204.136 92.7151   5
  -1  -9   1 159.599 67.1493   5
  -1  -9  -1 127.430 61.5063   5
   1   9  -1 76.3122 55.3955   4
  -1  -9  -1 50.5378 55.9519   8
   1  -9  -1 76.5032 46.6255   8
   1   9  -1 76.1884 112.619   2
   1   9   1 109.264 55.2581   4
  -1  -9   1 41.0276 47.0776   8
  -1  -9  -1 144.911 48.1581   7
  -1  -9   1 150.002 48.0681   7
  -1  -9  -1 89.5341 52.5724   6
   1   9   1 15.6823 112.689   2
   1  -9  -1 170.966 50.6885   7
   1  -9   1 138.584 56.2644   7
  -1  -9   1 83.1431 52.2802   6
  -1   9  -1 138.143 101.132   2
  -1   9  -1 98.0958 82.8537   4
   1   9   2 862.573 187.099   1
   1   9  -2 1130.07 209.622   3
  -1  -9   2 1023.83 184.691   5
   1  -9   2 934.874 211.263   5
   1  -9  -2 962.172 195.788   5
  -1   9   2 692.777 216.116   2
   1   9   2 1073.28 217.735   2
  -1  -9  -2 991.688 183.868   5
   1   9  -2 1007.46 207.894   2
  -1  -9   2 913.523 176.839   8
   1  -9  -2 939.076 178.502   8
  -1  -9  -2 932.818 183.640   8
   1  -9   2 926.128 176.280   8
  -1  -9   2 1279.45 179.438   7
   1   9   2 1346.97 209.019   3
   1  -9   2 1093.92 183.938   7
   1   9  -2 1084.06 185.491   4
  -1  -9   2 938.190 184.109   6
  -1   9  -2 1141.38 205.820   2
  -1   9  -2 1255.88 198.007   4
   1  -9  -3 368.031 55.0306   7
   1   9  -3 294.628 115.417   3
   1  -9   3 127.625 100.191   5
   1   9  -3 242.612 112.226   2
   1  -9   3 291.232 72.2138   7
   1  -9  -3 151.991 86.6913   5
  -1  -9   3 144.696 69.4171   5
   1   9   3 177.511 101.610   3
  -1   9   3 310.362 128.907   2
  -1  -9  -3 220.532 68.0377   5
  -1  -9   3 136.940 56.2128   8
  -1  -9   3 263.296 61.7697   7
  -1   9  -3 234.969 89.6313   4
   1   9   3 160.069 112.455   2
  -1  -9  -3 253.253 77.4145   8
   1   9   3 135.700 57.9603   4
   1   9  -3 223.832 78.9541   4
   1  -9  -3 153.784 61.7980   8
  -1  -9   3 245.840 68.4029   6
   1   9  -4 27.0268 87.8747   2
   1  -9   4-34.0539 105.720   5
   1  -9  -4-6.80398 49.5788   8
   1  -9  -4-22.8567 76.8272   5
   1   9   4-55.0499 95.8470   3
   1   9   4-6.77881 44.3147   1
  -1  -9  -4-24.7323 52.0222   5
  -1   9   4-37.3571 123.813   2
  -1   9  -4-24.3903 86.3736   4
  -1  -9  -4-87.0421 69.9046   8
  -1  -9   4 4.98275 36.8839   8
  -1  -9   4-6.77037 43.1731   7
  -1  -9  -4 27.1110 43.3433   7
  -1  -9   4 80.9163 58.2595   5
   1  -9  -4-27.3218 33.3676   7
   1  -9   4-8.81779 55.3492   7
   1   9  -4-127.735 77.2284   4
  -1  -9  -4-29.2628 42.3184   6
  -1  -9   4 16.9845 54.6913   6
   1   9   4 39.6619 39.2475   4
  -1   9   5 167.536 126.884   3
   1  -9   5 107.313 129.425   5
  -1  -9   5 81.7779 61.5444   5
  -1  -9   5 43.9823 57.8710   6
   1  -9  -5 33.6756 71.8595   5
   1   9   5 13.6248 88.8452   3
  -1  -9  -5 66.7094 54.9017   5
   1  -9  -5 29.0431 49.2696   8
  -1  -9  -5 85.8553 80.5607   8
  -1  -9  -5 6.13984 47.7506   7
  -1  -9   5 56.3983 47.6498   7
   1  -9   5 65.1750 65.1887   7
   1   9   5 23.0360 44.3881   1
  -1   9   5-19.0184 124.445   2
   1   9  -5 42.2683 70.6950   4
  -1  -9   5 66.4073 41.3689   8
   1  -9  -5 24.4672 32.9995   7
   1   9   5-13.5158 38.5279   4
  -1  -9  -5 71.3873 42.8144   6
   1   9  -5 25.2272 96.6621   2
  -1   9  -5 126.576 82.9774   4
   1  -9  -6 444.629 94.1371   8
  -1   9   6 68.0687 128.976   3
   1  -9   6 263.594 152.272   5
   1  -9  -6 497.309 103.329   5
   1   9  -6 328.662 109.259   4
   1   9   6 202.338 117.891   3
  -1  -9  -6 309.736 91.6233   5
  -1  -9  -6 368.797 115.397   8
  -1   9   6 153.989 149.578   2
   1   9   6 410.201 76.1308   4
  -1  -9   6 508.533 89.0790   7
   1   9  -6 451.348 111.038   2
   1   9   6 373.220 76.8238   1
  -1   9  -6 420.800 112.604   4
   1  -9   6 294.110 94.2953   7
  -1  -9   6 363.109 94.0612   6
  -1  -9   7 187.195 75.0703   6
  -1   9   7 137.492 119.551   3
   1   9  -7 217.709 103.550   4
  -1  -9   7 432.544 81.0731   7
   1  -9  -7 349.348 96.9960   5
   1   9   7 339.788 111.017   3
  -1  -9  -7 358.003 102.106   8
   1  -9  -7 244.817 87.9201   8
   1  -9   7 349.984 89.2202   7
  -1  -9  -7 264.462 81.5059   5
  -1   9   7 446.729 151.955   2
  -1   9  -7 218.110 109.541   4
  -1  -9   8 384.827 79.6472   6
  -1  -9   8 186.076 74.3876   7
  -1   9   8 327.615 132.161   3
   1   9   8 323.297 106.623   3
   1  -9  -8 160.591 82.0518   8
  -1  -9  -8 145.671 75.9464   5
  -1  -9  -8 191.569 113.640   8
   1  -9  -8 338.697 91.9597   5
  -1   9   8 314.713 144.008   2
   1  -9   8 366.855 89.4050   7
   1   9  -8 334.784 111.353   4
  -1  -9   9 165.389 73.3871   6
  -1  -9  -9 263.411 120.132   8
   1  -9  -9 252.040 87.9652   5
  -1   9   9 274.715 129.062   3
   1   9   9 230.698 105.974   3
  -1  -9  -9 205.771 77.6235   5
  -1  -9   9 287.908 73.0548   7
   1  -9   9 214.633 87.6253   7
   1   9  -9 177.961 115.522   4
  -1  -9  10 468.375 102.790   6
  -1  -9 -10 499.671 151.905   8
  -1   9  10 204.061 135.753   3
  -1  -9 -10 369.890 100.737   5
   1  -9 -10 387.258 105.384   5
   1   9  10 363.901 123.897   3
   1   9 -10 493.991 135.173   4
  -1   9  10 541.389 171.895   2
  -1  -9  10 510.763 98.8494   7
  -1  -9  11 318.979 96.7135   6
   1  -9 -11 447.803 115.252   8
   1   9  11 363.663 113.925   3
  -1   9  11 368.920 145.826   3
   1  -9 -11 492.738 109.331   5
  -1  -9  11 543.886 102.495   7
   1   9 -11 349.672 136.953   4
  -1   9  11 528.422 171.190   2
  -1  -9 -11 295.023 106.315   5
   1  -9 -12 2460.27 413.941   8
   1   9  12 2441.55 416.249   3
  -1  -9 -12 2311.82 407.318   5
   1   9 -12 2507.37 426.939   4
  -1  -9 -12 1758.57 429.635   8
  -1   9  12 2464.21 423.105   3
  -1   9  12 2475.10 437.314   2
   1  -9 -12 2424.38 408.399   5
  -1  -9 -13 379.591 96.6395   5
  -1  -9  13 263.474 83.6671   6
   1  -9 -13 252.631 105.699   8
  -1  -9  13 179.318 80.6068   7
  -1   9  13 244.829 119.629   3
  -1   9  13 440.481 161.066   2
   1  -9 -13 334.783 97.2151   5
   1   9  13 277.256 111.398   3
  -1  -9 -13 178.606 151.475   8
   1   9 -13 397.815 140.781   4
  -1   9  14 3030.38 520.654   3
   1   9  14 2514.27 504.129   3
   1  -9 -14 2651.64 500.986   5
  -1  -9 -14 2744.54 500.209   5
  -1  -9 -14 3099.78 528.301   8
   1   9 -14 3625.79 522.012   4
  -1   9  14 2940.67 537.682   2
  -9  -1  14 3538.46 527.508   6
  -1  -9  14 3010.40 498.387   6
   1  -9 -14 2873.34 509.628   8
  -1  -9  15 70.5246 74.2681   6
   1  -9 -15-66.3066 106.500   8
   1  -9 -15 89.6528 83.4091   5
  -1   9  15 48.6989 116.720   3
  -1  -9 -15 312.695 162.690   8
  -1  -9 -15 49.9098 94.3474   5
   1   9  15 85.3952 87.0544   3
  -9  -1  15 81.4699 148.988   6
  -1   9  15 306.412 176.527   2
   1   9 -15 197.644 139.492   4
  -9  -1  16 377.007 162.491   6
  -1  -9  16 400.763 115.928   6
  -1  -9 -16 343.161 170.240   8
   1  -9 -16 622.451 124.633   5
   1  -9 -16 424.562 142.428   8
  -1  -9  16 616.983 121.670   7
  -1   9  16 368.993 137.103   3
   1   9  16 319.545 123.317   3
  -1   9  16 1009.72 208.435   2
  -9   1  16 140.081 172.941   6
  -1  -9 -16 564.027 132.798   5
   1   9 -16 318.744 158.287   4
  -1  -9  17 188.302 82.8812   6
   1  -9 -17 228.027 95.7862   5
   1  -9 -17 204.805 129.443   8
  -9  -1  17 169.350 164.492   6
  -1  -9 -17 156.827 102.016   5
   1   9  17 233.830 99.5402   3
  -1   9  17 191.744 116.374   3
  -1   9  18 288.928 130.269   3
  -9  -1  18 401.983 172.993   6
   1  -9 -18 387.293 114.758   5
  -1  -9  18 133.902 97.6153   7
  -1  -9  19 214.544 95.6087   6
  -1  -9 -19 176.669 172.611   8
  -1  -9  19 177.677 101.843   7
  -9  -1  19 314.797 173.015   6
   1   9 -19 166.097 155.370   4
  -1  -9 -20 521.861 227.468   8
  -1  -9  20 486.550 135.369   7
   1   9 -20 982.095 239.684   4
  -1  -9 -20 121.115 163.725   5
   1   9  20 717.040 144.456   3
   1  -9 -20 567.602 185.085   8
   1  -9 -21-117.805 114.281   5
   1  -9 -21 103.499 140.454   8
  -1  -9 -21-18.3189 122.476   5
  -1  -9 -21 116.406 175.127   8
  -1   9  21-16.7108 116.379   3
   1   9  21 160.829 113.943   3
   1   9 -21 87.6241 156.149   4
  -1  -9  21 205.860 101.324   7
  -1  -9 -22 19.4097 137.470   5
   1  -9 -22 213.906 150.082   8
  -1  -9 -22 23.8575 181.744   8
  -1   9  22-84.2463 117.353   3
   1   9  22 16.4555 110.625   3
  -1  -9  22 86.0052 112.666   7
   1  -9 -22-202.477 114.348   5
  -1  -9 -23 41.1646 144.659   5
   1  -9 -23-92.0536 160.439   8
   1  -9 -23 50.1421 119.473   5
  -1  -9 -23-262.692 190.254   8
  -1   9  23-120.888 118.844   3
   1   9  23 51.4337 110.522   3
  -1   9  24 35.0548 119.402   3
   1  -9 -24 294.592 156.092   8
   1  -9 -24 142.791 140.149   5
  -1  -9 -24 219.728 209.743   8
   1   9  24 214.152 113.596   3
   1  -9 -25-114.079 158.197   8
   1  -9 -25 75.3807 136.203   5
  -1   9  25 35.6779 106.527   3
   1   9  25 56.5670 117.087   3
  -1  -9 -25-24.9214 207.966   8
  -1   9  26 1626.03 283.169   3
   1  -9 -26 1334.67 302.715   8
   1  -9 -26 1463.93 294.096   5
  -1  -9 -26 1039.54 318.032   8
  -1  -9 -27-50.4390 191.495   8
   1  -9 -27-106.748 152.532   5
   1  -9 -27-162.098 167.648   8
  -1   9  27 92.3382 240.309   2
  -1   9  27 95.0650 126.139   3
  -1  -9 -28 324.606 215.341   8
   1  -9 -28 202.603 171.953   8
   2  -9   0 951.489 176.501   5
   2   9   0 873.227 152.348   3
  -2  -9   0 659.415 138.887   8
   2  -9   0 702.489 125.552   8
  -2  -9   0 685.614 126.845   5
   2   9   0 734.396 129.160   4
   2   9   0 565.099 140.263   1
  -2  -9   0 612.135 128.002   7
   2   9   0 657.496 162.462   2
   2  -9   0 498.498 133.112   7
  -2   9   0 832.394 170.547   2
  -2  -9   0 759.180 137.122   6
   2   9  -1 6775.39 1096.37   3
   2   9   1 7082.95 1095.71   3
   2   9  -1 6021.66 1091.56   1
  -2  -9  -1 6567.02 1086.50   5
   2  -9  -1 6666.01 1085.34   8
   2  -9   1 7262.25 1091.92   7
  -2   9  -1 7542.93 1101.37   2
   2   9   1 7010.95 1085.15   4
  -2  -9   1 5534.54 1084.25   7
   2   9  -1 6150.09 1085.92   4
  -2  -9  -1 6383.62 1088.71   6
  -2   9   1 7608.13 1107.55   2
  -2  -9   1 6748.55 1089.10   6
   2   9  -1 7244.29 1103.32   2
   2   9   1 6475.62 1089.82   1
  -2   9   2 139.918 114.140   2
   2   9  -2 218.225 84.7462   1
   2  -9   2 211.343 132.512   5
   2  -9  -2 188.012 101.459   5
   2   9  -2 161.538 91.9534   3
   2  -9  -2 273.845 54.1278   8
   2   9   2 137.049 65.4675   1
  -2  -9   2 115.904 52.8446   5
  -2  -9   2 132.029 55.7304   8
   2   9   2 154.304 54.5726   4
   2   9  -2 138.820 112.388   2
  -2  -9  -2 160.022 60.8023   7
  -2  -9   2 280.266 60.8835   7
  -2  -9  -2 79.9392 57.9399   5
   2   9  -2 93.0491 60.3273   4
  -2  -9  -2 178.513 89.6797   8
   2  -9   2 166.672 73.4274   7
  -2  -9  -2 261.767 66.8176   6
  -2  -9   2 69.1660 62.6210   6
   2   9   2 190.694 84.8906   3
  -2   9   3 1169.96 204.299   2
  -2  -9  -3 920.559 155.697   5
   2   9  -3 1115.97 184.827   2
   2  -9  -3 949.745 182.505   5
   2   9  -3 1075.41 174.232   3
  -2  -9   3 516.784 148.764   5
  -2  -9  -3 970.029 173.313   8
   2   9   3 1267.44 178.637   3
   2  -9  -3 979.863 153.155   8
   2  -9  -3 899.135 152.607   7
  -2  -9  -3 912.557 159.287   7
   2   9  -3 1061.36 160.550   4
  -2  -9   3 551.334 152.159   7
  -2  -9   3 682.619 149.799   8
  -2  -9   3 628.913 157.182   6
   2   9   3 1058.82 157.528   1
   2   9   4 47.8370 77.8409   3
  -2   9   4-19.1006 112.085   2
   2  -9  -4-42.0618 83.2953   5
  -2  -9   4 27.2297 46.1047   7
  -2  -9   4 73.5641 45.6565   5
   2   9  -4 13.2652 100.022   2
  -2  -9   4 19.8592 39.9554   8
   2  -9  -4 19.4931 45.3900   8
   2   9  -4-8.35718 63.9876   4
  -2  -9  -4-7.78695 55.2614   5
  -2  -9  -4 37.7320 90.2367   8
   2  -9  -4 42.5869 43.4988   7
  -2  -9   4-9.13277 59.4891   6
   2   9  -5-12.7600 92.2539   2
   2  -9  -5-13.2311 90.1905   5
  -2   9   5 157.120 137.377   2
  -2  -9  -5 40.6585 52.1664   5
   2   9  -5-27.0807 64.2521   4
   2   9   5-12.0846 73.4503   3
  -2  -9   5 18.7707 38.5580   8
   2  -9  -5 13.4300 45.6350   8
  -2  -9   5-14.1692 47.7033   7
  -2  -9  -5 27.7233 100.211   8
   2   9   5 36.0744 35.6837   4
  -2  -9  -5 49.8627 54.7210   6
  -2  -9   5 9.40670 57.2024   6
  -2  -9   6 973.296 148.036   7
  -2  -9  -6 621.065 183.662   8
  -2  -9  -6 942.802 147.699   6
   2  -9  -6 1145.23 169.501   5
   2   9  -6 712.884 158.025   4
  -2   9   6 542.688 187.066   2
   2   9   6 720.878 135.307   4
   2   9   6 976.930 161.268   3
  -2  -9  -6 903.112 150.095   5
   2  -9  -6 588.246 144.552   8
  -2  -9   6 575.326 148.307   6
   2  -9  -7 113.203 87.5451   5
   2  -9  -7 22.2602 59.7180   8
  -2  -9  -7 78.6158 117.106   8
  -2  -9   7 141.612 50.1623   5
  -2   9   7 61.4886 141.554   2
  -2  -9  -7 26.8424 57.5151   5
  -2  -9   7 171.421 59.8836   7
   2   9  -7 10.6122 91.6732   3
   2   9   7 183.792 81.2278   3
   2   9  -7 52.7128 77.7129   4
  -2  -9   7 9.86929 67.7444   6
  -2   9   8 424.598 160.103   3
   2  -9  -8 370.496 106.211   5
   2   9   8 259.741 102.993   3
  -2  -9   8 518.547 94.3594   7
  -2  -9  -8 349.993 144.273   8
   2   9  -8 384.238 110.013   4
  -2  -9   8 191.199 90.7007   6
  -2  -9  -8 356.632 92.7863   5
  -2   9   9 318.514 153.069   3
   2  -9  -9 250.051 94.6588   5
  -2  -9  -9 192.819 133.886   8
  -2  -9  -9 69.0243 68.4311   5
   2   9  -9 205.588 92.8085   4
  -2  -9   9 193.385 66.0817   7
  -2   9   9-63.4936 144.808   2
  -2  -9   9 103.260 71.4741   6
   2   9   9 303.031 95.1780   3
  -2  -9  10 550.108 123.425   6
  -2  -9  10 704.652 118.393   7
   2  -9 -10 776.050 140.700   5
  -2   9  10 213.687 172.348   2
   2  -9 -10 662.691 125.270   8
  -2  -9 -10 323.238 120.233   5
   2   9  10 566.037 135.591   3
  -2  -9 -10 820.929 184.460   8
  -2   9  10 283.612 168.410   3
   2   9 -10 538.673 146.482   4
  -2   9  11 2691.48 482.179   3
   2   9  11 2124.33 462.200   3
   2  -9 -11 3194.23 462.510   5
  -2  -9 -11 2388.79 481.603   8
   2   9 -11 2994.35 470.933   4
  -2  -9  11 2883.54 458.036   6
  -2   9  11 2683.20 489.550   2
  -2  -9  11 2923.85 456.515   7
   2  -9 -11 2276.52 455.065   8
  -2  -9  12 669.114 115.546   6
   2  -9 -12 576.759 112.293   8
  -2   9  12 509.198 170.627   3
   2  -9 -12 379.887 116.168   5
  -2  -9 -12 235.388 115.159   5
  -2  -9  12 583.809 106.377   7
  -2   9  12 460.420 166.392   2
   2   9  12 330.084 123.656   3
   2   9 -12 327.071 143.940   4
   2   9  13 4712.31 691.492   3
  -2  -9 -13 4820.59 716.628   8
  -2   9  13 2501.24 702.280   3
  -2  -9  13 4248.23 684.408   7
  -2  -9  13 4579.61 687.185   6
  -2   9  13 2508.61 713.431   2
  -2  -9  14 171.276 78.2732   6
  -2   9  14-36.7930 164.235   3
   2  -9 -14 68.7807 102.885   5
   2  -9 -14-10.8563 106.625   8
  -2  -9 -14 256.096 102.093   5
  -2  -9 -14-85.6991 173.900   8
  -2   9  14-315.121 213.888   2
   2   9  14 164.954 94.6249   3
  -9  -2  14 123.644 154.736   6
   2   9 -14 101.024 133.443   4
   2  -9 -15 3174.22 607.932   5
  -2  -9 -15 3464.37 612.777   5
   2   9 -15 4242.34 630.481   4
   2  -9 -15 3792.56 610.645   8
   2   9  15 3705.16 614.081   3
  -2  -9 -15 4186.06 641.488   8
  -9  -2  15 3122.72 635.331   6
  -2  -9  15 3646.47 607.416   6
  -2   9  15 3377.77 639.385   2
  -2   9  15 3590.98 622.261   3
  -2  -9  16 506.748 114.178   6
  -2   9  16 396.719 185.592   2
   2  -9 -16 362.071 117.989   5
  -2   9  16 680.029 165.692   3
  -2  -9 -16 520.240 142.148   5
  -2  -9 -16 434.228 195.554   8
   2   9  16 469.198 129.864   3
   2  -9 -16 475.241 133.346   8
  -9  -2  16 192.020 188.049   6
   2   9 -16 405.911 176.726   4
  -2   9  17 358.139 193.641   2
  -2   9  17 406.442 146.432   3
   2  -9 -17 415.919 126.320   8
   2  -9 -17 379.895 120.245   5
  -2  -9 -17 259.411 126.578   5
   2   9  17 540.663 122.632   3
  -9  -2  17 319.386 178.595   6
   9   2 -17 321.666 95.7711   1
   9   2 -18 370.771 89.9666   1
  -2   9  18 349.248 152.629   3
  -2  -9 -18 435.332 192.389   8
  -2  -9  18 191.536 109.868   7
  -9  -2  18 442.946 168.880   6
   2  -9 -18 375.536 113.163   5
   9   2 -19-39.3525 69.3599   1
   2   9  19 61.4059 96.2217   3
  -2  -9  19 129.522 85.8777   7
  -2  -9 -19-36.7082 123.676   5
  -2  -9 -19 496.009 204.655   8
  -9  -2  19 22.1034 146.768   7
   9   2 -19 81.3388 73.6610   4
  -9  -2  19 124.580 152.662   6
   2   9 -19 103.137 153.973   4
  -2  -9  19 25.7021 77.6672   6
  -2  -9  20 172.274 95.4637   6
   9   2 -20 132.354 81.7983   1
  -2  -9 -20 19.3367 141.957   5
   2  -9 -20 57.4391 130.044   8
  -9  -2  20 41.0821 153.603   6
  -9  -2  20 22.4321 160.014   7
   9   2 -20 105.390 86.6234   4
  -2   9  20 204.277 224.553   2
  -2  -9 -20-25.3753 218.321   8
   2   9  20 47.8289 110.319   3
  -2  -9  20 61.2546 92.5119   7
   2   9 -20-191.914 171.381   4
  -2  -9  21 205.075 97.4896   6
   2  -9 -21 257.721 112.751   5
   2  -9 -21 14.8764 125.026   8
  -2  -9 -21 154.685 229.063   8
  -2   9  21-34.9531 115.854   3
  -2   9  21-78.6799 189.869   2
   2   9  21 49.5850 101.032   3
   2   9 -21 44.1279 159.220   4
  -9  -2  21 60.7082 151.238   6
  -2  -9  21 12.7591 100.915   7
  -9  -2  21-113.676 148.984   7
  -2  -9  22 14.1140 100.161   6
  -2  -9 -22 157.672 204.131   8
   2  -9 -22 107.930 126.970   8
  -2  -9  22 372.363 103.523   7
  -2   9  22 88.2272 121.038   3
  -2   9  22 53.9291 208.680   2
   2   9  22 17.3874 109.466   3
   2   9 -22 90.8774 166.848   4
   2  -9 -22 156.193 115.791   5
  -2  -9  23 43.6619 108.108   6
   2  -9 -23 415.575 147.823   8
   2   9 -23-23.3444 174.791   4
   2  -9 -23 346.298 128.253   5
  -2  -9 -23 294.068 232.042   8
  -2   9  23 504.861 131.589   3
  -2   9  23 138.723 218.347   2
  -2  -9  23 138.749 114.998   7
   2  -9 -24-16.1270 119.283   5
   2  -9 -24-16.5779 143.980   8
  -2   9  24 54.6607 116.711   3
  -2  -9 -24-269.356 217.969   8
  -2  -9  24 14.6004 109.616   7
  -2   9  24 85.7296 212.165   2
   2   9 -24 47.7378 171.113   4
   2  -9 -25 1796.36 286.870   5
   2  -9 -25 1169.08 289.828   8
  -2  -9  25 2013.13 290.749   7
  -2   9  25 1159.85 281.330   3
  -2   9  25 441.925 334.729   2
  -2   9  26 91.1696 237.259   2
   2  -9 -26 17.8429 150.733   8
   2  -9 -26 127.694 131.396   5
  -2   9  26-18.6968 124.608   3
  -2  -9  26-16.1264 135.456   7
   2  -9 -27 1388.43 287.256   8
   2  -9 -27 1396.91 285.055   5
   3   9   0 14941.9 2201.33   3
  -3  -9   0 12888.6 2195.06   5
   3   9   0 13297.8 2193.66   4
  -3  -9   0 12289.3 2196.48   7
   3   9   0 13756.8 2198.82   1
  -3  -9   0 13760.1 2200.38   6
   3   9  -1 221.928 78.5713   3
   3  -9  -1 77.6236 114.810   5
   3   9  -1 30.2959 65.4553   1
   3   9  -1 55.0225 50.1935   4
  -3  -9   1 103.051 48.9184   5
  -3  -9  -1 186.066 55.4166   5
   3   9   1 62.9657 69.5470   3
  -3  -9  -1 232.783 101.820   8
  -3  -9  -1 114.120 70.6087   7
   3   9   1 37.2585 43.7900   4
  -3  -9   1 66.7120 75.6485   8
  -3  -9   1 62.8134 61.4678   7
   3   9   1 8.10200 57.9260   1
  -3  -9  -1 212.215 85.6578   6
  -3  -9   1 183.495 80.7160   6
  -3  -9  -2 7668.24 1202.74   5
  -3  -9  -2 7827.00 1213.31   8
   3  -9  -2 5963.94 1199.26   8
   3  -9  -2 8064.57 1222.80   5
   3   9  -2 6900.79 1200.77   4
  -3  -9   2 7800.35 1203.20   7
  -3   9   2 7883.14 1218.71   2
  -3  -9   2 7297.97 1207.47   6
   3   9   2 8369.30 1202.67   1
   3   9  -2 6602.91 1207.62   1
   3  -9  -3 71.0943 119.065   5
  -3  -9  -3 150.643 82.3988   7
  -3  -9   3 75.1331 43.8814   5
   3   9  -3 50.1616 95.3771   2
  -3  -9  -3 59.9952 79.6356   6
  -3  -9   3 7.01496 58.7456   8
   3   9  -3 84.2526 56.8508   4
   3   9  -3 115.063 74.4331   3
   3   9   3 153.189 48.2571   1
   3  -9  -3 59.4988 47.2482   8
   3   9  -3 47.8554 89.4314   1
   3   9   3 219.138 73.7676   3
  -3  -9  -3 86.8367 111.391   8
  -3  -9   3 74.9991 52.4892   7
  -3   9   3 17.7341 109.080   2
  -3  -9   3 41.3665 62.7303   6
  -3  -9  -3 31.8400 54.5646   5
  -3  -9   4 730.191 172.641   6
  -3  -9  -4 1000.86 169.367   5
   3  -9  -4 805.840 162.418   8
   3  -9  -4 987.116 197.989   5
  -3  -9   4 978.746 163.255   8
   3   9  -4 858.076 186.392   2
  -3  -9  -4 932.816 197.164   8
  -3  -9   4 960.358 165.092   7
  -3  -9  -4 1006.37 178.747   7
   3   9  -4 803.576 166.006   4
   3   9   4 1020.35 161.409   1
  -3  -9  -4 941.371 177.071   6
   3   9  -4 730.830 188.519   1
   3   9   4 826.252 172.680   3
  -3   9   4 889.120 202.055   2
   3   9  -5 13.6828 83.6401   1
  -3   9   5 193.178 133.123   2
  -3  -9  -5 71.5741 59.2188   5
   3   9   5 147.903 75.2939   3
   3  -9  -5 47.7891 88.7269   5
  -3  -9   5 10.6217 68.3539   6
  -3  -9   5 60.4762 54.1480   7
   3   9  -5 49.2852 58.6993   4
   3  -9  -5 61.5456 52.2086   8
  -3  -9  -5-32.2242 112.119   8
  -3  -9  -6-50.7578 117.991   8
   3   9  -6 14.4462 98.1915   1
  -3   9   6 20.0885 133.303   2
   3  -9  -6 61.2047 87.7869   5
  -3  -9  -6 114.384 60.4640   5
   3  -9  -6 55.8864 51.6738   8
  -3  -9   6-7.70857 52.4391   7
   3   9   6 46.4154 72.3240   3
   3   9  -6-8.78603 68.6431   4
   3   9  -6 45.3578 71.3345   3
  -3  -9   6 85.8178 73.3647   6
   3  -9  -7 88.6574 113.313   5
  -3  -9   7 299.363 73.8342   7
  -3  -9  -7 324.593 84.3797   5
   3   9   7 236.421 89.3841   3
  -3  -9  -7 177.092 135.115   8
   3   9  -7 256.532 81.8973   4
  -3  -9   7 173.656 86.4728   6
  -3   9   8 470.469 169.711   2
  -3  -9  -8 425.489 157.094   8
  -3  -9  -8 280.711 91.3381   5
  -3  -9   8 379.442 79.6669   7
   3   9   8 240.822 91.4523   3
   3  -9  -8 322.589 120.391   5
   3   9  -8 255.713 98.8582   4
  -3  -9   8 354.593 93.7514   6
   3  -9  -9 164.405 95.6439   5
  -3   9   9 130.827 143.982   2
   3  -9  -9 177.165 64.7869   8
   3   9   9 98.1877 72.8331   3
  -3  -9  -9 58.0410 145.680   8
  -3  -9  -9 241.274 88.4344   5
  -3  -9   9 99.6684 62.4053   7
   3   9  -9 75.9992 84.1370   4
  -3  -9   9 78.3470 77.3966   6
  -3  -9 -10 1990.19 399.823   5
  -3   9  10 2157.31 431.540   2
   3  -9 -10 2183.39 392.351   8
   3   9  10 2281.66 399.895   3
  -3  -9 -10 2516.96 430.527   8
   3   9 -10 2360.96 401.811   4
  -3  -9  10 2685.26 395.655   7
   3  -9 -10 2189.75 404.377   5
  -3  -9  10 2406.94 399.801   6
  -3   9  11 122.427 152.648   3
   3   9  11-64.0633 84.1575   3
   3  -9 -11 77.6689 96.8615   5
  -3   9  11 22.6292 159.608   2
  -3  -9 -11 77.7029 83.8272   5
  -3  -9  11-8.80962 63.2060   7
   3  -9 -11-41.7736 65.0397   8
   3   9 -11-74.4893 89.3948   4
  -3  -9 -11 42.0001 157.102   8
  -3  -9  11-92.2707 81.7176   6
   3   9  12 5398.45 998.924   3
   3  -9 -12 6346.83 993.563   8
   3  -9 -12 5923.96 998.986   5
  -3  -9 -12 6753.24 1002.65   5
  -3   9  12 4586.94 1014.83   3
   3   9 -12 5996.78 1001.59   4
  -3  -9  12 5884.83 996.882   6
  -3   9  12 6716.38 1024.12   2
   3   9  13 53.0014 103.505   3
  -3   9  13 457.182 225.263   3
   3  -9 -13 214.576 117.368   5
   3  -9 -13 653.439 125.908   8
  -3  -9 -13 189.174 113.796   5
  -3  -9  13 327.435 96.1116   7
   3   9 -13 57.3509 137.027   4
  -9  -3  13 211.043 175.629   6
  -3  -9  13 427.942 110.181   6
  -3   9  13 841.206 243.348   2
  -3   9  14 5732.04 1125.06   3
   3   9  14 5651.58 1109.59   3
  -3  -9 -14 6448.62 1114.94   5
   3  -9 -14 7191.74 1107.59   8
  -3  -9 -14 6643.61 1135.99   8
   3   9 -14 7062.84 1118.86   4
  -3   9  14 7028.37 1134.94   2
  -3  -9  14 7163.77 1111.01   6
   3  -9 -14 6894.74 1111.57   5
  -3   9  15 263.307 151.423   3
   3  -9 -15-101.364 81.3516   8
   3  -9 -15 61.8234 86.2100   5
  -3  -9 -15 131.778 98.5090   5
  -3  -9 -15 168.599 187.745   8
  -3   9  15-48.2121 167.579   2
   3   9  15 168.265 91.0730   3
  -3  -9  15 120.386 79.4907   7
   3   9 -15-49.2170 127.312   4
  -9  -3  15 217.530 168.482   6
  -3  -9  15 121.905 79.7873   6
   9   3 -15 72.9797 57.3057   1
  -3  -9  16 2717.48 484.783   6
   3  -9 -16 3329.26 490.335   5
  -3  -9 -16 2949.55 501.768   5
  -3   9  16 2187.05 525.389   2
   3  -9 -16 2855.20 484.756   8
   3   9 -16 2652.68 502.582   4
  -9  -3  16 3056.14 516.945   6
  -3   9  16 2434.04 509.739   3
  -9  -3  17 406.885 162.448   6
  -3   9  17 176.885 155.316   3
   3  -9 -17 222.087 98.7761   5
  -3   9  17 324.694 209.176   2
   9   3 -17 283.404 90.7898   1
  -9  -3  17 242.564 148.403   7
   9   3 -18 243.132 92.5894   1
   3  -9 -18 472.757 123.771   5
  -3  -9 -18 315.952 215.817   8
  -9  -3  18 466.082 165.907   7
  -3  -9  18 276.763 100.927   7
  -9  -3  18 231.730 175.907   6
   9   3 -19 10.5440 83.9649   1
  -3  -9  19 11.4675 81.2103   7
  -3  -9 -19-214.983 243.437   8
   3   9 -19-122.523 163.143   4
   3  -9 -19 72.7302 102.346   8
   9   3 -19-18.7891 80.9194   4
  -3  -9  19 115.317 88.8438   6
  -9  -3  19-66.8539 145.602   7
  -9  -3  19-83.1664 170.367   6
  -3  -9  20 13.0555 89.3488   6
  -3   9  20-18.8793 139.113   3
   3  -9 -20 12.8739 111.198   8
  -3  -9  20-35.6694 91.5374   7
  -3   9  20 26.6087 228.546   2
   9   3 -20-49.8992 80.5072   4
  -9  -3  20 142.457 149.383   6
   3   9 -20 21.1047 166.959   4
  -3  -9  21-107.293 99.5646   6
   3  -9 -21-106.904 115.414   8
  -3   9  21 131.038 136.613   3
   3  -9 -21-105.284 91.6489   5
  -3   9  21-109.140 212.417   2
  -3  -9  21 12.3438 96.3985   7
   3   9 -21 43.6346 166.408   4
  -3  -9  22 13.8047 88.8569   6
  -9  -3  22 22.5063 158.633   7
   3  -9 -22 222.051 124.415   8
   3  -9 -22 218.509 115.665   5
  -3  -9  22 307.894 107.605   7
  -3   9  22 74.7731 140.709   3
  -3   9  22 56.0263 216.567   2
   9   3 -22-11.8723 90.9873   1
   3   9 -22 271.180 183.363   4
   3  -9 -23-99.3918 112.923   5
   3  -9 -23-14.4266 121.660   8
  -3   9  23 171.925 218.385   2
  -3  -9  23 13.3487 89.1796   7
  -3  -9  23-99.2735 92.4848   6
   3   9 -23-23.2751 178.698   4
  -3   9  23-113.151 132.632   3
  -3  -9  24 1529.61 258.459   7
  -3  -9  24 1110.48 245.575   6
   3  -9 -24 1485.78 263.986   8
  -3   9  24 589.809 321.240   2
   3  -9 -24 1839.02 265.514   5
   3   9 -24 1698.35 309.329   4
  -3   9  24 674.626 260.583   3
  -3  -9  25-60.2580 103.841   6
   3  -9 -25-125.048 134.455   8
  -3   9  25-77.7863 149.178   3
  -3   9  25-182.258 241.420   2
   3   9 -25 24.6195 268.329   4
   3  -9 -25-47.0812 114.980   5
  -3  -9  26 1582.97 389.926   6
   3  -9 -26 2416.38 401.078   5
   3  -9 -26 2215.11 401.410   8
  -3  -9  26 2892.98 419.194   7
  -3  -9  27 15.6561 116.887   7
   3   9 -27 128.382 202.572   4
  -3  -9  28 2412.33 434.287   7
  -3  -9  29-17.0471 136.662   7
  -3  -9  30 569.172 171.051   7
   4   9   0 895.165 220.936   3
  -4  -9   0 1129.55 218.727   5
  -4  -9   0 1138.42 235.657   6
  -4  -9   0 1404.45 239.225   8
   4   9   0 1509.58 221.905   1
  -4  -9   0 1436.54 231.254   7
   4   9  -1 12890.3 1967.35   3
  -4  -9   1 12112.0 1963.71   5
  -4  -9  -1 11535.7 1964.54   5
  -4  -9  -1 10119.7 1973.51   8
  -4  -9   1 12786.8 1968.56   7
  -4  -9   1 11823.2 1971.17   6
   4   9  -1 11801.8 1965.37   1
   4   9   2 260.537 62.1440   1
  -4  -9  -2 181.170 112.544   8
  -4  -9   2 152.657 103.081   6
  -4  -9  -2 286.583 78.2524   5
  -4  -9  -2 139.710 104.225   6
  -4  -9   2 102.726 91.4480   8
   4   9  -2 182.875 64.0557   4
   4   9  -2 289.707 80.9714   3
  -4  -9  -2 80.7318 96.2504   7
   4   9   2 258.489 79.0075   3
  -4  -9   2 275.221 78.7446   7
  -4  -9   2 230.867 64.0995   5
   4   9  -2 168.742 74.5913   1
   4   9  -3 4608.03 691.445   3
  -4  -9   3 3980.01 686.711   5
  -4  -9  -3 3651.27 689.758   5
   4   9  -3 3950.59 693.993   1
  -4  -9   3 3931.06 693.269   8
  -4  -9   3 4884.55 700.165   6
  -4  -9  -3 4472.49 708.332   8
   4   9   4 2044.26 346.955   3
  -4  -9   4 1770.71 336.596   5
   4  -9  -4 1532.65 368.040   5
  -4  -9  -4 2280.22 346.040   5
  -4  -9   4 1927.81 343.340   8
   4   9  -4 2091.38 338.795   4
  -4  -9   4 1906.90 342.896   7
  -4   9   4 2699.05 369.911   2
  -4  -9  -4 1853.41 351.998   6
   4   9  -4 1500.12 347.358   1
  -4  -9  -4 2353.65 364.476   8
  -4  -9   4 2499.05 357.127   6
  -4  -9  -5 421.413 108.419   6
  -4  -9   5 513.544 101.019   6
   4  -9  -5 207.622 124.645   5
   4   9  -5 244.847 99.8258   1
  -4  -9   5 196.680 76.1610   7
   4  -9  -5 78.5159 60.7001   8
  -4  -9  -5 228.173 83.3049   5
  -4  -9  -5 311.171 135.847   8
   4   9  -5 181.828 69.0187   4
   4   9   5 281.017 81.5529   3
  -4   9   5 430.879 132.864   2
   4   9  -6 124.850 102.518   1
   4   9   6 103.262 77.6246   3
   4  -9  -6 142.433 125.824   5
   4   9  -6 64.8457 63.8918   4
  -4  -9  -6 89.9858 132.322   8
  -4  -9  -6 91.9608 82.5422   5
  -4  -9   6 151.823 68.2542   7
  -4  -9  -6 224.413 95.7846   6
  -4  -9   6 274.746 100.135   6
   4  -9  -7 34.3237 116.106   5
   4   9  -7 69.4794 71.7541   4
  -4  -9  -7 168.218 130.913   8
   4   9  -7 44.1595 96.9144   1
  -4  -9   7-12.5949 83.0097   6
   4   9   7 11.7158 68.6869   3
  -4  -9  -7 108.664 81.4774   5
  -4  -9   7 26.6220 64.2862   7
  -4  -9  -7 21.3717 88.6665   6
  -4   9   8 500.426 167.759   2
  -4  -9   8 294.436 88.5853   7
   4  -9  -8 264.930 80.4258   8
  -4  -9  -8 306.618 105.576   5
   4  -9  -8 215.495 120.353   5
   4   9   8 467.621 102.395   3
   4   9  -8 439.482 100.270   4
   4   9  -8 503.144 134.371   1
  -4  -9  -8 354.394 146.874   8
  -4  -9   8 314.852 108.506   6
  -4   9   9 1663.72 277.049   2
   4  -9  -9 986.381 249.737   5
   4   9  -9 1046.86 251.564   1
   4  -9  -9 1222.17 220.755   8
  -4  -9   9 1411.69 235.025   6
  -4  -9  -9 1311.25 237.775   5
   4   9  -9 1292.75 227.117   4
  -4  -9   9 1125.76 222.072   7
  -4  -9  -9 1649.21 273.001   8
   4   9   9 1193.84 229.970   3
  -4   9  10 402.492 160.242   2
   4  -9 -10 121.921 107.596   5
   4   9 -10 17.5313 120.892   1
  -4  -9 -10 257.764 102.699   5
  -4  -9  10 9.04532 65.0481   7
  -4  -9 -10 235.119 150.854   8
   4   9  10 229.584 84.5165   3
   4   9 -10 182.079 93.7047   4
  -4  -9  10 189.631 91.0311   6
   4  -9 -10 174.658 70.4651   8
   4   9  11 4727.22 814.399   3
   4  -9 -11 3908.53 816.534   5
  -4  -9 -11 4682.71 819.208   5
  -4   9  11 5926.62 843.946   2
   4   9 -11 4953.35 814.736   4
   4  -9 -11 5157.91 808.974   8
  -4  -9  11 5018.06 814.982   6
  -4   9  12 467.698 217.780   2
   4  -9 -12 515.539 138.910   5
   4  -9 -12 237.637 90.3935   8
   4   9  12 311.371 102.251   3
  -4  -9 -12 475.223 134.521   5
  -4  -9 -12 514.032 207.489   8
  -4  -9  12 46.9465 84.2433   7
   4   9 -12 633.247 144.231   4
   4   9 -12-58.0804 183.200   1
  -9  -4  12 637.099 226.450   6
  -4  -9  12 167.173 100.821   6
   4   9  13 6434.11 1143.20   3
   4  -9 -13 7304.85 1146.81   5
   4   9 -13 6520.95 1142.37   4
  -4   9  13 6967.26 1165.94   2
  -4  -9  13 7327.62 1142.95   6
  -4   9  13 6605.73 1164.56   3
   9   4 -14 149.644 74.3296   1
  -4   9  14 272.367 181.348   3
   4  -9 -14 336.814 86.0691   8
  -4   9  14 486.098 188.499   2
   4  -9 -14 236.217 112.710   5
   4   9 -14 223.364 120.772   4
   4   9  14 175.578 98.3036   3
  -9  -4  14 358.532 175.032   6
  -4  -9  14 222.267 93.0394   6
  -4   9  15 3951.42 723.172   3
   4  -9 -15 3596.84 697.688   5
  -9  -4  15 3891.27 717.230   7
   4   9 -15 3941.52 703.796   4
  -9  -4  15 4576.27 721.465   6
  -4   9  15 3616.08 725.674   2
  -4  -9  15 3841.67 695.799   6
   9   4 -15 4325.15 690.654   1
   4  -9 -15 4726.59 691.905   8
   9   4 -16 40.1250 69.9959   1
  -4   9  16 387.438 189.658   3
   4  -9 -16-53.2106 103.576   5
  -4   9  16-50.4851 188.168   2
  -9  -4  16-154.579 153.840   7
   4  -9 -16 107.787 83.0926   8
  -9  -4  16-65.8662 154.254   6
   9   4 -17 1263.69 225.821   1
  -4   9  17 1560.37 277.281   3
   4  -9 -17 1463.21 233.653   5
  -4  -9  17 689.822 222.190   7
  -9  -4  17 1473.20 270.466   7
  -9  -4  17 1443.20 277.349   6
   4   9 -18-90.8861 157.001   4
  -4  -9  18 32.7807 82.0364   7
   9   4 -18-28.0395 69.6535   4
  -9  -4  18-21.2123 156.301   6
  -4  -9  18 54.4056 94.7146   6
  -4  -9  19 177.201 107.031   6
   4  -9 -19 44.8764 108.348   8
  -4  -9  19 33.7964 83.9462   7
  -4   9  19 53.6344 260.247   2
  -4  -9  20 41.4172 87.4426   6
  -4   9  20 191.222 172.948   3
   4  -9 -20 237.886 154.655   5
  -4   9  20-109.655 307.065   2
   9   4 -20 129.572 78.5641   1
   4  -9 -20 128.060 114.784   8
  -4  -9  20 197.765 90.3597   7
  -9  -4  20 129.816 164.081   7
   4   9 -20 284.956 165.295   4
  -4  -9  21-13.7776 93.1383   6
  -9  -4  21-192.792 167.832   7
  -9  -4  21 20.0857 142.898   6
  -4   9  21 272.323 166.327   3
   4  -9 -21 26.8039 107.859   5
   9   4 -21 74.1754 88.0256   1
   9   4 -21 67.4393 94.7329   4
  -4  -9  21 12.0699 93.9999   7
   4   9 -21 21.3029 168.587   4
   4  -9 -21 36.9669 103.228   8
  -4   9  21-140.354 256.884   2
  -4  -9  22 306.920 104.734   6
   9   4 -22 220.605 102.555   1
  -4   9  22 82.6763 149.366   3
   4  -9 -22 108.684 116.222   5
  -4   9  22-57.5571 215.729   2
   4  -9 -22 358.853 124.042   8
  -9  -4  22 43.3273 158.745   7
  -4  -9  22 186.908 99.7976   7
   9   4 -22 156.554 106.511   4
   4   9 -22 22.2688 160.484   4
  -9  -4  22 180.053 141.873   6
  -4  -9  23 907.933 162.246   6
   9   4 -23 469.761 167.472   1
   4  -9 -23 514.373 160.002   5
  -4   9  23 777.883 206.245   3
   9   4 -23 454.555 160.983   4
  -4   9  23 118.066 266.459   2
   4  -9 -23 814.250 174.734   8
  -9  -4  23 1078.56 209.892   6
  -9  -4  23 581.289 208.463   7
  -4  -9  23 814.120 163.335   7
   4   9 -23 758.827 234.727   4
  -4  -9  24 247.314 105.173   6
  -4   9  24 61.2721 152.270   3
   4  -9 -24 302.296 123.737   5
   4  -9 -24 55.6895 120.201   8
  -9  -4  24 174.977 173.935   7
  -4  -9  24 107.369 109.129   7
   4   9 -24 23.6962 196.581   4
  -9  -4  24 200.083 138.903   6
  -4   9  24 242.704 254.552   2
   4  -9 -25 1628.21 313.104   5
  -4   9  25 1894.24 328.312   3
   4  -9 -25 2355.11 314.235   8
  -4  -9  25 1981.60 309.842   7
  -4  -9  25 1286.24 302.526   6
  -4   9  25 562.308 381.108   2
   4   9 -25 660.399 335.280   4
  -4  -9  26 122.819 106.534   6
  -4  -9  26 14.5311 105.971   7
   4   9 -26 75.3330 200.252   4
  -4  -9  27 2317.87 366.747   7
  -4  -9  27 2118.37 362.662   6
  -4  -9  28 16.2526 123.802   6
  -4  -9  28 15.8049 124.201   7
   4   9 -28-105.536 220.159   4
  -4  -9  29 806.726 185.804   6
  -4  -9  29 941.046 205.689   7
   4   9 -29 619.194 250.779   4
  -4  -9  30-17.2580 123.907   7
   4   9 -30-109.539 198.012   4
  -4  -9  31 162.515 140.576   7
   4   9 -32 655.549 527.286   1
  -4  -9  32 37.8051 145.117   7
   5   9   0 7411.29 1186.22   3
  -5  -9   0 6938.39 1195.53   7
  -5  -9   0 8105.33 1196.70   6
  -5  -9   0 6133.50 1192.25   8
   5   9   1 2354.08 381.255   3
   5   9  -1 3071.26 383.560   3
  -5  -9   1 2284.90 394.055   8
  -5  -9   1 2236.26 390.409   7
  -5  -9  -1 2215.04 397.142   8
  -5  -9  -1 1778.89 389.736   7
  -5  -9  -1 2039.73 395.162   6
  -5  -9   1 2182.28 395.744   6
   5   9   1 2004.38 372.855   1
   5   9  -1 2074.15 374.690   1
   5   9   2 4324.88 670.376   3
   5   9  -2 4304.52 669.748   3
  -5  -9  -2 3352.91 676.332   8
  -5  -9  -2 3872.87 678.147   6
   5   9  -2 3886.11 666.680   1
   5   9   3 3769.83 677.797   3
   5   9  -3 4493.91 677.153   3
  -5  -9   3 3862.54 683.846   8
  -5  -9  -3 3899.50 690.680   8
  -5  -9  -3 4371.06 687.968   6
  -5  -9   3 3708.77 687.101   6
  -5  -9   4 812.136 150.283   7
  -5  -9  -4 697.563 178.312   8
  -5  -9  -4 669.230 158.670   6
   5   9   4 528.371 141.297   3
   5   9  -4 774.107 137.728   3
  -5  -9   4 537.347 169.975   6
   5   9  -4 772.253 144.160   1
  -5  -9   4 566.451 151.697   8
   5   9  -5 2082.50 392.607   4
  -5  -9   5 2452.27 401.380   7
  -5  -9   5 2521.49 414.314   6
  -5  -9  -5 2637.60 418.547   8
   5   9  -6 248.817 98.0700   1
  -5  -9  -6 132.892 141.554   8
   5   9  -6 238.493 74.4769   4
  -5  -9   6 360.487 95.3204   7
   5   9   6 312.276 95.0357   3
  -5  -9   6 404.325 123.359   6
   5  -9  -7 1626.65 354.569   5
  -5  -9   7 1791.50 342.558   6
   5   9  -7 1794.05 336.632   1
  -5  -9  -7 2699.99 364.322   8
   5   9  -7 1776.00 323.498   4
  -5  -9   7 1972.97 330.271   7
  -5   9   7 1928.29 358.066   2
   5  -9  -8-15.6783 59.0751   8
   5  -9  -8-18.6239 114.377   5
   5   9  -8 43.3637 65.5940   4
  -5  -9   8-10.5341 70.8067   7
  -5  -9  -8 189.865 141.795   8
   5   9  -8-14.3507 102.465   1
  -5  -9   8 14.6734 103.484   6
  -5   9   8-81.3914 126.330   2
   5  -9  -9 1282.76 268.969   5
   5   9  -9 1581.02 241.005   4
  -5  -9   9 1037.06 238.099   7
   5  -9  -9 1150.62 232.599   8
   5   9  -9 1224.66 256.443   1
  -5  -9   9 1628.24 258.939   6
  -5   9   9 2160.51 291.747   2
   5  -9 -10 1009.13 263.015   5
   5   9 -10 1056.18 238.755   4
   5  -9 -10 1397.51 235.800   8
  -5  -9  10 1220.02 243.364   7
  -5  -9  10 2180.47 264.729   6
   5   9 -10 1446.58 268.521   1
  -5   9  10 1342.60 283.878   2
   5  -9 -11 1764.62 396.045   5
   5   9 -11 2763.87 384.427   4
   5  -9 -11 1609.72 368.567   8
  -5  -9  11 2559.41 382.883   7
  -9  -5  11 2195.23 434.100   6
  -5   9  11 2845.32 425.751   2
   9   5 -11 1822.72 369.413   1
  -5  -9  11 2824.34 401.321   6
   5   9 -11 2962.30 422.949   1
   5  -9 -12 3443.08 623.021   8
   5   9 -12 3322.67 645.011   1
   5   9 -12 3871.50 630.035   4
  -5   9  12 4400.11 661.316   2
  -9  -5  12 3966.07 662.731   6
  -5  -9  12 3934.34 634.424   6
   5  -9 -12 3707.98 639.895   5
  -5   9  13 748.316 222.088   2
   9   5 -13 746.024 148.703   1
   5  -9 -13 483.859 176.001   5
   5   9 -13 855.184 168.802   4
  -9  -5  13 1007.21 209.712   7
   5  -9 -13 697.997 147.199   8
  -9  -5  13 510.881 230.913   6
  -5  -9  13 1035.18 175.593   6
   5  -9 -14 2979.87 547.046   5
  -9  -5  14 2690.65 561.901   7
   5   9 -14 3098.25 542.199   4
  -5   9  14 3139.68 568.870   2
  -9  -5  14 3332.78 570.349   6
  -5  -9  14 2773.56 540.106   6
   9   5 -14 3103.88 532.483   1
   5  -9 -14 3651.96 532.332   8
  -5   9  15 737.061 240.816   2
  -5   9  15 749.307 254.107   3
   9   5 -15 1197.93 186.108   1
   5  -9 -15 1226.89 209.921   5
   5  -9 -15 627.883 177.709   8
  -9  -5  15 1102.82 237.023   7
  -9  -5  15 1196.72 248.078   6
   5   9 -16 641.145 250.772   1
   5  -9 -16 1216.02 226.221   5
  -5  -9  16 823.185 211.519   7
  -9  -5  16 1554.45 264.945   6
   9  -5 -17 370.862 187.447   5
   5   9 -17 263.278 148.092   4
  -5  -9  17 233.980 106.800   7
  -5  -9  17 394.086 124.076   6
  -9  -5  18 189.151 170.079   7
   5   9 -18 25.4818 205.555   1
  -5  -9  18 11.4103 87.8542   7
   5   9 -18-81.9285 139.156   4
   9   5 -18-11.8365 93.6485   1
  -5  -9  18-73.1698 111.879   6
   9   5 -19 447.513 134.393   1
  -5   9  19 26.9448 216.771   2
   5  -9 -19 596.800 136.142   8
   9   5 -19 779.575 143.046   4
   5   9 -19 846.546 176.652   4
  -9  -5  19 570.280 185.676   7
  -5  -9  19 632.216 136.809   7
  -9  -5  19 520.925 193.357   6
   5   9 -19 563.921 248.944   1
  -5  -9  19 425.020 144.198   6
  -5   9  20 193.291 208.198   2
   5   9 -20-28.3461 200.867   1
  -5   9  20-73.3090 186.944   3
   5  -9 -20 135.108 95.3377   8
   5  -9 -20-98.6646 119.571   5
   9   5 -20-25.7383 89.5264   1
  -9  -5  20 208.571 160.732   7
   9   5 -20 66.3055 93.0439   4
  -5  -9  20 143.636 101.615   7
   5   9 -20 75.6993 147.895   4
  -9  -5  20 20.4030 147.034   6
  -5  -9  20-14.8050 98.8581   6
   5   9 -21 869.115 277.309   1
  -5   9  21 338.826 263.090   2
  -5   9  21 1080.98 239.831   3
   5  -9 -21 943.027 182.651   5
   9   5 -21 881.409 180.926   1
   5  -9 -21 1141.12 180.706   8
   9   5 -21 542.208 168.852   4
  -9  -5  21 1273.28 225.898   6
  -9  -5  21 589.523 217.033   7
  -5  -9  21 985.678 175.691   7
   5   9 -21 716.920 220.385   4
  -5  -9  21 355.601 175.257   6
  -5  -9  22-344.782 111.311   6
  -5   9  22 289.072 212.193   2
   5   9 -22 31.7411 232.096   1
   5  -9 -22 159.164 102.785   8
   9   5 -22-28.0943 100.311   1
  -5   9  22-70.8880 174.783   3
  -5  -9  22 25.4200 99.2232   7
  -9  -5  22 41.6550 149.921   7
   9   5 -22 138.957 100.280   4
   5   9 -22-21.2075 167.224   4
  -9  -5  22-100.470 141.128   6
   5  -9 -22-42.0630 108.708   5
  -5   9  23 237.530 243.554   2
  -5  -9  23 836.746 148.560   6
  -5   9  23 790.877 205.475   3
   5  -9 -23 198.397 144.587   5
   5  -9 -23 740.476 146.301   8
   9   5 -23 177.957 136.879   1
   5   9 -23 572.368 294.412   1
  -9  -5  23 823.499 202.682   7
   9   5 -23 312.988 139.513   4
  -9  -5  23 560.967 178.303   6
   5   9 -23 44.3273 197.782   4
  -5  -9  23 656.482 146.339   7
  -5  -9  24 543.585 163.362   6
   9   5 -24 446.673 174.718   4
  -5   9  24 426.830 280.318   2
  -5   9  24 1214.31 226.778   3
   5  -9 -24 1066.39 176.179   8
  -9  -5  24 776.585 205.621   7
   9   5 -24 368.815 168.410   1
  -5  -9  24 896.724 171.408   7
   5   9 -24 211.305 221.937   4
   5   9 -24 250.431 285.767   1
  -9  -5  24 1163.37 195.910   6
   5  -9 -24 646.969 166.929   5
  -5  -9  25 288.594 148.279   6
  -9  -5  25 641.238 188.149   7
   5   9 -25 685.429 332.014   1
   9   5 -25 398.052 161.819   1
   9   5 -25 688.145 174.941   4
  -5  -9  25 802.628 158.004   7
   5   9 -25 604.303 216.902   4
  -9  -5  25 866.721 188.959   6
   5   9 -26 2841.16 490.020   1
  -5  -9  26 2148.63 361.243   7
  -5  -9  26 2313.05 363.845   6
  -5  -9  27-15.8880 107.804   6
  -5  -9  27 397.142 129.992   7
   5   9 -27 76.8028 210.494   4
  -5  -9  28 522.896 179.959   6
   5   9 -28 105.538 246.333   4
  -5  -9  29 201.288 123.599   6
   5   9 -29 393.228 388.974   1
   5   9 -29 540.099 215.006   4
  -5  -9  29 265.218 141.345   7
  -5  -9  30 34.5830 110.765   6
   5   9 -30 52.5248 418.263   1
  -5  -9  30-69.6717 131.729   7
   5   9 -30 27.5536 205.340   4
  -5  -9  31 160.533 123.198   6
  -5  -9  31 272.889 146.185   7
   5   9 -31 28.2282 208.184   4
   5   9 -32 28.6460 209.510   4
  -6  -9   0 2341.21 442.240   8
  -6  -9   0 2836.60 458.346   6
  -6  -9  -1 2238.77 342.058   6
  -6  -9  -1 2270.79 333.751   8
  -6  -9   1 1973.90 337.929   6
  -6  -9   1 2118.27 339.765   7
   6   9  -1 1446.94 310.120   1
  -6  -9   1 1851.40 328.599   8
  -6  -9  -2 2258.95 530.147   8
  -6  -9   2 3871.54 534.505   8
  -6  -9   2 2990.83 539.519   7
  -6  -9  -2 3316.68 540.143   6
  -6  -9   2 1835.04 536.582   6
   6   9  -2 3598.77 519.636   1
   6   9  -3 141.396 60.2153   1
  -6  -9   3 255.167 105.418   8
  -6  -9  -3 16.7240 113.900   8
  -6  -9   3 99.3755 105.011   7
  -6  -9   3 72.6391 127.705   6
   6   9  -4 4045.14 676.856   1
   6   9  -5 512.681 136.110   1
  -6  -9   5 850.232 182.519   6
  -6  -9   5 821.105 165.866   7
  -6  -9   6 2276.33 466.232   6
  -6  -9   6 2792.42 455.124   7
   6   9  -6 2629.82 445.965   1
  -6  -9   7 1667.25 315.701   7
   6   9  -7 1934.90 310.322   1
  -6  -9   7 1487.24 325.117   6
   6   9  -8 1939.19 371.159   4
  -6  -9   8 2427.88 385.880   7
  -6  -9   8 2644.83 399.626   6
   6   9  -8 2095.95 381.974   1
  -6  -9   9-12.6030 88.9765   7
   6   9  -9-27.6644 97.2300   1
   6   9  -9 78.7343 70.6903   4
  -6  -9   9 34.1476 138.664   6
   6  -9 -10 1948.06 467.491   5
  -6  -9  10 2659.10 455.279   7
  -6  -9  10 2626.07 468.105   6
   9   6 -10 2849.89 447.227   1
  -9  -6  10 3462.17 498.658   6
  -6   9  10 2283.71 478.941   2
   6   9 -10 2572.68 461.971   1
   9   6 -11 395.791 94.1996   1
   6  -9 -11 225.030 143.873   5
  -6  -9  11 348.612 137.251   6
   6   9 -11 437.566 136.481   1
   6   9 -11 344.624 102.166   4
  -9  -6  11 340.927 169.402   7
  -6  -9  11 343.736 110.756   7
  -6   9  11 411.318 166.530   2
  -9  -6  11 557.124 200.310   6
   6  -9 -12 1865.74 293.307   5
   6  -9 -12 1477.93 260.436   8
  -9  -6  12 995.714 295.134   7
   6   9 -12 1634.30 267.774   4
   9   6 -12 1189.90 260.258   1
  -9  -6  12 964.268 306.939   6
  -6   9  12 2111.12 314.880   2
  -6  -9  12 1557.06 283.594   6
  -6  -9  12 1617.59 271.863   7
   6  -9 -13 983.891 209.796   5
   9   6 -13 682.980 169.093   1
   6  -9 -13 888.678 169.565   8
  -6  -9  13 605.408 187.282   6
  -9  -6  13 1100.60 222.717   7
  -9  -6  13 833.310 248.300   6
  -6   9  13 1526.52 236.268   2
   6   9 -13 1039.79 184.275   4
   6  -9 -14 2041.23 344.969   5
  -6   9  14 1958.53 364.275   2
   6  -9 -14 1616.28 319.587   8
  -9  -6  14 2146.30 378.913   6
   6  -9 -15 726.236 158.102   5
   6   9 -15 199.420 162.692   1
  -6  -9  15 423.258 127.599   7
   9   6 -16 608.105 159.485   1
  -6  -9  16 404.809 163.687   7
   6   9 -16 785.827 183.469   4
  -9  -6  16 621.651 206.575   7
   6   9 -16 909.838 220.165   1
  -6  -9  16 1086.84 184.245   6
   9   6 -17-98.2790 92.2694   1
   6   9 -17-158.746 130.998   4
   9   6 -17 9.81413 81.8300   4
  -9  -6  17-21.0521 165.090   7
  -6  -9  17-12.3373 89.8956   7
  -9  -6  17-86.6344 159.198   6
  -6  -9  17-32.1226 115.443   6
   6   9 -17-66.5090 193.254   1
  -6   9  18 714.332 253.940   2
   6   9 -18 588.841 230.059   1
   9  -6 -18 1340.12 247.889   5
  -9  -6  18 1076.72 226.751   7
   9   6 -18 375.436 176.023   1
   6   9 -18 1182.34 197.943   4
   9   6 -18 887.710 171.615   4
  -6  -9  18 917.378 179.583   7
   6  -9 -18 673.385 169.595   8
  -9  -6  18 1188.72 231.184   6
  -6  -9  18 1055.12 199.676   6
  -6   9  19 288.216 217.597   2
   6   9 -19 915.262 225.788   1
  -6   9  19 345.243 242.739   3
   6  -9 -19 487.965 149.044   5
   9   6 -19 187.830 125.657   1
   6  -9 -19 674.592 128.044   8
   9   6 -19 579.506 129.210   4
  -9  -6  19 284.942 171.583   7
  -6  -9  19 317.685 135.421   7
   6   9 -19 675.232 159.627   4
  -9  -6  19 773.133 189.127   6
  -6  -9  19 414.081 138.300   6
  -6   9  20 484.605 312.657   2
  -9  -6  20 2121.60 297.317   6
  -6   9  20 2143.98 348.390   3
  -6  -9  20 1286.50 262.141   7
   6   9 -20 1066.50 320.985   1
   6  -9 -20 1400.88 274.211   5
   9   6 -20 481.912 253.468   1
   6  -9 -20 2030.89 261.377   8
  -9  -6  20 1537.90 284.452   7
   9   6 -20 1591.31 258.254   4
   6   9 -20 657.826 273.742   4
  -6  -9  20 2070.55 274.328   6
  -6   9  21 274.990 223.302   2
   6   9 -21 493.030 238.075   1
  -6   9  21 620.841 243.022   3
   6  -9 -21 271.762 153.263   5
   6  -9 -21 690.859 142.713   8
  -9  -6  21 526.635 181.896   7
   9   6 -21 308.621 144.382   1
  -6  -9  21 718.996 148.848   7
   9   6 -21 458.082 135.254   4
   6   9 -21 511.585 178.126   4
  -9  -6  21 632.215 190.262   6
  -6  -9  21 658.283 148.270   6
  -6   9  22 1135.67 296.194   3
   6  -9 -22 1156.87 225.043   5
   9   6 -22 1128.44 215.675   4
   6   9 -22 906.179 285.401   1
  -9  -6  22 1332.27 256.870   7
   9   6 -22 713.906 220.182   1
  -6  -9  22 1353.37 217.148   7
   6   9 -22 1176.35 245.527   4
  -6   9  22 365.603 282.229   2
  -9  -6  22 748.489 242.479   6
   6  -9 -22 1230.72 218.903   8
  -6  -9  22 1057.11 224.679   6
  -6   9  23 58.0304 207.169   2
  -6   9  23-53.3759 195.144   3
   6  -9 -23-104.815 116.083   5
  -6  -9  23 126.543 120.772   7
   6   9 -23 92.6282 243.451   1
   6  -9 -23-12.7055 108.212   8
   9   6 -23-32.2132 116.399   1
  -9  -6  23 20.3433 154.966   7
   6   9 -23 20.9745 173.978   4
   9   6 -23-43.4159 124.655   4
  -9  -6  23-20.1386 146.111   6
  -6  -9  23-16.1855 114.625   6
  -6  -9  24 242.334 160.890   6
   6   9 -24 522.485 281.247   1
  -9  -6  24 806.577 206.155   7
   9   6 -24 919.706 194.278   1
   9   6 -24 684.775 175.025   4
   6   9 -24 616.196 215.142   4
  -6  -9  24 869.424 180.184   7
  -9  -6  24 946.597 208.484   6
  -6  -9  25 538.091 155.883   6
  -6  -9  25 778.081 156.938   7
  -9  -6  25 526.746 183.515   7
   9   6 -25 318.585 162.308   1
   9   6 -25 349.470 161.050   4
  -9  -6  25 343.094 170.131   6
   6   9 -25 349.644 202.490   4
  -6  -9  26 373.280 159.676   6
   6   9 -26 97.2898 220.951   4
  -9  -6  26 768.919 194.708   6
   6   9 -26 916.884 293.992   1
   9   6 -26 698.197 187.705   1
   9   6 -26 739.341 186.791   4
  -9  -6  26 968.503 219.516   7
  -6  -9  26 990.602 177.902   7
  -6  -9  27 722.024 173.333   6
   6   9 -27 506.093 356.660   1
  -9  -6  27 624.823 221.257   7
  -6  -9  27 785.774 188.708   7
   6   9 -27 101.599 254.636   4
  -9  -6  27 773.737 210.422   6
   6   9 -28 156.475 219.994   4
   6   9 -28 613.136 324.726   1
  -6  -9  28 433.124 151.620   6
  -6  -9  28 815.591 166.001   7
  -6  -9  29 119.359 119.516   6
   6   9 -29-43.4514 327.701   1
  -6  -9  29 86.5139 128.702   7
   6   9 -29 26.8937 207.488   4
  -6  -9  30 473.727 148.416   6
   6   9 -30 46.1849 354.322   1
  -6  -9  30 666.416 175.668   7
   6   9 -30 110.301 219.486   4
  -6  -9  31 72.1027 126.195   6
   6   9 -31 196.304 379.177   1
   6   9 -31-113.442 217.648   4
  -7  -9   1 1817.45 346.725   6
  -7  -9   2-12.8846 89.0028   8
  -7  -9   2 19.6325 144.691   6
   7   9  -2-24.3765 51.0730   1
   7   9  -3 1553.71 267.123   1
  -7  -9   3 1639.12 308.189   7
  -7  -9   3 1341.83 304.057   6
  -7  -9   4 1911.82 328.316   7
   7   9  -4 1453.19 288.335   1
  -7  -9   4 2339.80 336.905   6
  -7  -9   5 2460.27 405.621   7
  -7  -9   5 2251.27 413.138   6
   7   9  -5 2088.98 376.639   1
  -7  -9   6 4231.99 812.575   7
  -7  -9   6 5537.23 825.453   6
  -7  -9   7 1085.00 271.832   7
   7   9  -7 1405.49 247.054   1
  -7  -9   7 1610.35 291.441   6
  -7  -9   8 3408.19 588.787   7
  -7  -9   8 3384.38 600.854   6
  -7  -9   9 1846.14 288.194   6
  -7  -9   9 1515.99 267.129   7
   7   9  -9 1047.16 249.461   1
  -9  -7   9 1548.19 314.437   6
   9   7 -10 738.860 135.621   1
   7   9 -10 622.569 136.383   4
  -9  -7  10 926.403 224.699   6
   7   9 -10 578.924 149.592   1
  -7  -9  10 533.981 163.672   7
  -9  -7  10 392.343 189.688   7
  -7  -9  10 805.649 190.319   6
  -9  -7  11 1123.94 309.683   7
   7   9 -11 1676.25 282.962   1
   7   9 -11 1375.38 266.781   4
  -7  -9  11 1716.81 282.309   7
   9   7 -11 1575.31 267.926   1
  -9  -7  11 1521.38 321.518   6
  -7  -9  11 1363.85 296.568   6
   7   9 -12 49.4498 81.5431   4
  -9  -7  12 73.7618 170.603   6
  -7  -9  12-18.8670 145.391   6
   7  -9 -13 711.786 200.337   5
   7   9 -14-16.7172 116.450   1
   7  -9 -14 96.9853 151.947   5
  -7  -9  14 99.7092 101.746   7
  -9  -7  14-64.9221 145.485   7
   9   7 -14-11.3590 81.8146   1
   7   9 -15 266.334 196.438   1
   9   7 -15 799.670 179.247   1
  -9  -7  15 635.567 217.656   7
   7   9 -15 877.970 177.000   4
  -7  -9  15 1029.77 188.771   7
  -9  -7  15 1571.34 247.423   6
  -7  -9  15 943.179 202.030   6
   7   9 -16 18.8741 163.413   1
   9   7 -16 12.5486 102.577   1
   9   7 -16 187.688 84.5640   4
  -9  -7  16 103.807 168.294   7
  -7  -9  16 99.6002 119.884   7
   7   9 -16 137.646 115.130   4
  -9  -7  16 292.838 176.011   6
  -7  -9  16-17.8907 124.092   6
   7   9 -17 468.873 145.248   4
   7   9 -17 473.047 183.957   1
  -9  -7  17 528.632 162.030   7
   9   7 -17 570.550 117.231   4
  -7  -9  17 367.921 137.683   7
  -9  -7  17 636.887 191.216   6
  -7   9  17 290.078 190.209   2
   9   7 -17 172.035 121.791   1
  -7  -9  17 530.734 146.710   6
   7  -9 -17 454.973 121.639   8
  -7   9  18 2174.83 363.417   3
   7  -9 -18 1043.98 207.737   8
   9  -7 -18 1373.79 267.602   5
   7  -9 -18 1318.97 243.027   5
   7   9 -18 1144.77 222.572   4
  -9  -7  18 938.588 257.179   7
  -7  -9  18 1003.44 227.443   7
   9   7 -18 1283.16 211.994   4
   9   7 -18 671.118 210.791   1
   7   9 -18 860.299 252.483   1
  -9  -7  18 1249.69 253.276   6
  -7  -9  18 1433.23 237.519   6
  -7   9  18 592.620 262.257   2
   7  -9 -19 826.029 156.886   8
   7  -9 -19 625.139 186.875   5
   7   9 -19 790.449 207.060   1
   9   7 -19 754.258 169.773   1
  -9  -7  19 521.936 193.267   7
   9   7 -19 476.630 160.425   4
  -7  -9  19 1003.13 179.434   7
   7   9 -19 456.724 176.547   4
  -9  -7  19 1090.00 211.674   6
  -7   9  19 252.787 208.551   2
  -7  -9  19 861.612 185.250   6
  -7   9  19 894.124 294.843   3
  -9  -7  20 2038.37 432.497   7
  -7   9  20 3984.62 532.745   3
   7  -9 -20 2334.23 431.073   5
   7   9 -20 1684.72 444.738   1
   9   7 -20 2607.61 412.463   4
  -7  -9  20 2886.51 420.281   7
   7   9 -20 1597.28 420.797   4
   9   7 -20 2420.84 419.665   1
  -9  -7  20 3307.67 444.427   6
  -7  -9  20 2688.57 428.036   6
  -7   9  20 695.901 446.747   2
  -7   9  21 1654.31 325.981   3
   7  -9 -21 490.625 198.044   5
   7  -9 -21 1238.10 182.581   8
  -9  -7  21 679.733 213.000   7
   7   9 -21 539.915 227.813   1
   9   7 -21 1066.09 193.603   1
  -7  -9  21 587.614 187.023   7
   9   7 -21 753.345 181.153   4
   7   9 -21 710.692 210.551   4
  -9  -7  21 1327.40 226.642   6
  -7   9  21 369.618 246.732   2
  -7  -9  21 867.894 205.062   6
  -7  -9  22 615.476 179.211   7
   7   9 -22 965.031 211.460   4
  -7   9  22 1275.56 310.283   3
   9   7 -22 765.760 180.750   4
   7  -9 -22 655.470 190.487   5
   9   7 -22 691.119 199.906   1
   7   9 -22 566.876 226.623   1
  -9  -7  22 970.537 213.695   7
   7  -9 -22 980.378 168.544   8
  -9  -7  22 796.393 205.005   6
  -7   9  22 107.886 245.985   2
  -7  -9  22 680.851 192.834   6
  -7  -9  23 507.351 132.393   7
  -9  -7  23 140.685 169.436   7
   7   9 -23 108.329 205.390   1
   9   7 -23 297.898 138.533   1
   9   7 -23 440.907 137.144   4
   7   9 -23 19.2067 147.077   4
  -9  -7  23 182.875 153.258   6
  -7  -9  23 122.043 141.947   6
   9   7 -24 16.2432 134.325   4
  -9  -7  24-183.983 163.849   7
   7   9 -24 114.041 218.718   1
  -7  -9  24 15.7734 115.336   7
   9   7 -24 37.1416 142.969   1
   7   9 -24-20.5991 166.165   4
  -9  -7  24-40.5658 144.229   6
  -7  -9  24 52.1050 114.577   6
   9   7 -25 702.508 179.793   4
  -9  -7  25 708.676 201.483   7
  -7  -9  25 600.181 167.186   7
   9   7 -25 540.930 174.888   1
   7   9 -25 21.6558 192.041   4
  -9  -7  25 485.900 189.990   6
  -7  -9  25 648.601 170.530   6
   7   9 -26 323.678 213.698   4
   9   7 -26 18.2598 163.402   4
   7   9 -26-31.6914 256.512   1
  -9  -7  26 191.726 180.989   7
   9   7 -26-40.2077 158.607   1
  -9  -7  26-121.528 149.914   6
  -7  -9  26-16.7143 142.044   7
  -7  -9  26 87.4355 122.931   6
  -7  -9  27 247.099 134.902   6
   7   9 -27 24.4886 200.016   4
  -9  -7  27 469.938 185.029   7
  -7  -9  27 569.366 153.152   7
   9   7 -27 522.825 176.455   1
   9   7 -27 276.923 173.141   4
   7   9 -27 33.4471 255.640   1
  -9  -7  27 386.627 162.976   6
  -7  -9  28-17.5708 117.670   6
  -9  -7  28 43.8407 165.859   7
  -7  -9  28-160.584 122.217   7
   9   7 -28-43.5082 162.805   1
   9   7 -28 42.8079 159.593   4
   7   9 -28 51.1237 199.589   4
  -9  -7  28-20.4543 146.133   6
   7   9 -28-35.3482 278.757   1
  -7  -9  29 211.956 126.329   6
   7   9 -29 26.6978 193.599   4
   7   9 -29 74.7162 276.320   1
  -7  -9  29 480.833 151.183   7
  -7  -9  30 162.549 129.372   6
   7   9 -30 276.336 305.862   1
  -7  -9  30 307.031 152.205   7
   7   9 -30 82.2899 230.119   4
   7   9 -31-28.2991 213.244   4
  -7  -9  31 18.5106 130.001   6
  -8  -9   4 360.921 195.665   6
  -8  -9   5 6141.73 1046.38   6
   8   9  -6 469.632 109.299   1
  -8  -9   6 499.745 174.312   7
  -8  -9   6 374.906 195.628   6
   9   8  -8 358.636 89.0593   1
   8   9  -8 229.269 90.6660   1
  -8  -9   8 389.241 140.239   7
  -9  -8   8-25.6231 190.032   6
  -8  -9   8 187.235 179.702   6
  -8  -9   9 3534.33 665.173   7
  -9  -8   9 3613.06 668.388   7
  -9  -8   9 4429.32 690.560   6
  -8  -9   9 4304.45 677.518   6
   9   8  -9 3739.86 642.224   1
  -9  -8  10 563.602 216.390   6
  -8  -9  10 432.931 180.411   6
   9   8 -12 99.3601 88.2531   1
  -9  -8  12 246.738 155.008   7
   9   8 -13-11.7478 81.9482   1
  -9  -8  13-21.9198 158.475   7
   8   9 -13-29.7921 73.3317   4
   8   9 -13-97.4588 100.726   1
  -9  -8  13 121.877 172.684   6
  -8  -9  13-21.2868 138.488   6
  -9  -8  14-85.7168 154.857   7
   8   9 -14-44.2386 98.6587   1
   9   8 -14-12.3492 95.4034   1
   8   9 -14 62.8618 80.9398   4
  -9  -8  14-23.8351 180.911   6
  -8  -9  14-20.8563 142.097   6
  -8  -9  14 17.2980 128.429   7
   9   8 -15 195.337 110.754   1
   9   8 -15 129.388 88.3296   4
  -8  -9  15 101.826 138.232   7
   8   9 -15-22.1780 93.3150   4
   8   9 -15 156.224 131.690   1
  -9  -8  15 83.9004 180.339   7
  -9  -8  15 325.022 178.170   6
  -8  -9  15-122.621 149.683   6
   8  -9 -16 566.608 192.019   5
   9   8 -16 391.452 142.029   1
   9   8 -16 470.074 125.004   4
   8   9 -16 658.269 139.889   4
  -9  -8  16 205.107 183.409   7
  -8  -9  16 545.123 162.383   7
   8   9 -16 812.356 172.663   1
  -9  -8  16 745.552 191.517   6
  -8  -9  16 461.214 162.741   6
   8  -9 -17 1094.47 233.095   5
   9   8 -17 813.230 202.652   1
  -9  -8  17 743.810 219.418   7
   9   8 -17 430.279 185.340   4
  -8  -9  17 1091.41 223.679   7
   8   9 -17 1263.21 199.678   4
  -9  -8  17 1570.40 255.383   6
   8   9 -17 932.998 212.551   1
  -8  -9  17 1612.44 244.258   6
   8  -9 -18-120.379 140.901   5
  -8  -9  18-99.5972 125.083   7
   9   8 -18 90.4149 119.606   1
   8   9 -18-146.690 133.555   1
  -9  -8  18 181.624 142.319   7
   8   9 -18 13.1750 101.784   4
   9   8 -18 46.7201 93.6174   4
  -9  -8  18 21.6760 152.866   6
  -8  -9  18-39.1931 139.918   6
  -8   9  19 4452.21 560.667   3
  -8  -9  19 3210.76 437.717   6
   9  -8 -19 3199.81 452.325   5
   8  -9 -19 3774.21 442.362   5
   9   8 -19 2465.85 417.958   4
  -8  -9  19 2985.56 433.783   7
   8   9 -19 1084.89 413.215   4
   9   8 -19 1314.32 419.010   1
  -9  -8  19 3299.50 446.261   6
   8   9 -19 1791.72 439.797   1
  -8   9  20 781.076 348.872   3
   9  -8 -20 478.408 181.632   5
   8  -9 -20 346.177 165.235   5
  -9  -8  20 209.617 168.107   6
  -9  -8  20 293.819 161.975   7
  -8  -9  20 550.587 150.118   7
   9   8 -20 381.253 154.596   1
   9   8 -20 430.802 134.076   4
   8   9 -20 300.763 142.572   4
  -8  -9  20 517.174 161.422   6
   8   9 -20 670.630 172.009   1
   8  -9 -21 2601.76 404.626   5
  -8   9  21 3702.64 531.013   3
   8   9 -21 2237.75 391.781   4
  -8  -9  21 2692.01 396.973   7
   8   9 -21 2249.50 414.507   1
  -9  -8  21 2454.63 395.971   7
   9   8 -21 1604.58 377.943   4
  -9  -8  21 2793.27 417.610   6
  -8  -9  21 3047.37 402.613   6
   9   8 -21 1826.82 387.568   1
   8   9 -22 45.2163 164.675   1
   8   9 -22 16.7631 137.790   4
  -9  -8  22 20.0481 138.417   7
  -9  -8  22 20.4987 145.770   6
   9   8 -22-91.3363 131.492   1
   9   8 -22-14.9280 123.458   4
  -8  -9  22 114.044 136.818   6
  -8  -9  22 17.2213 133.971   7
   8   9 -23 449.409 198.583   1
  -8  -9  23 759.354 174.045   7
  -9  -8  23 817.320 190.787   7
   9   8 -23 526.732 173.109   4
   9   8 -23 684.733 197.983   1
   8   9 -23 408.381 180.134   4
  -9  -8  23 713.155 190.386   6
  -8  -9  23 358.718 167.240   6
   8   9 -24 123.882 183.495   1
   9   8 -24-16.9661 130.491   4
  -9  -8  24 162.220 135.985   7
  -8  -9  24 105.793 130.256   7
   9   8 -24 39.6183 150.642   1
   8   9 -24 95.5241 149.918   4
  -9  -8  24-40.8793 138.949   6
  -8  -9  24 18.9830 130.245   6
   8   9 -25 25.9722 188.625   1
   9   8 -25-315.416 164.911   1
  -9  -8  25 206.821 167.054   7
  -8  -9  25 54.1769 142.648   7
   9   8 -25-18.0354 142.462   4
   8   9 -25-161.226 178.574   4
  -9  -8  25-244.137 157.949   6
  -8  -9  25 75.8053 138.300   6
   8   9 -26 54.5214 178.557   1
   9   8 -26 328.883 172.496   1
  -8  -9  26 185.274 138.216   7
  -9  -8  26-21.1392 164.168   7
   9   8 -26 76.4670 151.272   4
   8   9 -26-21.6224 170.149   4
  -9  -8  26 345.720 150.260   6
  -8  -9  26 75.5259 132.689   6
   8   9 -27-171.716 229.385   1
  -8  -9  27 57.1731 134.400   7
  -9  -8  27 64.9734 171.900   7
   9   8 -27 45.7174 169.074   1
   9   8 -27-61.8932 165.891   4
   8   9 -27 46.2740 193.064   4
  -9  -8  27-61.1323 131.840   6
  -8  -9  27 19.0599 129.858   6
  -8  -9  28 57.0722 129.088   6
   8   9 -28-300.763 218.237   1
   9   8 -28 95.3478 189.233   1
  -8  -9  28 19.6365 156.923   7
  -9  -8  28 155.647 170.019   7
   9   8 -28 44.4613 166.329   4
   8   9 -28-24.2869 188.961   4
  -9  -8  28 20.3817 147.335   6
  -8  -9  29-18.9536 127.004   6
   8   9 -29-505.660 227.584   1
   9   8 -29 23.5021 181.070   4
   9   8 -29 74.5481 194.747   1
  -9  -8  29 45.7330 179.832   7
  -8  -9  29 81.1099 161.628   7
  -9  -8  29 41.3436 150.142   6
   8   9 -29-283.262 203.163   4
  -8  -9  30-19.1616 125.809   6
  -9  -8  30 23.5674 169.636   7
   8   9 -30 54.6128 208.748   4
  -9  -9   7-129.661 188.594   6
  -9  -9   8 5799.63 1001.44   6
   9   9 -10 839.628 166.450   1
  -9  -9  10 768.946 224.446   7
  -9  -9  11 50.7227 174.524   6
  -9  -9  12 174.107 175.528   6
   9   9 -13 163.444 106.473   1
  -9  -9  13 130.618 169.544   7
  -9  -9  13 24.2842 194.814   6
   9   9 -13-28.7742 78.2987   4
  -9  -9  14 70.8702 166.126   6
   9   9 -14-80.1695 82.8158   4
   9   9 -14-79.5560 100.283   1
  -9  -9  14 21.2797 146.524   7
  -9  -9  15 46.0859 161.838   6
   9   9 -15-27.4905 96.9538   1
  -9  -9  15 187.035 163.321   7
   9   9 -15-10.5204 77.5417   4
   9   9 -16 261.498 141.927   1
  -9  -9  16 366.048 189.052   7
   9   9 -16 666.638 132.435   4
   9   9 -17-58.7790 93.9328   4
   9   9 -17-76.7174 120.489   1
  -9  -9  17-79.7367 153.495   7
  -9  -9  17-155.828 155.578   6
   9   9 -18 1218.25 266.693   1
  -9  -9  18 1641.54 295.422   7
   9   9 -18 1295.68 256.716   4
  -9  -9  18 1570.85 288.986   6
   9  -9 -19 22.5150 167.789   5
  -9  -9  19 19.7037 140.109   7
   9   9 -19-13.1144 103.403   4
   9   9 -19-16.8738 120.966   1
  -9  -9  19 21.4321 127.207   6
   9  -9 -20 3585.28 520.656   5
   9   9 -20 2717.52 504.089   1
   9   9 -20 3092.58 493.461   4
  -9  -9  20 2444.09 505.648   7
  -9  -9  20 2446.72 505.041   6
   9   9 -21-104.565 119.348   4
   9   9 -21 18.6016 141.700   1
  -9  -9  21 255.618 148.711   7
  -9  -9  21-83.9928 148.707   6
  -9  -9  22 1712.39 317.869   7
   9   9 -22 928.652 292.735   4
   9   9 -22 2110.80 308.629   1
  -9  -9  22 1850.04 318.895   6
  -9  -9  23 101.075 161.625   7
   9   9 -23 33.4617 138.082   4
   9   9 -23 61.6779 157.849   1
  -9  -9  23-20.6069 145.464   6
  -9  -9  24 705.093 190.105   7
   9   9 -24 124.085 159.573   4
   9   9 -24 535.938 173.579   1
  -9  -9  24 245.262 170.652   6
  -9  -9  25-102.712 151.960   7
   9   9 -25 67.0947 170.984   1
   9   9 -25 18.9498 154.813   4
  -9  -9  25-20.5049 139.722   6
  -9  -9  26-83.9924 151.446   7
   9   9 -26 20.0197 157.090   4
   9   9 -26 140.150 181.334   1
  -9  -9  26 184.079 150.442   6
  -9  -9  27 43.0221 169.612   7
   9   9 -27-21.5233 157.383   4
   9   9 -27-24.3962 166.219   1
  -9  -9  27-20.4130 145.751   6
  -9  -9  28-66.2446 163.327   7
   9   9 -28 25.4969 194.219   1
   9   9 -28 46.2108 181.572   4
  -9  -9  28 20.5731 136.363   6
   9   9 -29-24.3240 185.979   4
  -9  -9  29-20.5716 141.449   6
   0 -10   0 192.936 59.1796   6
   0 -10   0 43.2914 73.3404   5
   0 -10   0 175.815 53.9479   8
   0 -10   0 152.838 50.9682   7
   0  10   0 51.6320 81.3556   4
   0 -10  -1-15.5604 51.0813   6
   0 -10   1-8.34991 50.1415   6
   0  10   1 33.1086 132.684   3
   0  10  -1 52.6598 117.981   2
   0 -10   1 66.4515 73.0626   5
   0 -10  -1 21.6723 71.4852   5
   0  10   1 18.7900 141.071   2
   0 -10   1-18.2277 46.1186   8
   0 -10  -1-17.6948 47.1239   7
   0 -10  -1 46.0934 51.7474   8
   0 -10   1-6.49112 42.6185   7
   0  10   1-19.6694 75.4488   4
   0  10  -1 21.6553 86.5045   4
   0 -10  -2 149.691 54.9363   6
   0 -10   2 69.3449 55.6447   6
   0  10  -2 50.0021 109.332   2
   0 -10   2 119.560 50.9013   8
   0  10   2 16.8168 125.684   3
   0 -10   2 125.194 78.9319   5
   0 -10  -2 117.133 75.3804   5
   0 -10  -2 49.7831 54.8456   8
   0  10   2 230.524 135.546   2
   0 -10  -2 142.140 46.0077   7
   0 -10   2 103.806 52.4062   7
   0  10   2 65.5184 70.5146   4
   0  10  -2 193.670 83.9561   4
   0 -10   3 17.9241 53.5058   6
   0  10   3-16.9836 122.731   3
   0 -10   3-35.2781 77.9432   5
   0 -10  -3-62.9799 71.5158   5
   0 -10   3 59.1563 52.3659   7
   0  10   3-97.6466 135.994   2
   0 -10   3-6.00353 44.9077   8
   0  10  -3 78.4301 102.488   2
   0  10  -3-35.7499 78.6121   4
   0 -10  -3 15.2175 53.8830   8
   0  10   4 2527.82 519.693   3
   0  10  -4 2498.69 505.412   4
   0 -10   4 3501.18 498.731   7
   0 -10  -4 2819.77 497.611   8
   0  10  -4 3098.36 513.748   2
   0  10   4 2940.25 531.214   2
   0 -10   5-9.60765 53.6513   6
   0 -10   5-25.6282 94.8278   5
   0 -10  -5 40.9765 69.5484   5
   0  10   5 59.6285 141.368   2
   0 -10  -5-62.0587 65.8914   8
   0  10   5-85.7787 118.478   3
   0 -10   5-8.29263 57.8257   7
   0  10  -5-26.0702 95.7289   4
   0  10   6 3335.34 638.696   3
   0 -10   6 3584.86 635.582   5
   0  10  -6 3683.91 634.022   4
   0  10   6 4717.31 656.631   2
   0 -10   7-41.1132 57.3065   6
   0 -10   7 99.6997 93.9581   5
   0  10   7 16.7855 110.732   3
   0 -10  -7-10.2955 71.0796   5
   0 -10  -7 30.5004 73.1790   8
   0  10   7-121.214 141.281   2
   0  10  -7-56.7864 98.8599   4
   0 -10   7 9.26353 47.3375   7
   0  10   8 2050.20 476.182   3
   0 -10   8 2883.95 472.899   5
   0 -10  -8 2933.71 461.415   5
   0 -10  -8 2720.34 462.888   8
   0  10  -8 2505.15 472.299   4
   0 -10   8 2834.20 459.368   7
   0  10   8 3146.72 491.863   2
   0 -10   8 2523.19 458.470   6
   0 -10   9 10.9614 51.8890   6
   0  10   9-20.5771 144.521   2
   0  10   9-66.1334 115.637   3
   0 -10  -9 10.3198 69.3868   5
   0 -10  -9 80.3673 89.3284   8
   0 -10   9 40.7428 67.2183   7
   0  10  -9-61.8159 118.152   4
   0 -10  10 418.272 136.589   6
   0 -10 -10 865.776 144.572   5
   0  10  10 488.148 172.948   3
   0 -10 -10 659.466 156.820   8
   0 -10  10 952.137 148.331   7
   0  10  10 584.931 189.863   2
   0  10 -10 736.761 177.158   4
   0 -10  11-58.2733 74.4543   6
   0  10  11 32.6094 112.192   3
   0 -10 -11-42.9298 78.3394   5
   0 -10  11 10.9838 75.0109   7
   0  10 -11-99.7972 126.802   4
   0 -10  12 180.100 78.3861   6
   0  10  12 273.272 143.994   3
   0 -10 -12 43.6218 91.0937   5
   0 -10  12 171.029 88.7324   7
   0  10 -12 293.700 135.636   4
   0 -10  13 24.8062 74.4799   6
   0  10  13-31.6457 107.805   3
   0 -10 -13 67.3231 81.4071   5
   0 -10  13 11.8384 84.5263   7
   0 -10 -13 14.2770 118.422   8
   0  10 -13-250.851 138.904   4
   0 -10  14 25.5980 75.3113   6
   0 -10 -14 81.1882 86.9257   5
   0 -10 -14 212.887 128.469   8
   0  10  14 79.6488 119.125   3
   0 -10  14 159.819 93.6187   7
   0  10 -14 222.075 135.930   4
   0 -10 -15-36.1304 95.5128   5
   0  10  15-95.1098 107.037   3
   0  10 -15-76.1918 147.511   4
   0 -10 -17-120.312 136.939   8
   0 -10 -18 1370.60 246.248   5
   0  10  18 1282.61 254.880   3
   0 -10 -18 1079.35 265.322   8
   0 -10 -19-43.9751 115.978   5
   0 -10 -19-18.2091 154.201   8
   0  10  19 33.0408 117.007   3
   0  10  20 2808.29 457.722   3
   0 -10 -20 2537.51 458.851   5
   0 -10 -20 2358.99 468.026   8
   0  10  21 33.7669 107.605   3
   0 -10 -21 16.5654 119.237   5
   0 -10 -21-57.7249 154.225   8
   0  10  22 1259.78 220.387   3
   0 -10 -22 1119.71 231.233   5
   0 -10 -22 612.519 246.628   8
   0  10  23-17.4383 114.485   3
   0 -10 -23-121.658 166.009   8
   0 -10 -23-93.0110 132.209   5
   0  10  24-17.6869 110.443   3
   0 -10 -24-103.971 184.554   8
   0 -10 -24 39.2359 140.675   5
   0 -10 -25 41.6675 155.471   5
   0 -10 -25-21.3017 184.433   8
   0 -10 -26 190.049 177.818   8
   0 -10 -26 264.330 157.759   5
   0  10  26 93.7248 118.970   3
   0  10  27 39.1076 118.128   3
   0 -10 -27-184.794 171.526   5
   0 -10 -27 64.8028 167.481   8
   0 -10 -28 44.1695 177.571   8
   0  10  28-164.564 140.234   3
   0 -10 -29-21.8420 164.624   8
  -1  10   0 17.9074 114.135   2
   1  10   0 76.4004 116.402   3
   1 -10   0 112.469 98.7419   5
   1 -10   0 31.7726 43.3185   8
  -1 -10   0 71.4049 62.9626   5
   1  10   0 52.9953 123.545   2
  -1 -10   0 13.8894 52.7309   8
   1 -10   0 6.98886 51.1228   7
  -1 -10   0-30.2754 46.6376   7
   1  10   0 8.48538 64.4210   4
  -1 -10   0-63.2370 56.9136   6
  -1  10   0 35.4561 83.7080   4
  -1  10   1 245.352 145.467   2
   1  10  -1 394.554 136.331   3
   1 -10   1 457.578 128.568   5
   1  10   1 289.919 131.167   3
   1 -10  -1 377.311 119.473   5
  -1 -10   1 448.782 91.8976   5
  -1 -10  -1 400.375 82.9951   7
  -1 -10  -1 514.153 96.2387   5
   1  10   1 503.064 104.615   1
   1  10  -1 311.360 147.042   2
   1 -10  -1 245.345 82.6138   8
   1  10   1 553.308 161.462   2
  -1 -10  -1 404.883 91.1861   8
   1 -10  -1 420.747 83.2349   7
   1 -10   1 397.087 89.4903   7
   1  10   1 196.234 92.5256   4
   1  10  -1 256.069 98.3709   4
  -1 -10   1 492.340 82.4768   7
   1 -10   1 391.609 84.0397   8
  -1  10  -1 237.735 138.942   2
  -1 -10  -1 296.458 85.0925   6
  -1 -10   1 401.322 90.9981   6
  -1  10  -1 365.309 113.404   4
  -1 -10   1 401.676 85.5861   8
  -1 -10   2 53.4176 49.4291   8
   1 -10  -2 22.5322 44.1906   7
   1  10  -2-59.5393 123.170   3
  -1 -10  -2 66.6940 60.4072   8
   1 -10  -2 169.124 85.9355   5
   1  10   2 61.5245 105.354   3
  -1 -10   2-8.85909 64.1724   5
   1  10  -2-16.7777 127.421   2
   1  10   2 72.1663 125.712   2
  -1 -10  -2 88.3328 61.9318   5
   1 -10   2 101.559 50.4087   8
  -1 -10  -2-11.3769 41.6679   7
   1 -10  -2 39.8128 48.7197   8
  -1  10  -2 80.6020 109.429   2
  -1  10  -2-25.1148 95.7560   4
  -1  10   2-19.5823 125.514   2
  -1 -10   2-47.4895 50.5631   7
   1 -10   2-8.40829 55.6441   7
   1  10   2-29.5079 58.5263   4
   1  10  -2 19.6660 73.6847   4
   1 -10   2 15.5710 100.840   5
  -1 -10  -2-7.28278 50.2549   6
  -1 -10   2 102.768 61.0573   6
   1  10   2 48.9838 69.8033   1
   1  10   3 366.773 110.998   1
   1  10  -3 423.533 148.689   3
  -1 -10   3 514.057 105.691   7
   1  10  -3 614.334 155.548   2
   1 -10   3 742.792 159.999   5
  -1 -10   3 575.870 100.557   8
   1 -10  -3 391.506 127.289   5
  -1 -10   3 788.393 115.523   5
   1  10   3 487.010 147.213   3
  -1  10   3 444.098 170.892   2
  -1 -10  -3 440.702 111.404   5
   1 -10  -3 383.875 104.204   8
  -1 -10  -3 772.187 118.566   8
   1  10   3 545.466 155.587   2
  -1 -10  -3 575.102 102.237   7
   1 -10   3 475.594 109.785   7
   1  10  -3 527.471 121.206   4
  -1 -10  -3 482.633 105.354   6
  -1  10  -3 596.016 138.265   4
  -1 -10   3 345.167 106.609   6
   1  10  -4-45.8213 106.364   2
   1  10  -4 71.2038 112.288   3
   1 -10   4 17.5637 116.418   5
   1 -10  -4-24.6316 80.0813   5
  -1 -10   4 26.5600 61.9207   5
   1  10   4 76.3690 102.664   3
  -1 -10  -4 9.02844 62.6077   5
  -1  10   4-61.9611 151.606   2
  -1 -10   4 30.2907 51.6020   7
  -1  10  -4-80.2619 91.5500   4
  -1 -10  -4-58.0693 75.0327   8
  -1 -10   4 22.6697 43.6406   8
   1 -10  -4-21.9659 52.2862   8
   1  10   4 18.3129 125.327   2
   1 -10   4 38.1062 64.3303   7
   1  10  -4-11.2892 80.6091   4
  -1 -10   4 36.4596 63.2071   6
   1 -10   5 2562.08 425.774   5
  -1  10   5 2188.69 417.884   3
   1 -10  -5 1736.38 397.912   5
  -1 -10  -5 2026.75 390.713   5
   1  10   5 1445.40 398.770   3
  -1 -10  -5 2630.98 398.852   8
  -1 -10   5 2629.80 386.494   8
  -1 -10   5 2652.93 390.331   7
   1  10  -5 1897.27 397.193   4
   1 -10   5 2695.57 396.032   7
  -1  10  -5 2113.30 402.899   4
   1  10  -5 2504.97 406.344   2
  -1  10   5 2795.33 425.957   2
  -1 -10   5 2081.63 391.436   6
   1  10   5 2453.82 420.627   2
  -1 -10   6 48.0832 60.1613   6
  -1  10   6-37.1864 131.878   3
   1 -10   6 40.1480 135.742   5
  -1 -10   6 35.6129 65.5196   5
   1 -10  -6 59.1287 78.7316   5
   1 -10  -6 8.14511 65.4921   8
   1  10   6-15.1071 108.988   3
  -1 -10  -6 37.2991 55.8390   5
  -1 -10  -6 136.458 87.2441   8
   1  10  -6 126.090 98.0269   4
  -1 -10   6 72.0009 58.5114   7
   1 -10   6 31.3516 65.6479   7
   1  10  -6 40.9514 100.471   2
  -1  10   6 42.5677 142.589   2
  -1  10  -6 14.2580 92.9992   4
  -1  10   7 2856.70 543.394   3
   1 -10   7 3572.12 559.280   5
  -1 -10   7 3253.36 522.547   5
   1 -10  -7 3341.03 527.647   5
  -1 -10  -7 3036.62 529.807   8
  -1 -10   7 2734.34 518.129   7
   1  10  -7 2943.43 534.191   4
   1 -10   7 3827.41 526.704   7
  -1  10   7 2650.13 550.252   2
  -1 -10   7 2913.66 520.241   6
  -1 -10   8-10.0611 59.7199   6
  -1  10   8-37.6644 127.734   3
  -1 -10  -8-19.5344 67.7261   5
   1 -10  -8 11.4640 77.0554   5
   1  10   8 74.7273 112.620   3
   1 -10  -8-36.7735 75.1004   8
  -1  10   8-108.929 159.298   2
  -1 -10  -8 13.4027 102.458   8
  -1 -10   8-17.3138 63.5468   7
   1 -10   8 113.696 73.9263   7
   1  10  -8 70.9103 107.257   4
  -1 -10   9 986.202 197.040   6
  -1 -10  -9 744.652 213.959   8
  -1  10   9 878.945 234.713   3
   1 -10  -9 940.057 196.749   8
   1 -10  -9 1279.94 202.849   5
  -1 -10  -9 813.823 193.191   5
  -1 -10   9 986.187 189.611   7
  -1  10   9 984.993 235.587   2
   1  10   9 1340.39 215.765   3
   1 -10   9 1468.39 204.983   7
   1  10  -9 1290.97 221.139   4
  -1 -10  10 31.7242 52.7334   6
  -1  10  10 73.8742 131.863   3
   1 -10 -10-11.2410 79.6047   5
   1  10  10-59.1629 94.7427   3
  -1 -10 -10-61.1555 118.112   8
  -1 -10  10 9.33177 63.5788   7
   1 -10  10-36.9767 80.1395   7
  -1 -10 -10-10.3343 70.0943   5
   1  10 -10 47.0089 122.308   4
  -1 -10  11 21.7598 69.3688   6
  -1  10  11-18.1584 136.844   3
   1 -10 -11 89.7053 89.0231   5
  -1 -10 -11 85.9065 82.9827   5
  -1  10  11-134.145 187.125   2
   1  10 -11-114.252 130.412   4
   1  10  11 29.3534 98.6674   3
  -1 -10 -11 31.5987 133.023   8
  -1 -10  11-48.2779 70.3566   7
  -1 -10  12 56.0673 73.7982   6
  -1  10  12-214.197 200.094   3
  -1 -10 -12 67.1356 92.3915   5
   1 -10 -12-181.991 125.875   5
   1 -10 -12 56.8854 117.758   8
  -1  10  12-406.675 232.776   2
  -1 -10  12-39.9666 74.9139   7
   1  10 -12 68.0649 140.383   4
   1  10  12 14.8318 96.5705   3
  -1 -10  13 266.072 91.3190   6
   1  10  13 268.182 109.925   3
  -1  10  13 35.7413 140.906   3
   1 -10 -13 366.559 100.643   5
  -1 -10 -13 244.702 100.840   5
  -1 -10 -13 214.607 142.865   8
  -1 -10  13 457.690 97.0642   7
   1 -10 -13 336.976 110.634   8
   1  10 -13 371.568 153.412   4
  -1  10  13 368.359 176.897   2
  -1 -10  14 11.9334 75.6803   6
  -1 -10  14-10.7713 76.6085   7
  -1  10  14 70.3379 116.563   3
   1 -10 -14-34.8679 82.3218   5
   1 -10 -14-140.431 95.1523   8
  -1 -10 -14 110.751 158.550   8
  -1 -10 -14-12.2056 88.9140   5
  -1  10  14 209.866 189.895   2
   1  10 -14 91.9105 136.486   4
   1  10  14-45.4360 103.199   3
  -1 -10  15 258.167 93.1654   6
  -1 -10 -15 166.146 95.9371   5
   1 -10 -15 306.548 99.3878   5
   1  10  15 333.877 116.078   3
   1  10 -15 171.632 152.831   4
  -1  10  15 17.3342 128.139   3
  -1 -10  17 391.628 108.751   6
   1 -10 -17 374.544 149.108   8
  -1  10  17 295.082 186.323   2
 -10  -1  17 279.788 199.660   6
   1  10 -17 285.383 150.904   4
  -1 -10 -17 290.634 197.134   8
  -1 -10  18 40.3424 85.3515   6
   1 -10 -18 59.3726 129.199   8
   1 -10 -18 155.861 91.3525   5
  -1  10  18 17.1111 117.801   3
  -1 -10 -18 15.4953 111.377   5
  -1 -10 -18-149.447 177.017   8
   1  10  18 110.026 106.903   3
  -1 -10  18 87.2564 92.7419   7
  -1  10  18 50.3437 198.887   2
 -10  -1  18 237.981 201.922   6
   1  10 -18 294.622 161.386   4
  -1 -10  19 1235.08 296.042   6
  -1  10  19 2116.26 315.012   3
   1 -10 -19 1861.89 313.795   8
  -1 -10 -19 1539.30 311.924   5
   1 -10 -19 1551.05 300.633   5
 -10  -1  19 1463.76 355.308   6
   1  10  19 1620.25 306.027   3
  -1  10  19 1908.13 365.007   2
   1  10 -19 1452.67 336.257   4
  -1 -10  19 1802.94 297.684   7
  -1 -10 -19 1359.53 334.442   8
   1 -10 -20 195.093 135.409   8
  -1 -10 -20-17.2802 126.025   5
  -1  10  20 52.5413 116.807   3
   1  10  20 16.1602 106.799   3
  -1 -10  20 40.1806 96.6166   7
  -1  10  20-158.638 184.227   2
  -1 -10 -20 22.4963 181.003   8
   1  10 -20-66.7176 165.239   4
   1 -10 -20 112.724 109.044   5
   1 -10 -21 703.511 262.738   8
   1  10  21 1457.82 256.935   3
   1 -10 -21 1595.48 261.348   5
  -1 -10  21 1603.12 255.804   7
  -1  10  21 1030.76 300.107   2
  -1 -10 -21 1010.51 257.658   5
  -1  10  21 1548.04 268.019   3
  -1 -10 -21 1290.79 310.142   8
   1  10 -21 1274.87 289.812   4
  -1 -10 -22-174.582 133.615   5
   1 -10 -22-103.538 145.953   8
   1 -10 -22-62.9358 117.134   5
  -1 -10 -22-45.8779 189.315   8
  -1  10  22 70.7344 115.300   3
   1  10  22-51.0686 110.474   3
  -1  10  22-55.6838 202.179   2
   1 -10 -23 71.0883 145.693   8
  -1 -10 -23 304.737 195.494   8
  -1 -10 -23 206.335 159.590   5
   1 -10 -23 151.401 121.333   5
  -1  10  23 144.204 124.480   3
   1  10  23 17.3435 114.036   3
  -1  10  23 85.8076 221.898   2
   1 -10 -24-91.4840 153.413   8
  -1  10  24 72.6886 125.803   3
  -1 -10 -24 119.575 191.906   8
  -1 -10 -24-86.6782 157.491   5
   1  10  24-89.9858 121.876   3
   1 -10 -24-179.683 127.060   5
  -1  10  24-29.3962 235.796   2
   1 -10 -25 188.346 155.580   8
   1 -10 -25 37.8537 138.723   5
  -1 -10 -25 292.576 207.627   8
  -1  10  25 74.5481 123.335   3
   1  10  25 18.6536 103.071   3
  -1  10  25 151.120 209.234   2
   1 -10 -26-140.659 152.308   5
   1 -10 -26-206.675 166.161   8
  -1  10  26 75.6456 125.761   3
  -1  10  26-62.1883 229.341   2
   1  10  26 19.6312 117.644   3
  -1 -10 -26-120.477 202.511   8
   1 -10 -27 193.262 167.927   8
   1 -10 -27 317.618 164.602   5
  -1  10  27 366.361 138.361   3
  -1  10  27 256.013 247.368   2
  -1 -10 -27 244.971 209.709   8
  -1 -10 -28 72.4528 212.738   8
   1 -10 -28-89.9853 163.373   5
  -1  10  28-20.0203 129.091   3
  -1  10  28-231.868 267.295   2
   1 -10 -28-19.8772 170.882   8
  -1 -10 -29 24.5132 186.097   8
   1 -10 -29-59.4619 161.450   8
   2  10   0 4618.98 775.861   3
   2 -10   0 5554.70 790.219   5
   2 -10   0 5246.42 768.617   7
   2  10   0 3975.14 763.071   4
  -2  10   0 4593.43 783.287   2
   2  10  -1 71.6663 84.5574   1
   2 -10   1 58.1157 128.005   5
   2 -10  -1 67.4959 107.792   5
   2  10  -1-66.4431 100.039   3
  -2 -10  -1 55.7158 51.4552   7
   2  10   1 105.935 75.6499   3
  -2 -10   1-7.33931 51.2030   5
  -2 -10  -1 23.3709 46.8228   5
  -2 -10   1 51.9306 55.9800   8
   2  10   1-6.76597 53.5015   4
   2 -10  -1-33.4648 47.9673   8
   2  10  -1 163.131 121.794   2
  -2 -10   1 61.7321 47.9248   7
   2  10  -1 70.2617 57.7769   4
   2  10   1 415.800 139.391   2
  -2 -10  -1-9.19720 67.1325   8
   2 -10  -1 106.192 62.4375   7
   2 -10   1 9.54573 65.7412   7
   2  10   1 60.7048 70.2371   1
  -2  10  -1 149.068 108.992   2
  -2 -10  -1 84.5199 59.8134   6
  -2 -10   1 98.4338 61.4121   6
  -2  10   1 72.9547 123.926   2
  -2  10   2 934.388 203.677   2
  -2 -10   2 937.944 161.613   8
   2 -10   2 1165.17 226.915   5
   2 -10  -2 1057.05 192.620   5
   2  10  -2 882.943 186.934   3
   2  10  -2 933.823 196.650   2
  -2 -10   2 783.430 159.563   5
   2  10  -2 724.041 182.232   1
   2 -10  -2 698.227 158.920   8
   2  10   2 998.881 183.582   3
   2  10   2 974.387 171.208   1
  -2 -10  -2 740.831 160.818   5
  -2 -10  -2 763.676 172.803   8
   2  10   2 987.331 161.246   4
  -2 -10   2 944.155 162.142   7
   2  10  -2 952.661 167.142   4
   2 -10  -2 691.241 160.427   7
   2 -10   2 1067.33 169.965   7
  -2 -10  -2 978.662 165.137   7
  -2 -10  -2 1013.39 164.767   6
  -2 -10   2 884.964 165.067   6
  -2  10   3-19.9133 118.038   2
   2 -10   3 21.5583 144.479   5
   2 -10  -3 167.920 102.944   5
   2  10   3 120.587 83.2431   3
   2 -10  -3 171.792 59.7331   8
   2  10  -3 91.4036 109.430   3
  -2 -10   3 42.3815 51.6623   5
  -2 -10  -3 157.699 65.1476   7
  -2 -10  -3 222.422 64.3493   5
  -2 -10   3 187.945 56.5550   8
  -2 -10  -3 124.217 94.1256   8
  -2 -10   3 143.831 55.0322   7
   2  10   3 143.590 53.5043   4
   2  10  -3 116.926 74.5161   4
   2 -10   3 96.7893 76.6350   7
   2  10  -3 110.230 126.392   2
  -2 -10  -3 118.336 64.9797   6
   2  10   3 16.3717 55.6297   1
  -2 -10   3 218.168 60.2169   6
   2  10   4 229.219 99.4092   3
  -2  10   4 187.585 140.054   2
   2 -10  -4 409.952 110.397   5
   2  10  -4 301.676 113.174   3
   2  10  -4 320.131 130.367   2
   2 -10  -4 281.183 71.5852   8
  -2 -10   4 178.838 68.0975   5
  -2 -10  -4 340.298 81.7311   5
   2  10   4 278.367 70.9373   1
  -2 -10  -4 227.588 82.0605   7
   2  10   4 234.067 65.5192   4
  -2 -10   4 401.747 77.6587   7
   2  10  -4 220.365 87.8374   4
  -2 -10   4 249.692 65.9083   8
  -2 -10  -4 220.613 72.3359   6
  -2 -10   4 347.621 87.4709   6
  -2 -10  -4 338.093 106.740   8
   2  10  -5 175.280 119.267   2
  -2  10   5-21.4791 154.516   2
   2  10  -5 103.334 105.640   3
   2 -10  -5 28.2804 101.774   5
  -2 -10   5 53.6394 50.8648   5
   2 -10  -5 7.25015 58.0305   8
   2  10   5 118.236 52.5845   1
  -2 -10  -5 147.686 108.374   8
  -2 -10  -5 88.0553 57.0094   5
   2  10   5 172.864 93.0903   3
  -2 -10   5 38.4857 56.0015   7
   2  10  -5 20.5562 76.8152   4
  -2 -10   5 107.496 50.3555   8
  -2 -10   5 129.029 70.5889   6
   2  10  -6 1090.70 185.635   2
   2  10   6 844.413 175.546   3
   2  10  -6 811.160 183.187   3
   2 -10  -6 1029.63 177.369   5
  -2  10   6 899.215 214.060   2
   2 -10  -6 900.397 153.369   8
  -2 -10   6 719.548 148.504   5
  -2 -10  -6 613.024 153.769   5
  -2 -10   6 764.291 155.737   6
  -2 -10   6 791.002 145.906   8
  -2 -10  -6 846.860 183.287   8
  -2 -10   6 814.954 153.317   7
   2  10  -6 946.206 168.220   4
   2 -10  -7-53.5482 90.9542   5
  -2  10   7 22.3807 149.134   2
   2  10   7 13.5213 85.8954   3
  -2 -10  -7 28.6364 60.4430   5
   2 -10  -7 55.2368 58.8251   8
  -2 -10  -7 15.7681 126.493   8
  -2 -10   7 33.2651 58.1526   7
   2  10  -7 35.9375 89.7614   4
  -2 -10   7 73.1759 68.1748   6
  -2 -10  -8 587.744 185.464   8
  -2  10   8 540.254 200.113   3
  -2 -10  -8 497.871 142.980   5
   2 -10  -8 825.572 160.352   5
  -2  10   8 614.405 218.486   2
   2  10   8 514.005 156.587   3
   2 -10  -8 608.204 141.374   8
  -2 -10   8 938.100 144.007   7
   2  10  -8 1111.47 170.035   4
  -2 -10   8 877.426 150.511   6
  -2  10   9 20.2250 146.242   3
  -2 -10   9 137.068 72.7042   7
   2 -10  -9-12.8471 85.3027   5
   2  10   9 13.7330 94.1179   3
  -2 -10  -9 31.1766 67.4270   5
  -2 -10  -9 87.0640 143.210   8
  -2 -10   9-43.3167 70.9352   6
   2  10  -9 67.9920 98.3983   4
  -2  10  10 20.3057 140.372   3
  -2 -10 -10 54.5275 79.2822   5
   2 -10 -10 176.985 87.4144   5
  -2 -10  10 46.4774 60.5042   7
   2  10  10 139.547 91.9516   3
  -2 -10 -10 258.368 147.715   8
   2  10 -10 216.725 109.891   4
  -2  10  10-23.3931 160.785   2
  -2 -10  10 44.2079 73.3929   6
  -2 -10  11-11.2802 72.6234   6
   2 -10 -11-86.4006 107.295   8
  -2 -10 -11-45.7537 81.9944   5
  -2  10  11-182.040 197.187   3
  -2 -10  11 86.1752 77.5814   7
   2 -10 -11-186.647 114.087   5
   2  10  11 28.3039 102.123   3
  -2  10  11-449.758 238.157   2
  -2 -10 -11 136.474 165.724   8
   2  10 -11 15.3191 130.295   4
  -2 -10  12 1125.48 221.778   6
  -2 -10 -12 1365.64 230.936   5
  -2 -10 -12 1170.83 272.655   8
  -2  10  12 460.753 256.855   3
   2 -10 -12 1179.62 226.858   5
   2 -10 -12 1059.03 223.425   8
  -2  10  12 933.596 284.096   2
   2  10  12 1361.94 237.450   3
  -2 -10  12 1433.26 222.233   7
   2  10 -12 1344.61 245.712   4
  -2 -10  13 128.501 71.7249   6
  -2  10  13-138.173 153.196   3
   2 -10 -13 36.5629 91.7968   5
  -2 -10 -13 51.8833 92.1485   5
  -2  10  13 338.879 185.186   2
   2  10  13-57.5788 96.5867   3
  -2 -10  13 10.0514 72.1421   7
   2  10 -13 51.8519 136.930   4
   2 -10 -13 42.5077 82.1416   8
   2 -10 -14 1591.45 296.438   5
  -2  10  14 1382.17 327.351   3
   2 -10 -14 1531.10 296.241   8
  -2 -10 -14 1729.85 301.272   5
  -2  10  14 1347.10 340.737   2
  -2 -10 -14 1909.20 343.222   8
  -2 -10  14 1772.87 293.095   7
   2  10  14 1505.16 302.744   3
  -2 -10  14 1567.13 290.854   6
   2  10 -14 2255.74 332.000   4
  -2 -10  15-47.9670 84.3635   6
  -2  10  15 194.128 143.673   3
   2 -10 -15 12.1464 77.5707   5
   2  10  15 178.249 100.874   3
  -2 -10 -15-29.0715 105.575   5
  -2 -10 -16 70.0020 188.260   8
 -10  -2  16-23.1762 177.207   6
  -2 -10  17 113.638 87.1408   6
   2 -10 -17 87.9041 91.7977   8
  -2 -10 -17 24.0039 192.550   8
   2  10  17 60.9216 97.3787   3
  -2  10  17-25.5974 189.492   2
  -2 -10 -17 81.8748 110.337   5
  -2 -10  17-11.3439 75.2396   7
 -10  -2  17 141.704 168.806   6
   2  10 -17-121.578 155.644   4
  -2 -10  18 51.9517 92.1933   6
  -2 -10 -18 172.859 125.482   5
   2  10  18 31.1679 97.2039   3
  -2  10  18 26.1401 214.441   2
   2  10 -18-105.187 171.913   4
   2 -10 -18-26.5352 127.649   8
  -2 -10 -18 98.5789 212.002   8
  -2 -10  18 387.552 93.4633   7
 -10  -2  18-95.3208 217.316   6
   2 -10 -18 280.263 109.662   5
  -2  10  18 18.5222 125.483   3
   2 -10 -19 13.6853 97.7125   8
  -2 -10  19 26.7354 86.0597   6
   2 -10 -19-65.2123 104.873   5
   2  10  19-47.3200 113.077   3
  -2  10  19 18.3113 122.510   3
  -2 -10 -19-91.3001 117.555   5
  -2 -10 -19 126.300 195.820   8
  -2  10  19 26.7148 205.665   2
  -2 -10  19-73.0143 92.0321   7
 -10  -2  19 166.694 185.242   6
   2  10 -19 282.450 172.449   4
  -2 -10  20 822.643 160.047   6
   2 -10 -20 593.369 164.576   8
  -2 -10 -20 749.136 251.273   8
  -2 -10 -20 563.522 177.375   5
  -2  10  20 1120.79 239.654   2
  -2  10  20 591.060 184.057   3
   2  10  20 584.147 157.661   3
  -2 -10  20 618.680 157.109   7
 -10  -2  20 1041.37 234.048   6
   2  10 -20 380.621 226.666   4
   2 -10 -20 784.033 164.520   5
  -2 -10 -21-52.7385 213.391   8
  -2 -10  21-14.1091 91.7491   6
   2 -10 -21 98.2271 110.283   5
  -2  10  21 111.020 124.376   3
  -2 -10 -21-142.847 141.504   5
   2 -10 -21 87.5137 113.470   8
  -2  10  21 55.6349 221.520   2
   2  10  21 167.755 112.764   3
  -2 -10  21-158.575 91.2444   7
   2  10 -21 138.015 189.649   4
  -2 -10  22 87.0987 96.5575   6
   2 -10 -22 90.3472 121.653   8
  -2  10  22 279.754 137.041   3
  -2 -10 -22-26.4100 208.327   8
  -2 -10 -22 150.202 163.283   5
  -2  10  22-28.5187 232.215   2
   2  10  22 121.742 114.518   3
   2 -10 -22 72.9403 116.816   5
  -2 -10  22 206.024 118.365   7
   2  10 -22-47.2497 175.676   4
  -2 -10  23-14.9670 100.177   6
   2 -10 -23 326.725 140.613   8
  -2  10  23-117.072 216.499   2
  -2 -10 -23 26.8459 224.031   8
  -2  10  23 94.8570 129.863   3
   2 -10 -23-137.476 114.718   5
  -2 -10  23 14.2931 109.688   7
   2  10  23-18.1365 120.812   3
   2  10 -23 24.2132 190.935   4
  -2  10  24 240.430 218.848   2
   2 -10 -24 48.2225 138.753   8
  -2 -10 -24 108.989 199.510   8
  -2  10  24 133.712 129.446   3
   2 -10 -24 309.695 130.895   5
  -2 -10  24 148.851 117.330   7
   2  10 -24 197.978 198.262   4
  -2 -10 -25-243.565 225.040   8
   2 -10 -25-69.6246 134.482   5
   2 -10 -25 149.519 142.383   8
  -2  10  25-76.8400 127.725   3
  -2 -10  25-251.270 119.835   7
  -2  10  25-30.8989 241.707   2
   2 -10 -26 566.839 187.949   8
   2 -10 -26 734.356 181.395   5
  -2  10  26 413.300 263.061   2
  -2  10  27 98.8398 249.724   2
   2 -10 -27-390.651 156.564   8
  -2  10  27-59.6965 144.616   3
   2 -10 -27-97.6485 150.669   5
   2 -10 -28 495.939 179.760   8
   3  10   0 93.6943 81.2695   3
   3 -10   0-21.7789 134.522   5
   3  10   0 10.0584 74.4659   1
  -3 -10   0-7.42458 52.0205   5
   3  10   0 13.1605 52.3259   4
  -3 -10   0 17.4478 65.8148   7
  -3 -10   0 64.7554 78.0573   8
  -3 -10   0 10.4033 71.5810   6
   3  10  -1 7989.35 1263.51   3
   3  10   1 8957.27 1265.39   3
  -3 -10   1 6773.71 1255.58   5
  -3 -10  -1 7550.39 1264.25   8
   3  10  -1 7786.65 1262.86   1
   3  10   1 6890.77 1254.19   4
   3  10  -1 7979.61 1256.60   4
  -3 -10  -1 8204.78 1260.32   7
  -3 -10   1 7346.26 1258.36   7
  -3 -10   1 8023.50 1262.23   6
   3 -10  -2 293.636 150.070   5
   3 -10  -2 169.471 77.2045   8
  -3 -10   2 234.694 91.1261   8
   3  10  -2 252.633 96.6491   3
   3  10   2 322.239 73.1447   4
   3  10   2 396.664 103.215   3
  -3 -10  -2 213.347 115.188   8
  -3 -10  -2 335.804 98.5868   7
  -3 -10   2 428.263 80.9787   7
   3  10  -2 460.635 130.612   2
  -3 -10  -2 284.753 80.5435   5
   3  10   2 247.623 81.7832   1
  -3 -10   2 352.521 76.3133   5
   3  10  -2 392.948 81.5545   4
  -3 -10  -2 263.707 94.5908   6
  -3  10   2 221.344 126.675   2
   3  10  -2 304.756 104.628   1
  -3 -10   2 317.387 91.1483   6
  -3 -10   3 869.978 171.830   5
  -3 -10  -3 910.933 175.671   5
   3  10   3 903.088 185.895   3
   3 -10  -3 725.119 210.445   5
   3  10  -3 1002.97 189.455   3
   3 -10  -3 962.325 172.947   8
  -3 -10  -3 954.029 192.186   7
  -3 -10  -3 971.945 200.091   8
   3  10  -3 1022.82 192.688   1
   3  10   3 881.419 166.721   4
   3  10  -3 972.886 177.692   4
  -3 -10   3 1029.73 174.962   7
   3  10  -3 807.299 205.066   2
  -3 -10   3 1085.21 175.850   8
  -3 -10  -3 1017.44 182.539   6
  -3 -10   3 1033.97 184.358   6
  -3  10   3 404.372 208.024   2
   3  10   3 1138.43 175.276   1
  -3 -10  -4 374.754 89.6956   5
  -3 -10  -4 624.311 121.778   7
   3 -10  -4 300.828 131.452   5
   3  10   4 372.858 78.2551   1
  -3 -10   4 236.891 74.9367   5
   3  10  -4 521.607 106.804   3
   3  10  -4 266.348 121.970   1
  -3 -10   4 343.582 82.8608   8
   3  10   4 458.583 111.790   3
  -3 -10   4 402.181 103.388   6
  -3 -10   4 381.126 87.4316   7
   3  10  -4 436.594 96.1190   4
  -3 -10  -4 422.129 140.368   8
   3  10  -4 362.542 133.646   2
   3 -10  -4 209.619 83.2010   8
   3  10   4 398.762 77.4662   4
  -3 -10  -4 318.009 103.535   6
  -3  10   4 403.076 154.150   2
  -3  10   5 167.946 144.462   2
   3 -10  -5 7.36603 54.7008   8
   3 -10  -5 32.9545 107.349   5
   3  10  -5-113.409 113.826   2
  -3 -10  -5-9.35253 59.3844   5
   3  10  -5 154.105 81.0837   3
   3  10   5 113.035 81.9427   3
  -3 -10   5 29.7027 42.7864   5
   3  10   5 36.2877 42.3044   1
  -3 -10   5 90.2797 47.7104   8
  -3 -10   5 41.0347 55.8297   7
   3  10  -5 37.2014 75.3296   4
   3  10  -5 44.7469 107.144   1
  -3 -10  -5 249.092 139.965   8
  -3 -10  -5-39.5360 85.8771   6
  -3 -10   5 44.3238 73.4147   6
  -3  10   6 1775.15 272.215   2
   3  10   6 967.159 230.586   3
  -3 -10  -6 1284.22 261.902   8
  -3 -10  -6 1336.42 225.860   5
   3 -10  -6 1075.08 243.785   5
   3  10  -6 956.667 243.385   1
   3  10  -6 1384.82 228.559   4
  -3 -10   6 1213.52 220.690   7
  -3 -10   6 1309.87 228.003   6
   3 -10  -7 130.736 64.3914   8
  -3  10   7 22.4414 156.676   2
   3 -10  -7 61.0261 116.343   5
  -3 -10  -7 103.980 66.5444   5
  -3 -10  -7 55.5128 133.662   8
   3  10   7 77.4513 89.4391   3
  -3 -10   7 50.8658 60.0956   7
   3  10  -7 42.5694 86.8510   4
  -3 -10   7-11.4062 79.5445   6
   3 -10  -8-14.8023 99.2190   5
  -3 -10  -8 11.0232 76.3438   5
  -3 -10   8 11.6106 76.4686   6
  -3 -10  -8 19.4165 145.363   8
   3  10   8-13.0797 79.2238   3
  -3 -10   8 86.6698 68.3783   7
   3  10  -8 113.883 87.5763   4
  -3 -10  -9-20.3182 152.740   8
   3 -10  -9 144.281 105.768   5
  -3 -10  -9 93.3989 82.0317   5
   3  10   9 185.560 91.3151   3
   3  10  -9 156.638 96.1627   4
  -3 -10   9 151.171 70.6430   7
  -3 -10   9 70.2329 81.1916   6
  -3  10  10 21.5099 170.837   3
   3 -10 -10 14.1213 110.020   5
  -3  10  10-71.9138 184.000   2
  -3 -10 -10-42.2849 172.279   8
  -3 -10 -10 37.6050 80.1238   5
   3 -10 -10 101.239 70.0379   8
   3  10  10 80.6355 86.3056   3
  -3 -10  10-18.2017 72.2587   7
   3  10 -10-39.2284 109.609   4
  -3 -10  10 119.229 78.8937   6
   3 -10 -11 2118.24 336.899   5
  -3  10  11 1440.74 361.905   3
  -3  10  11 1634.97 374.160   2
  -3 -10 -11 1211.64 354.024   8
   3 -10 -11 1679.70 318.038   8
   3  10  11 1803.11 325.008   3
  -3 -10  11 2365.25 320.242   7
   3  10 -11 1960.79 335.808   4
  -3 -10  11 1444.93 319.527   6
  -3 -10 -11 1909.66 328.026   5
  -3  10  12 374.305 167.797   3
   3 -10 -12 217.849 110.807   5
  -3  10  12 99.1327 165.241   2
  -3 -10  12 76.8542 79.1309   7
   3 -10 -12 173.354 86.3391   8
  -3 -10 -12 140.053 101.694   5
  -3 -10 -12 137.262 179.067   8
   3  10  12 138.922 93.9618   3
   3  10 -12 443.053 126.913   4
  -3 -10  12 195.798 84.6223   6
  -3  10  13 3109.34 706.167   3
   3  10  13 3463.96 683.371   3
   3 -10 -13 4187.68 686.589   5
   3 -10 -13 4105.82 679.714   8
  -3 -10 -13 3985.06 714.805   8
  -3  10  13 4627.59 721.319   2
  -3 -10  13 4797.74 686.949   6
  -3  10  14 21.9136 160.408   3
   3 -10 -14 118.981 105.108   5
  -3  10  14-153.058 192.852   2
   3 -10 -14 319.301 92.7523   8
   3  10  14 432.793 112.678   3
  -3 -10 -14 171.680 105.580   5
   3  10 -14 269.468 144.227   4
  -3 -10  14 126.405 86.4590   6
   3 -10 -15 2353.26 372.001   5
  -3  10  15 2316.91 401.997   3
 -10  -3  15 1360.90 395.151   6
  -3 -10 -16-52.2342 202.471   8
 -10  -3  16 23.8379 167.419   6
  -3 -10  17 234.413 124.035   6
   3 -10 -17 463.950 130.605   8
 -10  -3  17 143.287 195.223   6
  -3 -10 -17 534.289 159.751   5
  -3 -10 -17 644.112 234.994   8
  -3  10  17 964.724 241.555   2
   3  10  17 414.490 136.971   3
  -3 -10  17 558.268 123.137   7
   3  10 -17 774.461 181.474   4
  -3 -10  18 220.941 102.378   6
  -3  10  18 741.914 196.536   3
   3 -10 -18 326.079 127.775   5
   3  10 -18 312.004 184.220   4
  -3 -10 -18 19.3552 157.957   5
  -3 -10 -18 192.489 235.056   8
  -3 -10  18 161.187 107.725   7
   3  10  18 31.6655 111.183   3
 -10  -3  18 238.447 221.418   6
   3 -10 -18 274.161 125.674   8
  -3 -10  19-13.2764 84.7165   6
   3 -10 -19-61.5348 106.970   8
  -3  10  19 144.519 155.059   3
   3 -10 -19 52.8517 109.014   5
  -3  10  19 249.941 228.997   2
  -3 -10  19 11.8903 82.9060   7
   3  10  19 82.2574 103.316   3
  -3 -10 -19 56.1908 198.181   8
   3  10 -19 42.9576 150.901   4
  -3 -10  20 81.4292 93.0695   6
   3 -10 -20 187.362 111.880   5
  -3  10  20 56.4906 206.738   2
  -3 -10 -20 286.207 233.233   8
  -3 -10  20 147.525 94.8634   7
   3  10  20 103.011 98.4987   3
  -3  10  20 183.271 158.637   3
   3 -10 -20 101.720 108.667   8
   3  10 -20 22.2370 175.354   4
  10   3 -20 126.490 78.2795   1
  10   3 -21 32.5949 80.6642   1
  -3 -10  21-13.8815 89.1912   6
  -3  10  21 40.1173 135.616   3
  -3  10  21 57.7649 221.683   2
   3 -10 -21-13.6855 102.605   5
  10   3 -21 135.713 87.3888   4
  -3 -10  21 12.7300 93.3419   7
  -3 -10 -21-29.0775 247.026   8
   3 -10 -21 134.398 114.671   8
 -10  -3  21-92.0800 176.114   6
   3  10 -21 137.433 173.994   4
  -3 -10  22 42.7683 95.7740   6
   3 -10 -22 70.8171 110.532   5
  -3  10  22 29.5651 211.011   2
  -3  10  22 239.084 142.250   3
 -10  -3  22 367.510 175.278   6
 -10  -3  22 25.4344 163.106   7
  -3 -10  22 79.1883 107.994   7
   3 -10 -22 208.642 115.752   8
   3  10 -22-23.5708 186.729   4
   3 -10 -23 273.685 133.818   8
  -3 -10  23 175.606 114.155   6
   3 -10 -23 146.860 124.260   5
  -3  10  23 359.156 135.882   3
  -3  10  23-303.093 249.112   2
  -3 -10  23 230.607 110.783   7
   3  10 -23 266.381 210.717   4
  -3 -10  24 30.0701 103.914   6
  -3  10  24 120.703 134.056   3
   3 -10 -24 74.6320 118.962   8
  -3 -10  24 14.0999 97.8875   7
  -3  10  24-124.422 224.835   2
   3 -10 -24-76.2341 117.889   5
   3  10 -24 249.025 210.922   4
  -3 -10  25 308.451 168.040   6
   3 -10 -25 1176.51 207.130   8
  -3  10  25 479.465 292.611   2
   3 -10 -25 1243.53 204.939   5
  -3  10  25 614.030 203.992   3
  -3 -10  25 1716.44 211.463   7
   3  10 -25 739.262 256.683   4
  -3 -10  26 174.824 115.687   6
   3 -10 -26 118.913 126.709   5
   3 -10 -26 64.2565 130.708   8
  -3  10  26 206.174 141.642   3
  -3 -10  26 244.528 134.989   7
  -3  10  26-98.6199 243.268   2
   3  10 -26 26.0373 202.405   4
  -3 -10  27 1397.13 253.764   7
   3 -10 -27 923.837 253.134   5
   3 -10 -27 1384.78 262.017   8
   3  10 -27 926.158 292.506   4
  -3 -10  28-132.549 125.364   7
  -3 -10  29 571.162 172.383   7
   4  10   0 9819.43 1661.64   3
  -4 -10   0 10187.1 1666.58   8
   4  10   0 9841.74 1652.91   4
  -4 -10   0 10492.2 1662.41   7
  -4 -10   0 10297.6 1665.03   6
   4  10   0 9997.97 1657.06   1
  -4 -10  -1 1156.12 224.174   8
  -4 -10   1 1036.84 193.203   5
  -4 -10  -1 1034.35 192.054   5
   4  10  -1 1143.95 189.248   4
  -4 -10   1 1326.92 203.926   7
   4  10  -1 1156.04 199.992   3
   4  10   1 1115.58 201.318   3
  -4 -10  -1 824.626 209.096   7
  -4 -10   1 1017.96 210.729   8
  -4 -10  -1 950.095 211.665   6
   4  10  -1 836.775 195.066   1
   4  10   1 1057.13 192.250   1
  -4 -10   1 1115.73 209.807   6
   4  10   2 5273.19 853.130   3
  -4 -10   2 5099.80 845.706   5
  -4 -10  -2 5239.30 862.647   8
   4  10  -2 4964.29 844.532   4
  -4 -10  -2 5078.71 857.898   7
  -4 -10   2 4878.95 849.951   7
  -4 -10   2 5442.10 856.955   6
   4  10  -2 4860.18 851.843   3
  -4 -10  -2 5352.94 856.818   6
  -4 -10   3 1075.35 216.350   5
  -4 -10  -3 1232.59 224.590   5
  -4 -10   3 1533.40 229.950   8
   4  10  -3 1192.94 230.441   1
   4  10   3 1155.73 228.449   3
  -4 -10  -3 885.076 246.286   8
   4  10  -3 720.134 220.692   3
   4  10  -3 1156.15 217.055   4
  -4 -10  -3 1389.12 239.844   7
  -4 -10   3 1190.26 223.129   7
   4  10   3 1630.93 216.316   1
  -4 -10  -3 1241.49 241.463   6
  -4 -10   3 1390.13 235.399   6
   4  10  -4 544.842 117.205   3
   4 -10  -4 245.603 168.737   5
  -4 -10  -4 379.829 114.905   5
  -4 -10   4 432.444 97.5614   5
  -4 -10   4 555.422 110.325   8
  -4 -10   4 539.505 135.575   6
   4  10   4 253.302 118.025   3
   4  10  -4 478.476 121.691   1
   4  10  -4 409.370 103.421   4
  -4 -10   4 581.390 114.214   7
   4  10  -4 469.028 137.217   2
  -4  10   4 506.726 178.057   2
  -4 -10  -4 546.722 137.091   6
  -4 -10  -4 535.506 166.285   8
   4  10   5 2760.52 473.868   3
   4 -10  -5 3153.64 496.111   5
  -4 -10  -5 2608.47 472.550   5
  -4 -10  -5 3100.29 495.178   8
   4 -10  -5 2210.46 463.816   8
   4  10  -5 3302.51 468.848   4
  -4 -10   5 2847.95 468.814   7
  -4  10   5 2874.05 494.866   2
  -4 -10  -5 3001.59 478.525   6
   4  10  -5 2501.74 478.369   1
   4  10  -6-60.0758 100.239   1
   4 -10  -6-18.3215 127.212   5
  -4 -10  -6 70.5348 75.2188   5
  -4 -10  -6-39.0452 149.918   8
  -4 -10   6 104.698 72.2917   7
   4 -10  -6 61.8705 58.4470   8
   4  10  -6 82.1917 69.6374   4
   4  10   6-12.5564 81.9137   3
  -4 -10   6 51.2818 93.9807   6
  -4  10   6-84.0782 148.386   2
  -4 -10  -7 1227.28 305.977   8
   4  10   7 1489.37 272.790   3
  -4 -10  -7 1399.71 275.881   5
   4 -10  -7 1564.72 293.621   5
   4  10  -7 1097.24 284.001   1
   4  10  -7 1946.79 273.114   4
  -4 -10   7 1210.22 266.110   7
  -4 -10   7 2134.61 284.299   6
  -4 -10   8 113.983 64.5936   7
   4 -10  -8 50.7470 124.377   5
   4  10   8 64.6675 79.6330   3
  -4 -10  -8 91.3921 87.1161   5
  -4 -10  -8 256.239 166.050   8
   4  10  -8 94.0717 82.6282   4
   4  10  -8 67.7830 129.743   1
  -4 -10   8-12.9494 79.7284   6
  -4  10   9 603.823 216.651   2
   4  10  -9 988.802 165.851   4
   4 -10  -9 768.596 189.242   5
   4  10  -9 589.311 183.102   1
  -4 -10  -9 1107.99 226.808   8
  -4 -10  -9 915.484 165.801   5
   4 -10  -9 731.513 147.467   8
  -4 -10   9 717.409 152.416   7
  -4 -10   9 772.718 168.818   6
   4  10   9 539.059 160.869   3
  -4  10  10 1667.47 343.959   2
   4 -10 -10 1574.22 309.667   5
  -4 -10 -10 1924.29 350.155   8
  -4 -10 -10 1570.51 305.570   5
   4 -10 -10 1539.90 288.579   8
  -4 -10  10 1382.49 292.913   7
   4  10  10 1728.19 301.794   3
   4  10 -10 1987.18 304.844   4
  -4 -10  10 1774.59 310.875   6
   4  10 -10 2009.59 333.849   1
  -4  10  11 756.700 223.797   2
   4 -10 -11 790.334 181.265   5
   4 -10 -11 769.716 155.334   8
  -4 -10 -11 820.668 178.329   5
  -4 -10 -11 750.841 240.471   8
   4  10  11 615.181 162.914   3
  -4 -10  11 908.381 158.558   7
   4  10 -11 837.688 171.737   4
   4  10 -11 846.428 202.233   1
  -4 -10  11 651.210 160.217   6
   4 -10 -12 4233.10 754.802   5
  -4 -10 -12 4526.24 757.876   5
  -4 -10 -12 4848.68 788.846   8
  -4  10  12 3359.95 775.923   3
  -4  10  12 4412.43 778.664   2
  -4 -10  12 4792.32 752.499   6
   4 -10 -12 4803.26 745.262   8
   4  10 -12 3892.35 767.471   1
  -4  10  13 428.447 228.834   3
  -4  10  13 1042.81 253.905   2
   4 -10 -13 819.653 192.375   5
   4 -10 -13 827.896 171.244   8
  -4 -10 -13 992.863 196.526   5
   4  10  13 899.297 185.097   3
   4  10 -13 1005.07 197.520   4
  -4 -10  13 848.572 180.535   6
  -4  10  14 4560.82 694.976   3
   4 -10 -14 3603.17 660.076   5
 -10  -4  15 365.567 189.276   6
   4 -10 -16 1367.64 257.309   8
  -4 -10 -16 1420.55 335.449   8
   4  10  16 1472.80 271.654   3
   4  10 -16 1299.90 281.613   4
 -10  -4  16 1363.29 312.413   6
  -4 -10  16 1426.31 263.248   6
   4 -10 -17 221.651 95.3584   8
  -4 -10  17 177.137 94.2470   7
   4  10 -17 36.5514 154.296   4
  -4 -10  17 166.669 95.0062   6
  10   4 -18 62.7463 80.3994   1
  -4  10  18 186.334 185.198   3
   4 -10 -18 110.294 113.753   5
   4 -10 -18 143.879 89.3516   8
  -4 -10  18 329.686 96.1726   7
   4  10 -18 97.8103 150.917   4
  -4 -10  18 14.0426 100.260   6
  -4 -10  19 336.584 116.879   6
  10   4 -19 161.830 95.8744   1
  -4  10  19 641.483 191.859   3
  -4  10  19 254.927 211.110   2
   4 -10 -19 302.542 123.174   5
 -10  -4  19 273.476 186.532   7
   4 -10 -19 331.531 99.8324   8
  -4 -10  19 233.847 104.673   7
  10   4 -19 203.665 89.9187   4
   4  10 -19 409.626 168.097   4
 -10  -4  19 327.921 188.227   6
  -4 -10  20-14.1630 95.2167   6
  10   4 -20 44.5393 74.8699   1
  -4  10  20-160.637 176.060   3
  -4  10  20-57.8461 211.495   2
   4 -10 -20 138.178 114.977   5
 -10  -4  20 100.075 174.232   7
  10   4 -20-132.527 85.0914   4
   4 -10 -20-59.1139 89.1127   8
  -4 -10  20 12.0421 83.8824   7
   4  10 -20-65.1547 174.085   4
 -10  -4  20 161.679 175.950   6
  -4 -10  21 408.719 142.448   6
   4  10 -21 589.512 213.910   4
  10   4 -21 195.086 128.196   1
  -4  10  21 383.976 260.040   2
 -10  -4  21 503.282 201.096   7
   4 -10 -21 783.407 160.618   5
  10   4 -21 772.408 144.390   4
  -4  10  21 971.428 206.223   3
  -4 -10  21 683.333 143.022   7
   4 -10 -21 708.829 152.423   8
 -10  -4  21 572.136 195.461   6
  -4 -10  22-14.3662 92.6931   6
  -4  10  22 133.637 160.432   3
  10   4 -22-23.7364 86.3259   1
  -4  10  22 271.904 239.871   2
   4 -10 -22-14.1523 109.884   5
   4 -10 -22 128.897 107.734   8
  10   4 -22 81.3419 92.4376   4
  -4 -10  22-12.8375 100.052   7
 -10  -4  22 75.8503 179.892   7
   4  10 -22 303.502 178.578   4
 -10  -4  22-135.352 166.337   6
   4 -10 -23 361.374 133.918   5
  -4 -10  23 219.843 124.433   6
  10   4 -23 110.073 110.568   1
  -4  10  23-92.7720 252.934   2
  -4  10  23 811.544 195.515   3
   4 -10 -23 521.707 134.611   8
  10   4 -23 523.228 144.367   4
  -4 -10  23 544.661 130.271   7
   4  10 -23 337.252 205.459   4
 -10  -4  23 562.288 193.074   6
 -10  -4  23 408.887 204.687   7
  -4  10  24 1219.46 236.338   3
  -4 -10  24 838.164 194.248   6
   4 -10 -24 1139.34 201.441   8
 -10  -4  24 957.339 262.725   7
  -4 -10  24 853.670 196.848   7
  -4  10  24 570.883 289.061   2
   4  10 -24 321.518 246.259   4
   4 -10 -24 956.397 198.597   5
  -4 -10  25 353.110 127.348   6
   4 -10 -25 541.543 146.525   5
  -4  10  25 392.577 174.424   3
  -4  10  25-32.5614 239.117   2
   4 -10 -25 462.389 143.601   8
  -4 -10  25 342.944 133.101   7
   4  10 -25 405.936 213.598   4
   4 -10 -26 2030.80 326.340   8
  -4 -10  26 1228.10 309.929   6
  -4  10  26 1004.39 404.667   2
   4 -10 -26 2027.66 327.280   5
  -4  10  26 2198.23 348.804   3
  -4 -10  26 1767.10 322.590   7
   4  10 -26 1696.39 366.791   4
  -4 -10  27 225.914 129.319   6
  -4 -10  27 340.048 136.614   7
   4  10 -27 106.550 251.582   4
  -4 -10  28 1078.41 185.785   6
  -4 -10  28 692.473 191.343   7
  -4 -10  29 268.849 147.965   7
   4  10 -29 83.1283 201.596   4
  -4 -10  30 122.822 134.902   7
   4  10 -30-112.303 202.279   4
   5  10   0 1940.16 339.298   1
   5  10   0 2321.08 349.742   3
  -5 -10   0 1803.03 343.269   5
  -5 -10   0 2090.26 365.529   8
  -5 -10   0 1872.86 360.306   7
  -5 -10   0 1921.90 365.151   6
   5  10  -1 5279.47 806.130   3
   5  10   1 4671.78 803.484   3
  -5 -10  -1 4070.84 801.826   5
  -5 -10  -1 5328.09 819.297   8
   5  10  -1 4888.82 800.471   1
  -5 -10  -1 4582.29 815.351   7
  -5 -10   1 4480.23 811.265   7
  -5 -10   1 5329.93 815.510   6
   5  10   1 4925.21 798.069   1
   5  10  -2 3938.06 592.537   3
   5  10   2 3264.61 592.279   3
  -5 -10   2 2873.99 588.615   5
  -5 -10  -2 3933.99 612.398   8
  -5 -10  -2 3270.88 602.336   6
   5  10   2 3808.07 585.661   1
   5  10  -3 2248.98 328.444   3
   5  10   3 1423.28 322.220   3
  -5 -10   3 1908.93 322.717   5
  -5 -10  -3 1713.31 326.360   5
  -5 -10   3 2182.86 339.025   8
  -5 -10  -3 1531.23 349.979   8
   5  10  -3 2164.76 318.468   4
  -5 -10   3 1744.59 328.695   7
  -5 -10  -3 1502.35 338.255   6
  -5 -10   3 1900.85 340.219   6
   5  10  -3 1747.26 323.926   1
  -5 -10  -4 2745.73 479.060   5
   5  10  -4 2736.88 468.599   4
  -5 -10   4 2601.37 477.064   7
  -5 -10  -4 3020.19 500.056   8
  -5 -10  -4 3091.20 487.886   6
  -5 -10   4 2808.95 487.693   6
   5  10  -4 2732.91 476.229   1
   5  10  -5 37.7817 86.0499   1
  -5 -10  -5 28.0728 104.805   6
   5  10  -5 80.1041 65.5538   4
  -5 -10  -5 53.6745 82.2108   5
  -5 -10  -5 19.7849 145.928   8
  -5 -10   5 11.6617 84.8557   7
   5  10   5 51.1487 74.8280   3
  -5 -10   5-30.5108 99.4014   6
  -5 -10   6 3996.51 730.744   7
  -5 -10  -6 5146.76 756.630   8
  -5 -10   6 4449.41 739.684   6
   5 -10  -7 261.270 136.697   5
  -5 -10  -7 435.141 164.318   8
  -5 -10  -7 553.649 113.692   5
   5  10  -7 130.562 103.217   1
  -5 -10   7 401.814 102.923   7
   5  10  -7 252.503 92.0983   4
   5  10   7 173.973 96.6014   3
  -5 -10   7 270.108 127.225   6
   5 -10  -8 2839.47 563.757   5
  -5 -10  -8 3842.34 584.190   8
   5  10  -8 3616.70 544.768   4
  -5 -10   8 3016.27 547.355   7
  -5  10   8 3257.13 574.430   2
  -5 -10   8 3022.80 556.293   6
   5  10  -8 2931.87 556.572   1
   5 -10  -9 91.3956 131.281   5
  -5 -10   9 196.176 90.3239   7
   5  10   9 42.3531 84.6733   3
  -5 -10  -9 477.205 180.467   8
   5  10  -9 83.1285 119.752   1
   5  10  -9 205.825 87.8708   4
  -5 -10   9 164.257 120.522   6
  -5  10   9 112.056 150.147   2
   5 -10  -9 84.3589 66.1200   8
   5 -10 -10 1768.63 390.143   5
  -5  10  10 2276.49 407.901   2
  -5 -10  10 2197.64 373.590   7
  -5 -10  10 2210.37 383.832   6
  -5 -10 -10 3369.77 431.968   8
   5  10 -10 1724.76 389.617   1
   5 -10 -11 1735.38 344.407   5
   5  10 -11 1805.66 344.795   1
   5 -10 -11 1869.24 319.358   8
   5  10 -11 1920.43 331.975   4
  -5 -10  11 1732.00 326.798   7
  -5 -10  11 2052.18 337.695   6
  -5  10  11 1777.19 365.796   2
  -5  10  12 1602.40 351.632   2
   5 -10 -12 1929.24 333.112   5
   5 -10 -12 1600.72 301.908   8
  -5 -10  12 1714.58 306.104   7
   5  10 -12 1869.78 316.201   4
  -5 -10  12 1811.77 322.042   6
   5 -10 -13 2735.77 483.034   5
  -5 -10  14 1369.89 249.785   7
 -10  -5  14 1285.63 314.330   6
   5  10 -15 1362.44 269.550   4
  -5 -10  15 1413.05 264.921   6
  10   5 -16 455.563 164.929   1
   5  10 -16 893.287 252.815   1
  -5  10  16 987.993 260.273   2
   5 -10 -16 1148.13 172.951   8
  -5 -10  16 709.505 174.610   7
   5  10 -16 982.435 201.821   4
  -5 -10  16 1123.76 183.277   6
  10   5 -17 138.883 93.4442   1
  -5  10  17-217.180 247.271   2
  -5  10  17 186.803 222.159   3
   5 -10 -17 30.3761 125.124   5
   5 -10 -17 124.951 89.9338   8
 -10  -5  17 49.6092 163.169   7
   5  10 -17 25.3007 201.047   1
  -5 -10  17 231.905 94.2593   7
   5  10 -17 33.4906 143.864   4
 -10  -5  17 194.327 183.351   6
  -5 -10  17 134.910 114.125   6
  10   5 -18 628.826 130.330   1
  -5  10  18 388.732 227.117   2
   5 -10 -18 485.699 133.598   8
  -5  10  18 584.873 246.627   3
   5 -10 -18 569.293 155.491   5
  -5 -10  18 367.345 132.600   7
 -10  -5  18 645.255 204.343   7
   5  10 -18 738.225 179.237   4
 -10  -5  18 574.212 208.878   6
   5  10 -18 716.853 237.282   1
  -5 -10  18 514.452 146.848   6
  -5  10  19-56.8207 217.966   2
   5 -10 -19 178.433 92.5361   8
  10   5 -19-45.6671 88.5408   1
  -5  10  19-210.470 210.199   3
   5 -10 -19-44.4708 115.338   5
 -10  -5  19-24.7792 161.919   7
  -5 -10  19-48.5282 91.7861   7
   5  10 -19 28.0792 187.006   1
   5  10 -19 18.9613 140.800   4
  10   5 -19 70.4156 81.1839   4
 -10  -5  19 70.5134 184.724   6
  -5 -10  19 15.0922 112.919   6
  -5  10  20 463.266 281.514   2
  10   5 -20 272.924 195.472   1
  -5  10  20 1812.97 294.323   3
   5 -10 -20 1533.02 217.584   5
  10   5 -20 1000.10 201.790   4
   5 -10 -20 1252.99 207.158   8
 -10  -5  20 1319.30 262.865   7
  -5 -10  20 1225.29 207.050   7
   5  10 -20 1054.71 248.878   4
 -10  -5  20 1155.11 259.291   6
  -5 -10  20 960.250 213.908   6
   5  10 -20 1625.45 316.537   1
  -5 -10  21 15.1994 100.284   6
   5  10 -21-155.848 234.020   1
  -5  10  21 236.309 230.569   2
  10   5 -21-48.9607 86.3401   1
  -5  10  21 25.4783 166.477   3
   5 -10 -21 161.740 118.243   5
   5 -10 -21-24.0355 97.5745   8
 -10  -5  21 149.165 176.790   7
  10   5 -21-11.3071 83.9688   4
  -5 -10  21 12.7153 100.939   7
   5  10 -21-21.2710 181.679   4
 -10  -5  21-22.6615 163.121   6
  -5 -10  22 1286.60 252.049   6
 -10  -5  22 1528.95 307.987   7
  -5  10  22 272.639 322.763   2
  10   5 -22 585.755 243.869   1
   5  10 -22 1844.73 367.941   1
  -5  10  22 1553.92 307.978   3
   5 -10 -22 1653.45 260.978   5
   5 -10 -22 1396.77 250.422   8
   5  10 -22 1553.74 301.573   4
  10   5 -22 1411.21 242.725   4
  -5 -10  22 1348.22 245.216   7
 -10  -5  22 1482.58 285.513   6
  -5 -10  23 76.0868 111.039   6
  -5  10  23-30.9923 229.959   2
  10   5 -23 13.1425 96.7104   1
   5  10 -23 209.233 262.445   1
  -5  10  23 147.972 177.026   3
   5 -10 -23 283.682 126.647   5
   5 -10 -23 195.306 100.845   8
 -10  -5  23 24.9367 181.835   7
  10   5 -23 116.228 108.660   4
  -5 -10  23 94.4737 99.9798   7
   5  10 -23 46.9674 174.653   4
 -10  -5  23 111.836 158.138   6
  10   5 -24 635.034 195.630   4
  -5 -10  24 383.629 189.092   6
 -10  -5  24 858.114 241.992   7
  -5  10  24 571.323 298.258   2
   5  10 -24 1405.68 348.165   1
  10   5 -24 714.340 201.848   1
   5 -10 -24 1402.80 213.868   5
   5 -10 -24 975.499 207.989   8
  -5  10  24 1334.71 260.633   3
  -5 -10  24 1338.36 201.874   7
   5  10 -24 1295.43 266.061   4
 -10  -5  24 1763.51 256.018   6
  -5 -10  25 466.010 191.288   6
   5  10 -25 825.354 340.764   1
  -5  10  25 1198.12 253.892   3
  -5  10  25 553.631 297.969   2
   5 -10 -25 875.294 205.644   8
   5  10 -25 1106.57 270.848   4
 -10  -5  25 1030.43 251.681   7
  -5 -10  25 1052.88 207.030   7
   5 -10 -25 1107.52 209.953   5
 -10  -5  25 1564.94 249.467   6
  -5 -10  26 47.6348 118.337   6
   5  10 -26-103.285 200.672   4
  -5 -10  27 1606.81 205.762   7
   5  10 -27 2366.12 404.641   1
   5  10 -27 478.123 256.468   4
  -5 -10  28 99.8421 123.891   6
  -5 -10  28 502.864 139.384   7
   5  10 -28 462.060 228.162   4
  -5 -10  29-17.0945 109.721   6
  -5 -10  29 101.316 129.729   7
   5  10 -29-110.998 211.493   4
  -5 -10  30 297.981 134.628   6
   5  10 -30 596.688 407.995   1
   5  10 -30 56.7651 225.621   4
  -6 -10   0 2356.25 417.505   8
  -6 -10   0 1966.52 413.736   6
   6  10   0 2408.07 391.679   1
  -6 -10   1 3598.90 568.791   8
  -6 -10  -1 3205.34 568.557   6
  -6 -10   1 3466.19 570.478   6
   6  10  -1 3104.35 546.736   1
   6  10  -2 239.113 79.5286   1
  -6 -10   2 261.724 139.243   8
  -6 -10   2 282.325 132.606   7
  -6 -10  -2 316.401 141.970   8
  -6 -10  -2 471.420 136.617   6
  -6 -10   2 237.580 145.131   6
  -6 -10   3 4205.72 655.102   7
  -6 -10  -3 3615.45 651.246   6
  -6 -10   3 4512.92 664.517   6
   6  10  -3 3475.25 637.228   1
  -6 -10  -4 39.1608 133.428   8
   6  10  -4-20.7101 69.6445   1
  -6 -10   4 15.6437 107.559   7
  -6 -10  -4 30.8856 111.624   6
  -6 -10   4-127.273 139.996   6
  -6 -10   5 4133.55 697.055   7
  -6 -10  -5 4502.05 713.059   8
  -6 -10   5 3425.18 702.091   6
   6  10  -5 4260.29 688.477   1
   6  10  -6 1335.45 256.130   4
  -6 -10   6 1390.56 277.891   7
  -6 -10   6 1581.30 292.288   6
   6  10  -6 1668.72 270.671   1
   6  10  -7 3203.70 525.712   4
  -6 -10   7 2993.65 536.714   7
  -6 -10   7 3282.83 545.061   6
   6  10  -7 2988.22 532.811   1
   6  10  -8 692.198 157.502   4
  -6 -10   8 1000.37 171.904   7
  -6 -10   8 782.847 200.458   6
   6  10  -8 834.874 181.694   1
   6  10  -9 4225.77 695.923   1
   6  10  -9 3877.85 682.775   4
  -6 -10   9 4578.91 693.837   7
  -6 -10   9 3745.27 696.644   6
   6 -10 -10-78.9143 140.287   5
   6  10 -10-31.9603 106.418   1
   6  10 -10 20.3187 80.6368   4
  -6 -10  10 25.8820 103.724   7
  -6  10  10-44.9299 154.418   2
  -6 -10  10 67.8021 124.899   6
   6 -10 -11 1515.33 316.933   5
   6  10 -11 1471.74 287.432   4
  -6  10  11 1286.10 316.836   2
  -6 -10  11 2097.04 307.768   6
   6 -10 -12 528.555 160.593   5
  -6 -10  13 2332.83 387.618   7
   6  10 -13 1967.35 400.611   1
  10   6 -14 470.688 129.576   1
   6  10 -14 471.889 151.445   4
  -6 -10  14 828.183 165.948   6
  10   6 -15 1225.12 241.568   1
 -10  -6  15 1097.51 277.550   7
   6 -10 -15 1364.33 241.542   8
   6  10 -15 940.860 256.760   4
 -10  -6  15 1506.46 298.786   6
  -6  10  15 983.209 304.886   2
  -6  10  16-289.276 246.360   3
  10   6 -16 130.906 87.1523   1
 -10  -6  16 301.094 195.848   6
   6 -10 -16 17.0044 138.471   5
 -10  -6  16-74.6074 181.136   7
  -6 -10  16-38.1743 101.989   7
   6  10 -16 29.4511 131.017   4
   6 -10 -16-10.2421 84.9535   8
   6  10 -16-179.007 165.503   1
  -6 -10  16-16.5139 125.792   6
  -6  10  16-232.073 197.120   2
  -6  10  17 1272.91 301.451   3
  10   6 -17 225.891 188.841   1
   6 -10 -17 1381.61 224.335   5
   6 -10 -17 1583.32 201.970   8
 -10  -6  17 1707.31 278.230   7
  -6 -10  17 1073.56 211.512   7
   6  10 -17 1329.17 228.755   4
 -10  -6  17 1344.60 266.507   6
  -6 -10  17 1230.63 220.833   6
  -6  10  17 839.315 264.878   2
   6  10 -17 397.813 244.755   1
  -6  10  18 295.344 212.712   2
   6  10 -18 173.742 186.375   1
  -6  10  18 541.123 251.990   3
  10   6 -18 152.669 101.528   1
   6 -10 -18 536.679 143.068   5
   6 -10 -18 511.912 110.280   8
 -10  -6  18 297.158 171.772   7
  -6 -10  18 402.893 125.024   7
  10   6 -18 130.324 101.164   4
   6  10 -18 376.534 146.565   4
 -10  -6  18 454.172 195.812   6
  -6 -10  18 407.786 133.892   6
  -6  10  19 826.113 292.109   2
  -6  10  19 1785.18 350.937   3
   6  10 -19 520.292 292.289   1
  10   6 -19 904.841 235.513   1
   6 -10 -19 1509.77 257.555   5
   6 -10 -19 1068.66 236.116   8
  10   6 -19 1240.90 231.515   4
 -10  -6  19 1798.31 302.500   7
  -6 -10  19 1496.40 244.853   7
   6  10 -19 1373.41 265.729   4
 -10  -6  19 1543.08 302.609   6
  -6 -10  19 1591.24 255.476   6
  -6  10  20 56.1132 229.147   2
 -10  -6  20 755.111 213.346   7
   6 -10 -20 813.696 142.052   8
  -6  10  20 693.714 263.809   3
   6  10 -20 491.544 233.450   1
  10   6 -20 202.041 137.275   1
   6 -10 -20 555.937 161.629   5
  10   6 -20 722.071 141.255   4
  -6 -10  20 750.474 148.518   7
   6  10 -20 519.693 177.231   4
 -10  -6  20 414.379 191.553   6
  -6 -10  20 392.849 150.985   6
  -6  10  21 691.459 289.956   2
  -6  10  21 1641.95 307.347   3
   6 -10 -21 1512.90 229.648   5
  10   6 -21 541.491 207.583   1
   6 -10 -21 1288.47 210.830   8
   6  10 -21 1249.28 308.482   1
 -10  -6  21 1127.25 263.456   7
  10   6 -21 754.876 198.528   4
  -6 -10  21 1343.38 219.550   7
   6  10 -21 1054.24 252.839   4
 -10  -6  21 1158.40 263.839   6
  -6 -10  21 855.991 222.389   6
  -6  10  22 176.491 197.997   2
  10   6 -22 164.926 109.910   4
  -6 -10  22 112.423 116.134   7
  -6  10  22 234.987 200.413   3
   6 -10 -22 199.774 104.287   8
   6 -10 -22 219.692 123.165   5
  10   6 -22 13.6507 99.0860   1
   6  10 -22 152.983 246.195   1
 -10  -6  22 72.7401 173.078   7
   6  10 -22 125.360 165.075   4
 -10  -6  22 202.334 160.684   6
  -6 -10  22 65.6041 119.104   6
  -6  10  23 330.733 288.414   2
  -6  10  23 1133.86 288.988   3
   6 -10 -23 2011.96 231.660   8
   6 -10 -23 1596.63 241.088   5
  10   6 -23 672.967 216.236   1
   6  10 -23 968.122 318.255   1
  -6 -10  23 1587.56 233.269   7
 -10  -6  23 1298.33 281.044   7
  10   6 -23 367.713 213.010   4
   6  10 -23 846.539 261.589   4
 -10  -6  23 1785.86 284.552   6
  -6 -10  23 957.228 226.010   6
  -6 -10  24 32.8285 103.137   6
  -6  10  24-92.3128 212.504   2
   6 -10 -24-47.3512 124.566   5
  10   6 -24 14.7989 98.2366   1
  -6  10  24 27.8481 202.111   3
   6 -10 -24-108.102 110.854   8
   6  10 -24 34.0988 245.492   1
  -6 -10  24 207.937 117.232   7
  10   6 -24 132.115 123.335   4
   6  10 -24-162.710 200.839   4
 -10  -6  24 170.346 180.756   7
 -10  -6  24 200.059 163.253   6
  -6 -10  25 396.584 181.486   6
 -10  -6  25 1111.33 240.272   7
  10   6 -25 703.744 184.885   1
  -6 -10  25 1102.81 190.946   7
  10   6 -25 474.495 188.143   4
   6  10 -25 1178.81 252.035   4
 -10  -6  25 978.279 225.261   6
   6  10 -25 1191.20 321.671   1
  -6 -10  26 524.837 160.714   6
  10   6 -26 465.423 177.382   1
   6  10 -26 497.573 309.565   1
 -10  -6  26 1130.18 242.581   7
  10   6 -26 781.504 193.946   4
   6  10 -26 153.313 246.625   4
 -10  -6  26 758.926 212.898   6
  -6 -10  26 680.253 179.183   7
  -6 -10  27 1277.01 206.005   7
   6  10 -27 1503.64 376.854   1
   6  10 -27 970.067 276.947   4
  -6 -10  28 186.430 123.816   6
   6  10 -28 555.143 338.364   1
  -6 -10  28 373.484 146.517   7
   6  10 -28 107.883 228.529   4
  -6 -10  29 104.197 123.727   6
   6  10 -29 863.549 347.248   1
  -6 -10  29 616.957 159.239   7
   6  10 -29 27.6080 221.068   4
  -6 -10  30 17.7707 116.685   6
   6  10 -30-113.492 213.806   4
  -7 -10   0 2929.50 480.055   8
  -7 -10   0 2410.54 493.081   6
  -7 -10   1 203.890 140.170   8
  -7 -10  -1 253.412 134.861   8
  -7 -10  -1 480.246 166.778   6
  -7 -10   1 479.007 176.520   6
  -7 -10   2 2417.38 449.852   6
   7  10  -3 315.944 89.0142   1
  -7 -10   3 304.545 150.940   7
  -7 -10   3 228.551 171.144   6
  -7 -10   4 2109.40 377.714   7
  -7 -10   4 1880.53 387.575   6
  -7 -10   5 2900.60 486.723   7
  -7 -10   5 1968.79 494.883   6
   7  10  -5 2852.61 460.117   1
   7  10  -6 1622.70 303.151   1
  -7 -10   6 2095.39 331.514   7
  -7 -10   6 1437.09 337.918   6
  -7 -10   7 3776.93 650.527   7
  -7 -10   7 3752.34 661.345   6
   7  10  -8 2273.49 392.203   4
  -7 -10   8 2377.65 414.013   7
   7  10  -8 2165.13 398.803   1
  -7 -10   8 2578.65 430.078   6
   7  10  -9 823.403 187.385   4
  -7 -10   9 1014.16 223.439   7
   7  10  -9 1200.35 206.984   1
  -7 -10   9 1293.49 245.257   6
  -7 -10  10 1934.91 305.711   6
   7  10 -10 1346.03 269.433   4
  -7 -10  12 846.380 185.089   7
   7  10 -12 690.015 187.606   1
  10   7 -12 776.619 161.438   1
  10   7 -13 10.4210 70.3826   1
   7  10 -13 153.174 127.199   1
   7  10 -13 79.2635 93.5664   4
  -7 -10  13-14.8854 118.538   7
 -10  -7  13 187.995 187.264   6
  -7 -10  13 150.274 139.271   6
  10   7 -14 269.190 135.368   1
 -10  -7  14 678.651 219.184   7
   7  10 -14 1604.33 176.932   4
  -7  10  14 144.128 190.468   2
 -10  -7  14 739.305 236.333   6
  -7 -10  14 1233.16 196.727   6
  10   7 -15-289.896 92.3624   1
   7 -10 -15-169.253 160.028   5
   7  10 -15-18.8084 120.304   1
  -7  10  15-97.8178 181.695   2
 -10  -7  15-100.059 195.981   7
   7  10 -15-25.7936 108.222   4
 -10  -7  15-25.8828 208.759   6
  -7 -10  15-110.536 156.837   6
  10   7 -16 556.773 180.251   1
   7 -10 -16 1095.56 221.992   5
   7  10 -16 699.093 229.362   1
   7  10 -16 1102.70 203.170   4
 -10  -7  16 1342.85 263.446   6
  -7  10  16 548.571 243.794   2
 -10  -7  16 844.987 245.393   7
  -7 -10  16 1096.40 201.310   7
  -7 -10  16 1564.98 226.392   6
   7 -10 -17 661.114 165.734   5
  10   7 -17 275.460 106.849   1
 -10  -7  17 294.059 194.507   6
  10   7 -17 240.886 107.826   4
  -7 -10  17 349.734 134.087   7
   7  10 -17 566.741 145.697   4
   7 -10 -17 461.223 109.528   8
   7  10 -17 382.016 164.156   1
  -7  10  17 609.292 204.082   2
  -7 -10  17 472.563 153.953   6
 -10  -7  17 320.299 194.810   7
  -7  10  18 1438.33 311.369   3
   7 -10 -18 1399.88 210.384   5
  10   7 -18 262.004 166.804   1
   7 -10 -18 970.431 171.106   8
  10   7 -18 693.510 165.359   4
  -7 -10  18 798.759 182.581   7
 -10  -7  18 898.241 235.204   7
 -10  -7  18 811.659 243.397   6
  -7  10  18 647.797 240.070   2
   7  10 -18 775.660 227.462   1
  -7 -10  18 1135.87 202.097   6
  -7  10  19 1540.60 363.034   3
   7 -10 -19 1816.44 273.560   5
  10   7 -19 326.479 233.693   1
   7  10 -19 1296.96 295.328   1
 -10  -7  19 1791.33 290.749   7
  10   7 -19 1317.50 241.236   4
  -7 -10  19 1605.82 253.551   7
   7  10 -19 1618.95 265.281   4
 -10  -7  19 1357.68 308.901   6
  -7  10  19 1218.76 314.413   2
   7 -10 -19 1559.60 245.460   8
  -7 -10  19 1393.19 266.162   6
  -7  10  20 902.118 300.514   3
   7 -10 -20 559.080 187.059   5
   7 -10 -20 692.866 157.538   8
  10   7 -20 603.030 162.742   1
   7  10 -20 239.904 175.640   4
   7  10 -20 493.326 217.419   1
 -10  -7  20 1007.28 232.787   7
  10   7 -20 1101.70 160.251   4
  -7 -10  20 943.253 178.057   7
 -10  -7  20 850.364 219.943   6
  -7  10  20-269.910 222.055   2
  -7 -10  20 858.206 186.716   6
  -7  10  21 2434.04 398.551   3
   7 -10 -21 2053.07 312.599   5
   7 -10 -21 2019.22 293.789   8
  10   7 -21 1176.59 294.038   1
  10   7 -21 1418.49 289.563   4
   7  10 -21 1524.78 352.123   1
 -10  -7  21 1893.98 337.281   7
  -7 -10  21 1386.40 299.443   7
   7  10 -21 1771.56 307.976   4
 -10  -7  21 1743.32 342.854   6
  -7  10  21 607.548 328.418   2
  -7 -10  21 1404.02 301.243   6
  -7  10  22 1416.97 319.858   3
   7 -10 -22 1041.68 186.431   5
  10   7 -22 104.248 148.202   1
   7 -10 -22 868.640 158.249   8
 -10  -7  22 1026.81 207.511   7
   7  10 -22 813.490 252.346   1
  -7 -10  22 630.592 155.088   7
  10   7 -22 106.172 142.560   4
   7  10 -22 659.297 187.458   4
 -10  -7  22 939.353 217.876   6
  -7  10  22 253.593 217.372   2
  -7 -10  22 963.764 177.170   6
  -7  10  23 442.912 244.723   3
   7 -10 -23 339.246 144.486   5
  10   7 -23 123.296 128.619   1
 -10  -7  23 260.322 181.697   7
   7  10 -23 173.848 207.566   1
  -7 -10  23 377.595 150.011   7
  10   7 -23 128.082 127.605   4
   7  10 -23 244.833 172.124   4
   7 -10 -23 418.631 124.536   8
 -10  -7  23 155.065 171.281   6
  -7  10  23 144.566 205.462   2
  -7 -10  23 213.245 134.790   6
 -10  -7  24 815.040 211.514   7
  10   7 -24 443.076 162.680   4
   7  10 -24 304.866 232.405   1
  -7 -10  24 596.719 157.979   7
   7  10 -24 370.627 202.745   4
  10   7 -24 399.013 137.783   1
 -10  -7  24 622.260 197.934   6
  -7 -10  24 512.677 161.835   6
  -7 -10  25 17.7711 133.426   6
  10   7 -25 16.4072 137.795   4
  10   7 -25 100.926 139.576   1
 -10  -7  25 73.0215 206.427   7
  -7 -10  25 215.398 139.961   7
   7  10 -25 224.863 283.033   1
   7  10 -25-22.8498 198.785   4
 -10  -7  25-22.1797 165.073   6
  -7 -10  26 388.513 147.894   6
  10   7 -26 574.908 163.824   1
 -10  -7  26 222.913 197.847   7
  -7 -10  26 375.147 158.025   7
   7  10 -26 1016.99 280.492   1
  10   7 -26 403.062 158.695   4
   7  10 -26 96.9595 196.700   4
 -10  -7  26 820.948 185.756   6
  -7 -10  27 17.7735 109.768   6
 -10  -7  27-25.2559 189.624   7
   7  10 -27-71.6272 272.811   1
  -7 -10  27-52.7816 127.660   7
  10   7 -27 37.0459 147.514   4
   7  10 -27-25.2457 184.606   4
  10   7 -27 72.1612 149.198   1
 -10  -7  27 111.069 173.989   6
  -7 -10  28 564.368 156.519   6
   7  10 -28 454.616 293.090   1
  -7 -10  28 854.454 188.431   7
 -10  -7  28 252.480 195.347   7
   7  10 -28 213.192 226.330   4
 -10  -7  28 334.999 176.064   6
  -7 -10  29-53.8616 128.889   6
   7  10 -29-157.740 285.056   1
   7  10 -29 82.0614 216.501   4
  -8 -10   2 175.228 171.045   6
  -8 -10   3 656.396 214.318   6
   8  10  -4 1606.62 288.861   1
  -8 -10   4 1900.97 354.742   6
   8  10  -5 364.164 90.3959   1
  -8 -10   5 44.7371 165.099   7
  -8 -10   5 492.775 192.941   6
  -8 -10   6 4175.08 728.126   7
  -8 -10   7 890.650 219.785   6
  -8 -10   7 428.888 181.354   7
  -8 -10   8 4248.85 745.070   6
   8  10 -10 405.508 122.578   1
  -8 -10  10 136.194 154.651   7
  10   8 -11-30.7592 68.0768   1
   8  10 -11 294.598 101.943   1
   8  10 -11 181.853 91.4646   4
  -8 -10  11 208.563 150.444   7
 -10  -8  11 448.228 188.111   6
  -8 -10  11 552.839 183.904   6
  10   8 -12-74.1276 70.3665   1
   8  10 -12-20.1563 77.5322   4
 -10  -8  12-204.123 188.321   7
   8  10 -12-28.3559 103.433   1
  -8 -10  12-144.783 124.327   7
 -10  -8  12-221.183 216.809   6
  -8 -10  12 21.6548 147.936   6
 -10  -8  13 624.083 253.931   6
  10   8 -13 284.646 107.632   1
 -10  -8  13 380.258 207.510   7
  -8 -10  13 212.407 150.696   7
   8  10 -13 256.125 109.323   4
  -8 -10  13 771.751 199.003   6
  10   8 -14-45.3690 79.0453   1
   8  10 -14 44.8559 87.8836   4
 -10  -8  14-100.523 183.069   7
  -8 -10  14-21.0204 147.035   6
 -10  -8  14-79.6723 188.095   6
  10   8 -15 212.485 114.287   1
 -10  -8  15 248.493 189.694   7
  -8 -10  15 469.062 145.364   7
   8  10 -15 475.584 122.509   4
   8  10 -15 522.311 156.416   1
 -10  -8  15 362.958 211.999   6
  -8 -10  15 495.118 173.492   6
   8 -10 -16 347.459 153.799   5
  10   8 -16 159.888 101.105   1
  -8 -10  16 204.978 133.289   7
 -10  -8  16 48.8260 176.658   7
   8  10 -16 366.829 113.978   4
 -10  -8  16 201.738 186.524   6
   8  10 -16 192.716 144.604   1
  -8 -10  16 347.994 161.185   6
  10   8 -16 171.170 91.0750   4
   8 -10 -17 404.983 160.048   5
  10   8 -17 270.420 115.811   1
  -8 -10  17 168.470 153.663   7
   8  10 -17 351.063 130.859   4
  10   8 -17 621.441 118.890   4
 -10  -8  17 612.642 203.806   6
   8  10 -17 650.867 158.068   1
  -8 -10  17 140.907 157.135   6
 -10  -8  17 317.063 180.430   7
   8 -10 -18 1647.56 253.970   5
  10   8 -18 1078.74 215.269   1
 -10  -8  18 1125.94 261.903   7
  10   8 -18 1218.97 208.235   4
  -8 -10  18 645.167 229.950   7
   8  10 -18 427.034 218.329   4
   8  10 -18 1104.62 252.500   1
 -10  -8  18 1595.03 270.443   6
  -8 -10  18 1428.31 246.725   6
  -8  10  19 271.459 320.778   3
   8 -10 -19 319.134 172.869   5
 -10  -8  19 353.422 196.481   7
  10   8 -19 140.479 109.694   4
  -8 -10  19 404.215 145.059   7
  10   8 -19 335.643 128.951   1
   8  10 -19 227.673 138.611   4
 -10  -8  19 875.998 214.286   6
  -8 -10  19 333.349 161.617   6
   8  10 -19 781.206 177.126   1
   8  10 -20 2379.83 411.154   1
   8 -10 -20 3599.69 415.881   5
  -8  10  20 4323.31 533.936   3
 -10  -8  20 2059.02 411.419   7
  -8 -10  20 1533.93 387.845   7
  10   8 -20 1637.07 374.206   4
   8  10 -20 1337.42 382.020   4
 -10  -8  20 3481.66 430.770   6
  10   8 -20 2394.53 384.181   1
  -8 -10  20 2309.72 404.351   6
   8  10 -21 136.870 173.875   1
  -8  10  21 245.307 307.013   3
   8 -10 -21 57.6671 149.658   5
 -10  -8  21 23.3604 166.907   7
  -8 -10  21-17.2899 130.908   7
  10   8 -21 13.0322 102.258   4
   8  10 -21 33.7535 123.560   4
  10   8 -21 15.2135 113.969   1
  -8  10  21 240.091 181.859   2
 -10  -8  21-22.8447 161.897   6
  -8 -10  21 19.3590 132.043   6
   8  10 -22 1287.60 268.638   1
  -8  10  22 1774.89 383.979   3
  -8 -10  22 932.569 228.721   7
   8 -10 -22 1007.03 242.095   5
  10   8 -22 1219.01 232.752   1
 -10  -8  22 1744.31 283.619   7
  10   8 -22 973.483 216.333   4
   8  10 -22 499.727 235.270   4
  -8  10  22 570.368 265.847   2
 -10  -8  22 1193.47 268.160   6
  -8 -10  22 1509.17 246.412   6
   8  10 -23 199.584 184.925   1
  10   8 -23 199.570 137.439   1
 -10  -8  23 139.845 173.659   7
  10   8 -23 208.643 129.151   4
  -8 -10  23 158.367 134.117   7
   8  10 -23 18.8211 153.512   4
 -10  -8  23 178.156 162.976   6
  -8 -10  23 134.479 137.908   6
   8  10 -24 26.6322 203.173   1
  -8 -10  24 71.8523 150.749   7
  10   8 -24-86.2260 145.184   1
 -10  -8  24 118.097 189.028   7
  10   8 -24 207.287 135.088   4
 -10  -8  24 221.232 157.064   6
   8  10 -24-20.1833 173.715   4
  -8 -10  24 19.1130 142.872   6
  10   8 -25 161.023 135.956   1
 -10  -8  25 335.917 188.038   7
  -8 -10  25 36.7681 142.924   7
  10   8 -25 238.152 146.238   4
   8  10 -25 21.2316 169.964   4
 -10  -8  25 286.156 169.555   6
  -8 -10  25 210.996 145.123   6
   8  10 -26 176.010 218.616   1
  10   8 -26 181.027 157.659   4
  -8 -10  26 18.8564 152.594   7
 -10  -8  26 24.4345 156.520   7
   8  10 -26-204.221 194.900   4
  10   8 -26-18.9131 138.831   1
 -10  -8  26-199.216 154.800   6
  -8 -10  26 95.4003 129.999   6
   8  10 -27 308.332 233.213   1
  10   8 -27-19.6370 138.228   1
 -10  -8  27 373.945 186.188   7
  -8 -10  27 19.3801 158.124   7
  10   8 -27 76.2835 147.691   4
   8  10 -27 48.3830 191.809   4
 -10  -8  27 88.4032 157.807   6
  -8 -10  27 268.490 139.507   6
  -8 -10  28 95.3489 135.602   6
 -10  -8  28 178.413 181.237   7
  10   8 -28-162.949 150.657   1
  10   8 -28-103.204 182.199   4
   8  10 -28-50.4986 206.893   4
 -10  -8  28 110.815 158.884   6
  10   8 -29 21.1399 160.469   1
  10   8 -29-44.6493 170.069   4
 -10  -8  29-22.2530 146.816   6
  -9 -10   5 2706.51 511.101   6
   9  10  -8 20.9189 78.2508   1
  -9 -10   8-48.4614 161.367   7
   9  10  -9 634.710 165.637   1
  -9 -10   9 623.406 216.830   7
  10   9 -10 62.3976 77.4803   1
   9  10 -10 102.797 92.1102   1
  -9 -10  10 281.918 197.288   6
 -10  -9  10 399.771 222.723   6
  -9 -10  10-23.2978 172.440   7
   9  10 -11 131.784 120.246   1
  -9 -10  11 614.041 207.461   7
 -10  -9  11 763.886 259.035   6
  -9 -10  11 403.039 199.553   6
   9  10 -12 88.1692 92.4469   1
   9  10 -12 48.1957 79.3892   4
  -9 -10  12-133.191 162.512   7
 -10  -9  12-55.6896 185.601   6
  -9 -10  12 248.526 194.809   6
  10   9 -13 57.6254 88.4119   1
 -10  -9  13 163.823 192.608   6
 -10  -9  13 127.163 172.680   7
   9  10 -13 131.493 87.7946   4
  -9 -10  13 193.781 179.404   6
  10   9 -14 191.997 105.904   1
 -10  -9  14 175.886 180.664   7
   9  10 -14 328.017 105.010   4
 -10  -9  14 533.636 212.376   6
  -9 -10  14 283.978 174.189   6
  10   9 -15 37.5182 93.3964   1
   9  10 -15-44.2877 109.360   1
 -10  -9  15-24.6635 183.900   7
  10   9 -15 70.7109 80.9303   4
  -9 -10  15 103.337 139.679   7
   9  10 -15-22.3620 91.5353   4
 -10  -9  15 363.376 199.211   6
  -9 -10  15 46.3170 157.899   6
  10   9 -16-91.6870 92.7866   1
 -10  -9  16-24.1539 166.044   7
   9  10 -16 62.3442 126.148   1
  10   9 -16 63.3897 76.9875   4
  -9 -10  16 20.2249 155.720   7
   9  10 -16 59.1630 93.0155   4
 -10  -9  16 50.4124 204.632   6
  -9 -10  16-68.6249 164.005   6
  10   9 -17 632.579 156.423   1
   9  10 -17 296.771 172.703   1
 -10  -9  17 917.119 217.088   7
  -9 -10  17 1054.07 196.909   7
   9  10 -17 539.197 149.244   4
  10   9 -17 633.355 149.639   4
 -10  -9  17 322.700 203.272   6
  -9 -10  17 1052.95 212.124   6
  10   9 -18 563.018 132.188   4
  10   9 -18 256.182 135.093   1
 -10  -9  18 687.134 193.808   7
   9  10 -18 256.832 152.353   1
  -9 -10  18 457.931 184.124   7
   9  10 -18 501.270 133.233   4
 -10  -9  18 266.980 204.578   6
  -9 -10  18 505.503 189.254   6
  -9 -10  19 1642.39 239.217   7
  10   9 -19 1106.58 202.376   1
 -10  -9  19 1234.88 252.966   7
  10   9 -19 454.613 183.453   4
   9  10 -19 393.816 193.370   4
   9  10 -19 979.103 212.210   1
 -10  -9  19 1353.09 266.811   6
  -9 -10  19 1727.25 252.732   6
   9 -10 -20-21.7774 162.948   5
  10   9 -20 15.4925 100.814   1
 -10  -9  20 117.052 165.148   7
  -9 -10  20-197.701 158.511   7
  10   9 -20-52.0597 100.280   4
   9  10 -20 104.974 127.781   4
   9  10 -20 150.825 126.201   1
  -9  10  20 464.927 386.817   3
 -10  -9  20 46.5799 162.233   6
  -9 -10  20 85.7906 142.217   6
  -9  10  21 2766.11 483.149   3
   9 -10 -21 1970.45 271.247   5
  10   9 -21 686.279 232.181   1
 -10  -9  21 1083.67 269.146   7
  -9 -10  21 1098.73 249.879   7
  10   9 -21 457.538 219.510   4
   9  10 -21 1356.93 234.650   4
   9  10 -21 1698.79 264.100   1
 -10  -9  21 1189.13 266.771   6
  -9 -10  21 1693.87 264.217   6
  -9 -10  22 19.8063 153.045   7
  10   9 -22 186.447 129.151   1
  10   9 -22-207.393 117.621   4
 -10  -9  22 186.115 171.451   7
   9  10 -22 50.2257 151.312   4
   9  10 -22 20.8133 147.426   1
 -10  -9  22 68.2157 174.469   6
  -9 -10  22 20.9344 143.932   6
  10   9 -23 126.499 143.964   4
  10   9 -23 268.864 155.968   1
 -10  -9  23 117.626 204.306   7
  -9 -10  23 341.741 197.540   7
   9  10 -23 301.085 156.536   4
   9  10 -23 932.859 205.414   1
 -10  -9  23 898.791 192.344   6
  -9 -10  23 689.083 173.246   6
 -10  -9  24 279.951 187.053   7
  -9 -10  24-20.4460 162.893   7
  10   9 -24-111.665 148.288   1
  10   9 -24-199.682 121.305   4
   9  10 -24-74.1131 159.222   4
   9  10 -24 45.2795 176.786   1
 -10  -9  24 155.953 163.612   6
  -9 -10  24-20.6786 142.229   6
  -9 -10  25-145.902 158.836   7
 -10  -9  25 22.0836 151.867   6
  10   9 -25 19.3370 140.918   1
 -10  -9  25 23.7059 172.050   7
   9  10 -25-218.930 162.645   4
  10   9 -25 17.6533 133.103   4
   9  10 -25 265.246 190.182   1
  -9 -10  25-103.614 141.892   6
  10   9 -26 20.0972 146.631   1
 -10  -9  26 386.246 173.755   7
  -9 -10  26 42.6006 160.083   7
  10   9 -26 243.472 151.393   4
   9  10 -26-146.738 166.559   4
   9  10 -26 75.6131 185.657   1
 -10  -9  26 221.446 159.510   6
  -9 -10  26-20.6241 143.229   6
  -9 -10  27-21.8093 163.465   7
  10   9 -27-167.152 163.970   1
  10   9 -27 19.8311 154.612   4
 -10  -9  27-147.777 175.444   7
   9  10 -27-89.8244 179.705   4
 -10  -9  27-22.0696 157.276   6
  -9 -10  27-20.4837 146.025   6
  10   9 -28 21.3689 170.201   4
 -10  -9  28 22.0720 157.632   6
 -10 -10   9-86.1604 225.713   6
  10  10  -9-10.5525 73.5449   1
  10  10 -10-32.7284 69.1819   1
 -10 -10  10 199.723 196.124   6
  10  10 -11-11.2838 75.0999   1
 -10 -10  11-104.498 187.407   7
 -10 -10  11-253.521 220.723   6
  10  10 -12 257.308 113.853   1
 -10 -10  12 830.376 230.256   6
 -10 -10  12 645.672 200.832   7
  10  10 -13 48.5546 78.9318   4
 -10 -10  13 27.0513 197.169   6
  10  10 -14 190.461 102.093   1
  10  10 -14 223.052 90.3630   4
 -10 -10  15 124.623 177.505   7
  10  10 -15 53.1853 98.0914   1
  10  10 -15-201.106 94.1924   4
 -10 -10  15 25.8832 176.619   6
  10  10 -16-13.9593 104.420   1
 -10 -10  16 97.6589 163.346   7
  10  10 -16-11.1369 88.1075   4
 -10 -10  16 25.2772 179.743   6
  10  10 -17-105.783 97.2436   4
  10  10 -17 28.8928 102.769   1
 -10 -10  17 191.499 178.414   7
 -10 -10  17-24.9192 171.313   6
  10  10 -18 15.1823 140.497   1
 -10 -10  18 563.766 203.060   7
  10  10 -18 509.695 123.370   4
 -10 -10  18 511.096 193.332   6
  10  10 -19 96.0118 125.954   1
 -10 -10  19 47.1148 169.032   7
  10  10 -19 13.0298 106.678   4
 -10 -10  19 23.8428 162.603   6
 -10 -10  20 879.774 201.890   7
  10  10 -20 597.057 158.598   1
 -10 -10  20 724.366 189.690   6
 -10 -10  21 23.3142 167.743   7
  10  10 -21-35.0581 128.238   1
  10  10 -21-399.504 127.874   4
 -10 -10  21 23.1609 167.331   6
  10  10 -22 363.786 170.223   1
 -10 -10  22 644.287 227.963   7
  10  10 -22 574.919 164.242   4
 -10 -10  22 479.111 201.037   6
  10  10 -23 113.325 138.656   1
 -10 -10  23-209.444 177.913   7
  10  10 -23-16.5479 136.446   4
 -10 -10  23-22.5369 161.579   6
  10  10 -24-19.9809 143.817   1
 -10 -10  24 23.5810 165.605   7
  10  10 -24 17.5103 130.492   4
 -10 -10  24-22.4627 159.072   6
 -10 -10  25-71.8729 160.122   7
  10  10 -25 20.7758 147.755   1
  10  10 -25 311.715 147.595   4
 -10 -10  25 44.4261 158.539   6
  10  10 -26 21.6280 155.507   1
  10  10 -26 176.047 151.062   4
 -10 -10  26 22.0435 146.595   6
   0 -11   0-8.98412 49.4205   6
   0  11   0 17.9594 132.838   3
   0  11   0-60.2828 145.786   2
   0 -11   0 11.7400 77.4490   5
   0 -11   0-13.8360 52.3223   7
   0 -11   0-6.85663 49.7487   8
   0  11   0 46.8796 89.2763   4
   0 -11  -1 697.726 137.272   6
   0 -11   1 868.546 140.719   6
   0  11  -1 328.913 180.886   2
   0  11   1 767.737 204.584   3
   0 -11   1 853.717 154.314   5
   0 -11  -1 459.220 148.732   5
   0  11   1 539.403 197.970   2
   0 -11   1 660.513 133.660   8
   0 -11  -1 700.667 134.983   8
   0 -11  -1 693.124 132.032   7
   0 -11   1 704.841 135.279   7
   0  11   1 912.023 153.875   4
   0  11  -1 792.489 161.491   4
   0  11  -2 110.068 136.713   2
   0 -11  -2-16.9475 55.9081   6
   0 -11   2-47.6178 59.4513   6
   0  11   2 55.4538 146.234   3
   0 -11   2 24.2143 80.6317   5
   0 -11  -2-34.4497 76.1187   5
   0  11   2 21.2501 144.136   2
   0 -11  -2 5.89484 46.7981   7
   0 -11   2 98.2258 59.1850   7
   0 -11   2 39.7326 50.2719   8
   0 -11  -2-60.3633 58.7028   8
   0  11   2 21.6340 85.5781   4
   0  11  -2 12.6779 97.2641   4
   0 -11   3 2260.72 434.651   5
   0 -11  -3 2640.77 433.053   5
   0  11   3 2469.04 454.971   3
   0 -11   3 2291.39 422.207   8
   0  11  -3 2700.36 440.112   4
   0  11   3 2250.39 463.679   2
   0  11  -3 2784.97 451.431   2
   0 -11   3 2836.96 429.120   6
   0 -11   4-10.1006 64.7173   6
   0  11   4 18.7057 137.312   3
   0 -11   4-25.8930 92.4485   5
   0 -11  -4-33.2764 78.5641   5
   0  11   4 43.8343 145.277   2
   0 -11   4 13.5588 50.7323   8
   0 -11   4 58.8802 51.3942   7
   0  11  -4-82.6260 122.238   2
   0  11  -4 54.9873 100.916   4
   0 -11  -4-8.55638 65.6576   8
   0  11   5 11895.6 1924.18   3
   0 -11   5 12161.0 1914.75   5
   0 -11  -5 10546.3 1909.23   5
   0  11  -5 11495.0 1915.50   4
   0 -11   5 12593.6 1907.59   7
   0  11   5 12091.6 1930.84   2
   0 -11   5 10813.1 1907.99   6
   0 -11   6-21.4471 66.9352   6
   0 -11   6-55.1858 103.581   5
   0  11   6-55.7838 133.839   3
   0 -11  -6 58.0514 77.2984   8
   0 -11  -6-11.0092 79.2424   5
   0  11   6-89.1569 162.346   2
   0 -11   6 9.24231 67.0555   7
   0  11  -6 14.8581 105.221   4
   0  11   7 9182.74 1374.43   3
   0  11  -7 7540.06 1367.81   4
   0  11   7 8043.58 1380.32   2
   0 -11   8-22.6388 66.9506   6
   0  11   8-401.760 146.624   3
   0 -11  -8-66.4002 90.8129   5
   0  11   8-180.284 169.411   2
   0 -11   8 40.1510 76.1300   7
   0 -11  -8-54.9473 89.0679   8
   0  11  -8 47.9861 118.177   4
   0  11   9 4549.59 906.562   3
   0 -11  -9 5635.21 892.870   5
   0 -11  -9 5613.26 894.148   8
   0  11  -9 5507.49 903.255   4
   0 -11   9 4781.55 889.246   7
   0  11   9 7610.54 938.204   2
   0 -11   9 5151.93 890.479   6
   0 -11  10-11.9740 70.6542   6
   0  11  10 17.5746 122.906   3
   0 -11 -10-33.7789 77.0584   5
   0 -11 -10 12.2717 95.1344   8
   0  11  10-137.591 167.678   2
   0 -11  10 76.0519 83.9358   7
   0  11 -10-51.3873 111.373   4
   0 -11 -11 2028.83 339.972   5
   0  11  11 1930.79 354.814   3
   0 -11 -11 1795.11 345.232   8
   0  11  11 2572.54 388.721   2
   0 -11  11 1721.05 335.835   6
   0  11 -11 1704.42 355.703   4
   0 -11  11 2043.59 338.848   7
   0 -11  12 12.6566 76.1202   6
   0  11  12 68.9910 122.720   3
   0 -11 -12 34.9079 85.1887   5
   0 -11  12-11.7598 85.0886   7
   0  11 -12 91.8947 140.063   4
   0 -11  13 65.0888 83.2884   6
   0 -11 -13-11.8205 86.8139   5
   0  11  13 155.074 124.024   3
   0  11 -13 189.113 144.484   4
   0 -11 -15 819.133 191.512   8
   0 -11  15 715.561 160.712   7
   0 -11 -16-190.572 146.095   8
   0 -11 -16-26.0571 97.7322   5
   0  11  16-17.0018 112.179   3
   0  11  17 2100.24 378.761   3
   0 -11 -17 2045.64 369.574   5
   0 -11 -17 1988.89 382.156   8
   0  11  18 17.2461 114.471   3
   0 -11 -18 17.3085 139.308   8
   0 -11 -18-98.5334 101.094   5
   0  11  19 4486.59 766.091   3
   0 -11 -20-31.2963 122.021   5
   0  11  20-34.9451 116.122   3
   0 -11 -20-109.362 158.530   8
   0 -11 -21 5888.44 963.983   8
   0 -11 -21 5493.61 955.429   5
   0 -11 -22 52.7766 126.626   5
   0  11  22 17.7676 116.652   3
   0 -11 -22-76.6121 159.822   8
   0 -11 -23 1065.97 229.433   5
   0 -11 -23 1137.45 245.112   8
   0  11  23 760.775 207.703   3
   0 -11 -24-80.2307 166.894   8
   0  11  24 164.339 119.916   3
   0 -11 -24-78.6127 140.350   5
   0 -11 -25 205.056 168.100   8
   0  11  25 205.865 127.725   3
   0 -11 -25 187.367 158.561   5
   0 -11 -26 101.381 165.721   8
   0 -11 -26-65.7524 154.020   5
   0  11  26-96.3681 127.865   3
   0 -11 -27 62.0874 178.831   8
   0 -11 -27 23.0841 145.702   5
   0  11  27 19.7252 128.983   3
   0 -11 -28 21.0993 166.921   8
   0 -11 -28 72.5952 179.666   5
   0  11  28-82.0143 130.680   3
   0 -11 -29 279.565 197.927   8
   0  11  29 558.147 153.560   3
   0  11  29 70.5741 267.419   2
   0 -11 -30-84.8487 177.386   8
   0  11  30-36.2125 272.124   2
  -1  11   0 97.6019 127.807   2
   1 -11   0 125.262 54.1579   8
   1  11   0 134.608 137.562   3
   1 -11   0 176.993 99.7058   5
  -1 -11   0 106.468 71.0154   5
  -1 -11   0 65.5890 60.7107   8
   1  11   0-59.3438 160.766   2
  -1 -11   0 127.535 57.7450   7
   1 -11   0 147.825 64.7136   7
   1  11   0 232.953 85.5232   4
  -1 -11   0 94.9613 59.7114   6
  -1  11   1 185.001 146.109   2
   1 -11  -1 126.670 57.8814   8
   1  11  -1 50.5237 118.190   3
   1 -11   1 92.7802 112.347   5
   1  11   1 101.752 132.278   3
   1 -11  -1 56.6650 101.558   5
  -1 -11   1 134.473 68.2200   5
  -1 -11  -1 163.056 79.4942   5
   1  11  -1-135.142 147.142   2
  -1 -11   1 116.897 59.2265   8
   1  11   1 261.660 158.162   2
  -1 -11  -1 95.1728 63.7267   8
  -1 -11   1 126.769 60.5253   7
   1 -11   1 82.9243 57.1159   8
  -1 -11   1 168.772 64.4919   6
  -1 -11  -1 122.803 56.6317   7
   1 -11  -1 202.984 59.9716   7
   1 -11   1 113.231 59.6604   7
   1  11   1 37.8393 77.7482   4
   1  11  -1 74.4792 82.2255   4
   1  11   1 70.2230 87.8262   1
  -1  11  -1 93.3404 126.223   2
  -1 -11  -1 49.6633 57.8185   6
   1  11  -2 547.643 160.377   3
  -1  11   2 256.532 169.857   2
   1 -11   2 365.636 142.699   5
   1  11  -2 299.210 161.839   2
   1 -11  -2 492.525 122.903   5
   1  11   2 335.421 153.603   3
   1 -11  -2 389.194 93.6525   8
  -1 -11   2 553.021 115.452   5
  -1  11  -2 727.978 151.477   2
  -1 -11  -2 252.279 104.084   5
  -1 -11  -2 410.022 105.514   8
  -1 -11   2 404.756 93.8838   8
   1  11   2 549.359 181.580   2
  -1 -11  -2 437.540 94.7373   7
  -1 -11   2 406.656 99.2111   7
   1 -11  -2 468.072 94.0964   7
   1 -11   2 679.102 104.671   7
   1  11   2 529.424 112.476   4
   1  11  -2 658.447 126.776   4
   1 -11   2 375.578 89.9029   8
   1  11   2 436.782 113.293   1
  -1 -11  -2 431.761 96.4820   6
  -1 -11   2 401.761 99.5461   6
  -1 -11   3-9.47975 60.1124   6
   1  11  -3 17.9119 120.945   2
   1  11  -3-81.5587 136.921   3
   1 -11   3 33.7103 113.291   5
  -1  11   3-22.0544 149.590   2
   1 -11  -3-66.3482 92.8019   5
  -1 -11   3 19.2400 68.6909   5
   1  11   3-134.437 127.092   3
  -1 -11  -3-29.0320 68.5362   5
  -1 -11  -3 36.9361 71.0933   8
  -1 -11   3 7.77693 56.4283   7
   1 -11  -3 44.5432 59.3161   8
   1 -11   3 56.0506 67.5128   7
   1  11   3 8.34728 64.9376   4
   1  11  -3-24.1232 93.1844   4
   1  11   3 61.4525 146.257   2
  -1 -11   3-19.0907 48.9973   8
   1  11   3 89.6502 81.1205   1
  -1 -11   4 3327.17 738.756   8
   1  11   4 4458.02 761.301   3
   1 -11   4 5200.72 766.456   5
   1 -11  -4 4238.33 751.248   5
  -1 -11  -4 4796.87 748.238   5
   1 -11   4 5316.08 748.533   7
  -1 -11   4 5291.10 745.926   7
   1  11  -4 4618.83 762.311   2
  -1  11   4 4333.99 774.699   2
  -1 -11   4 4607.54 746.328   6
   1  11   4 4610.21 775.118   2
   1  11  -4 4771.46 754.632   4
  -1  11   4 4229.66 768.514   3
   1  11  -4 4264.94 763.101   3
  -1 -11   5 148.619 66.3215   6
   1  11  -5-15.6510 132.007   3
  -1  11   5 119.978 153.947   3
   1 -11   5-114.908 137.349   5
  -1 -11   5 184.136 81.1794   5
   1 -11  -5 51.4492 84.2168   5
   1  11   5 132.119 117.183   3
  -1  11   5 115.098 169.463   2
  -1 -11  -5 89.8595 73.0188   5
   1 -11  -5 130.363 66.3650   8
  -1 -11  -5 42.2866 77.4820   8
  -1 -11   5 84.2077 53.5035   8
   1  11   5 206.264 147.239   2
  -1 -11   5-25.7378 66.6183   7
   1 -11   5 116.303 82.1355   7
   1  11  -5 13.3582 97.7730   4
   1  11  -5 48.1880 112.598   2
  -1  11   6 9895.43 1590.76   3
   1  11   6 10420.0 1583.97   3
   1 -11   6 10900.4 1596.41   5
   1 -11  -6 9051.32 1573.47   5
  -1 -11  -6 8894.74 1569.93   5
  -1 -11   6 10684.2 1569.66   7
   1  11  -6 9754.53 1578.56   4
  -1 -11  -6 8973.21 1572.88   8
   1  11  -6 11623.9 1584.41   2
   1  11   6 9833.13 1592.53   2
   1 -11  -6 7985.57 1566.17   8
  -1 -11   7-41.7792 61.6319   6
  -1 -11  -7 110.551 96.2055   8
   1 -11   7 65.6852 147.838   5
  -1  11   7-60.8641 162.085   3
   1 -11  -7-74.1329 85.3024   5
   1  11   7 32.4362 107.498   3
  -1 -11  -7-30.9067 68.6094   5
   1 -11  -7-45.1643 68.0685   8
  -1 -11   7 54.0268 66.8568   7
   1 -11   7 11.5297 74.5994   7
   1  11   7-84.3096 165.635   2
   1  11  -7 104.595 116.632   4
  -1  11   7-23.6584 171.644   2
  -1  11   8 5384.25 1003.61   3
   1  11   8 6034.88 993.837   3
   1 -11  -8 6168.43 985.764   5
  -1 -11  -8 5798.85 982.591   5
   1 -11  -8 5746.37 980.320   8
  -1 -11   8 7176.01 982.461   7
   1  11  -8 5904.56 992.432   4
  -1 -11  -8 5901.04 988.676   8
  -1  11   8 6118.48 1012.06   2
  -1 -11   8 4891.63 979.804   6
  -1 -11   9 10.9133 77.6904   6
  -1  11   9 179.372 172.516   3
   1 -11  -9 279.707 111.403   5
  -1  11   9 384.203 209.647   2
  -1 -11  -9 21.4014 89.7282   5
   1  11   9 191.169 128.242   3
  -1 -11  -9 138.863 128.537   8
   1 -11  -9 277.277 100.451   8
  -1 -11   9 181.318 77.5011   7
   1 -11   9 24.9711 91.6781   7
   1  11  -9 48.6399 127.497   4
   1  11  10 2151.39 386.322   3
   1 -11 -10 2176.32 380.338   5
  -1  11  10 2391.88 405.687   3
   1 -11 -10 1908.74 373.287   8
  -1  11  10 2325.47 418.607   2
  -1 -11  10 2724.28 374.592   7
   1 -11  10 1733.09 378.132   7
  -1 -11  10 2004.20 372.066   6
   1  11 -10 1883.24 391.596   4
  -1 -11 -10 2496.46 390.204   8
  -1 -11  11-57.5329 71.4461   6
  -1  11  11 78.2028 156.703   3
   1 -11 -11 47.7968 81.7817   5
  -1 -11 -11 68.0338 79.6394   5
   1  11  11-15.9914 108.957   3
  -1 -11  11-50.9113 74.7485   7
   1  11 -11 17.4927 121.295   4
  -1 -11 -11 109.998 134.595   8
  -1 -11  12 142.052 77.9023   6
  -1  11  12 345.047 157.971   3
   1 -11 -12 84.5300 89.3858   5
  -1 -11 -12 176.253 87.1090   5
   1  11  12 253.658 115.099   3
  -1 -11 -12-32.3610 127.583   8
  -1  11  12-98.5345 188.798   2
  -1 -11  12 83.9427 80.0806   7
   1  11 -12 236.028 141.805   4
  -1 -11  13 73.0647 77.6502   6
  -1  11  13-38.2868 131.611   3
   1 -11 -13-12.1165 85.1306   5
  -1 -11 -13 48.8081 82.4281   5
   1  11  13-32.0277 108.156   3
   1  11 -13-18.8342 141.425   4
   1 -11 -15 13.0878 97.3080   8
  -1  11  15 178.875 195.413   2
  -1 -11 -15-56.4792 152.916   8
  -1 -11  15 46.2876 84.1145   7
  -1 -11  16 303.890 118.606   6
   1 -11 -16 342.219 118.701   5
  -1  11  16 701.080 163.129   3
   1 -11 -16 428.147 134.071   8
  -1 -11 -16 464.515 181.118   8
   1  11  16 557.754 143.386   3
  -1  11  16 312.465 210.304   2
  -1 -11  16 478.051 128.354   7
  -1 -11 -16 446.273 132.291   5
   1  11 -16 582.594 178.614   4
  -1 -11  17 176.899 100.143   6
   1 -11 -17 184.459 136.527   8
   1 -11 -17 91.2554 112.914   5
  -1 -11 -17 29.3847 111.176   5
   1  11  17 65.5719 123.766   3
  -1  11  17 211.018 245.481   2
  -1 -11  17 49.4103 94.5837   7
  -1 -11 -17 19.8841 174.452   8
  -1  11  17 36.3755 142.474   3
   1  11 -17 364.811 192.165   4
  -1  11  18 2797.01 435.967   3
   1  11  18 2971.10 434.651   3
   1 -11 -18 2452.50 422.225   5
  -1 -11 -18 2713.44 434.340   5
  -1  11  18 1992.39 469.273   2
   1 -11 -18 2303.69 426.824   8
  -1 -11  18 2027.03 420.113   6
  -1 -11 -18 2306.21 450.612   8
   1  11 -18 1988.15 457.953   4
   1 -11 -19 77.1441 126.105   8
   1 -11 -19-27.9260 107.578   5
  -1  11  19 18.2567 122.782   3
  -1 -11 -19 66.1341 117.643   5
  -1 -11 -19 41.8592 169.955   8
   1  11  19 16.8328 103.462   3
  -1  11  19-110.066 214.820   2
  -1 -11  19 13.1645 104.230   7
   1  11 -19 135.850 155.690   4
  -1  11  20 4033.14 692.878   3
   1  11  20 4389.75 690.488   3
   1 -11 -20 3661.87 691.048   8
  -1 -11 -20 3601.30 706.762   8
   1  11 -20 4609.31 712.346   4
  -1  11  20 3911.03 732.128   2
   1  11  21-17.1974 109.638   3
   1 -11 -21-32.5657 133.452   8
   1 -11 -21 121.098 114.928   5
  -1 -11 -21-21.9273 172.336   8
  -1  11  21-18.5724 119.000   3
  -1 -11 -21-166.215 113.455   5
  -1  11  21 57.5981 227.845   2
   1 -11 -22 2385.86 368.826   5
   1 -11 -22 2642.97 381.405   8
   1  11  22 1423.73 353.338   3
  -1 -11 -22 2464.26 402.443   8
  -1 -11 -22 2350.80 372.928   5
  -1  11  22 1079.74 359.566   3
  -1  11  22 2447.07 429.859   2
   1 -11 -23-85.8925 148.834   8
   1 -11 -23 16.9466 126.348   5
  -1 -11 -23 205.737 190.218   8
  -1 -11 -23-61.3597 143.084   5
  -1  11  23-37.8097 121.764   3
   1  11  23-53.3148 106.167   3
  -1  11  23-60.4329 221.828   2
   1 -11 -24 108.460 134.910   5
  -1 -11 -24 43.4133 160.768   5
  -1  11  24 246.263 142.790   3
   1  11  24 164.517 128.007   3
  -1 -11 -24 69.8735 188.503   8
  -1  11  24-30.9818 239.475   2
   1 -11 -24 176.352 150.431   8
   1 -11 -25-19.0210 132.790   5
   1 -11 -25 289.599 153.995   8
  -1 -11 -25 68.1949 171.549   5
  -1 -11 -25-142.225 198.022   8
  -1  11  25 38.1378 134.250   3
  -1  11  25 63.5614 261.384   2
   1  11  25 75.6145 117.741   3
   1 -11 -26 18.5700 154.962   8
  -1 -11 -26-93.2869 186.930   8
  -1  11  26 78.0010 123.651   3
   1 -11 -26-60.4575 144.478   5
  -1  11  26-32.6207 240.368   2
   1  11  26-19.5256 123.172   3
  -1 -11 -27-23.6670 203.921   8
  -1  11  27-301.377 263.203   2
   1 -11 -27-55.4900 158.962   8
   1 -11 -27-84.7507 151.988   5
  -1  11  27-19.7557 136.497   3
   1  11  27 102.393 131.288   3
  -1 -11 -28-23.2151 198.843   8
   1 -11 -28 22.4290 156.860   5
   1 -11 -28 113.786 155.402   8
  -1  11  28-412.859 261.141   2
  -1  11  28 61.1364 127.208   3
   1 -11 -29-174.909 166.618   8
  -1 -11 -29 23.5069 193.350   8
   1 -11 -29 23.6453 161.984   5
  -1  11  29-35.5991 244.809   2
  -1  11  29-20.9062 136.793   3
  -2 -11   0 111.421 58.7079   8
   2  11   0-8.49387 67.4833   4
   2 -11   0 36.1582 50.2101   8
   2 -11   0 261.080 140.573   5
   2  11   0-24.4214 88.4376   1
   2  11   0-14.9551 107.085   3
  -2  11   0 207.688 131.518   2
  -2 -11   0 149.806 63.2874   5
  -2 -11   0 105.317 64.5692   7
   2 -11   0 152.127 70.1203   7
  -2 -11   0 36.9856 65.3366   6
   2  11   0 56.1463 129.259   2
   2 -11   1 536.332 154.349   5
   2 -11  -1 246.250 152.135   5
  -2 -11   1 438.660 100.861   7
   2  11  -1 342.836 140.170   3
   2  11   1 633.281 140.279   3
  -2 -11   1 357.945 100.293   5
  -2 -11  -1 478.674 105.086   5
  -2 -11   1 678.700 107.948   8
  -2 -11  -1 363.217 113.809   8
   2  11  -1 665.723 165.889   2
   2  11   1 339.805 167.743   2
  -2 -11  -1 282.099 102.511   7
   2  11   1 382.585 103.595   4
   2  11  -1 406.659 111.054   4
   2 -11  -1 463.620 98.8492   8
   2 -11  -1 563.420 107.331   7
   2 -11   1 762.597 116.578   7
   2  11   1 246.730 116.403   1
  -2  11  -1 308.347 147.144   2
  -2  11   1 613.235 161.076   2
  -2 -11  -1 601.401 110.662   6
  -2 -11   1 674.877 110.963   6
   2  11  -1 417.893 129.577   1
  -2 -11  -2 70.3193 64.2465   5
  -2 -11  -2 62.8968 66.4529   7
   2 -11   2-127.342 159.348   5
   2 -11  -2 83.3148 123.547   5
   2  11  -2-14.8461 104.291   3
  -2 -11  -2 163.006 87.6009   8
   2 -11  -2 212.631 59.9827   8
  -2 -11   2 79.6232 55.0156   5
   2  11   2 59.0219 108.763   3
   2  11  -2 54.7433 136.681   2
  -2 -11   2 38.3324 57.9282   7
   2  11   2 56.9212 139.948   2
   2  11  -2 69.7459 102.131   1
   2  11   2 37.7439 64.4720   4
   2  11  -2 211.290 82.9396   4
   2 -11   2 97.1052 82.4552   7
  -2 -11   2 129.087 60.5259   8
   2  11   2 71.5208 80.3896   1
  -2 -11  -2 87.0248 65.0997   6
  -2 -11   2-9.76392 67.3440   6
  -2  11   2 41.2697 143.735   2
  -2  11   3 324.974 158.009   2
   2 -11   3 340.062 161.615   5
   2 -11  -3 174.716 120.347   5
   2  11  -3 295.466 129.340   3
  -2 -11   3 233.639 74.1212   5
   2  11  -3 177.934 141.861   2
  -2 -11  -3 307.156 80.1616   5
   2  11   3 221.764 118.845   3
  -2 -11  -3 280.070 107.264   8
  -2 -11   3 266.881 76.8949   7
  -2 -11  -3 329.671 82.4945   7
   2  11  -3 411.067 102.082   4
   2  11   3 439.142 147.369   2
   2 -11   3 170.721 90.1046   7
   2 -11  -3 252.784 71.9287   8
  -2 -11  -3 252.249 75.4698   6
  -2 -11   3 198.395 66.9821   8
   2  11   3 197.720 71.5217   4
  -2 -11   3 200.472 84.6230   6
   2  11   3 155.183 79.7129   1
  -2  11   4 518.432 182.445   2
   2 -11  -4 381.191 126.520   5
   2  11  -4 446.641 156.273   2
   2  11  -4 396.244 138.507   3
  -2 -11   4 372.119 86.5715   5
  -2 -11  -4 211.550 90.6823   5
   2  11   4 400.074 124.082   3
   2 -11  -4 522.167 89.5155   8
  -2 -11  -4 283.814 114.470   8
  -2 -11   4 339.226 89.9390   7
   2 -11   4 191.131 108.003   7
   2  11  -4 318.439 112.381   4
  -2 -11   4 334.388 80.7181   8
  -2 -11   4 421.527 100.654   6
   2  11  -5 4259.86 659.050   3
   2  11   5 4431.70 655.828   3
   2 -11  -5 3855.76 655.985   5
  -2 -11   5 4028.42 639.872   5
  -2 -11  -5 3742.87 643.201   5
   2 -11  -5 3926.64 640.887   8
  -2 -11  -5 3133.46 650.802   8
   2  11  -5 3877.54 649.548   4
   2  11  -5 3898.33 657.692   2
  -2  11   5 2661.74 669.364   2
  -2  11   6 118.878 160.252   2
   2 -11  -6 14.2701 92.1914   5
   2  11   6 116.871 102.002   3
  -2 -11  -6 48.9756 67.2157   5
   2 -11  -6 64.1851 60.7628   8
  -2 -11   6 94.8118 66.5111   7
   2  11  -6-12.7099 93.3473   4
  -2 -11  -6 126.404 92.9857   8
  -2 -11   6 118.437 75.6129   6
  -2 -11   7 3840.08 652.275   7
   2  11  -7 3958.79 665.300   4
  -2  11   7 4485.77 691.677   2
  -2  11   7 3548.05 679.501   3
  -2  11   8 257.987 187.564   3
   2 -11  -8 221.201 109.153   5
  -2  11   8 197.096 203.746   2
   2  11   8 295.476 111.572   3
  -2 -11  -8 84.5646 81.3652   5
  -2 -11  -8 79.9521 124.297   8
  -2 -11   8 119.803 71.7888   7
   2 -11  -8 95.3701 75.3589   8
   2  11  -8 157.750 121.065   4
  -2 -11   8 123.411 85.0703   6
   2  11   9 2014.54 297.576   3
  -2  11   9 1752.21 331.151   3
   2 -11  -9 1420.39 290.158   5
  -2  11   9 1474.89 334.366   2
  -2 -11  -9 1120.38 276.438   5
   2 -11  -9 1523.88 276.456   8
  -2 -11   9 1812.08 281.305   7
  -2 -11  -9 1531.11 309.782   8
  -2 -11   9 1793.70 282.481   6
   2  11  -9 1641.04 300.233   4
  -2 -11  10 11.6342 79.0040   6
  -2  11  10 65.4825 165.717   3
  -2 -11  10-80.3852 67.6450   7
   2 -11 -10-26.5500 92.5208   5
  -2 -11 -10 18.0956 146.946   8
   2  11  10-15.0955 109.154   3
   2  11 -10-192.366 127.293   4
  -2 -11 -10 80.0401 80.7288   5
  -2 -11  11 47.2703 73.7783   6
  -2  11  11-65.1151 165.342   3
   2 -11 -11-65.0934 92.2064   5
  -2 -11 -11-71.4760 79.7156   5
  -2 -11 -11 134.473 157.903   8
   2  11  11 60.3783 94.2287   3
  -2 -11  11 82.4816 77.1369   7
   2  11 -11-67.5300 127.687   4
  -2 -11  12 95.9281 83.8555   6
  -2  11  12-21.4630 162.464   3
   2 -11 -12 76.9327 99.5691   5
  -2 -11 -12 99.5715 85.0680   5
   2  11  12 45.7352 101.272   3
  -2 -11  12 125.450 86.2571   7
   2  11 -12 195.391 137.140   4
  -2 -11  13 347.501 104.239   6
   2 -11 -13 335.765 113.292   5
   2  11 -13 279.976 162.747   4
  -2 -11  15-112.745 78.3122   6
  -2 -11 -15-29.5484 109.777   5
  -2  11  15-106.953 173.049   2
   2 -11 -15-11.5576 85.2727   8
   2  11  15-46.6238 101.635   3
  -2 -11  15 44.8443 83.6621   7
   2  11 -15 100.034 157.281   4
  -2 -11  16 154.037 84.3337   6
  -2  11  16 223.358 158.738   3
   2 -11 -16-12.9010 94.3800   5
   2 -11 -16 72.9566 97.5449   8
  -2 -11 -16 31.1755 113.878   5
  -2  11  16-81.5245 203.462   2
   2  11  16 63.0435 98.2487   3
  -2 -11 -16-45.8972 179.950   8
  -2 -11  16 46.1638 85.4972   7
   2  11 -16-82.8370 170.444   4
  -2 -11  17 184.377 88.0390   6
   2  11 -17-64.1471 174.236   4
  -2  11  17-59.8370 154.376   3
   2 -11 -17 223.492 115.998   5
  -2 -11 -17 149.247 122.968   5
  -2 -11 -17 141.444 174.245   8
  -2  11  17-27.5078 229.081   2
   2  11  17 224.026 108.508   3
   2 -11 -17 49.9724 106.843   8
  -2  11  18 39.9484 141.077   3
  -2 -11  18 13.5187 84.7359   6
   2 -11 -18-119.590 101.514   5
  -2 -11 -18-17.4379 121.159   5
   2 -11 -18-65.8181 117.070   8
  -2 -11 -18 24.1828 206.097   8
  -2  11  18 28.0172 192.738   2
   2  11  18-81.3149 105.506   3
   2  11 -18-242.617 178.086   4
  -2 -11  19 1219.77 240.205   6
   2 -11 -19 1367.30 252.072   8
   2 -11 -19 1627.62 243.148   5
  -2  11  19 1648.52 271.764   3
  -2 -11 -19 1247.81 262.347   5
  -2 -11 -19 1337.18 316.084   8
  -2  11  19 879.655 322.178   2
   2  11  19 779.357 242.715   3
  -2 -11  19 1165.67 239.512   7
   2  11 -19 1295.10 285.028   4
  -2 -11  20 14.2258 86.8942   6
  -2  11  20-77.7263 145.356   3
  -2 -11 -20-50.6343 191.472   8
  -2 -11 -20 57.9679 135.707   5
   2 -11 -20 70.0782 105.621   5
  -2  11  20 28.9609 214.213   2
   2  11  20-16.7241 112.416   3
  -2 -11  20 13.1019 91.6357   7
   2 -11 -20-41.7878 114.497   8
   2  11 -20 93.7349 168.675   4
  -2 -11  21 1547.83 265.841   6
   2 -11 -21 1747.53 283.597   8
  -2  11  21 1784.88 291.534   3
  -2 -11 -21 2479.42 356.447   8
  -2  11  21 2041.23 349.259   2
  -2 -11  21 1329.44 270.772   7
   2  11  21 891.371 270.698   3
  -2 -11 -21 902.039 281.468   5
   2  11 -21 649.484 302.794   4
   2 -11 -21 1665.39 277.488   5
  -2 -11  22 14.9830 99.6134   6
  -2  11  22-157.460 148.517   3
   2 -11 -22 75.1851 122.697   5
  -2 -11 -22 157.744 225.312   8
   2  11  22 176.612 117.868   3
  -2  11  22-30.2504 235.442   2
   2 -11 -22-30.2297 123.713   8
  -2 -11  22 113.831 111.710   7
  -2 -11 -22 42.9419 129.900   5
   2  11 -22 172.475 193.130   4
   2 -11 -23 171.194 131.566   8
  -2 -11 -23 187.028 229.178   8
  -2  11  23 217.379 138.556   3
  -2 -11 -23 292.567 173.592   5
  -2  11  23 185.745 241.537   2
   2  11  23 237.121 117.080   3
  -2 -11  23 59.0811 116.557   7
   2 -11 -23 156.959 122.224   5
   2  11 -23 50.2670 198.070   4
  -2 -11  24-61.3818 114.965   7
   2 -11 -24 16.4627 116.759   5
   2 -11 -24-32.0588 128.636   8
  -2 -11 -24 211.102 225.462   8
  -2  11  24 217.975 133.952   3
  -2  11  24 95.1451 239.938   2
   2  11  24 56.8519 114.627   3
   2  11 -24 25.5769 189.288   4
   2 -11 -25 115.577 132.886   8
   2 -11 -25 17.5439 131.785   5
  -2 -11 -25 106.829 208.103   8
  -2  11  25 60.4200 132.142   3
  -2  11  25-32.5151 249.733   2
  -2 -11  25 113.110 134.169   7
   2 -11 -26-93.5121 135.349   5
   2 -11 -26 17.0028 141.643   8
  -2 -11 -26-80.9716 222.641   8
  -2  11  26 100.106 264.949   2
  -2  11  26-80.8273 136.632   3
   2 -11 -27-98.2888 152.921   5
   2 -11 -27 102.606 137.513   8
  -2  11  27-68.5406 246.671   2
  -2  11  27-20.6505 133.615   3
   2 -11 -28 193.814 154.875   8
  -2  11  28 281.769 255.388   2
  -2  11  28 208.574 147.886   3
   2 -11 -28 124.866 160.953   5
   2 -11 -29-72.6110 149.674   8
   3  11   0 4375.90 813.939   3
   3 -11   0 5330.80 839.760   5
  -3 -11   0 4847.30 804.930   5
  -3 -11   0 5213.96 810.752   8
   3  11   0 4790.55 804.179   4
  -3 -11   0 4760.74 807.872   7
   3 -11  -1 65.0172 132.147   5
  -3 -11  -1 162.279 95.8448   8
  -3 -11  -1 8.44094 62.7278   5
   3  11  -1 145.252 98.2577   3
   3  11   1 146.554 97.2343   3
  -3 -11   1 94.6599 79.4434   8
   3  11  -1 145.847 96.2840   1
  -3 -11  -1 238.220 82.6112   7
   3  11   1 194.898 67.7237   4
  -3 -11   1 23.3654 57.2157   5
  -3 -11   1 90.2294 73.6698   7
   3  11  -1 122.905 65.0204   4
   3  11  -1 68.9657 133.056   2
  -3 -11  -1 157.800 81.9013   6
  -3 -11   1 108.139 74.2835   6
   3  11   1 122.328 73.8740   1
   3  11   2 1421.57 251.356   3
   3 -11  -2 1082.94 225.523   8
  -3 -11   2 1305.97 227.024   5
  -3 -11  -2 1353.47 230.719   5
   3  11  -2 1320.33 247.529   3
   3 -11  -2 877.979 262.547   5
  -3 -11  -2 1051.95 245.952   8
   3  11   2 1240.80 224.704   4
  -3 -11  -2 1411.56 234.748   7
  -3 -11   2 1146.84 230.879   7
   3  11  -2 1458.58 232.733   4
   3  11  -2 1791.52 277.221   2
  -3 -11   2 1258.17 231.160   8
  -3  11   2 1478.51 271.440   2
   3  11  -2 1384.54 247.272   1
   3  11   2 1363.05 231.298   1
  -3 -11  -2 1320.64 235.519   6
  -3 -11   2 1332.88 235.605   6
   3 -11  -3 675.095 176.888   5
  -3 -11   3 471.662 95.7991   5
   3  11  -3 457.244 140.465   1
   3  11  -3 645.884 132.321   3
   3  11   3 283.956 88.9325   4
   3 -11  -3 458.370 95.1747   8
  -3 -11   3 472.573 100.726   8
   3  11   3 392.584 123.190   3
  -3 -11  -3 468.469 136.148   8
   3  11  -3 473.519 160.941   2
  -3 -11  -3 405.727 119.360   7
   3  11  -3 386.038 107.575   4
  -3 -11   3 459.480 106.894   7
  -3 -11  -3 475.160 102.100   5
  -3 -11  -3 357.708 108.652   6
  -3  11   3 145.736 153.054   2
  -3 -11   3 303.124 111.554   6
   3  11   3 554.878 98.0427   1
   3 -11  -4 18.2905 115.942   5
   3  11   4 164.094 70.0569   1
  -3 -11   4 369.252 69.9871   5
   3  11  -4 206.392 97.9147   3
  -3 -11  -4 285.440 83.4201   5
   3  11   4 136.836 101.428   3
  -3 -11  -4 333.329 133.728   8
   3  11   4 261.266 68.1590   4
  -3 -11   4 388.095 87.6190   7
   3  11  -4 309.982 92.9853   4
   3  11  -4 283.761 144.631   2
   3  11  -4 121.881 105.993   1
   3 -11  -4 224.467 70.3215   8
  -3 -11   4 217.003 73.1396   8
  -3 -11   4 45.7382 88.6490   6
  -3  11   4 281.416 158.173   2
   3 -11  -5 522.352 177.418   5
   3  11   5 622.540 158.316   3
  -3 -11  -5 635.098 147.991   5
   3  11  -5 642.590 168.897   1
   3 -11  -5 827.391 144.645   8
  -3 -11  -5 630.453 182.349   8
  -3 -11   5 805.253 146.711   7
   3  11  -5 698.969 153.402   4
  -3 -11   5 842.692 156.559   6
  -3  11   5 1259.09 216.770   2
  -3  11   6 1330.57 275.575   2
   3 -11  -6 616.771 231.749   5
   3  11   6 1353.63 226.715   3
   3 -11  -6 1066.33 208.425   8
  -3 -11   6 1291.65 211.373   7
   3  11  -6 1366.51 224.627   4
  -3 -11  -6 1166.92 253.466   8
  -3 -11  -6 1201.09 213.348   5
   3  11  -6 829.825 234.263   1
  -3 -11   6 1232.72 220.313   6
  -3  11   7 839.625 218.080   2
   3 -11  -7 674.773 159.153   5
   3  11  -7 106.180 151.938   1
  -3 -11  -7 422.478 117.542   5
   3 -11  -7 564.495 112.514   8
  -3 -11  -7 580.867 184.064   8
   3  11   7 605.363 142.805   3
  -3 -11   7 564.869 114.600   7
   3  11  -7 418.577 132.083   4
  -3 -11   7 608.529 133.463   6
  -3 -11  -8 570.638 129.127   5
  -3  11   8 123.711 203.027   2
   3 -11  -8 435.710 154.074   5
   3 -11  -8 695.485 123.403   8
  -3 -11   8 511.080 120.991   7
   3  11   8 824.772 145.973   3
   3  11  -8 763.789 154.595   4
  -3 -11   8 206.222 129.714   6
  -3 -11  -8 563.181 177.281   8
   3 -11  -9 45.4101 104.309   5
  -3 -11  -9 287.440 173.781   8
  -3 -11  -9 12.0489 87.5839   5
   3  11   9 14.3498 92.2687   3
  -3 -11   9 132.726 82.7944   7
   3  11  -9 135.288 113.884   4
  -3 -11   9 48.9278 78.5168   6
  -3  11  10-22.9049 166.225   3
  -3 -11 -10-64.9435 174.670   8
   3 -11 -10-73.8752 108.109   5
  -3 -11 -10-12.7108 75.9923   5
   3  11  10 101.364 96.9639   3
  -3 -11  10 58.2294 70.8008   7
   3  11 -10-14.3596 117.003   4
  -3 -11  10 99.4821 84.8189   6
  -3  11  11 162.153 174.739   3
   3 -11 -11 100.821 80.0328   8
   3 -11 -11 288.895 115.148   5
  -3  11  11 443.806 198.525   2
  -3 -11 -11 271.830 110.363   5
  -3 -11 -11 493.612 192.084   8
   3  11  11 204.764 106.446   3
  -3 -11  11 347.836 88.4346   7
   3  11 -11 232.455 134.047   4
  -3 -11  11 429.120 103.716   6
  -3  11  12 1210.01 279.454   3
   3 -11 -12 1062.77 225.437   5
  -3 -11 -12 1045.67 224.613   5
   3  11  12 1406.46 224.064   3
   3  11 -12 1491.29 244.106   4
  -3 -11  12 716.551 215.726   6
  -3  11  14 517.952 246.052   2
   3 -11 -14 937.051 165.386   8
  -3 -11 -14 401.492 260.594   8
  -3 -11  14 766.775 159.759   7
  -3 -11  15 13.1544 86.6601   6
  -3  11  15 184.031 156.192   3
   3 -11 -15 67.6780 102.986   5
   3  11  15-15.4512 97.7255   3
  -3  11  15 55.2743 194.224   2
   3  11 -15 133.900 147.437   4
   3 -11 -15-10.7622 80.8208   8
  -3 -11 -15-33.3503 110.236   5
  -3 -11  15 141.800 87.7188   7
  -3 -11  16 212.715 96.3120   6
  -3  11  16-22.6007 177.228   3
   3 -11 -16 309.510 102.698   8
   3 -11 -16 255.552 114.657   5
  -3 -11 -16 368.523 138.480   5
  -3 -11 -16 239.962 202.472   8
  -3  11  16-56.0279 241.185   2
  -3 -11  16 78.5933 92.4817   7
   3  11  16 110.057 109.498   3
   3  11 -16 142.255 171.285   4
   3 -11 -17-11.5630 96.1383   8
  -3 -11  17 132.367 86.7380   6
  -3  11  17-22.1983 169.221   3
   3 -11 -17 40.7740 107.724   5
  -3 -11 -17-82.1782 238.001   8
  -3 -11 -17 92.3826 126.057   5
  -3  11  17 199.168 223.688   2
   3  11  17 16.0440 109.997   3
   3  11 -17-85.0525 168.897   4
  -3 -11  18 202.324 93.6132   6
  -3  11  18 21.8110 160.385   3
   3 -11 -18 81.7905 104.648   5
  -3  11  18-115.520 209.745   2
  -3 -11 -18 19.4833 131.901   5
  -3 -11 -18 84.2264 220.095   8
   3  11  18-16.4093 99.5625   3
   3 -11 -18 47.5653 101.437   8
   3  11 -18-21.9405 179.482   4
  -3 -11  19-13.7539 80.4264   6
  -3  11  19-29.3964 204.800   2
  -3 -11 -19-57.4168 225.688   8
  -3 -11 -19 163.265 147.025   5
  -3  11  19 109.119 162.151   3
   3 -11 -19 124.813 94.2593   8
   3 -11 -19-55.1054 108.078   5
   3  11  19 100.179 112.397   3
 -11  -3  19-25.9874 190.857   6
  -3 -11  19 60.9968 97.9792   7
   3  11 -19-90.3393 170.918   4
  -3 -11  20 337.380 112.008   6
   3  11 -20 279.251 181.205   4
   3 -11 -20 264.443 130.145   5
  -3  11  20 386.697 167.558   3
  -3  11  20 479.253 246.669   2
   3 -11 -20 411.374 123.824   8
  -3 -11 -20 439.061 239.131   8
  -3 -11  20 339.541 115.905   7
   3  11  20 190.061 126.795   3
 -11  -3  20 777.037 217.118   6
  -3 -11  21 100.756 98.8686   6
  -3  11  21 91.3479 227.454   2
  -3 -11 -21 119.009 273.348   8
  11   3 -21-30.8300 82.2533   4
   3 -11 -21 26.4921 110.974   8
  -3  11  21 105.621 146.671   3
   3 -11 -21 298.190 118.104   5
  -3 -11  21 220.708 117.160   7
   3  11  21 71.8457 120.626   3
 -11  -3  21 440.039 201.268   6
   3  11 -21-120.100 177.678   4
  -3 -11  22-14.7075 110.707   6
  -3  11  22 146.483 159.312   3
   3 -11 -22 136.618 119.944   8
  -3  11  22 62.2062 232.982   2
  -3 -11 -22 60.3331 255.739   8
   3 -11 -22 87.8555 120.985   5
  -3 -11  22 93.9576 100.791   7
   3  11 -22 24.6616 207.376   4
   3 -11 -23 90.8786 111.082   5
   3 -11 -23 98.6887 112.342   8
  -3  11  23-158.985 247.876   2
  -3  11  23 316.961 159.473   3
  -3 -11  23 55.5971 124.727   7
  -3 -11  24 77.2389 106.667   6
  -3  11  24-292.847 245.397   2
   3 -11 -24 104.057 123.718   8
  -3  11  24 148.538 146.847   3
  -3 -11  24 43.2265 110.615   7
   3 -11 -24 78.5655 118.405   5
   3  11 -24 25.8078 197.548   4
  -3 -11  25 31.6804 112.213   6
   3 -11 -25 196.720 132.215   5
   3 -11 -25 76.7783 123.558   8
  -3  11  25 166.743 243.342   2
  -3  11  25 213.148 147.887   3
  -3 -11  25 14.9020 121.485   7
   3  11 -25 26.3518 200.553   4
  -3  11  26 239.494 290.045   2
   3 -11 -26 653.164 170.693   8
  -3  11  26 406.537 168.417   3
   3 -11 -26 549.664 158.847   5
  -3 -11  26 139.435 150.928   7
   3  11 -26 188.346 224.242   4
  -3  11  27-105.411 262.012   2
   3 -11 -27 128.066 132.524   5
  -3  11  27 239.472 157.586   3
   3 -11 -27 16.0879 130.508   8
  -3 -11  27-16.1268 117.358   7
   3  11 -27 27.2824 213.870   4
   3 -11 -28 155.855 145.304   5
   3 -11 -28 16.6450 136.077   8
  -3 -11  28 485.912 144.364   7
   4  11   0 899.484 161.093   1
  -4 -11   0 868.586 182.876   8
   4  11   0 818.025 176.332   3
   4  11   0 665.390 150.033   4
  -4 -11   0 1031.27 175.005   7
  -4 -11   0 714.676 157.866   5
  -4 -11   0 987.798 174.277   6
   4  11  -1 5286.19 783.094   3
   4  11   1 4788.82 782.063   3
  -4 -11   1 5219.15 774.723   5
  -4 -11  -1 3625.27 773.617   5
  -4 -11   1 4914.09 781.427   8
  -4 -11  -1 4424.72 788.323   8
   4  11   1 5032.43 771.098   4
  -4 -11   1 4603.46 780.474   7
  -4 -11  -1 5045.42 782.192   6
   4  11  -1 4828.96 778.664   1
   4  11   1 3847.92 772.091   1
   4  11   2 507.809 99.7220   1
   4  11  -2 477.142 117.937   1
  -4 -11   2 410.615 99.0275   5
  -4 -11  -2 520.931 105.247   5
  -4 -11   2 355.835 121.402   8
  -4 -11  -2 453.056 154.547   8
   4  11  -2 362.348 116.384   3
   4  11   2 615.055 123.963   3
  -4 -11  -2 378.985 136.900   7
   4  11   2 372.611 93.1344   4
   4  11  -2 479.467 101.607   4
  -4 -11   2 381.209 113.233   7
  -4 -11  -2 446.412 130.406   6
  -4 -11   2 271.181 116.805   6
   4 -11  -3 679.390 231.024   5
   4  11  -3 878.461 195.326   1
  -4 -11  -3 759.849 183.684   5
  -4 -11   3 1002.01 187.586   8
  -4 -11  -3 653.256 212.260   8
   4  11  -3 933.621 193.547   3
   4  11   3 1035.94 174.692   4
   4  11  -3 1102.37 185.033   4
   4  11   3 1065.39 195.576   3
  -4 -11  -3 948.822 203.087   7
  -4 -11   3 644.002 184.437   7
  -4 -11   3 1009.78 179.575   5
   4  11  -3 1017.68 218.746   2
   4  11   3 1242.47 179.882   1
  -4 -11  -3 1114.85 201.342   6
  -4 -11   3 1185.84 202.247   6
  -4 -11  -4 1305.33 246.275   5
   4 -11  -4 892.519 281.668   5
  -4 -11   4 1569.72 248.152   7
   4  11   4 1441.51 252.527   3
   4  11  -4 950.807 253.089   1
  -4  11   4 1299.03 286.840   2
  -4 -11   4 1367.79 254.433   6
   4  11  -4 1514.02 244.710   4
  -4 -11  -4 1612.09 288.085   8
   4 -11  -5 354.601 147.017   5
  -4 -11  -5 242.706 95.6443   5
   4 -11  -5 267.154 82.9835   8
  -4 -11  -5 175.161 152.740   8
   4  11   5 229.634 93.6369   3
   4  11  -5 125.025 88.5054   4
   4  11  -5 135.805 126.279   1
  -4  11   5 498.250 170.095   2
  -4 -11   5 184.067 106.746   6
  -4 -11   5 314.857 95.0412   7
   4  11  -6 1262.16 275.493   1
  -4 -11  -6 1362.26 256.694   5
   4 -11  -6 1463.74 285.895   5
   4 -11  -6 1140.43 244.182   8
  -4 -11  -6 1612.49 300.935   8
   4  11  -6 1667.48 255.725   4
  -4 -11   6 1552.72 252.626   7
   4  11   6 1171.65 256.386   3
  -4 -11   6 1526.51 266.638   6
  -4  11   6 1122.04 295.358   2
   4 -11  -7-53.8018 134.824   5
   4 -11  -7 25.0313 66.2933   8
  -4 -11  -7 177.290 83.0366   5
   4  11  -7 51.2878 129.994   1
  -4 -11  -7-42.7482 168.507   8
   4  11   7 27.4909 88.1922   3
  -4 -11   7 30.2314 82.6558   7
   4  11  -7 274.243 95.4435   4
  -4 -11   7 172.871 93.5782   6
  -4  11   7 69.6217 168.910   2
   4 -11  -8 913.349 191.361   5
  -4 -11   8 637.144 160.621   7
  -4 -11  -8 825.247 175.035   5
  -4 -11  -8 868.816 226.071   8
   4  11   8 1095.99 181.284   3
   4  11  -8 871.249 169.927   4
   4  11  -8 756.365 201.921   1
  -4 -11   8 752.846 175.345   6
   4  11  -9 18.9374 132.502   1
   4 -11  -9-166.618 121.431   5
  -4 -11  -9 181.767 92.3338   5
  -4 -11  -9-23.2740 167.573   8
   4  11   9-42.6713 89.8196   3
  -4 -11   9 61.0185 79.2217   7
   4  11  -9 49.6899 95.3934   4
  -4 -11   9 26.9445 88.9742   6
  -4  11  10 479.741 200.235   2
   4 -11 -10 501.762 151.696   5
   4 -11 -10 682.962 121.652   8
  -4 -11 -10 440.758 138.971   5
  -4 -11 -10 412.415 203.712   8
   4  11  10 662.547 140.721   3
   4  11 -10 119.320 169.038   1
  -4 -11  10 460.947 121.168   7
   4  11 -10 576.089 151.459   4
  -4 -11  10 639.687 138.515   6
   4 -11 -11 1752.36 308.103   5
  -4 -11 -11 1404.84 306.822   5
  -4 -11  11 1499.79 292.613   7
   4  11  11 1795.27 304.494   3
   4  11 -11 1323.20 306.263   4
  -4 -11  11 2158.06 304.452   6
  -4 -11 -13 1583.62 338.443   8
   4 -11 -13 1007.60 235.456   8
  -4 -11  13 1717.06 247.605   7
   4  11 -13 1134.40 289.774   1
  -4 -11  14 227.718 95.7529   7
  -4  11  14 301.887 192.343   2
   4 -11 -14 455.033 92.9081   8
  -4 -11 -14 214.162 135.347   5
  -4 -11 -14-113.229 224.724   8
   4  11  14 138.738 115.657   3
   4  11 -14 404.129 147.829   4
  -4 -11  14 338.117 119.472   6
  -4  11  15 1193.19 270.756   3
  -4  11  15 335.117 256.759   2
   4 -11 -15 1110.91 195.069   5
  -4 -11 -15 702.434 297.195   8
  -4 -11 -15 1027.93 217.232   5
  -4 -11  15 1083.45 184.916   7
   4  11  15 441.720 190.841   3
   4  11 -15 728.298 224.222   4
   4 -11 -15 1295.59 183.511   8
  -4 -11  15 591.154 190.819   6
  -4  11  16-25.2586 228.937   3
  -4  11  16 28.3719 226.917   2
   4 -11 -16 446.713 134.739   5
  -4 -11  16-11.2872 99.1293   7
   4  11 -16 74.8376 163.685   4
   4  11  16 211.258 120.280   3
   4 -11 -16 345.740 102.179   8
  -4 -11  16 312.986 110.395   6
  -4  11  17 274.798 216.631   3
  -4  11  17 172.792 217.069   2
   4 -11 -17 159.546 110.978   5
   4 -11 -17 97.5906 90.9157   8
  -4 -11 -17 93.0262 257.150   8
   4  11  17 50.4178 104.993   3
   4  11 -17 320.072 169.507   4
  -4 -11  17 43.0615 104.280   6
  -4 -11  18 200.238 102.250   6
  -4  11  18-117.216 230.045   2
  -4  11  18 24.5849 178.946   3
   4 -11 -18 273.622 123.749   5
  -4 -11  18 212.719 101.951   7
   4 -11 -18 157.911 99.8791   8
   4  11 -18 272.073 160.150   4
 -11  -4  18 313.520 210.343   6
  -4 -11  19-14.4108 94.6479   6
  -4  11  19 59.5831 219.532   2
  -4  11  19 48.3555 188.736   3
   4 -11 -19 14.3411 107.305   5
   4 -11 -19-139.385 105.784   8
  -4 -11  19-12.1213 91.7080   7
 -11  -4  19 155.331 197.218   6
   4  11 -19 43.6913 167.610   4
  -4 -11  20 14.5150 97.0007   6
  -4  11  20 303.591 233.791   2
  -4  11  20 145.253 187.483   3
   4 -11 -20 28.7751 124.558   5
   4 -11 -20 143.692 102.845   8
  -4 -11  20 186.755 103.724   7
 -11  -4  20 334.958 212.755   6
   4  11 -20 254.382 190.584   4
  -4 -11  21 14.5460 97.4531   6
  -4  11  21-371.258 258.210   2
  -4  11  21 71.4539 174.231   3
   4 -11 -21-72.7213 116.685   5
  11   4 -21-73.8567 88.9713   4
   4 -11 -21 25.1057 100.742   8
  -4 -11  21-12.8135 94.5545   7
 -11  -4  21-25.2721 185.574   6
   4  11 -21 23.7858 202.635   4
  -4 -11  22 517.944 137.870   6
   4 -11 -22 492.739 135.911   8
  -4  11  22-94.6873 246.899   2
  11   4 -22 179.046 116.094   4
   4 -11 -22 528.911 136.454   5
  -4  11  22 586.535 200.529   3
  -4 -11  22 528.225 133.561   7
 -11  -4  22 452.761 213.458   6
   4  11 -22 219.707 208.966   4
  -4 -11  23 45.2842 109.989   6
  -4  11  23 115.410 168.804   3
   4 -11 -23 14.9846 121.300   5
  -4  11  23 32.2631 234.092   2
   4 -11 -23 40.2187 105.399   8
  11   4 -23 47.8686 95.9696   4
  -4 -11  23-258.952 102.373   7
 -11  -4  23 75.3997 175.046   6
   4  11 -23 25.0708 202.903   4
   4 -11 -24 235.837 124.656   8
   4 -11 -24 308.896 128.872   5
  -4 -11  24 216.112 118.424   6
  -4  11  24 329.981 266.607   2
  -4  11  24 183.056 176.946   3
  -4 -11  24 183.249 116.636   7
   4  11 -24 412.678 210.514   4
  -4 -11  25 378.127 182.746   6
  -4 -11  25 1007.10 190.869   7
  -4  11  25 236.591 292.303   2
   4 -11 -25 1069.77 197.411   5
   4 -11 -25 1135.70 197.010   8
   4  11 -25 1135.26 258.146   4
  -4  11  25 640.340 205.169   3
  -4 -11  26 354.845 137.496   6
  -4  11  26 519.770 300.569   2
  -4  11  26 23.2294 189.680   3
  -4 -11  26 272.535 133.841   7
   4 -11 -26 248.272 139.141   5
   4  11 -26 26.9635 217.396   4
   4 -11 -26 298.131 148.708   8
  -4 -11  27 628.245 200.700   6
   4 -11 -27 1121.15 214.831   5
  -4 -11  27 1085.54 214.075   7
   4  11 -27 551.566 265.957   4
   4 -11 -27 1222.49 220.442   8
  -4 -11  28-16.9534 104.223   6
  -4 -11  28 16.3652 128.258   7
   4  11 -28-168.460 193.893   4
   4  11 -29 284.341 212.262   4
   5  11   0 2662.58 461.457   3
  -5 -11   0 2818.47 458.754   5
  -5 -11   0 2894.13 479.654   8
  -5 -11   0 2562.31 470.013   7
  -5 -11   0 2401.79 470.055   6
  -5 -11  -1 1280.11 238.837   7
  -5 -11  -1 839.549 219.135   5
   5  11  -1 1107.18 213.718   1
  -5 -11  -1 1202.58 249.731   8
   5  11  -1 1042.64 205.209   4
  -5 -11   1 1339.10 236.967   7
   5  11  -1 1136.36 223.308   3
   5  11   1 1364.34 226.710   3
   5  11   1 1202.60 209.413   1
  -5 -11  -1 1297.69 239.948   6
  -5 -11   1 1109.34 228.659   6
  -5 -11   1 1236.74 215.888   5
  -5 -11   1 1276.55 242.269   8
   5  11  -2 3938.61 531.856   3
   5  11   2 3078.22 529.684   3
  -5 -11  -2 3006.45 529.946   5
  -5 -11   2 3787.66 538.602   8
  -5 -11  -2 2667.40 547.273   8
   5  11  -2 2694.04 517.604   4
  -5 -11  -2 2570.54 541.256   7
  -5 -11  -2 3138.88 539.284   6
  -5 -11   2 2969.36 536.449   6
   5  11   2 3007.77 519.730   1
   5  11  -2 3487.56 527.322   1
   5  11   3 1738.81 289.378   3
   5  11  -3 1461.57 276.982   4
  -5 -11   3 1726.69 295.418   7
  -5 -11  -3 1638.24 333.640   8
  -5 -11  -3 1340.67 286.591   5
  -5 -11  -3 1858.25 305.866   6
  -5 -11   3 1963.77 304.264   6
   5  11  -3 1406.71 282.882   1
  -5 -11  -4 26.3799 86.1863   5
  -5 -11  -4 162.962 152.938   8
   5  11  -4-8.40863 67.4051   4
  -5 -11   4 63.6111 96.2215   7
   5  11   4-13.5249 83.9762   3
  -5 -11  -4-61.4353 107.414   6
  -5 -11   4-46.1478 103.870   6
   5  11  -4 37.4937 96.8926   1
   5  11  -5 1230.82 271.091   1
  -5 -11  -5 1504.84 273.673   5
  -5 -11  -5 1468.28 304.321   8
   5  11  -5 1457.04 256.748   4
  -5 -11   5 1387.43 265.422   7
  -5 -11   5 1435.56 277.986   6
   5  11   5 1703.73 272.009   3
  -5 -11   6 190.510 100.023   7
   5  11  -6 204.891 122.511   1
   5  11  -6 217.930 84.2106   4
  -5 -11  -6 157.370 101.199   5
  -5 -11  -6 133.362 177.633   8
   5  11   6 250.605 98.8188   3
  -5 -11   6 336.690 123.401   6
   5  11   7 1848.08 430.644   3
   5 -11  -7 2807.51 455.383   5
  -5 -11  -7 2588.19 437.795   5
  -5 -11  -7 1913.12 465.811   8
   5  11  -7 2753.06 424.757   4
  -5 -11   7 2936.26 438.511   6
   5  11  -7 2254.22 436.645   1
   5 -11  -8-39.3186 142.898   5
  -5 -11  -8 72.8595 179.144   8
  -5 -11  -8 108.238 101.821   5
  -5 -11   8 175.414 89.0261   7
   5  11  -8 160.982 81.0685   4
   5  11  -8 83.8745 122.552   1
   5  11   8 260.126 98.2127   3
  -5 -11   8 137.342 115.314   6
   5 -11  -9 1050.68 218.017   5
   5 -11  -9 781.695 173.921   8
  -5 -11  -9 1480.13 256.224   8
  -5 -11  -9 885.009 195.001   5
   5  11  -9 1159.23 188.203   4
   5  11   9 704.771 186.775   3
   5  11  -9 1047.52 216.857   1
  -5  11   9 881.241 226.160   2
  -5 -11   9 956.111 198.878   6
  -5 -11   9 815.667 182.021   7
   5 -11 -10 552.125 160.796   5
  -5 -11 -10 268.003 203.490   8
  -5 -11  10 446.924 119.791   7
   5  11 -10 280.324 121.390   4
   5  11  10 360.346 119.851   3
  -5 -11  10 381.027 134.358   6
   5  11  11 926.640 192.162   3
   5  11 -12 854.926 275.064   1
  -5 -11 -12 785.683 326.720   8
   5 -11 -12 1286.37 216.566   8
  -5  11  12 1227.38 299.901   2
  -5  11  13 209.131 218.497   2
   5 -11 -13 474.742 122.832   8
   5  11 -13 43.8622 185.649   1
  -5 -11  13 568.941 135.275   7
   5  11 -13 852.383 161.743   4
  -5 -11  13 563.572 151.388   6
  -5  11  14 1149.79 326.488   2
  -5  11  14 1474.49 337.229   3
   5 -11 -14 1672.92 278.632   5
   5 -11 -14 1666.36 257.968   8
   5  11 -14 388.471 303.304   1
   5  11 -14 1287.84 277.709   4
  -5 -11  14 1224.45 260.593   7
  -5 -11  14 1822.17 280.041   6
  -5  11  15 54.6708 234.490   2
  -5  11  15 355.980 262.920   3
   5 -11 -15 957.736 178.125   5
   5 -11 -15 823.449 145.955   8
  -5 -11  15 446.132 151.062   7
   5  11 -15 567.612 184.262   4
   5  11 -15 432.593 233.678   1
  -5 -11  15 611.090 167.837   6
  -5  11  16 167.670 212.612   2
  -5  11  16 333.311 230.163   3
   5 -11 -16 110.125 117.723   5
   5 -11 -16 114.975 88.1899   8
   5  11 -16 68.4876 136.690   4
  -5 -11  16-15.3901 103.060   6
  -5  11  17 228.752 218.946   2
  -5  11  17 503.118 245.240   3
   5 -11 -17 340.945 150.483   5
   5 -11 -17 934.763 149.401   8
   5  11 -17 386.253 179.725   4
 -11  -5  17 664.440 218.307   6
  -5 -11  17 697.815 156.700   6
  -5  11  18-58.0803 200.532   2
  -5  11  18 27.8846 207.848   3
   5 -11 -18-30.6121 120.355   5
   5  11 -18 55.2156 209.588   1
   5 -11 -18 11.0929 90.7137   8
  -5 -11  18 61.4936 85.0136   7
   5  11 -18-96.7579 152.131   4
 -11  -5  18 210.475 202.588   6
  -5 -11  18 61.7484 102.407   6
  -5  11  19 356.149 226.015   2
  -5  11  19 165.794 212.204   3
   5 -11 -19 485.455 136.087   5
   5 -11 -19 502.833 123.591   8
   5  11 -19 404.873 255.547   1
  -5 -11  19 113.061 107.844   7
   5  11 -19 599.729 179.799   4
 -11  -5  19 572.647 223.320   6
  -5 -11  19 264.454 126.078   6
  -5  11  20 30.1903 229.456   2
   5 -11 -20 236.902 109.432   8
  -5  11  20-54.4740 194.224   3
   5 -11 -20 151.034 116.069   5
  11   5 -20 41.2835 82.1254   4
  -5 -11  20 308.545 105.533   7
   5  11 -20 61.0581 236.948   1
   5  11 -20 43.3332 173.474   4
 -11  -5  20 25.4589 191.092   6
  11   5 -20 181.898 98.3847   1
  -5 -11  20 123.810 104.608   6
  -5 -11  21 373.373 134.299   6
  11   5 -21 46.7963 107.718   1
  -5  11  21 370.679 234.312   2
  -5  11  21 643.751 220.267   3
   5 -11 -21 210.960 134.454   5
   5 -11 -21 709.641 134.431   8
  11   5 -21 239.097 115.460   4
  -5 -11  21 461.235 126.551   7
   5  11 -21 609.880 275.838   1
   5  11 -21 723.387 198.204   4
 -11  -5  21 577.329 206.547   6
  -5 -11  22 15.6390 106.077   6
  11   5 -22 12.0299 82.3294   1
  -5  11  22 31.4981 237.348   2
  -5  11  22 52.8170 194.590   3
   5 -11 -22 122.704 120.534   5
   5 -11 -22 12.6497 107.733   8
  11   5 -22 11.5333 97.0966   4
  -5 -11  22-135.331 106.707   7
   5  11 -22-214.898 199.837   4
 -11  -5  22-74.7740 182.954   6
   5  11 -22 169.041 250.064   1
  -5 -11  23 278.981 128.031   6
  11   5 -23-12.3895 104.923   1
  -5  11  23 321.470 237.067   2
  -5  11  23 1117.69 233.731   3
   5 -11 -23 651.072 143.802   5
   5 -11 -23 816.748 141.117   8
  11   5 -23 161.414 119.575   4
 -11  -5  23 27.8075 207.475   7
  -5 -11  23 529.129 136.281   7
   5  11 -23 670.593 221.233   4
 -11  -5  23 768.522 214.421   6
   5  11 -23 785.097 312.041   1
  -5 -11  24 125.893 117.881   6
  11   5 -24 242.038 103.602   1
  -5  11  24-32.8653 236.029   2
   5 -11 -24 313.173 132.815   5
   5 -11 -24 437.091 131.531   8
  -5  11  24 102.324 188.734   3
 -11  -5  24 365.121 184.472   7
  11   5 -24 53.2928 113.482   4
  -5 -11  24 473.712 134.970   7
   5  11 -24 377.538 281.740   1
   5  11 -24 942.375 219.008   4
 -11  -5  24 245.242 193.998   6
  -5 -11  25 191.883 125.843   6
  -5  11  25 168.164 266.841   2
  -5  11  25 590.170 203.542   3
   5 -11 -25 297.699 136.203   8
 -11  -5  25 568.069 220.679   7
   5 -11 -25 542.704 147.684   5
  -5 -11  25 444.682 139.082   7
   5  11 -25 440.221 338.738   1
   5  11 -25-183.340 236.872   4
  -5 -11  26 357.971 197.531   6
   5 -11 -26 1135.45 215.150   5
  -5  11  26 964.934 319.512   2
  -5  11  26 1602.80 264.260   3
   5 -11 -26 1400.21 220.707   8
   5  11 -26 1233.06 393.610   1
  -5 -11  26 1242.16 216.657   7
   5  11 -26 294.748 261.061   4
  -5 -11  27 449.316 130.416   6
   5  11 -27 89.9942 372.962   1
  -5 -11  27 222.507 130.684   7
   5  11 -27 109.585 222.010   4
  -5 -11  28 323.253 134.313   6
  -5 -11  28 478.398 147.324   7
   5  11 -28 84.2495 225.727   4
  -5 -11  29 156.527 114.835   6
   5  11 -29 85.7036 212.541   4
  -6 -11   0 2153.75 419.175   8
  -6 -11   0 2339.26 415.550   7
  -6 -11   0 2342.98 414.321   6
  -6 -11   1 959.952 264.672   7
  -6 -11   1 1520.73 281.484   8
  -6 -11  -1 1217.61 273.457   8
   6  11  -1 1240.67 231.434   1
  -6 -11  -1 1549.73 271.173   6
  -6 -11   1 1646.52 275.529   6
  -6 -11  -2 1515.05 305.125   8
  -6 -11   2 1564.41 292.788   7
  -6 -11  -2 1616.07 290.346   6
   6  11  -2 1371.67 263.969   1
  -6 -11   2 1644.52 297.273   6
   6  11  -3-10.4421 70.5336   1
  -6 -11  -3 327.037 156.265   8
  -6 -11   3-51.3627 127.129   7
  -6 -11  -3 51.9720 117.520   6
  -6 -11   3-90.9001 136.003   6
  -6 -11  -4 1615.73 295.224   8
   6  11  -4 1255.94 239.473   4
  -6 -11   4 1398.04 269.211   7
  -6 -11  -4 1281.75 279.891   6
  -6 -11   4 1470.48 278.492   6
   6  11  -4 1440.88 254.491   1
  -6 -11   5 696.094 146.643   7
  -6 -11  -5 449.401 183.003   8
   6  11  -5 290.610 103.429   4
   6  11  -5 462.448 125.689   1
  -6 -11   5 662.656 165.653   6
  -6 -11  -6 2109.71 373.159   8
   6  11  -6 1536.34 321.916   4
  -6 -11   6 1921.38 341.407   7
  -6 -11   6 2654.27 361.010   6
   6  11  -6 1974.78 335.144   1
  -6 -11  -7 1149.02 254.264   8
   6  11  -7 886.847 178.432   4
  -6 -11   7 949.551 203.745   7
  -6 -11   7 1077.76 221.985   6
   6  11  -7 866.855 197.908   1
  -6 -11   8 1600.66 337.508   7
   6  11  -8 1703.87 327.147   4
  -6 -11   8 2043.48 357.221   6
   6  11  -8 2432.62 347.915   1
   6  11  -9 293.633 98.4776   4
  -6 -11   9 174.256 129.705   6
   6  11 -11 72.0805 128.751   1
  -6 -11  11 91.9704 110.350   7
  -6  11  11 48.5069 156.643   2
   6 -11 -12 835.699 192.461   5
   6 -11 -12 733.524 146.740   8
   6  11 -12 362.662 196.353   1
  -6 -11  12 678.691 172.915   7
   6  11 -12 850.328 167.447   4
  -6  11  12 371.666 219.086   2
  -6 -11  12 716.506 180.404   6
   6 -11 -13 581.738 109.353   8
   6 -11 -13 308.649 151.536   5
  -6 -11  13 367.971 128.095   7
   6  11 -13 161.695 168.096   1
   6  11 -13 187.378 124.280   4
  -6  11  13 838.754 213.578   2
  -6 -11  13 473.857 143.271   6
   6 -11 -14 1300.14 209.828   5
   6 -11 -14 756.254 152.210   8
  -6 -11  14 575.574 166.958   7
   6  11 -14 801.042 175.555   4
   6  11 -14 462.965 204.688   1
  -6  11  14 25.8600 229.395   2
  -6 -11  14 813.606 188.500   6
   6 -11 -15 560.762 148.260   5
   6 -11 -15 299.440 106.335   8
  -6 -11  15 248.099 108.535   7
   6  11 -15 255.404 124.033   4
   6  11 -15 311.645 178.759   1
  -6 -11  15 218.877 136.791   6
  -6  11  15 290.246 215.707   2
  -6  11  16 685.573 273.640   3
   6 -11 -16 1053.96 186.191   5
   6 -11 -16 731.382 154.633   8
   6  11 -16 891.430 191.428   4
 -11  -6  16 601.532 245.808   6
  -6 -11  16 286.660 167.628   6
  -6  11  16 619.677 232.230   2
  -6  11  17-30.5083 216.822   3
   6 -11 -17 136.343 124.995   5
   6 -11 -17 87.1806 88.9670   8
   6  11 -17 50.0390 131.034   4
 -11  -6  17 107.639 196.853   6
  -6 -11  17 234.392 127.023   6
   6  11 -17 24.5336 163.640   1
  -6  11  17 302.745 192.526   2
  11   6 -18 326.568 147.117   1
   6  11 -18 804.706 243.255   1
  -6  11  18 681.197 267.623   3
   6 -11 -18 488.556 176.865   5
   6 -11 -18 1088.59 156.878   8
  -6 -11  18 591.703 155.824   7
   6  11 -18 721.488 185.751   4
 -11  -6  18 1058.48 256.190   6
  -6 -11  18 1058.77 185.344   6
  -6  11  18 590.897 250.382   2
  -6  11  19 400.457 216.311   2
  -6 -11  19 379.513 121.852   7
  11   6 -19 69.5746 102.537   1
   6  11 -19 379.988 218.927   1
  -6  11  19 653.300 244.957   3
   6 -11 -19 399.322 136.146   5
  11   6 -19 316.775 102.208   4
   6 -11 -19 439.412 110.910   8
   6  11 -19 679.650 171.722   4
 -11  -6  19 441.673 226.813   6
  -6 -11  19 301.329 126.708   6
  -6  11  20 29.3185 237.138   2
  11   6 -20 11.9487 112.590   1
  -6  11  20 341.349 253.577   3
   6  11 -20 540.012 242.940   1
   6 -11 -20 329.183 142.449   5
 -11  -6  20 846.186 206.360   7
  11   6 -20 246.525 104.247   4
  -6 -11  20 359.168 133.650   7
   6  11 -20 436.828 187.403   4
 -11  -6  20 203.705 196.766   6
   6 -11 -20 441.574 117.863   8
  -6 -11  20 335.964 136.305   6
  -6  11  21 119.369 201.662   2
  11   6 -21 196.771 95.2863   1
   6 -11 -21 394.066 114.560   8
  -6 -11  21 211.548 114.042   7
  -6  11  21 122.961 240.802   3
   6 -11 -21 179.724 128.082   5
   6  11 -21 178.882 225.624   1
  11   6 -21 22.6528 94.2700   4
   6  11 -21 403.008 179.771   4
 -11  -6  21 109.616 190.492   7
 -11  -6  21 49.7247 183.296   6
  -6 -11  21 67.4370 124.148   6
  -6  11  22-182.498 235.460   2
  11   6 -22 583.491 151.766   1
  -6  11  22 818.436 263.113   3
   6 -11 -22 797.699 174.684   5
  11   6 -22 782.102 156.792   4
   6 -11 -22 828.498 153.912   8
 -11  -6  22 495.107 232.210   7
  -6 -11  22 562.921 159.320   7
   6  11 -22 222.109 191.637   4
 -11  -6  22 221.153 209.156   6
   6  11 -22 665.590 268.636   1
  -6 -11  22 988.604 170.292   6
  -6 -11  23 16.8474 113.766   6
  -6  11  23 31.2502 230.271   2
  11   6 -23-26.1221 92.5082   1
  -6  11  23 59.7371 227.525   3
   6 -11 -23 32.4938 124.650   5
   6  11 -23 166.805 268.255   1
 -11  -6  23-83.1246 191.299   7
   6 -11 -23 13.2043 109.206   8
  11   6 -23-64.1435 109.890   4
   6  11 -23 23.5470 187.516   4
 -11  -6  23-24.3660 176.784   6
  -6 -11  23-44.3934 111.110   7
  -6 -11  24 650.487 152.113   6
  -6  11  24 319.285 267.872   2
  11   6 -24 162.001 131.850   1
  -6  11  24 449.044 236.153   3
   6 -11 -24 606.804 165.529   5
   6 -11 -24 795.154 154.213   8
 -11  -6  24 671.324 216.790   7
  11   6 -24 371.367 150.193   4
  -6 -11  24 592.733 156.637   7
   6  11 -24 342.928 212.505   4
 -11  -6  24 606.225 200.030   6
  -6 -11  25 83.7448 133.915   6
  -6  11  25 359.174 268.038   2
  11   6 -25 291.897 126.817   1
   6 -11 -25 355.996 137.629   8
   6 -11 -25 479.739 147.483   5
   6  11 -25 557.781 317.870   1
 -11  -6  25-197.145 223.913   7
  -6 -11  25 469.376 138.966   7
  11   6 -25 192.725 140.954   4
  -6  11  25 265.201 236.834   3
   6  11 -25 865.582 230.735   4
 -11  -6  25 121.028 170.826   6
  -6 -11  26 16.7379 114.351   6
   6  11 -26 314.974 308.561   1
 -11  -6  26-28.5435 208.931   7
  -6 -11  26 516.408 144.375   7
   6  11 -26 79.4575 215.440   4
 -11  -6  26 97.0493 183.588   6
  -6 -11  27 16.9976 117.994   6
   6  11 -27 165.090 304.011   1
  -6 -11  27 383.590 139.458   7
   6  11 -27 487.627 209.601   4
  -6 -11  28 51.9519 117.070   6
  -6 -11  28 345.315 133.535   7
   6  11 -28-55.6561 232.615   4
  -7 -11   0 407.738 174.303   8
  -7 -11   0 743.494 190.363   6
  -7 -11  -1 1748.08 303.402   8
  -7 -11  -1 1292.74 302.870   6
  -7 -11   1 1454.42 310.823   6
   7  11  -2 82.9190 72.1660   1
  -7 -11  -2 39.9302 150.995   8
  -7 -11   2-211.634 151.722   7
  -7 -11  -2-18.8975 140.834   6
  -7 -11   2-103.543 155.479   6
   7  11  -3 889.232 175.167   1
  -7 -11  -3 1210.63 235.297   8
  -7 -11   3 1146.16 221.274   7
  -7 -11   3 644.286 228.924   6
   7  11  -4 767.499 154.601   1
  -7 -11   4 706.731 199.469   7
  -7 -11   4 646.821 213.248   6
   7  11  -5 679.068 150.601   1
  -7 -11   5 1060.98 205.023   7
  -7 -11   5 498.253 213.919   6
   7  11  -6 1924.39 354.932   4
  -7 -11   6 2150.32 386.294   7
  -7 -11   6 2812.73 402.694   6
   7  11  -6 2000.22 361.234   1
   7  11  -7 1051.63 220.738   4
  -7 -11   7 1487.01 256.421   7
  -7 -11   7 1532.70 273.421   6
   7  11  -8 1630.57 285.604   4
  -7 -11   8 1506.27 325.579   6
  -7 -11  10-15.9400 112.785   7
   7  11 -10 181.462 113.528   1
  -7 -11  11 546.903 160.457   7
   7  11 -11 720.411 131.945   4
  -7 -11  11 930.942 180.488   6
   7  11 -12 150.945 101.373   4
  -7 -11  12 193.014 154.453   6
  -7 -11  12 30.7272 134.147   7
   7  11 -12 101.908 141.402   1
   7  11 -13 215.931 153.065   1
   7 -11 -13 686.520 154.849   5
   7  11 -13 355.300 130.404   4
  -7 -11  13 60.5365 142.390   7
  -7 -11  13 590.054 157.288   6
   7  11 -14-38.1304 140.794   1
   7 -11 -14 19.2319 141.470   5
  -7 -11  14 167.135 116.766   7
   7  11 -14 170.260 107.766   4
  -7  11  14 100.811 167.761   2
  -7 -11  14 75.1067 137.632   6
   7 -11 -15 719.221 172.905   5
  -7 -11  15 586.109 149.978   7
   7  11 -15 350.039 141.436   4
 -11  -7  15 707.128 223.096   6
  -7  11  15 666.320 209.295   2
  -7 -11  15 355.648 176.066   6
   7 -11 -16-37.3753 136.164   5
   7  11 -16-162.309 121.707   4
 -11  -7  16 83.2086 189.008   6
  -7  11  16 208.628 174.515   2
  -7 -11  16 18.5289 124.594   6
  11   7 -16-22.2637 76.2719   1
  11   7 -17 710.891 154.446   1
  -7  11  17 858.588 301.876   3
   7 -11 -17 573.230 191.027   5
   7 -11 -17 663.754 155.386   8
   7  11 -17 513.038 204.067   1
  -7 -11  17 856.562 182.301   7
   7  11 -17 924.968 185.957   4
 -11  -7  17 760.563 247.794   6
  -7  11  17 557.637 225.386   2
  -7 -11  17 666.617 184.770   6
  11   7 -18 260.118 153.687   1
  -7  11  18 992.277 323.770   3
   7 -11 -18 1207.82 213.854   5
   7 -11 -18 1092.74 176.558   8
 -11  -7  18 871.897 239.290   7
  11   7 -18 518.543 155.468   4
  -7 -11  18 987.312 178.576   7
   7  11 -18 689.731 197.057   4
  -7  11  18 1299.63 258.399   2
  -7 -11  18 1282.33 207.394   6
 -11  -7  18 1008.57 256.248   6
   7  11 -18 1302.26 243.948   1
  11   7 -19 134.182 103.613   1
  -7  11  19 703.344 302.517   3
   7 -11 -19 417.140 153.060   5
   7 -11 -19 269.061 110.968   8
   7  11 -19 312.559 166.464   4
 -11  -7  19 654.088 228.920   7
   7  11 -19 419.720 223.232   1
  11   7 -19 349.897 112.160   4
  -7 -11  19 590.892 151.382   7
 -11  -7  19 155.298 203.559   6
  -7  11  19 660.887 213.502   2
  -7 -11  19 201.316 137.135   6
  11   7 -20 1030.46 167.042   1
  -7  11  20 815.749 327.850   3
 -11  -7  20 844.963 240.203   7
   7 -11 -20 845.340 200.692   5
   7  11 -20 1186.43 271.902   1
  11   7 -20 356.126 155.031   4
  -7 -11  20 1230.97 184.040   7
   7  11 -20 384.343 207.295   4
 -11  -7  20 684.576 244.881   6
   7 -11 -20 1108.29 173.729   8
  -7  11  20 365.808 234.337   2
  -7 -11  20 326.916 183.098   6
   7 -11 -21 348.456 122.575   8
  11   7 -21 194.947 121.941   1
  -7  11  21 427.520 284.050   3
   7 -11 -21 427.030 145.146   5
 -11  -7  21 601.760 221.430   7
   7  11 -21 377.742 221.344   1
  11   7 -21 329.555 119.150   4
  -7 -11  21 587.391 141.983   7
   7  11 -21 19.6195 164.554   4
 -11  -7  21 174.591 190.647   6
  -7  11  21-28.6466 199.753   2
  -7 -11  21 400.326 140.875   6
  11   7 -22 670.021 139.081   1
  -7  11  22 496.777 289.314   3
   7 -11 -22 617.395 162.245   5
   7 -11 -22 425.082 140.115   8
 -11  -7  22 191.664 204.915   7
   7  11 -22 169.636 252.174   1
  11   7 -22 449.438 134.023   4
  -7 -11  22 504.084 147.598   7
   7  11 -22 577.363 189.020   4
 -11  -7  22 810.766 215.000   6
  -7  11  22 234.341 220.505   2
  -7 -11  22 198.783 150.315   6
  11   7 -23 153.180 112.880   1
   7 -11 -23 333.607 150.146   5
   7 -11 -23 266.414 121.526   8
 -11  -7  23 358.619 213.301   7
   7  11 -23 150.844 215.602   1
  11   7 -23 385.393 126.304   4
  -7 -11  23 353.963 141.029   7
   7  11 -23 374.114 198.763   4
 -11  -7  23 316.022 187.181   6
  -7  11  23-29.8731 206.536   2
  -7 -11  23 72.4052 130.039   6
  11   7 -24 14.3610 113.775   1
  -7  11  24-311.430 271.081   3
   7 -11 -24-70.0277 140.453   5
   7 -11 -24 27.6687 111.766   8
   7  11 -24 95.1257 267.011   1
  11   7 -24 14.2408 114.306   4
 -11  -7  24-221.144 212.899   7
  -7 -11  24 98.8228 136.342   7
   7  11 -24 92.1358 211.888   4
 -11  -7  24 72.3026 186.935   6
  -7  11  24 274.454 281.840   2
  -7 -11  24 305.391 146.416   6
  -7 -11  25 36.0774 121.775   6
 -11  -7  25 503.457 197.920   7
  11   7 -25 14.8192 108.317   1
  11   7 -25 15.3338 131.597   4
  -7 -11  25 118.298 131.564   7
   7  11 -25 72.2026 187.922   4
 -11  -7  25 215.865 177.477   6
   7  11 -25 400.656 253.027   1
  -7 -11  26 89.2221 132.610   6
  11   7 -26 61.6663 121.699   1
 -11  -7  26 56.7198 196.035   7
  -7 -11  26 104.228 138.976   7
   7  11 -26 316.948 265.206   1
  11   7 -26 164.898 129.499   4
   7  11 -26 152.287 212.800   4
 -11  -7  26 287.792 195.175   6
  -7 -11  27-107.449 114.008   6
  11   7 -27 111.302 129.806   1
  11   7 -27 106.195 152.821   4
 -11  -7  27 230.516 192.301   7
   7  11 -27 632.371 305.628   1
   7  11 -27 158.207 212.527   4
  -7 -11  27 268.457 149.693   7
 -11  -7  27 336.524 187.689   6
  -8 -11   1 43.7868 186.058   6
  -8 -11   2 654.696 215.240   6
  -8 -11   3 322.227 174.488   6
   8  11  -3 235.760 88.7494   1
   8  11  -4 29.2900 73.8158   1
  -8 -11   4 115.336 158.474   7
  -8 -11   4 418.708 185.759   6
  -8 -11   5 2365.85 452.638   6
   8  11  -8 224.378 99.9569   1
  -8 -11   8 42.0301 146.575   7
   8  11  -9 695.974 198.703   1
   8  11  -9 1103.32 184.389   4
  -8 -11   9 821.933 224.501   7
  -8 -11   9 1274.04 257.617   6
   8  11 -10 107.063 108.705   1
   8  11 -10 135.510 84.1091   4
  -8 -11  10 19.5230 155.480   7
  -8 -11  10-133.794 192.489   6
  -8 -11  11-171.298 155.125   7
   8  11 -11-40.9526 83.3595   4
   8  11 -11 42.4218 88.9624   1
  -8 -11  11-154.835 183.029   6
  -8 -11  12 315.776 160.610   7
   8  11 -12 344.437 112.938   4
   8  11 -12 299.278 136.775   1
  -8 -11  12 543.555 160.084   6
  -8 -11  13 18.1701 137.930   7
   8  11 -13-45.6735 88.2391   4
   8  11 -13 47.5003 118.894   1
  -8 -11  13 149.438 156.113   6
  -8 -11  14-71.1860 136.112   7
   8  11 -14 24.2578 98.5516   4
   8  11 -14-16.7529 122.095   1
 -11  -8  14 29.2730 224.610   6
  -8 -11  14-127.063 156.694   6
  11   8 -15 33.9436 81.6716   1
   8  11 -15-102.218 106.160   4
 -11  -8  15-200.651 217.653   6
  -8 -11  15-41.6482 150.610   6
  11   8 -16 140.023 91.6822   1
   8  11 -16 286.517 113.346   4
 -11  -8  16 280.111 219.498   6
  -8 -11  16 351.441 154.997   6
  11   8 -17 456.861 104.524   1
   8 -11 -17 362.922 168.419   5
 -11  -8  17 273.335 203.554   7
  -8 -11  17 172.737 144.377   7
  11   8 -17 101.656 92.8917   4
   8  11 -17 316.404 132.635   4
 -11  -8  17 463.828 210.662   6
  -8 -11  17 712.703 163.773   6
   8  11 -17 215.095 153.798   1
  11   8 -18 124.120 97.0508   1
   8 -11 -18 320.382 161.149   5
  -8 -11  18 295.722 152.047   7
 -11  -8  18 136.264 187.136   7
  11   8 -18 169.367 90.0746   4
   8  11 -18 61.3018 122.669   4
 -11  -8  18 106.053 193.763   6
  -8 -11  18 140.752 149.424   6
   8  11 -18-62.1695 160.679   1
   8  11 -19 1251.46 260.928   1
  -8  11  19 1094.76 371.741   3
  11   8 -19 500.889 200.465   1
   8 -11 -19 1373.98 242.240   5
 -11  -8  19 1035.84 273.421   7
  11   8 -19 1230.67 204.217   4
  -8 -11  19 1344.64 237.749   7
   8  11 -19 390.384 215.086   4
 -11  -8  19 1940.32 285.459   6
  -8 -11  19 1443.54 245.158   6
   8  11 -20 22.9061 174.448   1
  -8  11  20 161.774 309.419   3
  11   8 -20 238.488 105.076   1
   8 -11 -20 355.993 164.200   5
 -11  -8  20 54.3776 204.072   7
  11   8 -20 362.433 107.938   4
  -8 -11  20 174.334 132.790   7
   8  11 -20 255.322 145.613   4
 -11  -8  20 76.0214 179.950   6
  -8 -11  20 316.685 149.850   6
   8  11 -21 979.679 249.498   1
  -8  11  21 1990.42 384.629   3
  11   8 -21 385.756 178.890   1
   8 -11 -21 1258.48 230.240   5
 -11  -8  21 1137.41 283.271   7
  11   8 -21 531.859 176.551   4
  -8 -11  21 1371.71 206.097   7
   8  11 -21 989.026 217.217   4
  -8  11  21 832.129 263.163   2
 -11  -8  21 1366.35 262.451   6
  -8 -11  21 453.980 201.692   6
   8  11 -22-74.8738 192.845   1
  -8  11  22 126.052 322.359   3
  11   8 -22 56.8820 99.0936   1
   8 -11 -22 78.0080 143.746   5
  -8 -11  22 17.6275 134.803   7
 -11  -8  22-163.404 196.057   7
  11   8 -22 104.964 108.234   4
   8  11 -22-18.9404 153.798   4
  -8  11  22 28.2478 185.492   2
 -11  -8  22-24.4501 168.103   6
  -8 -11  22-19.5512 132.061   6
   8  11 -23 797.754 249.051   1
  -8  11  23 632.108 347.882   3
  11   8 -23 325.813 150.744   1
   8 -11 -23 503.216 173.885   5
 -11  -8  23 878.544 240.920   7
  -8 -11  23 358.869 178.196   7
  11   8 -23 42.0236 135.919   4
   8  11 -23 588.282 207.906   4
  -8  11  23 258.815 229.495   2
 -11  -8  23 267.736 209.223   6
  -8 -11  23 489.100 170.941   6
   8  11 -24 55.6923 233.334   1
  11   8 -24 30.6023 103.956   1
 -11  -8  24 136.539 185.578   7
  -8 -11  24 183.000 134.821   7
  11   8 -24-14.8015 119.953   4
   8  11 -24 362.201 182.333   4
 -11  -8  24-24.0678 164.382   6
  -8 -11  24 19.4025 132.105   6
   8  11 -25 116.802 220.847   1
  11   8 -25 15.8106 114.275   1
 -11  -8  25-165.823 204.430   7
  -8 -11  25 18.7046 145.018   7
  11   8 -25-126.887 120.838   4
   8  11 -25 68.2067 182.239   4
 -11  -8  25 23.9086 177.522   6
  -8 -11  25 19.4238 132.945   6
   8  11 -26 30.6567 236.391   1
  11   8 -26 82.7117 121.433   1
  -8 -11  26 690.066 168.633   7
  11   8 -26 17.0016 149.975   4
 -11  -8  26 224.282 198.327   7
   8  11 -26 47.5915 187.262   4
 -11  -8  26 95.3272 173.864   6
  -8 -11  26 19.2654 141.793   6
  11   8 -27 68.3992 114.435   1
 -11  -8  27-199.508 205.979   7
  11   8 -27-18.1307 148.588   4
   8  11 -27-252.150 200.809   4
 -11  -8  27 118.855 176.508   6
  11   8 -28 19.3487 156.256   4
 -11  -8  28 263.913 190.136   6
   9  11  -6 451.220 115.875   1
   9  11  -7 10.6112 81.9546   1
  -9 -11   7-198.827 223.527   7
  -9 -11   7-103.585 192.377   6
   9  11  -8 849.466 176.597   1
  -9 -11   8 589.431 252.165   7
  -9 -11   8 1320.92 280.135   6
   9  11  -9 57.5159 90.9214   1
  -9 -11   9 193.806 182.958   7
  -9 -11   9 25.6582 187.284   6
   9  11 -10-12.1654 92.1269   1
   9  11 -10 64.6116 68.6954   4
  -9 -11  10-71.1752 164.573   7
  -9 -11  10 75.7642 170.588   6
   9  11 -11-268.535 96.4241   1
  -9 -11  11 23.1693 159.997   7
   9  11 -11 203.170 77.3769   4
  -9 -11  11 450.144 201.761   6
   9  11 -12 13.4423 90.9710   1
  -9 -11  12-22.1875 143.943   7
   9  11 -12 111.495 83.2188   4
  -9 -11  12 171.132 165.411   6
   9  11 -13 288.860 92.9878   4
   9  11 -13 28.3522 112.138   1
 -11  -9  13 419.938 239.212   6
  -9 -11  13 191.813 193.309   6
  11   9 -13 22.2760 88.3404   1
  11   9 -14 183.674 101.564   1
   9  11 -14 29.9414 103.395   1
  -9 -11  14 280.397 174.178   7
   9  11 -14 169.923 102.715   4
 -11  -9  14 708.927 252.889   6
  -9 -11  14 545.438 189.102   6
  11   9 -15-11.8442 80.3560   1
 -11  -9  15-193.228 199.487   7
   9  11 -15 95.1154 95.3115   4
 -11  -9  15-28.8709 217.558   6
  -9 -11  15 46.4448 168.489   6
  11   9 -16 12.2310 91.4353   1
   9  11 -16-163.810 111.840   1
 -11  -9  16-165.040 202.810   7
  11   9 -16-71.2836 77.3524   4
   9  11 -16 25.2177 106.394   4
 -11  -9  16 28.1040 199.973   6
  -9 -11  16 22.7815 145.369   6
  11   9 -17 100.888 96.1242   1
   9  11 -17-13.2622 105.187   4
 -11  -9  17-54.7852 207.827   7
  11   9 -17 42.3314 86.9665   4
  -9 -11  17 303.222 156.507   7
 -11  -9  17 136.382 197.028   6
   9  11 -17 173.220 126.764   1
  -9 -11  17 338.266 164.449   6
  11   9 -18 574.491 149.496   1
 -11  -9  18 871.721 241.016   7
  11   9 -18 155.059 131.976   4
   9  11 -18 579.659 154.320   4
   9  11 -18 659.625 181.060   1
  -9 -11  18 953.524 201.598   7
 -11  -9  18 1487.12 258.895   6
  -9 -11  18 730.613 192.388   6
  11   9 -19 40.7408 111.849   1
  -9 -11  19 19.9748 133.830   7
 -11  -9  19 54.5053 186.640   7
  11   9 -19 11.6665 90.4119   4
   9  11 -19 30.1449 122.947   4
   9  11 -19 76.1191 136.609   1
 -11  -9  19 259.275 201.813   6
  -9 -11  19 21.9697 148.513   6
  11   9 -20 574.993 145.079   1
 -11  -9  20 1002.61 231.328   7
  11   9 -20 283.254 138.453   4
   9  11 -20 443.743 157.225   4
  -9 -11  20 785.016 197.652   7
   9  11 -20 463.545 190.038   1
 -11  -9  20 1125.49 232.958   6
  -9 -11  20 606.288 190.134   6
   9  11 -21 83.9956 132.770   4
  -9  11  21 48.3870 362.053   3
   9 -11 -21 197.267 164.812   5
  11   9 -21 14.6091 100.833   1
 -11  -9  21 80.3832 190.748   7
  11   9 -21 13.0351 97.2085   4
   9  11 -21 167.694 155.898   1
  -9 -11  21 39.7981 157.685   7
 -11  -9  21 25.0539 159.932   6
  -9 -11  21 21.5558 142.492   6
  -9  11  22 150.759 434.919   3
   9 -11 -22 578.496 204.816   5
  11   9 -22 392.401 155.899   1
   9  11 -22 579.688 188.840   4
 -11  -9  22 593.100 235.991   7
  -9 -11  22 644.356 200.678   7
  11   9 -22 164.439 144.142   4
   9  11 -22 851.160 213.704   1
 -11  -9  22 246.094 204.655   6
  -9 -11  22 744.052 200.198   6
  -9 -11  23-102.087 159.931   7
  11   9 -23 31.6097 121.279   1
 -11  -9  23 81.5175 194.028   7
  11   9 -23-58.4661 121.634   4
   9  11 -23-37.0834 154.743   4
   9  11 -23 69.6135 174.235   1
 -11  -9  23-24.2204 158.273   6
  -9 -11  23-20.9878 146.799   6
  11   9 -24 114.424 116.400   1
 -11  -9  24-161.674 192.488   7
  -9 -11  24-166.082 142.833   7
  11   9 -24-46.8296 130.013   4
   9  11 -24 19.5146 149.307   4
   9  11 -24-24.2083 179.163   1
 -11  -9  24 23.9331 175.783   6
  -9 -11  24-146.743 151.615   6
  11   9 -25-33.8315 125.123   1
 -11  -9  25 109.113 201.001   7
  -9 -11  25 20.7129 147.291   7
  11   9 -25 16.6726 139.541   4
   9  11 -25 20.8990 156.909   4
   9  11 -25 25.2840 190.526   1
 -11  -9  25-310.918 180.880   6
  -9 -11  25 83.1776 146.653   6
  11   9 -26 17.7690 130.941   1
 -11  -9  26 138.432 210.149   7
  11   9 -26-70.0903 141.358   4
   9  11 -26-21.9514 166.022   4
 -11  -9  26-47.4988 155.932   6
 -10 -11   8-198.891 203.697   6
  10  11  -8 10.7020 66.4698   1
  10  11  -9-33.1398 75.6755   1
 -10 -11   9 56.8687 184.909   6
  10  11 -10-68.5167 82.8326   1
 -10 -11  10 79.8420 179.024   7
 -10 -11  10-28.1771 214.754   6
  10  11 -11 414.970 118.457   1
 -10 -11  11 396.325 212.232   7
  10  11 -12-12.3455 92.7015   1
 -10 -11  12 183.176 191.347   7
 -11 -10  12-244.616 240.291   6
 -10 -11  12 137.345 191.289   6
  10  11 -12 9.68914 80.6258   4
  10  11 -13 592.021 158.177   1
 -10 -11  13 594.417 232.514   7
  10  11 -13 546.396 137.471   4
 -11 -10  13 780.841 270.058   6
  11  10 -14 24.0160 88.1653   1
  10  11 -14 10.6274 94.3287   4
 -11 -10  14-83.6989 186.670   7
 -11 -10  14 29.3821 206.356   6
 -10 -11  14 52.4046 191.601   6
  11  10 -15 434.138 126.961   1
  10  11 -15 549.961 127.512   4
 -11 -10  15 500.019 236.236   7
  11  10 -15 477.831 125.309   4
 -11 -10  15 485.938 245.801   6
 -10 -11  15 413.967 220.014   6
  10  11 -16 73.1805 94.2756   1
  11  10 -16 12.8385 93.1958   1
  10  11 -16-70.5954 88.3897   4
 -11 -10  16-27.6336 199.717   7
 -10 -11  16-97.1141 184.964   7
  11  10 -16 84.9586 88.6700   4
 -11 -10  16 112.101 197.667   6
 -10 -11  16 25.2903 204.678   6
  11  10 -17 11.0667 91.0871   4
  11  10 -17 13.2470 92.6463   1
  10  11 -17 107.590 118.638   1
 -10 -11  17 47.5833 170.775   7
  10  11 -17-348.469 104.818   4
 -11 -10  17-164.677 192.131   7
 -11 -10  17 27.2791 201.953   6
 -10 -11  17 149.755 174.757   6
  11  10 -18 13.7810 95.6241   1
  10  11 -18 259.139 119.726   1
 -11 -10  18-27.2098 199.957   7
 -10 -11  18 95.2484 180.340   7
  11  10 -18 34.9622 96.8505   4
  10  11 -18 13.0496 98.7998   4
 -11 -10  18 26.6132 185.571   6
 -10 -11  18 48.8751 176.156   6
  11  10 -19 157.848 104.230   1
 -11 -10  19 272.175 201.123   7
 -10 -11  19 116.756 163.563   7
  10  11 -19 152.694 110.441   4
  11  10 -19 36.8821 96.7984   4
 -11 -10  19 104.834 198.844   6
 -10 -11  19 143.566 179.156   6
  10  11 -19 285.210 132.989   1
  11  10 -20 74.1499 101.606   1
  10  11 -20 248.007 139.294   1
 -11 -10  20 80.5897 184.714   7
 -10 -11  20 140.767 161.338   7
  11  10 -20 64.9834 104.617   4
  10  11 -20-133.202 126.498   4
 -11 -10  20 204.886 179.169   6
 -10 -11  20-402.708 170.574   6
  11  10 -21 77.6060 120.800   1
  10  11 -21 55.1270 130.570   1
 -11 -10  21-80.9228 202.799   7
 -10 -11  21 69.2990 198.138   7
  11  10 -21 13.6421 109.162   4
  10  11 -21 124.255 130.046   4
 -11 -10  21 100.304 189.946   6
 -10 -11  21 186.292 174.514   6
  11  10 -22 32.1116 115.843   1
 -10 -11  22-23.2972 171.195   7
  10  11 -22-305.136 161.219   1
 -11 -10  22 186.444 185.647   7
  11  10 -22 29.0373 114.756   4
  10  11 -22-198.220 132.638   4
 -11 -10  22 73.8096 158.594   6
 -10 -11  22-115.635 159.170   6
  10  11 -23-20.1611 138.121   1
 -10 -11  23 23.5453 178.182   7
  11  10 -23 166.121 130.701   1
  11  10 -23 15.4684 113.286   4
  10  11 -23-86.3570 139.024   4
 -11 -10  23 26.8497 185.476   7
 -11 -10  23 73.2336 172.989   6
 -10 -11  23 136.815 161.606   6
  11  10 -24-17.4562 130.621   1
 -11 -10  24 27.1298 204.461   7
  10  11 -24 20.9564 144.722   1
 -10 -11  24-23.3425 173.992   7
  11  10 -24-162.657 134.963   4
  10  11 -24 18.2386 143.369   4
 -11 -10  24 72.2465 174.753   6
 -10 -11  24-22.4708 157.184   6
  11  10 -25 189.927 138.567   4
 -11 -10  25-23.8044 167.358   6
 -11 -11  11-122.543 218.766   6
  11  11 -12 694.937 166.781   1
 -11 -11  12 1359.38 302.623   6
  11  11 -13-12.1569 95.8643   1
  11  11 -13 19.4369 75.0928   4
 -11 -11  14 3061.81 576.832   6
  11  11 -15 31.7355 83.9885   4
 -11 -11  15-85.1344 196.778   6
  11  11 -16 281.638 119.301   1
 -11 -11  16 277.656 208.928   7
  11  11 -16 322.507 103.182   4
 -11 -11  16 531.092 225.120   6
  11  11 -17-13.9511 105.944   1
 -11 -11  17-164.927 191.443   7
  11  11 -17 104.647 95.9209   4
 -11 -11  17-381.962 197.968   6
  11  11 -18 72.6482 115.734   1
 -11 -11  18-137.268 191.194   7
  11  11 -18 12.2719 91.1533   4
 -11 -11  18 26.6131 182.951   6
  11  11 -19 15.0080 127.868   1
 -11 -11  19 81.1409 220.969   7
  11  11 -19 12.9716 107.657   4
 -11 -11  19 26.2460 203.497   6
  11  11 -20-62.8362 114.942   1
 -11 -11  20-189.727 213.753   7
  11  11 -20-176.901 112.949   4
 -11 -11  20 25.6619 182.619   6
 -11 -11  21-186.924 185.560   7
  11  11 -21-101.283 115.494   4
  11  11 -21-16.2403 127.354   1
 -11 -11  21-25.1163 181.915   6
  11  11 -22-477.632 136.723   1
 -11 -11  22 26.8595 195.498   7
  11  11 -22-15.1994 116.528   4
 -11 -11  22 24.8567 173.311   6
  11  11 -23-436.255 149.789   4
 -11 -11  23-97.8076 188.292   6
   0  12   0 1161.29 285.940   3
   0  12   0 1423.89 301.499   2
   0 -12   0 1336.61 255.045   5
   0 -12   0 1300.42 240.112   8
   0 -12   0 1314.90 239.970   7
   0 -12   0 1564.10 246.544   6
   0  12   0 1502.48 263.348   4
   0 -12   1-71.3652 67.8949   6
   0  12  -1-20.8711 142.199   2
   0  12  -1-96.7700 144.770   3
   0  12   1 79.5089 158.803   3
   0  12   1 45.2767 168.709   2
   0 -12   1-88.9054 90.6842   5
   0 -12  -1 135.624 93.2464   5
   0 -12   1-29.2442 59.5390   8
   0 -12  -1 46.1138 61.9997   8
   0 -12   1 16.0956 61.9593   7
   0  12   1 25.5133 98.2091   4
   0  12  -1 27.2431 104.500   4
   0 -12   2 1598.91 366.259   5
   0 -12  -2 2183.99 364.781   5
   0  12   2 1908.70 391.367   3
   0 -12  -2 2194.33 355.745   8
   0  12   2 2134.31 402.602   2
   0 -12   2 2574.49 353.890   8
   0 -12   2 1859.15 355.428   7
   0  12  -2 2223.95 370.507   4
   0 -12   2 1837.85 359.526   6
   0  12  -2 1596.36 386.030   2
   0 -12   3-10.6723 60.8817   6
   0  12   3-40.5243 154.423   3
   0 -12   3-118.645 108.133   5
   0 -12  -3-48.2629 84.5242   5
   0  12   3-23.6800 183.004   2
   0 -12   3-7.29279 58.2846   8
   0 -12   3-51.8965 62.9474   7
   0  12  -3-87.2625 110.895   4
   0  12  -3 208.792 147.734   2
   0 -12  -3-25.2501 66.1052   8
   0  12   4 8575.53 1353.77   3
   0 -12   4 8506.00 1339.50   5
   0 -12  -4 7665.77 1330.61   8
   0  12  -4 7857.48 1341.16   4
   0  12  -4 7886.37 1351.46   2
   0  12   4 8697.54 1361.34   2
   0 -12   4 7988.10 1333.83   6
   0 -12  -5-55.8812 76.4382   8
   0 -12   5 11.2228 71.2903   6
   0 -12   5 41.4983 108.058   5
   0  12   5-100.886 160.732   3
   0 -12  -5-35.5151 86.6702   5
   0 -12   5 9.43232 69.1050   7
   0  12   5-24.2509 181.450   2
   0  12  -5-155.852 119.641   4
   0 -12  -6 12043.3 1932.08   5
   0 -12  -6 11607.9 1928.40   8
   0  12  -6 10486.0 1936.31   4
   0  12   6 13477.9 1957.40   2
   0 -12   7 35.3442 70.7477   6
   0  12   7-79.2073 151.376   3
   0 -12  -7-11.7552 77.9177   5
   0 -12  -7-20.8609 78.8852   8
   0  12   7-269.667 200.258   2
   0 -12   7 71.5079 62.7389   7
   0  12  -7-33.2908 125.886   4
   0 -12  -8 11462.9 1859.03   5
   0 -12  -8 10311.0 1856.47   8
   0  12  -8 12746.3 1869.45   4
   0  12   8 12379.4 1883.32   2
   0 -12   8 10794.3 1857.57   6
   0 -12   9 49.4950 71.3135   6
   0  12   9 19.2984 138.937   3
   0 -12  -9-35.3788 93.6496   5
   0  12   9 99.2949 185.019   2
   0 -12  -9-11.7663 97.6425   8
   0 -12   9 98.4218 83.9479   7
   0  12  -9-106.525 127.312   4
   0  12  10 4136.80 745.460   3
   0 -12 -10 4298.64 731.045   5
   0  12 -10 4439.59 745.431   4
   0 -12  10 4829.80 731.320   7
   0 -12  10 3988.05 729.952   6
   0 -12  11-168.897 81.8010   6
   0 -12  11 35.1169 86.8425   7
   0  12 -11 150.989 140.288   4
   0 -12 -12 986.473 203.328   8
   0  12  12 715.465 274.596   2
   0 -12 -13 124.346 86.6508   5
   0  12  13 36.7402 125.456   3
   0 -12  13-12.3994 85.2946   7
   0  12  14 595.444 150.736   3
   0  12  14-26.0837 196.996   2
   0 -12  14 357.594 119.618   7
   0 -12 -14 395.228 113.091   5
   0  12 -14 266.048 167.956   4
   0 -12 -15 320.127 140.194   8
   0 -12 -15 131.490 115.816   5
   0  12  15 36.1494 133.411   3
   0 -12  15 13.1636 106.240   7
   0  12  16 2559.44 421.512   3
   0 -12 -16 2603.44 414.258   5
   0 -12 -16 2031.48 417.362   8
   0  12  16 1859.93 459.894   2
   0 -12 -17 42.1499 105.118   5
   0 -12 -17-16.5190 137.036   8
   0  12  17-54.3912 119.052   3
   0  12  17 192.600 219.826   2
   0 -12 -18 4029.61 709.606   5
   0  12  18 4610.72 752.510   2
   0 -12 -19 34.6705 131.134   8
   0 -12 -19-45.3451 115.992   5
   0  12  19 91.2687 113.364   3
   0  12  19-28.7446 229.663   2
   0  12  20 5389.01 906.468   3
   0 -12 -20 5331.41 903.970   5
   0 -12 -21 16.8471 124.282   5
   0 -12 -21 18.1591 166.673   8
   0  12  21 18.3888 117.944   3
   0  12  21 209.714 226.652   2
   0 -12 -22 3244.95 481.019   5
   0 -12 -22 3063.57 489.847   8
   0  12  22 1656.32 466.998   3
   0  12  22 3527.21 538.737   2
   0 -12 -23-94.0920 134.430   5
   0 -12 -23 113.834 162.094   8
   0  12  23-75.5990 121.139   3
   0  12  23 31.4212 221.632   2
   0 -12 -24 1704.04 312.756   8
   0  12  24 1591.61 292.895   3
   0 -12 -24 1391.85 303.607   5
   0  12  24 1034.28 361.207   2
   0 -12 -25-79.0381 161.137   8
   0 -12 -25 41.7035 157.931   5
   0  12  25 19.3419 122.307   3
   0  12  25-430.564 247.892   2
   0 -12 -26 181.244 166.389   8
   0 -12 -26 43.7640 160.803   5
   0  12  26 117.259 130.073   3
   0  12  26 271.438 244.173   2
   0 -12 -27 19.8715 165.575   8
   0 -12 -27-92.6186 160.810   5
   0  12  27-20.0880 133.461   3
   0  12  27-278.063 257.250   2
   0 -12 -28 303.346 179.598   8
   0 -12 -28 338.532 179.127   5
   0  12  28 207.671 136.978   3
   0 -12 -29-61.6493 176.165   8
   0  12  29-513.781 264.912   2
   0  12  29-42.9059 133.992   3
   0  12  30 413.543 292.260   2
  -1 -12   0 83.0011 65.7236   6
   1  12   0 238.300 146.890   3
   1 -12   0 61.7008 113.900   5
  -1 -12   0 187.799 81.1987   5
   1  12   0 21.8324 167.354   2
   1 -12   0 241.767 60.9749   8
  -1 -12   0 178.548 67.2241   8
  -1 -12   0 81.3418 59.6826   7
   1 -12   0 143.292 67.9623   7
   1  12   0 46.8855 98.8557   4
  -1  12   0 147.736 150.054   2
  -1 -12  -1 551.471 114.583   6
  -1 -12   1 677.890 119.203   6
  -1  12   1 488.094 184.507   2
   1  12   1 465.164 144.009   1
   1  12  -1 442.678 189.005   3
   1 -12   1 772.453 154.925   5
   1 -12  -1 385.633 144.339   5
   1  12   1 294.228 170.604   3
   1  12  -1 127.452 183.076   2
  -1 -12   1 684.085 125.890   5
  -1 -12  -1 432.997 118.311   5
  -1 -12   1 577.459 111.790   8
   1 -12   1 472.653 111.554   8
  -1 -12  -1 485.487 117.697   8
   1  12   1 511.958 193.657   2
  -1 -12  -1 565.250 111.175   7
  -1 -12   1 399.806 110.793   7
   1 -12   1 580.465 111.827   7
   1  12   1 471.348 134.605   4
   1  12  -1 719.094 143.243   4
   1 -12  -1 534.567 110.176   8
  -1  12  -1 808.543 183.766   2
  -1 -12   2 116.878 62.1917   6
  -1  12   2 23.1146 153.767   2
   1  12  -2 20.5770 161.147   2
   1  12  -2-18.2569 155.593   3
   1 -12   2 264.927 130.342   5
   1 -12  -2 57.2766 105.519   5
   1  12   2-18.4114 132.108   3
  -1 -12   2 92.9221 76.9120   5
  -1 -12  -2 41.6428 81.7640   5
   1 -12   2 105.638 58.3510   8
  -1 -12  -2 8.93436 75.0378   8
   1  12   2-248.049 189.179   2
   1 -12  -2 147.821 64.3091   8
  -1 -12   2 104.570 64.3493   7
   1 -12   2 64.3465 67.9683   7
   1  12  -2 116.288 98.5934   4
  -1  12  -2 96.4661 129.743   2
  -1 -12   2 64.4197 61.1498   8
   1  12  -3 3315.10 638.211   3
   1  12   3 3541.79 636.634   3
   1 -12   3 4600.85 638.307   5
  -1 -12   3 3893.58 617.176   5
  -1 -12  -3 3608.32 617.138   5
  -1 -12   3 3219.37 610.465   8
   1 -12  -3 3959.81 613.671   8
   1  12  -3 3944.51 641.458   2
  -1  12   3 3940.72 655.285   2
   1  12   3 2928.16 653.144   2
  -1 -12   3 3421.44 614.572   6
  -1  12   3 4387.73 651.680   3
  -1 -12   4 61.4337 70.3397   6
  -1  12   4-85.5670 167.652   3
   1  12  -4 53.1882 142.235   3
   1 -12   4 90.6443 136.245   5
  -1  12   4-220.276 187.200   2
   1 -12  -4-27.4964 97.9539   5
  -1 -12   4-31.2303 76.9521   5
   1  12   4 90.1671 143.265   3
  -1 -12  -4 106.472 80.4652   5
  -1 -12   4 105.781 56.6746   8
   1  12   4 68.2838 175.336   2
  -1 -12  -4 50.4307 84.8851   8
  -1 -12   4 89.2083 72.9046   7
   1 -12   4 83.0072 76.1170   7
   1  12  -4 28.3959 110.992   4
   1 -12  -4-49.1820 65.7750   8
   1  12  -4-148.020 147.947   2
   1  12   5 8563.12 1246.22   3
   1 -12   5 7922.89 1244.90   5
   1 -12  -5 6718.50 1233.16   5
  -1 -12  -5 7139.77 1228.00   5
   1 -12  -5 7774.52 1225.82   8
  -1 -12  -5 6669.06 1228.72   8
   1  12  -5 7307.29 1235.85   4
   1 -12   5 9139.73 1232.53   7
   1  12  -5 7546.31 1241.46   2
  -1  12   5 7303.43 1257.13   2
  -1 -12   5 6337.26 1226.27   6
   1  12   5 8002.24 1255.48   2
  -1  12   5 7414.34 1251.78   3
  -1 -12   6 128.710 65.9949   6
  -1  12   6-86.2739 156.533   3
   1 -12   6 41.3478 142.164   5
   1 -12  -6 79.9862 93.3155   5
   1  12   6 70.4956 126.916   3
  -1  12   6 50.6863 194.464   2
  -1 -12  -6 32.4492 77.6472   5
  -1 -12  -6-34.2896 91.9950   8
   1 -12  -6 8.97925 65.7810   8
   1  12   6 23.0856 171.446   2
  -1 -12   6-19.2077 70.3397   7
   1 -12   6 34.2140 80.5309   7
   1  12  -6-77.9018 125.345   4
   1  12   7 10752.4 1976.68   3
  -1 -12  -7 11320.4 1967.27   5
   1 -12  -7 11484.9 1965.53   8
  -1 -12  -7 12442.5 1970.65   8
   1  12  -7 12230.6 1977.44   4
   1 -12   7 13919.9 1972.66   7
  -1  12   7 11910.5 1993.96   2
  -1 -12   7 11697.0 1967.17   6
  -1 -12   8-11.2437 75.2279   6
  -1  12   8-42.8841 151.217   3
   1 -12  -8 39.0145 75.3538   5
  -1 -12  -8-11.1465 71.7624   5
   1  12   8 52.5773 123.083   3
  -1  12   8-77.7297 201.550   2
  -1 -12  -8-89.0808 97.6293   8
   1 -12  -8 116.673 81.1330   8
   1  12   8-46.5000 170.662   2
  -1 -12   8-29.9289 77.3410   7
   1 -12   8 37.3046 86.9630   7
   1  12  -8-16.7673 124.021   4
  -1  12   9 5934.83 1043.50   3
   1  12   9 7205.40 1037.84   3
   1 -12  -9 5949.19 1025.62   5
  -1 -12  -9 5857.44 1023.39   5
   1  12  -9 5697.83 1037.37   4
   1 -12   9 6429.03 1026.98   7
  -1 -12  10-35.5721 75.3231   6
  -1  12  10 21.0222 158.081   3
   1 -12 -10-25.6321 87.3832   5
   1  12  10 51.3334 114.297   3
  -1 -12  10 20.9328 81.6258   7
   1 -12  10 254.529 94.8941   7
  -1 -12 -10 93.1044 90.3496   5
   1  12 -10 180.730 145.596   4
  -1 -12  11 1484.33 262.137   6
   1  12 -11 1342.88 286.525   4
  -1 -12 -12-80.0908 124.865   8
  -1  12  13 360.915 141.732   3
   1 -12 -13 536.861 107.578   5
   1  12  13 17.0293 116.235   3
  -1 -12 -13 102.024 109.242   5
  -1 -12 -13 328.839 147.309   8
  -1 -12  13 294.485 104.999   7
  -1 -12  14 13.1137 84.0607   6
   1 -12 -14 90.1685 88.9864   5
  -1  12  14 79.9261 127.384   3
  -1 -12 -14-119.029 93.3237   5
   1 -12 -14-76.6129 105.320   8
   1  12  14 34.3452 108.367   3
  -1  12  14 54.5359 211.410   2
  -1 -12  14 104.709 92.7003   7
   1  12 -14 165.062 156.637   4
  -1 -12  15 498.501 150.048   6
  -1  12  15 764.140 199.193   3
   1 -12 -15 536.737 154.358   5
   1 -12 -15 510.059 164.933   8
  -1 -12 -15 753.976 161.664   5
  -1 -12  15 502.212 144.331   7
   1  12 -15 850.003 237.575   4
   1  12  15 728.248 175.606   3
  -1 -12  16 41.4334 88.8861   6
  -1  12  16 195.340 141.424   3
   1 -12 -16 54.9144 110.017   8
  -1 -12 -16-91.7693 150.174   8
   1  12  16-51.7644 109.743   3
  -1  12  16 223.771 212.479   2
  -1 -12 -16 128.266 118.170   5
  -1 -12  16 61.5160 90.0241   7
   1  12 -16-87.5763 162.168   4
   1 -12 -16 92.6778 94.5380   5
  -1  12  17 1767.06 315.158   3
  -1 -12  17 848.899 277.622   6
   1 -12 -17 1655.38 293.227   5
  -1 -12 -17 1772.77 297.551   5
   1 -12 -17 2320.84 305.763   8
  -1 -12 -17 1438.53 325.046   8
   1  12  17 957.943 291.906   3
  -1  12  17 1753.33 378.177   2
  -1 -12  18-14.5221 93.6643   6
  -1 -12 -18 15.8981 101.481   5
   1 -12 -18-125.873 100.020   5
   1 -12 -18-162.670 123.529   8
   1  12  18-87.8847 117.734   3
  -1  12  18 259.164 220.984   2
  -1  12  18-154.085 138.194   3
  -1 -12 -18 59.7554 168.271   8
  -1 -12  18 104.489 97.5026   7
   1  12 -18-23.0674 157.964   4
  -1  12  19 4101.82 700.452   3
   1  12  19 3794.89 696.840   3
   1 -12 -19 4579.39 693.635   5
  -1 -12 -19 4291.45 697.288   5
   1 -12 -19 4046.13 694.986   8
  -1 -12 -19 4321.90 709.414   8
  -1  12  19 4021.39 742.210   2
   1  12 -19 3013.79 705.617   4
   1  12  20-53.1442 117.034   3
   1 -12 -20-139.730 118.012   8
  -1 -12 -20 35.5134 129.992   5
  -1  12  20-19.3788 130.406   3
  -1 -12 -20 166.823 169.399   8
   1 -12 -20-134.449 113.566   5
  -1  12  20 269.514 243.178   2
  -1  12  21 3372.42 520.035   3
   1 -12 -21 2754.75 504.657   5
  -1 -12 -21 3554.94 520.518   5
   1 -12 -21 3675.73 517.420   8
  -1 -12 -21 2790.33 527.221   8
   1  12  21 1832.81 499.651   3
  -1  12  21 2640.74 558.954   2
   1 -12 -22-48.8536 116.128   5
   1 -12 -22 32.6014 135.491   8
  -1 -12 -22-351.182 140.702   5
  -1  12  22 19.5954 131.998   3
   1  12  22-54.0358 115.710   3
  -1  12  22 279.166 258.207   2
  -1 -12 -22 65.1970 176.636   8
   1 -12 -23 2078.62 346.078   5
  -1 -12 -23 1749.06 383.204   8
  -1 -12 -23 2267.29 367.327   5
  -1  12  23 1966.24 421.990   2
  -1  12  23 1762.75 347.686   3
   1  12  23 1523.57 342.762   3
   1 -12 -23 1786.20 351.006   8
   1 -12 -24-18.1762 129.789   5
   1 -12 -24 34.1914 154.094   8
  -1 -12 -24-90.1360 191.918   8
  -1  12  24-39.6896 131.547   3
  -1 -12 -24-64.9192 142.765   5
  -1  12  24 32.4473 238.179   2
   1  12  24 56.3164 123.259   3
   1 -12 -25 154.553 158.707   5
   1 -12 -25 17.5006 155.164   8
  -1 -12 -25 110.817 190.851   8
  -1 -12 -25 341.399 176.293   5
  -1  12  25 178.929 139.984   3
  -1  12  25 66.4287 269.878   2
   1  12  25 171.664 127.571   3
   1 -12 -26-17.9052 147.167   8
  -1 -12 -26 44.9805 181.419   8
  -1 -12 -26 47.5130 163.295   5
  -1  12  26 20.2549 129.744   3
   1 -12 -26 101.234 146.312   5
  -1  12  26-34.2721 272.913   2
   1  12  26-118.064 127.310   3
   1 -12 -27 219.718 161.514   8
   1 -12 -27 21.3851 154.261   5
  -1 -12 -27 22.7867 179.955   8
  -1  12  27 35.1155 253.964   2
  -1  12  27 163.295 132.456   3
   1  12  27-81.8846 135.428   3
   1 -12 -28 91.2422 144.506   8
   1 -12 -28 157.045 162.253   5
  -1  12  28 143.974 274.250   2
  -1  12  28 20.9272 132.161   3
  -1 -12 -28-184.483 185.536   8
   1 -12 -29 316.950 174.544   8
   1 -12 -29 355.908 186.508   5
  -1 -12 -29 315.865 196.935   8
  -1  12  29-36.9161 269.851   2
  -1  12  29 170.342 154.355   3
   1 -12 -30-99.1006 182.656   5
  -1  12  30 76.2143 291.374   2
  -1  12  30-22.0797 143.690   3
   2 -12   0 96.7662 139.809   5
   2  12   0 105.911 112.457   1
   2  12   0 81.2130 124.484   3
  -2 -12   0 109.354 72.0068   5
  -2 -12   0 105.498 77.0426   8
   2 -12   0 101.150 57.5204   8
  -2 -12   0 33.1482 66.3045   7
   2 -12   0 80.4605 74.4188   7
   2  12   0 30.2752 86.6917   4
  -2  12   0 204.246 140.221   2
  -2 -12   0 186.709 71.6962   6
   2 -12   1 100.658 151.628   5
   2 -12  -1 72.9194 134.696   5
   2  12  -1 64.9720 127.623   3
   2  12   1 178.612 130.125   3
  -2 -12   1 214.701 82.7848   5
  -2 -12  -1 65.2398 78.2489   5
   2 -12  -1 257.633 73.8271   8
   2  12  -1 249.049 175.558   2
  -2 -12  -1 246.980 89.5452   8
   2  12   1 463.297 191.989   2
  -2 -12  -1 151.563 76.4978   7
  -2 -12   1 40.9689 67.6333   8
  -2 -12   1 241.113 75.4534   7
   2  12   1 132.351 80.8719   4
   2  12   1 271.405 108.117   1
   2 -12   1 173.075 86.2569   7
   2  12  -1 137.338 89.4741   4
   2  12  -1 57.1324 106.322   1
  -2  12   1-85.1806 155.988   2
  -2 -12  -1 172.117 74.6803   6
  -2 -12   1 120.978 79.8730   6
  -2 -12   2 75.5381 72.5679   8
   2 -12   2 258.771 161.454   5
   2 -12  -2 138.245 135.170   5
   2  12  -2 275.945 145.742   3
  -2 -12   2 255.042 78.3670   5
   2  12  -2 243.879 177.376   2
   2  12   2 194.597 132.271   3
  -2 -12  -2 152.735 78.6327   5
   2 -12  -2 189.124 69.1633   8
  -2 -12  -2 92.3595 92.9138   8
   2  12   2 464.932 190.682   2
   2  12   2 202.891 108.260   1
  -2 -12   2 141.999 77.6220   7
   2  12   2 203.320 84.6649   4
   2 -12   2 230.700 98.4815   7
   2  12  -2 191.377 91.8485   4
   2  12  -2 121.322 120.607   1
  -2  12   2 89.1324 154.495   2
  -2 -12   2 175.605 85.3041   6
  -2  12   3 139.332 170.656   2
   2  12  -3 175.096 123.358   1
   2 -12   3 324.527 171.009   5
   2 -12  -3 98.9759 116.610   5
   2 -12  -3 112.012 64.4217   8
   2  12  -3 276.543 156.362   2
   2  12  -3-32.4194 131.890   3
  -2 -12   3 138.253 72.6700   5
   2  12   3 64.7860 123.260   3
  -2 -12  -3 183.889 79.8597   5
  -2 -12   3 162.981 68.5452   8
  -2 -12  -3 211.351 99.7577   8
   2  12   3 191.562 178.527   2
  -2 -12   3 59.8807 72.8516   7
   2 -12   3 157.448 95.0088   7
   2  12  -3 35.9335 101.033   4
  -2 -12   3 211.147 81.6043   6
   2  12  -4 2393.72 415.954   3
   2  12   4 2459.67 408.229   3
  -2  12   4 2131.96 435.659   2
  -2 -12   4 2157.58 386.421   5
  -2 -12  -4 2506.24 390.084   5
   2  12  -4 2135.66 421.636   2
   2 -12   4 2851.17 448.924   5
   2 -12  -4 1487.90 403.379   5
  -2 -12   4 2383.85 385.340   8
  -2 -12  -4 2709.69 400.234   8
  -2 -12   4 2156.95 386.084   7
   2  12  -4 2341.71 400.247   4
   2 -12   4 2352.83 397.488   7
   2 -12  -4 2061.72 385.556   8
   2  12   4 2151.52 429.471   2
  -2 -12   4 2265.10 390.733   6
   2  12   5-48.4002 109.938   3
  -2  12   5-24.8314 164.599   2
   2 -12  -5-62.3384 107.143   5
  -2 -12  -5-12.8913 102.339   8
  -2 -12   5 63.0024 68.0974   7
   2  12   5 128.969 166.069   2
   2  12  -5 81.0271 103.984   4
   2 -12  -5-16.5994 65.0345   8
  -2 -12  -5 20.3319 68.6711   5
  -2 -12   5 11.0967 72.1777   6
   2  12   6 6310.92 942.426   3
   2 -12  -6 5249.80 937.464   5
  -2 -12  -6 6092.26 929.217   5
  -2 -12  -6 5923.95 935.955   8
  -2 -12   6 5813.09 927.536   7
   2  12  -6 5894.95 937.210   4
   2 -12  -6 5179.47 924.922   8
  -2  12   6 4137.59 959.149   2
  -2 -12   6 5285.17 928.564   6
  -2  12   6 5138.62 956.292   3
  -2  12   7 250.179 168.967   3
  -2  12   7-130.161 191.179   2
   2 -12  -7-29.2733 112.053   5
  -2 -12  -7 194.705 83.7841   5
   2 -12  -7 87.6360 70.9511   8
   2  12   7-32.2232 107.963   3
  -2 -12  -7-14.5316 115.118   8
  -2 -12   7 9.54135 68.6681   7
   2  12  -7 15.1406 127.977   4
  -2 -12   7-23.0140 66.9465   6
   2  12   8 4967.26 869.962   3
   2 -12  -8 4983.92 869.448   5
  -2 -12  -8 5685.29 864.790   5
  -2 -12  -8 4554.79 871.367   8
   2 -12  -8 5565.88 859.351   8
  -2 -12   8 5931.57 861.834   7
   2  12  -8 3601.77 871.362   4
  -2  12   8 4740.03 896.612   2
  -2  12   8 5112.92 889.760   3
  -2 -12   9 71.2099 77.6590   6
  -2  12   9-22.9559 177.436   3
   2 -12  -9 226.915 107.262   5
  -2 -12  -9 81.0593 90.8534   5
   2  12   9 144.220 108.866   3
  -2 -12  -9-164.094 134.978   8
  -2 -12   9 151.910 81.9301   7
   2  12  -9 198.663 125.752   4
  -2 -12  10 601.189 162.364   6
  -2  12  10 669.559 224.712   3
   2  12  10 1243.69 196.874   3
   2 -12 -10 678.545 171.621   5
  -2 -12 -10 781.922 167.840   5
  -2 -12  10 973.440 163.509   7
   2  12 -10 695.825 202.705   4
  -2 -12  11 12.1691 82.9409   6
   2  12 -11 18.2698 138.188   4
  -2 -12 -12 210.026 152.447   8
  -2  12  13-22.4522 143.652   3
   2 -12 -13 214.675 101.896   5
  -2  12  13 56.0950 199.844   2
   2 -12 -13 119.554 87.7527   8
  -2 -12 -13 13.6222 101.173   5
  -2 -12 -13 60.7333 165.344   8
   2  12  13-49.5429 105.476   3
  -2 -12  13 103.245 83.2127   7
  -2 -12  14-25.6352 84.8221   6
  -2  12  14-198.117 212.593   2
  -2  12  14 65.9486 174.609   3
   2 -12 -14-79.8127 95.5976   5
   2 -12 -14-79.3936 95.9970   8
   2  12  14-82.1436 115.572   3
  -2 -12  14 35.2338 83.7836   7
  -2 -12 -14-28.6293 106.091   5
   2  12 -14-122.902 163.253   4
  -2 -12 -14 20.8229 164.866   8
  -2 -12  15-65.5248 82.7548   6
  -2  12  15-473.741 169.684   3
  -2 -12 -15-120.309 115.240   5
   2 -12 -15 53.6915 113.037   5
  -2  12  15-200.698 245.194   2
   2 -12 -15 71.1305 102.311   8
   2  12  15-66.1974 113.949   3
  -2 -12  15-12.0344 96.9601   7
   2  12 -15-402.379 198.442   4
  -2 -12  16 550.005 121.020   6
  -2 -12 -16 480.573 143.616   5
  -2  12  16 300.824 166.430   3
   2 -12 -16 534.232 122.660   8
  -2  12  16 434.211 240.492   2
   2  12  16 66.7618 124.710   3
  -2 -12  16 536.519 122.783   7
   2  12 -16 502.405 186.568   4
   2 -12 -16 243.045 125.552   5
  -2 -12  17-13.7384 86.2873   6
  -2  12  17 273.901 155.795   3
   2 -12 -17 13.7232 100.026   5
   2 -12 -17 38.1477 100.442   8
  -2 -12 -17 201.829 131.483   5
  -2 -12 -17 139.425 189.678   8
  -2  12  17-88.1484 226.580   2
   2  12  17 16.8782 110.514   3
  -2 -12  17 162.748 92.1135   7
   2  12 -17 225.116 171.974   4
  -2 -12  18 983.679 264.381   6
   2 -12 -18 1512.28 266.237   8
   2 -12 -18 1673.33 270.949   5
  -2 -12 -18 1428.77 286.732   5
  -2  12  18 1277.24 366.079   2
  -2 -12 -18 1452.34 324.227   8
  -2 -12  18 1673.41 267.593   7
   2  12  18 1366.70 272.263   3
  -2  12  18 1663.89 298.725   3
   2  12 -18 787.855 305.018   4
  -2 -12  19-71.9334 92.6345   6
   2 -12 -19-68.4607 112.206   8
  -2  12  19-211.510 223.497   2
   2  12  19 17.0874 111.656   3
  -2 -12 -19 24.3638 191.467   8
   2 -12 -19-14.0780 102.952   5
  -2 -12 -19 221.903 135.746   5
   2  12 -19 23.8031 178.715   4
  -2  12  19-20.6493 142.569   3
   2 -12 -20 2230.74 342.061   5
   2 -12 -20 2401.63 346.743   8
  -2  12  20 2276.21 418.130   2
  -2 -12 -20 2286.47 356.144   5
  -2 -12 -20 1916.33 388.916   8
   2  12  20 920.224 335.135   3
  -2 -12  20 1782.32 335.100   6
   2  12 -20 1097.18 370.846   4
  -2  12  20 2020.22 356.966   3
  -2 -12  21-75.3946 97.5761   6
   2  12  21 141.635 116.249   3
   2 -12 -21-89.7099 111.439   5
   2 -12 -21-57.6460 130.893   8
  -2  12  21-41.0735 135.489   3
  -2 -12 -21 25.3758 212.382   8
  -2 -12 -21 41.0060 126.617   5
  -2  12  21-62.6935 247.988   2
  -2 -12  21 14.0987 105.475   7
   2  12 -21 99.8920 198.221   4
  -2 -12  22 1268.19 269.994   6
   2 -12 -22 1548.50 274.640   5
  -2  12  22 1295.53 292.069   3
  -2 -12 -22 1471.69 337.839   8
  -2 -12 -22 1293.47 300.794   5
  -2  12  22 254.538 332.055   2
   2 -12 -22 1301.44 281.916   8
   2  12  22 1701.03 282.075   3
  -2 -12  22 1946.91 281.998   7
   2  12 -22 1429.46 323.137   4
   2 -12 -23 32.0531 128.530   5
   2 -12 -23-15.1854 127.917   8
  -2 -12 -23 101.857 200.157   8
  -2  12  23 375.256 151.910   3
  -2  12  23 32.4933 236.709   2
  -2 -12 -23 22.5146 160.159   5
   2  12  23 55.2274 118.005   3
  -2 -12  23 15.2692 109.994   7
   2  12 -23-467.714 194.414   4
   2 -12 -24 280.606 137.614   8
  -2 -12 -24 25.8111 208.578   8
  -2  12  24 125.046 134.791   3
  -2  12  24-166.010 241.401   2
  -2 -12  24 174.064 138.864   7
   2  12  24 266.774 126.716   3
   2 -12 -24 118.069 127.095   5
   2 -12 -25-96.0443 144.672   8
   2 -12 -25-194.614 146.500   5
  -2 -12 -25-26.1140 243.865   8
  -2  12  25-101.879 268.668   2
  -2  12  25-417.163 142.332   3
   2  12  25-118.946 146.031   3
  -2  12  26 34.7685 267.976   2
   2 -12 -26-357.464 149.597   5
   2 -12 -26-131.482 143.898   8
  -2 -12 -26 26.3595 223.407   8
  -2  12  26-105.813 144.567   3
   2 -12 -27 84.3664 143.028   8
   2 -12 -27 19.7647 146.338   5
  -2  12  27 286.344 263.820   2
  -2  12  27-63.7077 151.148   3
  -2  12  28 183.481 287.445   2
  -2  12  28-43.3585 141.731   3
   2 -12 -28 188.483 147.775   5
   2 -12 -28-86.6284 142.925   8
   2 -12 -29 66.3502 160.487   5
   2 -12 -29-17.7819 143.927   8
  -2  12  29 37.6587 286.875   2
  -2  12  29 21.8936 143.078   3
   3 -12   0 94.3310 155.638   5
  -3 -12   0-26.4132 62.7731   5
   3  12   0 12.2354 89.2343   1
   3  12   0-87.9763 109.773   3
  -3 -12   0-52.4909 90.7905   8
  -3 -12   0-50.5300 75.7318   7
   3  12   0-137.118 161.559   2
   3  12   0 35.7211 76.8393   4
  -3 -12   0-44.2859 84.4590   6
  -3 -12   1 1725.26 288.452   5
  -3 -12  -1 1731.96 289.275   5
   3 -12  -1 1541.22 337.284   5
  -3 -12   1 1571.44 292.738   8
   3  12  -1 1627.37 307.645   3
  -3 -12  -1 1657.82 300.067   8
   3  12  -1 1322.13 300.576   1
  -3 -12  -1 1519.37 293.815   7
  -3 -12   1 1652.69 293.031   7
   3  12   1 1919.73 289.504   4
   3  12  -1 1431.18 292.849   4
   3  12  -1 1716.70 330.837   2
   3  12   1 1731.49 310.736   3
   3  12   1 1806.89 327.945   2
  -3 -12  -1 1780.27 293.875   6
   3  12   1 1926.16 297.467   1
  -3 -12   1 1365.30 293.525   6
   3 -12  -2 247.604 155.668   5
   3  12  -2-43.2998 115.951   3
   3  12   2 88.2766 106.581   3
  -3 -12   2 52.0006 73.7140   8
  -3 -12  -2 264.664 72.6012   5
   3  12  -2-19.3455 148.156   2
  -3 -12  -2 164.422 105.709   8
  -3 -12   2-19.1693 74.6006   7
   3  12   2 23.7568 68.2145   4
   3  12  -2 152.208 87.2789   4
   3  12   2 162.180 82.4172   1
   3  12   2-78.9325 159.409   2
   3  12  -2-14.2572 102.121   1
  -3  12   2 107.223 133.303   2
  -3 -12   2 80.4997 85.1513   6
  -3 -12   2 181.098 67.5265   5
   3 -12  -3 213.459 143.204   5
  -3 -12  -3 80.8294 112.044   8
   3  12  -3 45.8803 108.415   1
  -3 -12   3 167.926 63.7269   5
   3 -12  -3-8.16191 68.0876   8
   3  12  -3 43.4028 104.764   3
  -3 -12  -3 29.3986 66.3131   5
   3  12  -3 325.590 156.175   2
   3  12   3 134.596 104.299   3
  -3 -12   3 123.880 77.7932   7
   3  12  -3 96.4614 83.5406   4
  -3 -12   3 72.1762 68.1405   8
  -3  12   3 155.768 163.380   2
  -3 -12   3 140.374 89.0587   6
   3 -12  -4 169.381 124.881   5
  -3 -12  -4 142.273 74.9485   5
   3 -12  -4 49.4971 62.4865   8
   3  12   4 135.376 97.7685   3
   3  12  -4 97.9134 120.081   1
  -3 -12   4-47.5263 66.9904   7
   3  12  -4 22.6205 87.5039   4
  -3 -12  -4 266.706 127.263   8
  -3  12   4 161.700 163.463   2
  -3 -12   4 142.714 83.5550   6
   3  12  -5 865.142 211.473   1
   3 -12  -5 1056.22 216.336   5
   3 -12  -5 922.630 178.304   8
   3  12   5 1060.56 201.265   3
  -3 -12  -5 662.982 209.352   8
  -3 -12   5 1113.12 185.855   7
   3  12  -5 1085.77 193.450   4
  -3 -12  -5 971.318 184.008   5
  -3 -12   5 966.374 186.817   6
  -3  12   5 526.881 231.562   2
  -3  12   6 49.6549 168.204   2
   3 -12  -6 17.1470 124.679   5
   3  12  -6 36.2762 138.853   1
   3 -12  -6 68.3102 64.8832   8
  -3 -12  -6-151.328 132.852   8
   3  12   6 137.385 102.117   3
  -3 -12   6 221.852 81.1908   7
   3  12  -6 88.7527 104.806   4
  -3 -12  -6 87.7756 75.6902   5
  -3 -12   6 85.9014 76.2107   6
   3  12   7 2532.11 466.908   3
  -3  12   7 2651.44 506.171   2
  -3 -12  -7 2880.85 459.178   5
  -3 -12  -7 3377.49 486.760   8
  -3 -12   7 2732.93 456.001   7
   3  12  -7 2193.78 464.843   4
   3  12  -7 1929.62 477.965   1
  -3 -12   7 2942.27 461.413   6
   3 -12  -8 335.379 111.884   5
  -3 -12  -8 246.968 161.848   8
   3 -12  -8 106.335 76.1866   8
  -3 -12  -8 119.977 93.9119   5
   3  12   8 108.005 113.574   3
  -3 -12   8 169.200 83.1446   7
   3  12  -8-114.153 122.400   4
  -3 -12   8 150.681 94.6698   6
  -3  12   9 47.7985 163.181   3
   3 -12  -9 387.717 121.576   5
  -3 -12  -9 353.231 111.422   5
  -3 -12  -9 161.331 157.477   8
   3  12   9 403.869 119.663   3
  -3 -12   9 425.435 101.011   7
   3  12  -9 392.948 136.119   4
  -3 -12   9 165.480 102.840   6
  -3 -12 -10-53.0256 88.7492   5
   3  12  10 31.2476 110.231   3
   3  12 -10 303.607 141.462   4
  -3 -12  10-38.6644 90.5689   6
  -3  12  12 24.6301 167.992   3
  -3  12  12 225.478 201.389   2
   3 -12 -12 73.5404 109.482   5
   3 -12 -12 79.0399 85.2235   8
  -3 -12 -12-68.4699 170.268   8
  -3 -12  12 10.7225 80.8840   7
  -3 -12  13 307.428 115.865   6
   3  12  13 159.635 125.089   3
  -3  12  13 563.804 203.381   3
  -3  12  13 142.802 213.768   2
   3 -12 -13 230.207 122.950   5
   3 -12 -13 367.653 107.812   8
  -3 -12 -13 307.893 118.979   5
  -3 -12  13 361.686 108.734   7
   3  12 -13 341.646 169.533   4
  -3 -12 -13 602.321 203.111   8
  -3 -12  14 53.9732 93.1080   6
  -3  12  14 315.353 206.667   3
   3 -12 -14 316.824 130.141   5
  -3 -12 -14 447.388 251.492   8
  -3  12  14-202.527 255.727   2
  -3 -12 -14 193.740 131.805   5
   3 -12 -14 137.996 98.8244   8
   3  12  14-48.3560 110.709   3
  -3 -12  14 111.799 93.5740   7
   3  12 -14 417.472 186.858   4
  -3 -12  15 108.899 89.4566   6
  -3  12  15-23.8744 186.170   3
   3 -12 -15 14.1999 97.1877   5
  -3  12  15 205.180 207.121   2
  -3 -12 -15 33.8471 117.053   5
  -3 -12 -15 102.452 212.207   8
   3  12  15-16.2847 106.677   3
  -3 -12  15 240.355 92.6535   7
   3  12 -15-62.4139 169.388   4
   3 -12 -15 86.9350 90.2599   8
  -3 -12  16 81.1570 88.3494   6
  -3  12  16 71.5220 176.086   3
   3 -12 -16 56.3022 108.282   5
  -3  12  16-29.6821 215.686   2
   3 -12 -16-45.2391 98.4350   8
  -3 -12 -16 124.258 115.487   5
   3  12  16 82.4955 106.908   3
  -3 -12  16 128.680 83.7246   7
   3  12 -16 173.963 171.884   4
  -3 -12  17 27.5163 92.9486   6
  -3  12  17 210.561 176.543   3
   3 -12 -17 139.926 116.442   5
  -3  12  17 330.845 227.656   2
  -3 -12 -17 18.6199 121.428   5
   3 -12 -17 197.054 100.834   8
   3  12  17 16.7359 98.6073   3
  -3 -12  17-71.8319 89.7126   7
   3  12 -17-44.8349 171.627   4
  -3 -12  18 41.9970 89.9056   6
  -3  12  18 22.9665 155.909   3
   3 -12 -18-28.3978 101.996   5
   3 -12 -18 72.6500 103.029   8
  -3 -12 -18 254.623 232.625   8
  -3 -12 -18 19.5461 127.252   5
   3  12  18 16.8175 108.462   3
  -3 -12  18 12.2665 88.1754   7
   3  12 -18 345.848 181.909   4
  -3  12  18-122.074 213.523   2
  -3 -12  19 471.090 139.255   6
  -3  12  19 734.596 200.400   3
   3 -12 -19 529.772 148.653   5
  -3  12  19 154.767 246.189   2
  -3 -12 -19 433.953 251.488   8
  -3 -12 -19 349.362 170.596   5
   3  12  19 670.292 158.202   3
   3  12 -19 498.532 205.996   4
   3 -12 -19 608.958 140.088   8
  -3 -12  20-160.409 103.799   6
   3 -12 -20-12.9870 112.269   8
   3 -12 -20 43.3039 111.223   5
  -3  12  20 283.227 264.969   2
  -3 -12 -20 144.711 253.471   8
  -3 -12 -20 21.4579 157.575   5
  -3  12  20-248.286 172.610   3
   3  12  20-35.2019 108.785   3
  -3 -12  20 12.9391 105.470   7
   3  12 -20 24.3744 191.600   4
  -3 -12  21 342.839 129.935   6
  -3  12  21 192.143 252.530   2
  -3 -12 -21 353.355 249.969   8
   3 -12 -21 427.435 137.306   5
  -3 -12  21 372.920 120.967   7
   3  12  21 236.042 140.382   3
   3 -12 -21 667.161 147.497   8
  -3  12  21 465.483 184.935   3
   3  12 -21 376.912 209.239   4
  -3 -12  22-15.2265 112.201   6
   3 -12 -22-15.1214 111.850   5
  -3  12  22-66.7935 148.271   3
   3 -12 -22-96.0123 106.701   8
  -3  12  22 32.6269 218.289   2
  -3 -12 -22 89.6207 242.509   8
  -3 -12  22 68.6398 106.427   7
   3  12  22 131.700 119.297   3
   3  12 -22 25.7257 194.560   4
   3 -12 -23 15.6155 111.982   5
  -3 -12  23-15.5698 104.688   6
  -3  12  23-132.898 249.457   2
   3 -12 -23 141.117 122.931   8
  -3  12  23 22.0966 148.545   3
  -3 -12  23-42.5300 113.662   7
   3  12 -23 78.8051 211.239   4
  -3 -12  24 31.7655 103.798   6
  -3  12  24-305.342 258.442   2
   3 -12 -24-16.1158 118.316   5
   3 -12 -24-29.0427 124.044   8
  -3  12  24 310.158 160.746   3
  -3 -12  24 14.6606 107.222   7
   3  12 -24-26.8101 186.708   4
  -3 -12  25 113.968 130.377   6
   3 -12 -25 133.871 141.648   5
  -3  12  25 277.412 321.548   2
   3 -12 -25 194.382 139.043   8
  -3  12  25 629.538 192.158   3
  -3 -12  25 364.427 141.347   7
   3  12 -25 355.073 269.891   4
   3 -12 -26 52.8204 129.246   5
  -3  12  26-141.946 256.445   2
   3 -12 -26 15.4023 116.913   8
  -3  12  26-112.570 149.935   3
  -3 -12  26 15.7063 105.576   7
   3  12 -26 166.221 201.785   4
   3 -12 -27 618.936 155.643   8
   3 -12 -27 203.116 144.893   5
  -3  12  27 360.989 168.404   3
  -3 -12  27 163.129 142.045   7
  -3  12  28-111.992 264.362   2
   3 -12 -28 19.6341 137.309   5
  -3  12  28-91.7325 163.742   3
   3 -12 -28 65.4468 140.930   8
   3 -12 -29 101.239 140.092   8
  -4 -12   0 4768.56 759.609   8
   4  12   0 4420.73 749.210   4
  -4 -12   0 4492.46 758.924   7
   4  12   0 4403.92 754.008   1
  -4 -12  -1 80.1401 67.0613   5
  -4 -12   1 47.8183 103.281   8
  -4 -12  -1 14.5840 116.915   8
   4  12  -1 42.2388 100.961   3
   4  12   1 28.5520 94.2045   3
  -4 -12  -1 27.8604 103.838   7
  -4 -12   1 12.0226 88.9552   7
   4  12   1-30.7336 61.8247   4
   4  12  -1-34.2619 79.3709   4
   4  12  -1 72.2532 129.514   2
  -4 -12   1 55.5016 64.4568   5
  -4 -12  -1 25.9304 99.1396   6
   4  12  -1-35.7526 89.1744   1
  -4 -12   1 26.1805 95.7434   6
   4  12   1-10.0428 72.8985   1
   4  12   2 969.843 205.534   1
  -4 -12  -2 1350.39 229.251   7
  -4 -12   2 1468.58 221.742   8
  -4 -12  -2 736.114 203.831   5
  -4 -12  -2 1151.72 234.409   8
   4  12  -2 1662.63 233.764   3
   4  12   2 811.014 221.472   3
   4  12   2 1176.80 200.953   4
  -4 -12   2 1483.60 219.409   7
   4  12  -2 964.157 207.687   4
  -4 -12   2 940.265 202.834   5
   4  12  -2 1040.11 247.225   2
  -4 -12  -2 1554.92 226.694   6
  -4 -12   2 964.621 219.896   6
   4  12  -2 1429.30 227.760   1
   4 -12  -3 45.4049 164.222   5
   4  12  -3 41.7777 98.7513   1
  -4 -12  -3 88.2255 76.2377   5
  -4 -12  -3 17.0582 135.044   8
   4  12   3 72.4995 98.3787   3
  -4 -12   3 22.5023 92.2200   7
   4  12  -3 155.666 80.4109   4
  -4 -12   3 320.172 107.484   6
   4 -12  -4 21.3618 146.209   5
  -4 -12  -4 11.4205 80.2391   5
  -4 -12  -4-54.3753 147.617   8
   4  12  -4-15.0520 108.365   1
   4  12   4 101.631 96.2615   3
  -4 -12   4-44.0467 80.2390   7
   4  12  -4-72.1880 83.4849   4
  -4  12   4-44.8025 141.321   2
  -4 -12   4-13.3544 98.4290   6
   4 -12  -5 302.818 136.092   5
   4 -12  -5 214.002 76.1576   8
  -4 -12  -5 173.211 155.403   8
   4  12   5 162.377 107.280   3
  -4 -12   5 197.324 92.4362   7
   4  12  -5 370.821 105.270   4
   4  12  -5 145.923 118.695   1
  -4  12   5 69.2963 163.630   2
  -4 -12  -5 359.735 96.9880   5
  -4 -12   5 13.4996 86.4157   6
  -4 -12  -6 1120.28 244.063   8
   4 -12  -6 1091.58 222.470   5
  -4 -12  -6 743.037 179.258   5
   4 -12  -6 807.727 167.536   8
   4  12   6 1065.91 196.857   3
  -4 -12   6 1017.48 179.973   7
   4  12  -6 783.231 179.153   4
  -4  12   6 430.253 223.325   2
  -4 -12   6 995.891 186.747   6
   4  12  -6 1079.02 204.670   1
   4 -12  -7 73.1041 125.351   5
   4  12  -7-36.5649 133.424   1
  -4 -12  -7-13.0583 89.3607   5
  -4 -12  -7 64.5816 171.068   8
   4  12   7 59.5056 100.338   3
  -4 -12   7 43.3667 88.9566   7
   4  12  -7 73.9342 97.5176   4
  -4 -12   7 151.740 104.282   6
   4 -12  -8 269.407 139.484   5
  -4 -12  -8 137.056 88.6978   5
  -4 -12   8 118.441 86.8030   7
  -4 -12  -8 227.088 190.169   8
   4  12   8 119.638 93.8804   3
   4  12  -8 115.239 145.822   1
   4  12  -8 77.8525 104.251   4
  -4 -12   8 124.198 99.3150   6
  -4 -12  -9 14.3609 101.572   5
   4  12   9-61.0464 105.595   3
  -4 -12   9 54.0639 81.4777   7
   4  12  -9 286.635 117.197   4
  -4 -12   9 139.281 94.8130   6
  -4  12  11 136.086 194.328   2
  -4  12  11 227.391 189.688   3
   4 -12 -11-57.1211 72.5202   8
  -4 -12 -11 102.673 195.524   8
   4  12 -11 22.0004 161.489   1
  -4  12  12 389.137 255.799   2
  -4  12  12 979.302 239.804   3
   4 -12 -12 733.513 184.733   5
  -4 -12 -12 725.886 186.867   5
  -4 -12 -12 26.8430 236.122   8
   4  12  12 469.843 170.806   3
  -4 -12  12 755.238 160.247   7
   4 -12 -12 993.096 162.333   8
   4  12 -12 572.161 205.411   1
   4  12 -12 736.254 200.340   4
  -4 -12  12 1038.85 175.466   6
  -4  12  13-28.3786 214.702   2
  -4  12  13 26.1339 208.871   3
   4 -12 -13 15.6007 117.706   5
   4  12 -13-23.7440 165.450   1
   4 -12 -13 39.9436 80.2576   8
  -4 -12 -13-138.290 130.867   5
  -4 -12 -13-389.761 264.088   8
   4  12  13-63.4319 116.553   3
  -4 -12  13-11.2406 97.8068   7
   4  12 -13 69.0948 153.401   4
  -4 -12  13-114.849 102.674   6
  -4  12  14 577.751 252.568   2
  -4  12  14 447.482 232.661   3
   4 -12 -14 1154.10 183.856   5
   4  12 -14 665.888 242.934   1
   4 -12 -14 1036.65 158.505   8
  -4 -12 -14 810.611 182.785   5
  -4 -12 -14 28.8359 262.917   8
   4  12  14 80.4096 167.984   3
  -4 -12  14 890.570 157.730   7
   4  12 -14 436.916 199.690   4
  -4 -12  14 679.942 165.366   6
  -4  12  15-382.064 203.820   2
  -4  12  15 26.2845 191.487   3
   4 -12 -15 15.2932 106.572   5
  -4 -12 -15 119.228 231.105   8
   4 -12 -15-52.8293 86.4038   8
   4  12 -15 179.272 172.181   1
  -4 -12 -15-75.6866 133.502   5
  -4 -12  15 139.076 102.654   7
   4  12  15-16.3756 103.372   3
   4  12 -15-19.4861 153.695   4
  -4 -12  15 189.859 100.908   6
  -4  12  16 149.349 218.778   2
  -4  12  16 391.293 203.058   3
   4 -12 -16 270.813 126.144   5
   4 -12 -16 129.859 94.1370   8
  -4 -12 -16-122.992 245.092   8
  -4 -12 -16 315.692 136.566   5
  -4 -12  16 200.583 97.1671   7
   4  12  16 100.192 104.673   3
   4  12 -16 204.557 172.811   4
  -4 -12  16 176.531 101.586   6
  -4 -12  17-14.6328 98.8082   6
   4 -12 -17-33.4640 96.8863   8
  -4  12  17-302.675 230.560   2
  -4  12  17 78.5803 187.022   3
   4 -12 -17 29.7263 109.105   5
  -4 -12  17 36.0886 91.3124   7
   4  12  17 34.2867 101.759   3
   4  12 -17 128.288 168.589   4
  -4 -12  18-14.7152 100.883   6
  -4  12  18 184.414 225.688   2
  -4  12  18 77.3312 189.306   3
   4 -12 -18-14.7554 106.799   5
   4 -12 -18 91.5537 93.6779   8
  -4 -12 -18-32.4311 224.949   8
   4  12  18 17.6743 116.194   3
   4  12 -18 89.2207 173.613   4
  -4 -12  19 59.1663 101.696   6
  -4  12  19-31.1943 228.983   2
  -4  12  19 76.0584 189.653   3
   4 -12 -19 44.6826 113.879   5
   4 -12 -19-82.8323 96.6853   8
   4  12 -19 116.234 179.603   4
  -4 -12  20 327.283 117.549   6
  -4  12  20 571.311 252.099   2
  -4  12  20 274.347 200.036   3
   4 -12 -20 193.969 109.757   5
   4 -12 -20 389.218 120.778   8
  -4 -12  20 12.8690 103.998   7
   4  12 -20 97.0036 189.618   4
  -4 -12  21 15.0120 92.6981   6
  -4  12  21-225.877 251.867   2
   4 -12 -21 60.2347 115.523   5
  -4  12  21-124.841 190.870   3
  -4 -12  21-13.2044 103.765   7
 -12  -4  21 27.6744 200.779   6
   4 -12 -21 12.6488 109.554   8
   4  12 -21 24.8720 202.540   4
  -4 -12  22 61.1208 100.355   6
  -4  12  22-459.971 240.250   2
   4 -12 -22-30.3847 103.079   5
  12   4 -22 76.0414 89.5991   4
   4 -12 -22 78.1264 111.556   8
  -4 -12  22-13.5737 109.176   7
  -4  12  22 49.2016 169.120   3
 -12  -4  22 138.112 209.673   6
   4  12 -22-153.173 220.514   4
  -4 -12  23-93.4806 105.676   6
  -4  12  23 167.402 262.218   2
   4 -12 -23 30.9535 115.768   5
  -4  12  23-120.907 174.051   3
   4 -12 -23 13.4206 109.630   8
  -4 -12  23 41.9210 110.179   7
   4  12 -23 78.4023 206.060   4
  -4 -12  24 159.012 113.516   6
  -4  12  24-34.2052 248.995   2
   4 -12 -24 15.9345 124.352   5
   4 -12 -24 221.495 117.298   8
  -4  12  24 335.405 169.479   3
  -4 -12  24 14.4165 108.164   7
   4  12 -24 241.673 224.992   4
  -4 -12  25 81.1163 105.459   6
  -4  12  25-349.404 298.774   2
   4 -12 -25 16.4554 123.497   5
  -4  12  25-96.7105 178.070   3
   4 -12 -25-28.5727 129.261   8
  -4 -12  25-372.399 121.801   7
   4  12 -25 27.4087 203.254   4
  -4 -12  26 264.630 167.567   6
  -4  12  26 500.258 307.584   2
   4 -12 -26 852.037 191.323   5
   4 -12 -26 1106.86 193.748   8
  -4  12  26 946.392 220.509   3
  -4 -12  26 986.500 189.918   7
   4  12 -26 418.426 237.962   4
  -4 -12  27-16.9092 114.179   6
  -4  12  27-182.974 277.760   2
   4 -12 -27-15.2558 127.685   8
  -4  12  27-24.3589 172.505   3
  -4 -12  27 15.9848 119.574   7
   4  12 -27-85.1227 216.140   4
   4 -12 -27 70.5445 136.252   5
  -4 -12  28 364.007 143.582   6
   4 -12 -28 505.310 160.116   8
   4 -12 -28 463.842 163.020   5
  -5 -12   0-16.2307 126.770   8
   5  12   0 49.4046 72.1141   1
  -5 -12   0 23.7430 79.9232   5
  -5 -12   0-100.188 129.973   7
   5  12   0 59.8077 67.0197   4
   5  12   0 84.9692 97.8756   3
  -5 -12   0-15.4606 105.435   6
   5  12   1 2687.26 437.125   3
  -5 -12  -1 1611.86 423.270   5
  -5 -12   1 2614.76 442.161   8
  -5 -12  -1 3083.59 454.264   8
   5  12   1 2662.01 418.867   4
   5  12  -1 2138.21 418.326   4
  -5 -12  -1 2490.90 445.926   7
  -5 -12   1 2719.43 442.651   7
  -5 -12  -1 2652.02 440.712   6
  -5 -12   1 2823.68 440.911   6
   5  12   1 2690.99 424.334   1
   5  12  -1 2591.82 427.126   1
  -5 -12  -2 76.0500 84.3069   5
   5  12   2 147.578 68.3364   1
  -5 -12  -2-37.4978 172.203   8
  -5 -12  -2 92.8125 133.400   7
   5  12   2 40.6552 55.3680   4
  -5 -12   2 542.149 122.557   7
   5  12  -2 108.500 71.4573   4
   5  12   2 202.307 96.2124   3
   5  12  -2 217.482 95.3706   1
  -5 -12  -2 311.194 125.569   6
  -5 -12   2 169.764 105.254   6
  -5 -12  -3 235.334 108.209   5
  -5 -12  -3 382.703 174.011   8
  -5 -12   3 601.185 128.744   7
   5  12  -3 281.691 92.5811   4
   5  12   3 447.330 118.666   3
   5  12  -3 327.857 111.213   1
  -5 -12   3 309.587 127.736   6
  -5 -12  -4 67.9598 94.5503   5
  -5 -12  -4 168.808 160.002   8
  -5 -12   4 26.8121 99.8338   7
   5  12  -4 18.7444 70.0257   4
   5  12   4 175.580 102.113   3
  -5 -12   4-15.5298 104.067   6
   5  12  -4 187.460 100.828   1
   5  12  -5 28.9505 101.093   1
  -5 -12  -5 154.592 96.5878   5
  -5 -12  -5 22.1000 169.546   8
  -5 -12   5 142.513 108.379   7
   5  12  -5 178.054 81.8074   4
   5  12   5 148.562 97.7440   3
  -5 -12   5 92.6987 108.551   6
   5  12  -6 203.357 137.437   1
  -5 -12  -6 292.733 118.061   5
  -5 -12  -6 208.166 190.694   8
  -5 -12   6 364.612 115.787   7
   5  12  -6 360.184 106.801   4
   5  12   6 238.650 117.946   3
  -5 -12   6 449.790 136.799   6
   5  12  -7 298.590 152.833   1
  -5 -12  -7 470.137 129.080   5
  -5 -12  -7 772.008 225.083   8
  -5 -12   7 410.201 123.841   7
   5  12  -7 414.767 126.296   4
   5  12   7 405.032 133.515   3
  -5 -12   7 740.555 145.888   6
  -5 -12  -8 47.5213 99.8910   5
  -5 -12  -8-25.2533 211.449   8
  -5 -12   8 135.844 89.1900   7
   5  12  -8 94.9500 105.392   4
   5  12   8 214.093 109.259   3
  -5 -12   8 77.4894 106.566   6
   5  12   9 30.9286 96.6559   3
   5 -12 -10 201.974 132.618   5
   5 -12 -10 66.2705 77.1596   8
  -5 -12 -10-55.2081 200.572   8
  -5  12  10-128.517 170.722   2
   5  12 -10 139.180 156.111   1
   5  12 -11 104.610 169.724   1
   5 -12 -11 516.270 149.134   5
   5 -12 -11 144.706 101.491   8
  -5 -12 -11 173.211 237.562   8
  -5 -12 -11 727.325 149.130   5
  -5 -12  11 402.019 127.514   7
   5  12 -11 465.091 147.589   4
   5  12  11 208.385 124.991   3
  -5 -12  11 812.148 151.323   6
  -5  12  11 369.561 210.498   2
   5 -12 -12 69.3448 128.754   5
  -5 -12 -12-361.980 295.172   8
  -5 -12  12-73.0837 110.670   7
   5  12 -12-14.9565 142.530   4
   5  12  12-65.4415 125.553   3
   5 -12 -12 88.6881 80.5641   8
  -5 -12  12-109.852 123.367   6
  -5  12  12-134.895 209.172   2
   5  12 -12 21.9849 186.189   1
  -5  12  13 1489.31 304.276   3
   5 -12 -13 1259.86 188.763   8
   5 -12 -13 847.500 211.492   5
  -5 -12 -13 471.212 314.581   8
   5  12 -13 502.189 241.414   1
  -5 -12  13 755.557 199.940   7
   5  12  13 268.140 207.005   3
   5  12 -13 1177.08 228.666   4
  -5 -12  13 1218.48 216.008   6
  -5  12  13 1295.16 288.258   2
  -5  12  14 337.834 227.097   2
  -5  12  14-194.350 196.616   3
   5 -12 -14-49.7925 113.585   5
   5 -12 -14-20.6296 81.8693   8
  -5 -12 -14-32.7054 250.901   8
  -5 -12  14 97.7213 107.249   7
   5  12 -14 23.9387 152.564   1
   5  12 -14-82.9360 147.580   4
  -5 -12  14 15.7172 104.666   6
  -5  12  15 142.709 229.480   2
  -5  12  15 396.062 238.987   3
   5 -12 -15 570.535 147.185   5
   5 -12 -15 421.845 114.154   8
  -5 -12  15 395.736 118.564   7
   5  12 -15 301.062 222.338   1
   5  12 -15 71.3128 163.805   4
  -5 -12  15 474.505 139.612   6
  -5  12  16-174.800 204.698   2
  -5  12  16 57.2350 220.405   3
   5 -12 -16 160.463 122.396   5
   5 -12 -16 86.3872 83.3758   8
  -5 -12  16 37.3333 100.267   7
   5  12 -16-18.7819 148.719   4
   5  12 -16-26.0792 180.158   1
  -5 -12  16-15.7564 106.579   6
   5  12 -17 244.294 222.464   1
  -5  12  17 59.5027 211.607   2
  -5  12  17 57.3878 207.406   3
   5 -12 -17 96.5087 126.908   5
  -5 -12  17 75.8234 99.7481   7
   5  12 -17-157.964 142.197   4
   5 -12 -17-11.0749 96.5612   8
  -5 -12  17 15.8268 112.174   6
  -5  12  18 211.219 229.180   2
  -5  12  18 85.7420 196.637   3
   5 -12 -18 34.1469 85.5581   8
   5 -12 -18 79.3132 113.112   5
   5  12 -18 42.1706 160.835   4
  -5 -12  18 15.9226 109.772   6
  -5  12  19 92.5697 236.022   2
  -5  12  19 316.757 231.164   3
   5 -12 -19 172.810 132.779   5
   5  12 -19 29.7419 177.906   1
   5 -12 -19 315.860 114.235   8
   5  12 -19 375.368 188.171   4
  -5 -12  19 15.9880 109.447   6
  -5 -12  20 15.8627 101.194   6
  -5  12  20 31.3407 221.069   2
  -5  12  20 142.089 206.222   3
   5 -12 -20 15.6280 113.024   5
   5 -12 -20 12.0703 98.3941   8
   5  12 -20 186.496 245.118   1
  -5 -12  20-13.2758 92.9501   7
   5  12 -20 161.153 179.139   4
 -12  -5  20-27.6806 206.334   6
  -5 -12  21 15.9111 103.099   6
  -5  12  21 32.0172 223.496   2
  -5  12  21 168.143 210.969   3
   5 -12 -21 264.832 124.621   5
   5 -12 -21 136.708 105.169   8
   5  12 -21 32.5567 215.332   1
  12   5 -21 42.1465 84.2487   4
  -5 -12  21 108.632 102.756   7
   5  12 -21 119.740 194.415   4
 -12  -5  21 27.1867 197.853   6
  -5 -12  22-15.9625 109.261   6
  -5  12  22 162.916 240.096   2
  -5  12  22 55.2494 218.548   3
   5 -12 -22 125.763 121.466   5
   5 -12 -22-51.4980 116.942   8
   5  12 -22 34.1646 273.838   1
  12   5 -22 33.3259 85.8463   4
  -5 -12  22-69.5658 100.566   7
   5  12 -22 25.2572 188.938   4
 -12  -5  22 107.706 194.595   6
  -5 -12  23 15.9311 116.971   6
  -5  12  23-265.557 246.681   2
  -5  12  23 190.550 194.648   3
   5 -12 -23 80.0709 122.012   5
   5 -12 -23 159.437 104.599   8
   5  12 -23 71.8639 307.069   1
  12   5 -23 153.471 98.4951   4
  -5 -12  23-99.9496 108.505   7
   5  12 -23 25.8920 186.665   4
 -12  -5  23 268.553 212.012   6
  -5 -12  24 161.450 133.723   6
   5 -12 -24 137.293 131.560   8
  -5  12  24 473.954 331.530   2
   5 -12 -24 226.423 151.774   5
  -5  12  24 80.4496 222.307   3
   5  12 -24 227.208 347.269   1
  12   5 -24 227.256 118.403   4
  -5 -12  24 235.007 130.241   7
 -12  -5  24 268.410 220.482   6
   5  12 -24 264.751 237.956   4
  -5 -12  25 541.852 148.905   6
  -5  12  25 520.886 263.319   2
   5 -12 -25 609.748 159.487   5
   5 -12 -25 283.959 150.791   8
  -5  12  25 753.549 225.812   3
   5  12 -25 760.113 340.073   1
  -5 -12  25 650.798 158.704   7
   5  12 -25 81.5821 221.722   4
  -5 -12  26 150.548 111.037   6
  -5  12  26 213.053 249.446   2
   5 -12 -26-67.9960 130.089   5
   5  12 -26 42.3649 321.609   1
  -5  12  26 53.3762 186.735   3
   5 -12 -26 14.7021 117.992   8
  -5 -12  26 62.5013 117.034   7
   5  12 -26-138.901 201.637   4
  -5 -12  27 34.0481 143.858   6
   5  12 -27 899.555 357.575   1
   5 -12 -27 1006.16 184.046   8
  -5 -12  27 646.419 155.907   7
   5  12 -27 28.3392 229.271   4
   5 -12 -27 930.320 174.098   5
   6  12   0 2810.31 477.221   3
  -6 -12   0 2897.41 497.457   8
  -6 -12   0 2093.74 487.949   7
  -6 -12   0 3090.12 490.107   6
   6  12   1 142.896 73.1809   1
   6  12  -1 253.770 82.9583   1
  -6 -12  -1 120.508 168.550   8
  -6 -12   1 156.726 134.231   7
   6  12   1 237.185 112.515   3
  -6 -12  -1 272.876 141.722   6
  -6 -12   1 364.894 145.469   6
   6  12  -2 176.657 81.8510   1
  -6 -12  -2 293.333 174.712   8
   6  12  -2 240.533 78.6959   4
  -6 -12   2 312.016 144.098   7
   6  12   2 285.767 115.636   3
  -6 -12  -2 451.267 158.125   6
  -6 -12   2 379.728 144.981   6
   6  12  -3-11.1361 76.9091   1
  -6 -12  -3-153.017 172.942   8
   6  12  -3 49.0983 63.9056   4
  -6 -12   3-17.4376 128.013   7
   6  12   3 31.9582 95.9735   3
  -6 -12   3 36.1072 125.196   6
   6  12  -4 60.2286 70.1062   4
  -6 -12  -4 114.068 175.822   8
   6  12  -4 11.9998 87.1016   1
  -6 -12   4 165.739 120.995   7
   6  12   4 145.072 108.650   3
  -6 -12   4-178.797 139.799   6
  -6 -12  -5 238.421 189.313   8
   6  12  -5 54.8562 70.3450   4
  -6 -12   5-31.6231 119.699   7
   6  12  -5-12.9622 95.2977   1
  -6 -12   5 17.8900 125.754   6
  -6 -12  -6 349.315 243.377   8
  -6 -12   6 571.323 188.997   7
   6  12  -6 1147.46 169.763   4
   6  12  -6 826.841 193.507   1
  -6 -12   6 726.399 200.795   6
  -6 -12  -7 262.640 217.317   8
   6  12  -7 82.1078 91.5082   4
  -6 -12   7 123.933 136.596   6
   6  12  -9 459.168 177.426   1
  -6 -12   9 128.993 126.913   7
   6 -12 -10 59.0462 136.472   5
   6  12 -10 18.0057 142.443   1
  -6 -12  10-13.9061 113.243   7
   6  12 -10-24.4994 100.067   4
  -6  12  10 124.998 163.340   2
  -6 -12  10-104.259 129.013   6
   6 -12 -11 194.861 167.869   5
   6  12 -11 285.843 180.862   1
  -6 -12  11 13.7395 146.201   7
   6  12 -11-51.8109 155.048   4
  -6 -12  11 260.775 151.660   6
   6 -12 -12 18.9201 141.007   5
   6 -12 -12 220.369 86.1470   8
   6  12 -12-20.1399 177.923   1
  -6 -12  12 165.606 167.469   7
   6  12 -12 276.923 171.516   4
  -6  12  12 156.141 195.507   2
  -6 -12  12 330.757 145.307   6
   6 -12 -13 18.4546 132.818   5
   6 -12 -13 81.7590 80.6288   8
   6  12 -13 21.2784 163.085   1
  -6 -12  13 233.144 121.304   7
   6  12 -13 14.5851 132.975   4
  -6  12  13-159.347 186.096   2
  -6 -12  13 86.5074 128.507   6
   6 -12 -14 686.782 151.794   5
   6 -12 -14 511.263 109.886   8
  -6 -12  14 272.659 136.203   7
   6  12 -14 232.069 147.590   4
   6  12 -14 198.897 196.557   1
  -6  12  14 54.2215 195.810   2
  -6 -12  14 450.236 145.776   6
  -6  12  15 148.117 232.938   3
   6 -12 -15 53.2959 124.511   5
   6 -12 -15 128.221 90.5920   8
  -6 -12  15-13.5879 104.199   7
   6  12 -15-48.6579 128.998   4
   6  12 -15 116.585 182.186   1
  -6  12  15-55.2715 189.305   2
  -6 -12  15 68.6869 113.578   6
  -6  12  16-60.9379 244.221   3
   6 -12 -16 17.4789 129.792   5
   6 -12 -16-87.4478 88.2067   8
  -6 -12  16 164.678 123.076   7
   6  12 -16 84.9110 133.920   4
   6  12 -16-24.2371 173.768   1
  -6  12  16 112.752 210.862   2
  -6 -12  16 51.5937 114.014   6
  -6  12  17 94.0084 228.392   3
   6 -12 -17 17.2391 123.369   5
  -6 -12  17 13.7328 96.4007   7
   6  12 -17 72.9839 146.009   4
   6 -12 -17 78.4868 92.2542   8
  -6  12  17 343.288 216.511   2
  -6 -12  17-17.2495 119.895   6
  -6  12  18 286.729 251.911   3
   6 -12 -18 136.286 135.655   5
   6 -12 -18 69.1143 92.7843   8
   6  12 -18 249.665 158.987   4
  -6 -12  18 85.7746 128.771   6
  -6  12  18 29.1876 224.716   2
   6  12 -19-168.561 208.659   1
  -6  12  19-320.918 246.261   3
   6 -12 -19 50.4339 121.141   5
   6 -12 -19 35.5327 94.1862   8
  -6 -12  19 84.7450 114.442   7
   6  12 -19-20.1867 169.543   4
  -6 -12  19-223.501 121.383   6
  -6  12  19-59.2622 208.175   2
  -6  12  20-30.2806 223.020   2
   6 -12 -20 438.878 130.851   8
   6  12 -20 293.306 224.640   1
  -6  12  20 513.432 272.349   3
   6 -12 -20 765.382 151.005   5
  12   6 -20 217.404 104.649   4
  -6 -12  20 555.212 146.557   7
   6  12 -20 840.171 186.857   4
 -12  -6  20 55.1060 210.580   6
  -6 -12  20 137.799 135.604   6
  -6  12  21-30.7727 222.381   2
   6  12 -21 92.0226 218.123   1
  -6  12  21-286.920 254.697   3
   6 -12 -21-16.5580 120.138   5
  -6 -12  21 29.0184 110.531   7
   6 -12 -21 50.2592 108.233   8
  12   6 -21 10.8268 87.9014   4
   6  12 -21 22.5502 186.485   4
 -12  -6  21-108.340 192.601   6
  -6 -12  21 51.2541 119.486   6
  -6 -12  22 325.535 126.719   6
  -6  12  22 31.5459 213.280   2
   6  12 -22 160.658 248.469   1
  -6  12  22 63.0625 228.121   3
   6 -12 -22 50.3270 124.093   5
   6 -12 -22-38.8966 109.697   8
  12   6 -22-34.2202 93.2407   4
  -6 -12  22 148.138 113.770   7
   6  12 -22-23.5505 193.876   4
 -12  -6  22 133.779 198.201   6
  -6 -12  23 17.1636 122.098   6
  -6  12  23-192.726 248.172   2
   6  12 -23-33.7256 284.771   1
  -6  12  23 93.4625 238.184   3
   6 -12 -23-150.737 127.172   5
   6 -12 -23 80.2680 121.240   8
  12   6 -23 48.8879 94.4848   4
  -6 -12  23-90.9511 115.932   7
   6  12 -23-148.981 199.045   4
 -12  -6  23 106.228 206.612   6
  -6 -12  24 16.9522 116.582   6
  -6  12  24-360.211 223.136   2
   6  12 -24 248.330 288.007   1
  -6  12  24-30.7674 211.518   3
   6 -12 -24-152.330 132.611   5
   6 -12 -24 124.547 113.801   8
  12   6 -24-65.2517 99.8303   4
  -6 -12  24-77.6934 121.341   7
   6  12 -24-232.059 201.292   4
 -12  -6  24 26.4049 187.025   6
  12   6 -24 89.8596 98.2012   1
  -6 -12  25 16.9868 120.375   6
  -6  12  25 33.4216 226.730   2
   6  12 -25 149.537 285.818   1
   6 -12 -25 51.2690 122.593   5
  -6  12  25-92.7252 221.622   3
   6 -12 -25 14.3374 113.132   8
  12   6 -25-112.131 123.802   4
  -6 -12  25 111.731 131.668   7
   6  12 -25 213.838 214.975   4
 -12  -6  25 184.623 186.827   6
  12   6 -25 13.1729 103.958   1
  -6 -12  26 68.7780 127.458   6
  -6  12  26 34.1604 239.662   2
   6  12 -26 394.902 331.043   1
   6 -12 -26 565.196 150.248   8
  -6  12  26 701.039 246.654   3
  -6 -12  26 476.593 148.820   7
   6 -12 -26 605.981 159.242   5
   6  12 -26 438.215 237.629   4
  -7 -12   0 142.624 162.865   6
   7  12  -1 529.793 115.442   1
  -7 -12  -1 631.670 197.384   8
  -7 -12  -1 604.691 185.238   6
  -7 -12   1 391.046 176.750   6
   7  12  -2 117.598 77.1847   1
  -7 -12  -2 239.697 168.905   8
  -7 -12   2 415.010 152.721   7
  -7 -12  -2 237.717 159.078   6
  -7 -12   2-61.8418 139.386   6
   7  12  -3-51.2763 70.8113   1
  -7 -12  -3 158.221 169.702   8
  -7 -12   3 21.3655 152.553   7
  -7 -12  -3 19.3586 143.191   6
  -7 -12   3 144.939 157.162   6
   7  12  -4 21.7068 83.0664   1
  -7 -12  -4-71.4700 172.887   8
  -7 -12   4-20.4744 149.762   7
   7  12  -4-48.4715 68.9187   4
  -7 -12   4-20.5588 141.373   6
   7  12  -5 1130.01 209.322   4
  -7 -12  -5 1169.39 282.488   8
  -7 -12   5 1170.45 264.955   6
   7  12  -7 1267.27 245.765   1
  -7 -12   8-70.6691 127.316   7
   7  12  -8-14.2479 110.627   1
  -7 -12   9-16.9047 150.252   7
   7  12  -9 286.274 105.299   4
   7  12  -9 316.761 135.020   1
  -7 -12   9 139.343 172.246   6
  -7 -12  10-16.5378 132.646   7
   7  12 -10 33.5278 99.5607   4
   7  12 -10-15.9843 136.221   1
  -7 -12  10-216.195 162.114   6
  -7 -12  11 113.490 138.076   7
   7  12 -11 11.9204 102.386   4
  -7 -12  11-117.546 141.574   6
   7  12 -11-16.9312 134.826   1
  -7 -12  12-47.8122 127.195   7
   7  12 -12 100.674 108.117   4
  -7 -12  12 135.350 144.881   6
   7  12 -12 17.9109 136.210   1
   7  12 -13 75.7909 149.873   1
  -7 -12  13 313.832 137.052   7
   7  12 -13 188.683 111.351   4
  -7 -12  13 327.643 148.196   6
   7  12 -14 20.0376 142.319   1
   7 -12 -14 19.3463 143.513   5
  -7 -12  14 62.9551 123.750   7
   7  12 -14 141.987 109.855   4
  -7 -12  14 38.1329 140.380   6
   7 -12 -15 19.0201 135.503   5
   7  12 -15 20.8065 146.868   1
  -7 -12  15 15.5561 123.949   7
   7  12 -15 254.347 116.924   4
  -7  12  15 107.168 183.136   2
  -7 -12  15 95.1555 139.401   6
   7 -12 -16-262.618 140.387   5
   7  12 -16 132.094 173.065   1
  -7 -12  16 92.3607 119.006   7
   7  12 -16 63.5786 133.886   4
  -7  12  16-217.570 206.471   2
  -7 -12  16-18.8396 127.862   6
  -7  12  17-133.531 271.902   3
   7 -12 -17 18.5495 123.076   5
   7 -12 -17 90.8667 91.2087   8
   7  12 -17 83.2257 141.056   4
  -7  12  17-82.9963 207.015   2
  -7 -12  17-18.8002 131.593   6
  -7  12  18 172.912 268.572   3
   7 -12 -18 110.072 136.642   5
   7 -12 -18 105.011 94.2972   8
   7  12 -18 17.5988 135.966   4
  -7  12  18 112.690 200.154   2
  -7 -12  18 131.397 138.721   6
  -7  12  19 781.908 320.595   3
   7 -12 -19 1073.09 198.761   5
   7 -12 -19 802.035 164.866   8
   7  12 -19 832.973 238.910   1
  12   7 -19 801.150 158.576   4
  -7 -12  19 904.523 188.926   7
   7  12 -19 222.494 192.124   4
 -12  -7  19 420.591 257.510   6
  -7  12  19 744.118 262.307   2
  -7 -12  19 613.749 190.232   6
  -7  12  20 108.637 273.863   3
   7 -12 -20-18.0078 126.996   5
   7 -12 -20 36.9626 97.4701   8
   7  12 -20 53.5462 206.833   1
  12   7 -20 10.7034 82.1122   4
  -7 -12  20-15.7985 118.174   7
   7  12 -20 79.4553 164.265   4
 -12  -7  20 164.324 206.372   6
  -7  12  20 29.2103 200.783   2
  -7 -12  20-223.326 127.924   6
  -7  12  21 840.097 299.351   3
   7 -12 -21 589.722 169.877   5
   7 -12 -21 583.122 133.983   8
   7  12 -21 810.210 250.000   1
  12   7 -21 325.630 125.928   4
  -7 -12  21 840.307 154.259   7
   7  12 -21 187.711 163.822   4
 -12  -7  21 779.170 221.238   6
  -7  12  21 475.183 222.330   2
  -7 -12  21 627.061 157.277   6
  12   7 -21 99.2729 117.458   1
  -7  12  22 146.228 265.264   3
   7 -12 -22-17.7844 132.615   5
   7 -12 -22 52.3444 99.0740   8
   7  12 -22 29.2107 212.808   1
  12   7 -22 11.8763 98.9123   4
   7  12 -22-21.8607 177.520   4
 -12  -7  22 105.937 193.707   6
  -7 -12  22-16.1308 125.134   7
  -7  12  22-211.484 227.702   2
  -7 -12  22-221.282 133.336   6
  12   7 -22-63.7364 98.2434   1
  12   7 -23-13.1144 94.9351   1
  -7  12  23-145.371 291.709   3
   7 -12 -23-198.297 137.230   5
   7 -12 -23 13.5267 111.939   8
   7  12 -23-91.7549 260.201   1
  12   7 -23 50.4135 105.081   4
  -7 -12  23-148.037 143.322   7
   7  12 -23-302.467 193.621   4
 -12  -7  23 26.1450 194.014   6
  -7  12  23-370.571 228.947   2
  -7 -12  23-351.004 141.590   6
  -7 -12  24-201.106 125.699   6
  12   7 -24 13.4741 93.8694   1
  -7  12  24 72.0686 267.549   3
   7 -12 -24 18.0105 137.710   5
   7  12 -24-65.2689 243.218   1
  12   7 -24-120.791 107.608   4
  -7 -12  24 33.6226 130.354   7
   7  12 -24 24.2860 189.583   4
 -12  -7  24 77.7509 188.789   6
  -7  12  24 440.505 229.192   2
   7 -12 -24 13.9755 114.196   8
  -7 -12  25 91.4383 126.653   6
  12   7 -25 13.8552 104.123   1
  -7  12  25-35.6613 240.996   3
   7 -12 -25 108.636 140.720   5
   7 -12 -25 14.4918 119.170   8
   7  12 -25 274.327 254.789   1
  -7 -12  25 206.595 131.058   7
  12   7 -25 100.847 120.276   4
   7  12 -25 25.5859 187.352   4
 -12  -7  25 25.7633 173.453   6
  -7  12  25-288.987 219.971   2
  -7 -12  26 36.0793 120.166   6
  12   7 -26-14.2611 102.687   1
 -12  -7  26 121.988 205.937   7
  12   7 -26 15.5333 123.321   4
   7  12 -26-26.5492 210.742   4
 -12  -7  26 51.8946 178.377   6
 -12  -7  27 30.8919 227.243   7
 -12  -7  27 259.987 196.053   6
  -8 -12   0 394.767 183.509   6
  -8 -12   1 89.6122 156.693   6
  -8 -12   2-45.4787 172.754   6
  -8 -12   3 137.500 177.240   6
   8  12  -5-85.7067 82.2267   1
   8  12  -6 755.258 162.598   1
  -8 -12   6 567.190 244.156   7
   8  12  -7 84.0783 102.698   1
   8  12  -7 79.5417 80.0528   4
  -8 -12   7 243.529 174.319   7
  -8 -12   7 228.280 199.617   6
  -8 -12   8 550.769 197.901   7
   8  12  -8 859.516 147.710   1
   8  12  -8 447.040 132.072   4
  -8 -12   8 681.127 221.018   6
   8  12  -9 13.3418 96.7958   1
  -8 -12   9 20.6200 135.377   7
   8  12  -9-9.78533 81.4091   4
  -8 -12   9-22.3803 169.256   6
   8  12 -10 14.1022 101.223   1
  -8 -12  10-80.3834 163.724   7
   8  12 -10 20.7624 80.9129   4
  -8 -12  10 289.652 176.918   6
  -8 -12  11 58.7848 145.836   7
   8  12 -11 167.014 118.139   1
   8  12 -11 43.7302 90.9762   4
  -8 -12  11-65.8187 165.029   6
  -8 -12  12 19.1264 139.631   7
   8  12 -12 58.0745 92.6750   4
   8  12 -12 112.360 127.754   1
  -8 -12  12 21.7957 150.117   6
  -8 -12  13-56.1252 140.930   7
   8  12 -13 110.023 100.525   4
   8  12 -13 16.9654 119.203   1
  -8 -12  13 236.164 157.407   6
  -8 -12  14 164.870 136.761   7
   8  12 -14 208.789 115.646   4
   8  12 -14 404.802 153.180   1
  -8 -12  14 490.631 165.033   6
  -8 -12  15-17.9658 134.361   7
   8  12 -15-13.7614 106.908   4
   8  12 -15-18.6226 148.723   1
  -8 -12  15-273.035 147.929   6
  -8 -12  16 216.150 155.802   7
   8  12 -16 14.6930 119.754   4
   8  12 -16 137.962 151.339   1
  -8 -12  16 20.8918 155.766   6
   8 -12 -17 40.0295 139.978   5
   8  12 -17-123.728 116.976   4
  -8 -12  17 185.600 159.875   6
  -8  12  18 445.834 324.201   3
   8 -12 -18 417.661 163.458   5
  12   8 -18 378.892 115.012   4
   8  12 -18 114.857 137.465   4
 -12  -8  18 374.417 237.831   6
  -8 -12  18 801.559 174.890   6
   8  12 -18 86.6089 187.459   1
   8  12 -19-22.5042 177.440   1
  -8  12  19 194.929 299.082   3
   8 -12 -19-19.7636 142.255   5
  12   8 -19-21.2933 94.2317   4
  -8 -12  19 212.025 125.125   7
   8  12 -19-257.568 133.574   4
 -12  -8  19-139.982 210.191   6
  -8 -12  19-81.0904 140.567   6
  12   8 -19 85.9469 92.1839   1
  12   8 -20 858.149 228.076   1
   8  12 -20 453.360 282.924   1
  -8  12  20 2029.81 402.966   3
   8 -12 -20 865.486 260.647   5
  12   8 -20 1203.03 230.990   4
  -8 -12  20 1355.98 261.099   7
   8  12 -20 1468.77 264.239   4
 -12  -8  20 1903.36 321.072   6
  -8 -12  20 2019.76 269.695   6
  12   8 -21 25.9794 98.9152   1
  12   8 -21-176.036 101.741   4
   8  12 -21-24.8468 182.748   1
  -8  12  21-293.010 326.929   3
   8 -12 -21-39.1808 151.259   5
  -8 -12  21 17.7467 130.277   7
   8  12 -21-190.810 154.351   4
  -8  12  21-229.717 192.459   2
 -12  -8  21-54.0604 205.486   6
  -8 -12  21 99.8305 135.306   6
  12   8 -22 26.7276 97.9987   1
   8  12 -22 25.9157 205.829   1
  -8  12  22 85.3785 332.157   3
   8 -12 -22 19.4687 145.278   5
  12   8 -22 62.0580 98.4692   4
  -8 -12  22 161.954 151.231   7
   8  12 -22 20.4267 161.766   4
  -8  12  22-204.470 216.996   2
 -12  -8  22 79.6254 188.880   6
  -8 -12  22 79.7815 150.478   6
  12   8 -23 55.0824 105.543   1
   8  12 -23 27.5658 203.259   1
  -8  12  23-129.406 308.076   3
   8 -12 -23-38.7618 140.815   5
 -12  -8  23-89.0362 198.707   7
  -8 -12  23 109.765 135.014   7
  12   8 -23 13.0318 102.691   4
   8  12 -23 150.031 179.007   4
  -8  12  23-29.6931 196.957   2
 -12  -8  23 365.728 189.679   6
  -8 -12  23 19.7364 143.390   6
 -12  -8  24-149.443 224.397   7
  12   8 -24 14.1769 97.4522   1
   8  12 -24-28.8280 210.791   1
  -8  12  24 259.245 330.301   3
   8 -12 -24 58.0963 139.946   5
  -8 -12  24 55.8826 137.782   7
  12   8 -24 13.8814 111.979   4
   8  12 -24 22.4457 179.324   4
  -8  12  24-272.269 200.517   2
 -12  -8  24 25.8023 184.228   6
  -8 -12  24 19.7022 138.369   6
  12   8 -25 160.799 107.795   1
 -12  -8  25 90.4803 197.101   7
  12   8 -25-118.893 112.880   4
   8  12 -25 95.4888 181.241   4
 -12  -8  25-102.253 171.080   6
  -8 -12  25 19.7168 123.138   6
  12   8 -26-15.0513 113.001   1
 -12  -8  26-183.026 209.677   7
  12   8 -26 47.8335 124.454   4
 -12  -8  26 76.2718 177.796   6
  12   8 -27 17.1245 136.404   4
 -12  -8  27 25.6004 183.554   6
  -9 -12   4-251.640 217.624   6
  -9 -12   5 507.029 205.479   6
   9  12  -5 291.868 99.7970   1
   9  12  -6 64.6900 76.9033   1
  -9 -12   6-25.5260 166.888   7
  -9 -12   6-51.0750 190.409   6
   9  12  -7 345.919 102.716   1
  -9 -12   7 278.622 200.437   7
  -9 -12   7 534.848 205.411   6
   9  12  -8-11.6739 92.0658   1
  -9 -12   8 50.1547 155.703   7
  -9 -12   8 50.9482 170.442   6
   9  12  -9 12.1821 92.8644   1
  -9 -12   9 24.3735 190.764   7
   9  12  -9 110.660 74.2923   4
  -9 -12   9 301.557 185.699   6
   9  12 -10 12.7726 99.1719   1
  -9 -12  10 47.6015 166.036   7
   9  12 -10 97.0651 75.1239   4
  -9 -12  10 49.8867 198.876   6
   9  12 -11 13.4241 109.043   1
  -9 -12  11 232.387 176.638   7
   9  12 -11 91.6635 82.7559   4
  -9 -12  11 367.911 195.480   6
   9  12 -12 14.1094 93.1342   1
  -9 -12  12 68.0684 165.937   7
   9  12 -12 10.7898 88.1991   4
  -9 -12  12 24.3615 176.774   6
   9  12 -13 297.475 136.989   1
  -9 -12  13 685.567 200.981   7
   9  12 -13 419.732 124.210   4
  -9 -12  13 550.406 198.932   6
   9  12 -14 62.7997 124.206   1
  -9 -12  14 21.5819 160.238   7
   9  12 -14-24.0697 103.084   4
  -9 -12  14-117.493 161.527   6
   9  12 -15 99.3022 134.229   1
  -9 -12  15 231.927 171.767   7
   9  12 -15 252.977 112.683   4
  -9 -12  15 23.3015 163.907   6
  -9 -12  16-63.2393 153.153   7
   9  12 -16-53.9309 105.556   4
  -9 -12  16-22.8724 157.431   6
  12   9 -17-10.2222 82.4579   4
   9  12 -17-14.1952 110.044   4
 -12  -9  17 118.822 230.282   6
  -9 -12  17 22.6818 160.624   6
  12   9 -18 10.6185 84.3641   4
  -9 -12  18-82.8510 155.551   7
   9  12 -18 19.1537 149.042   1
   9  12 -18 105.950 130.058   4
 -12  -9  18 28.8087 218.693   6
  -9 -12  18-22.3227 161.358   6
  12   9 -18 49.8475 93.9795   1
  12   9 -19 513.236 132.888   1
  12   9 -19 177.495 107.617   4
  -9 -12  19 448.323 175.753   7
   9  12 -19 572.849 160.899   4
   9  12 -19 795.024 186.713   1
 -12  -9  19 707.021 236.534   6
  -9 -12  19 487.743 171.898   6
  12   9 -20-343.266 106.771   1
  12   9 -20 11.6696 98.0305   4
  -9 -12  20-225.713 188.049   7
   9  12 -20-151.762 155.581   4
   9  12 -20 21.0243 142.903   1
 -12  -9  20-386.606 218.467   6
  -9 -12  20-21.8532 161.767   6
  12   9 -21 68.0631 94.7376   1
   9  12 -21 105.736 156.507   4
 -12  -9  21 117.841 221.850   7
  -9 -12  21 40.5216 149.714   7
  12   9 -21 97.5843 98.9628   4
   9  12 -21 240.322 170.819   1
 -12  -9  21 485.698 226.483   6
  -9 -12  21 21.7210 135.228   6
  12   9 -22 14.0167 106.041   1
  -9  12  22-396.939 384.758   3
   9 -12 -22-43.1761 156.291   5
 -12  -9  22-354.629 211.212   7
  12   9 -22-12.8857 105.356   4
  -9 -12  22-61.4503 157.423   7
   9  12 -22-18.5925 152.170   4
   9  12 -22-113.638 161.888   1
 -12  -9  22 52.8625 194.985   6
  -9 -12  22-129.569 153.217   6
  12   9 -23-72.3405 105.270   1
  -9  12  23 357.788 370.910   3
   9 -12 -23-21.5447 150.879   5
 -12  -9  23-237.350 192.120   7
  -9 -12  23 124.498 157.693   7
  12   9 -23-232.425 114.363   4
   9  12 -23 234.596 157.900   4
   9  12 -23-144.826 185.345   1
 -12  -9  23-25.9577 177.034   6
  -9 -12  23 21.3240 139.552   6
  12   9 -24-29.8202 112.371   1
 -12  -9  24-29.8884 218.553   7
  12   9 -24 29.1627 111.881   4
   9  12 -24 62.7280 147.473   4
 -12  -9  24 25.7963 190.813   6
  -9 -12  24 21.2755 139.023   6
  12   9 -25 107.690 130.324   4
 -12  -9  25-25.4836 182.996   6
 -10 -12   7 111.515 204.663   6
  10  12  -8 11.1851 82.0256   1
 -10 -12   8-278.584 203.796   6
  10  12  -9 11.5659 66.2814   1
 -10 -12   9 81.5732 184.464   7
 -10 -12   9 55.7792 190.897   6
  10  12 -10 23.9296 89.5797   1
 -10 -12  10 188.989 209.176   7
  10  12 -10 92.0875 72.4071   4
 -10 -12  10 496.073 214.236   6
  10  12 -11 235.663 99.0277   1
 -10 -12  11-133.693 185.141   7
  10  12 -11 144.764 85.6156   4
 -10 -12  11-27.3766 203.715   6
  10  12 -12 1240.01 218.597   1
 -10 -12  12 1742.44 313.601   7
  10  12 -12 838.745 200.959   4
 -10 -12  12 1475.51 288.496   6
  10  12 -13-175.014 110.759   1
 -10 -12  13-25.8770 178.715   7
  10  12 -13 202.675 92.7713   4
 -10 -12  13 26.5854 191.415   6
  10  12 -14 1085.25 238.640   1
 -10 -12  14 1113.39 284.677   7
  10  12 -14 1085.54 223.671   4
 -10 -12  15 296.828 195.725   7
  10  12 -15-14.7906 111.526   1
  10  12 -15-11.8478 93.8166   4
 -10 -12  15 51.6050 190.168   6
  12  10 -16 61.1391 86.6992   4
  10  12 -16 198.919 101.934   4
 -12 -10  16 397.755 249.816   6
 -10 -12  16 455.018 196.443   6
  12  10 -17 138.874 90.3436   1
  12  10 -17-10.5892 78.9755   4
  10  12 -17 171.681 109.017   4
 -12 -10  17 29.6560 230.121   6
 -10 -12  17-150.030 173.674   6
  12  10 -18-91.0314 95.2840   1
  10  12 -18-67.6696 132.637   1
 -10 -12  18-118.303 169.729   7
  12  10 -18 55.3052 90.2797   4
  10  12 -18 13.8808 112.492   4
 -12 -10  18 28.8228 208.375   6
 -10 -12  18-171.466 181.281   6
  12  10 -19 53.6333 111.087   1
  10  12 -19 35.0213 127.805   1
 -12 -10  19 530.847 280.031   7
 -10 -12  19 47.4270 198.366   7
  12  10 -19 46.5096 103.310   4
 -12 -10  19 425.214 246.597   6
 -10 -12  19 48.4947 177.158   6
  12  10 -20 13.8090 95.7965   1
  10  12 -20-18.4879 144.339   1
 -12 -10  20-29.4935 206.278   7
 -10 -12  20-23.2884 154.389   7
  12  10 -20 24.2777 100.733   4
  10  12 -20 15.5298 133.423   4
 -12 -10  20 276.284 203.600   6
 -10 -12  20-23.8180 158.641   6
  12  10 -21-114.021 108.628   1
  10  12 -21 19.1633 143.388   1
 -12 -10  21-59.0966 204.027   7
 -10 -12  21-93.6984 165.923   7
  12  10 -21 89.6172 94.0427   4
  10  12 -21 82.5389 134.476   4
 -12 -10  21 431.557 196.488   6
 -10 -12  21 23.4402 151.700   6
  12  10 -22 102.865 115.918   1
 -12 -10  22 88.7971 203.485   7
  10  12 -22 20.2347 163.262   1
 -10 -12  22-94.4438 167.929   7
  12  10 -22-135.532 103.667   4
  10  12 -22 17.2525 135.621   4
 -12 -10  22 79.9093 190.985   6
 -10 -12  22-116.266 154.165   6
  12  10 -23 60.8248 121.523   1
 -12 -10  23 59.5286 181.810   7
  12  10 -23 14.2248 110.315   4
  10  12 -23-36.3863 149.106   4
 -12 -10  23-26.0998 181.773   6
 -11 -12  11 1769.75 269.364   6
  11  12 -11 309.395 127.654   1
  11  12 -12-12.2732 89.3504   1
  11  12 -12 105.910 78.9980   4
 -11 -12  12-59.5283 227.652   6
  11  12 -13 1638.23 280.603   4
 -11 -12  13 2632.77 385.379   7
 -11 -12  13 3496.41 391.037   6
  11  12 -14 13.0932 101.350   1
 -11 -12  14 28.4372 195.573   7
  11  12 -14 63.3099 89.3159   4
 -11 -12  14 28.7901 208.971   6
  11  12 -15 1043.65 187.921   1
 -11 -12  15 1691.50 281.418   7
  12  11 -15 506.799 155.732   4
  11  12 -15 762.602 167.640   4
 -11 -12  15 1917.73 295.773   6
  12  11 -16-74.0625 91.3897   4
  11  12 -16 11.6698 91.0927   4
 -12 -11  16-121.668 201.611   6
 -11 -12  16-27.5794 205.532   6
  12  11 -16 114.944 102.368   1
  12  11 -17 236.894 101.563   1
  11  12 -17 87.2700 115.351   1
  12  11 -17 33.0367 91.6899   4
  11  12 -17 317.749 103.603   4
 -12 -11  17 207.170 239.581   6
 -11 -12  17 244.891 218.441   6
  12  11 -18 13.5660 98.7559   1
  11  12 -18-15.1484 116.494   1
 -12 -11  18-356.090 230.182   7
 -11 -12  18-164.062 202.410   7
  12  11 -18-150.497 103.051   4
  11  12 -18 12.9250 99.4860   4
 -12 -11  18-28.8333 230.495   6
 -11 -12  18 133.079 215.533   6
  12  11 -19 13.9780 101.512   1
  11  12 -19-110.925 124.609   1
 -12 -11  19-177.848 209.956   7
 -11 -12  19-136.733 185.538   7
  12  11 -19-12.1965 88.2534   4
  11  12 -19 13.7375 114.720   4
 -12 -11  19-28.3459 197.440   6
 -11 -12  19 78.8035 184.530   6
  12  11 -20 14.4284 106.622   1
  11  12 -20-16.3709 126.730   1
 -12 -11  20-236.780 217.403   7
 -11 -12  20 26.8922 178.429   7
  12  11 -20-101.911 102.093   4
  11  12 -20-115.360 112.079   4
 -12 -11  20 27.6331 187.601   6
 -11 -12  20 25.6966 176.040   6
  11  12 -21 17.1827 106.104   1
 -11 -12  21 26.9835 152.435   7
  12  11 -21 13.4787 100.823   4
  11  12 -21-15.3343 118.465   4
 -12 -11  21 163.456 202.263   6
 -11 -12  21-152.468 170.012   6
  12  12 -15-41.9015 81.6673   4
 -12 -12  15-275.476 236.717   6
  12  12 -16 682.270 170.173   4
 -12 -12  16 1418.65 295.507   6
  12  12 -17 13.6998 108.023   1
 -12 -12  17-29.9842 209.690   7
  12  12 -17 45.9823 97.0641   4
 -12 -12  17-147.415 205.309   6
  12  12 -18 28.2140 101.140   1
 -12 -12  18 239.192 198.387   7
  12  12 -18 48.4660 97.2350   4
 -12 -12  18 28.7394 196.892   6
  12  12 -19-72.8203 97.8942   1
 -12 -12  19-29.8054 208.439   7
  12  12 -19 88.6586 102.172   4
 -12 -12  19 84.9349 214.890   6
   0  13   0 140.698 170.997   2
   0  13   0-63.7607 168.893   3
   0 -13   0 105.880 97.4993   5
   0 -13   0 32.2747 63.7317   8
   0  13  -1 1281.30 264.284   2
   0 -13   1 825.363 198.942   6
   0  13  -1 905.330 255.704   3
   0  13   1 966.031 252.906   3
   0  13   1 489.379 252.976   2
   0 -13   1 972.781 213.121   5
   0 -13  -1 1106.24 208.635   5
   0 -13  -1 974.900 191.729   8
   0 -13   1 1083.40 190.785   8
   0 -13   1 1315.37 194.459   7
   0  13  -1 1099.90 221.470   4
   0 -13   2 147.691 78.2939   6
   0  13  -2 103.571 173.964   3
   0  13   2-43.2604 161.293   3
   0  13   2 50.2241 182.276   2
   0 -13   2-150.840 95.2469   5
   0 -13  -2-38.5965 98.1622   5
   0 -13   2 31.6467 64.6722   8
   0 -13  -2 102.052 67.7338   8
   0 -13   2 55.3087 72.1712   7
   0  13  -2-15.4837 119.334   4
   0  13  -2 86.0105 155.489   2
   0 -13   3 2657.04 400.305   5
   0 -13  -3 1855.73 393.193   5
   0  13   3 2276.04 423.629   3
   0  13   3 1971.54 439.540   2
   0 -13   3 1907.11 382.029   8
   0 -13  -3 2250.57 385.599   8
   0 -13   3 2902.31 390.140   7
   0  13  -3 2339.78 409.721   4
   0  13  -3 2112.21 426.243   2
   0 -13   3 2247.46 389.740   6
   0 -13   4-11.8225 76.5334   6
   0  13   4 128.978 167.409   3
   0 -13   4 13.9873 102.193   5
   0 -13  -4-25.5486 91.1896   5
   0  13   4 52.0764 188.335   2
   0 -13  -4 55.7880 69.2393   8
   0 -13   4 117.861 76.5618   7
   0  13  -4 216.026 136.991   2
   0  13  -4 16.3643 121.761   4
   0  13   5 6396.55 1175.51   3
   0 -13  -5 7538.45 1159.31   5
   0 -13  -5 6447.62 1151.65   8
   0  13  -5 6729.44 1165.49   4
   0 -13   5 7737.63 1155.04   7
   0  13   5 7400.26 1189.30   2
   0 -13   5 6552.59 1155.34   6
   0 -13   6-36.9185 80.0606   6
   0  13   6 147.258 159.119   3
   0 -13  -6-37.6470 88.9098   5
   0  13   6-106.382 186.009   2
   0 -13  -6-71.6961 84.4868   8
   0 -13   6 20.9362 71.3738   7
   0  13  -6 34.7576 127.103   4
   0  13   7 9392.19 1561.10   3
   0 -13  -7 9251.66 1543.55   5
   0  13  -7 9375.50 1553.83   4
   0 -13   8-12.8223 82.5736   6
   0 -13   8 33.6131 80.0247   7
   0  13  -8 18.3388 136.171   4
   0  13  -9 4765.95 791.288   4
   0 -13   9 4524.31 775.751   6
   0 -13  10 107.196 87.1267   6
   0 -13 -10-121.986 102.398   8
   0  13  10-135.312 216.206   2
   0  13 -10 77.6193 149.391   4
   0  13  11 401.680 213.486   3
   0 -13 -11 1047.13 171.796   5
   0 -13 -11 612.849 160.812   8
   0  13  11 870.948 262.712   2
   0 -13 -12 64.7359 93.1183   5
   0  13  12-19.6390 144.349   3
   0 -13 -12-80.2051 116.021   8
   0  13  12-165.377 235.526   2
   0 -13  12-87.2649 108.827   7
   0  13 -12-122.482 177.938   4
   0 -13 -13 195.941 100.145   5
   0  13  13-78.0802 144.579   3
   0 -13 -13 56.0616 112.227   8
   0  13  13 27.7671 222.683   2
   0 -13  13 12.7823 100.397   7
   0  13 -13-104.638 188.289   4
   0  13  14-153.026 141.802   3
   0 -13 -14-13.3501 93.0546   5
   0 -13  14-52.4549 92.9706   7
   0 -13 -15 521.391 127.476   5
   0  13  15 439.521 159.667   3
   0 -13 -16-239.815 109.234   5
   0 -13 -16 92.3140 111.872   8
   0  13  16 57.4394 121.001   3
   0  13  16 28.9382 217.388   2
   0  13  17 2269.08 460.017   3
   0 -13 -17 2598.84 451.858   5
   0 -13 -17 2785.02 460.162   8
   0  13  17 2634.19 516.907   2
   0 -13 -18 49.6988 138.692   8
   0 -13 -18-135.305 109.986   5
   0  13  18-38.4292 127.408   3
   0  13  18 298.385 236.077   2
   0  13  19 2861.87 625.136   3
   0 -13 -19 3550.09 619.956   5
   0 -13 -19 4300.06 629.421   8
   0  13  19 3805.60 670.447   2
   0 -13 -20 32.5119 115.122   5
   0 -13 -20 34.5966 143.052   8
   0  13  20-57.7144 132.241   3
   0  13  20 31.0871 230.807   2
   0 -13 -21 2914.34 485.362   5
   0 -13 -21 3214.60 499.932   8
   0  13  21 1978.10 481.459   3
   0  13  21 3249.71 540.986   2
   0 -13 -22-18.0551 132.025   5
   0 -13 -22 72.1008 162.051   8
   0  13  22-19.2755 121.593   3
   0  13  22 32.2560 243.947   2
   0 -13 -23 1014.45 246.218   5
   0  13  23 819.308 239.568   3
   0  13  23 725.611 322.388   2
   0 -13 -24 206.048 178.563   8
   0 -13 -24 400.046 177.086   5
   0  13  24 39.5374 150.214   3
   0  13  24 404.661 276.193   2
   0 -13 -25 209.823 156.883   8
   0  13  25 19.8157 120.334   3
   0  13  25-34.7307 267.346   2
   0 -13 -25 271.818 148.482   5
   0 -13 -26-19.3958 158.693   8
   0 -13 -26-66.1225 151.769   5
   0  13  26-100.956 138.471   3
   0  13  26 71.0545 265.899   2
   0 -13 -27 78.8523 161.084   8
   0 -13 -27 46.1767 163.556   5
   0  13  27 20.6515 134.995   3
   0  13  27-145.368 265.765   2
   0 -13 -28 48.4681 165.911   5
   0  13  28-188.968 136.817   3
   1  13   0 118.438 161.853   3
   1 -13   0 353.751 138.648   5
   1  13   0 237.663 183.632   2
  -1 -13   0 390.887 96.9704   5
   1  13   0 357.097 124.883   1
   1  13   0 258.497 114.366   4
  -1 -13   0 148.870 84.3836   8
   1 -13   0 220.028 80.9217   8
  -1  13   0 158.375 178.256   2
  -1  13   1 332.455 174.734   2
  -1 -13   1 50.1365 69.6988   6
   1  13  -1 115.305 167.096   2
   1  13  -1 19.6983 149.472   3
   1 -13   1 98.5074 114.977   5
   1 -13  -1 15.4696 105.633   5
   1  13   1 98.7195 154.592   3
  -1 -13   1 155.773 81.6418   5
  -1 -13  -1 78.5452 88.4293   5
   1  13   1-24.2896 189.339   2
   1 -13   1 121.648 66.3425   8
  -1 -13   1 104.285 60.7966   8
  -1 -13  -1 70.5113 73.6837   8
   1 -13  -1 16.5014 65.9759   8
  -1 -13   1 42.0331 64.2840   7
   1  13  -1 70.5308 111.521   4
  -1  13  -1-43.4257 148.436   2
  -1 -13   2 1021.77 177.276   6
  -1  13   2 469.720 236.085   2
  -1  13   2 874.189 246.716   3
   1  13  -2 600.259 222.694   2
   1  13  -2 881.875 235.250   3
   1 -13   2 1565.04 218.084   5
   1 -13  -2 807.524 199.196   5
   1  13   2 689.769 216.471   3
  -1 -13   2 964.601 184.159   5
  -1 -13  -2 944.687 179.808   5
   1  13   2 1307.24 273.395   2
   1 -13  -2 843.568 172.404   8
  -1 -13   2 821.605 169.767   8
   1 -13   2 1164.64 181.163   7
  -1 -13   2 1005.97 176.307   7
  -1  13  -2 769.246 215.774   2
   1  13  -2 908.737 200.010   4
  -1 -13  -2 798.293 174.968   8
   1  13  -3 190.014 156.194   2
  -1 -13   3 53.0972 71.1245   6
  -1  13   3-22.7081 173.623   3
  -1  13   3 229.303 179.709   2
   1  13  -3 255.592 163.602   3
   1 -13   3-159.075 128.276   5
   1 -13  -3-14.7338 110.259   5
  -1 -13   3-22.1523 83.2220   5
   1  13   3-58.8967 151.175   3
  -1 -13  -3 33.6217 79.4336   5
  -1 -13   3 108.239 60.6415   8
   1 -13  -3-8.52668 63.8653   8
   1  13   3 124.474 198.268   2
  -1 -13  -3-48.6859 82.0391   8
  -1 -13   3 36.4653 64.6423   7
   1 -13   3-30.7402 69.2648   7
   1  13  -3 15.1764 115.237   4
   1  13  -4 3184.33 603.827   3
   1  13   4 2900.54 598.935   3
  -1 -13  -4 3106.21 575.818   8
   1 -13   4 3738.43 598.385   5
   1 -13  -4 3525.81 585.184   5
  -1  13   4 2911.57 617.949   2
   1  13   4 3437.15 615.373   2
  -1 -13   4 3841.24 576.230   7
   1  13  -4 3814.23 605.511   2
  -1 -13   4 3267.26 575.390   6
  -1  13   4 3656.90 616.553   3
  -1 -13   5 11.1542 66.5939   6
  -1  13   5 92.1123 186.937   3
   1 -13   5-116.150 148.509   5
  -1  13   5-26.7944 187.381   2
   1 -13  -5-42.4837 98.6137   5
   1  13   5 152.965 149.752   3
  -1 -13  -5 68.5138 86.3596   5
   1 -13  -5-72.3439 73.4103   8
   1  13   5 50.2193 180.732   2
  -1 -13  -5 76.1761 85.8046   8
  -1 -13   5-9.85416 77.4388   7
   1 -13   5-45.1930 72.0064   7
   1  13  -5 32.5543 125.748   4
  -1  13   6 7476.25 1265.86   3
   1  13   6 7213.03 1254.04   3
   1 -13  -6 7808.50 1244.63   5
  -1 -13  -6 7091.20 1240.99   5
   1 -13  -6 7268.21 1236.70   8
  -1 -13  -6 7687.71 1241.39   8
  -1 -13   6 8222.31 1240.20   7
   1  13  -6 6827.61 1250.45   4
   1 -13   6 6993.20 1241.14   7
  -1 -13   6 7847.03 1240.13   6
  -1 -13   7 58.2692 75.0975   6
  -1  13   7 68.8418 165.200   3
   1 -13  -7-109.551 108.382   5
   1  13   7 37.8616 140.060   3
  -1 -13  -7-11.6749 82.0572   5
  -1 -13  -7 12.2406 101.277   8
  -1 -13   7-53.9073 77.9809   7
   1 -13   7-86.6218 90.1908   7
   1  13  -7-17.4478 135.763   4
  -1 -13  -8 5918.77 1070.24   5
  -1 -13   8 6932.25 1070.10   7
   1  13  -8 6015.96 1083.53   4
   1 -13   8 7198.45 1074.63   7
  -1 -13   8 6050.37 1068.62   6
  -1 -13   9 61.2177 79.2543   6
  -1  13   9-84.3930 207.296   2
   1 -13  -9-31.7317 81.1823   8
  -1 -13   9-55.2403 82.6781   7
   1 -13   9-39.2978 92.4135   7
   1  13  -9 18.6198 144.365   4
   1 -13 -10 1956.20 277.535   5
  -1  13  10 1409.40 314.766   3
   1 -13 -10 1353.65 272.099   8
  -1 -13 -10 1066.05 284.696   8
  -1  13  10 1247.89 341.001   2
   1  13  10 1829.27 346.268   2
  -1  13  11 28.5506 193.666   2
  -1  13  11-131.401 160.153   3
   1 -13 -11 119.144 94.5540   5
   1  13  11 18.2651 127.216   3
   1 -13 -11-22.9338 87.0718   8
  -1 -13 -11 45.0102 115.935   8
  -1 -13 -11 25.2014 82.3682   5
   1  13  11 77.9506 192.930   2
  -1 -13  11-22.9290 86.4258   7
  -1 -13  12 52.5544 95.4540   6
  -1 -13 -12-12.9647 91.1985   5
  -1  13  12 239.552 174.261   3
   1 -13 -12 199.678 111.514   5
  -1  13  12 86.1681 221.341   2
  -1 -13 -12 353.254 139.831   8
   1  13  12 54.7295 132.200   3
   1  13  12 78.8268 218.821   2
  -1 -13  12-105.495 99.1685   7
   1 -13 -12 70.2218 92.4965   8
   1  13 -12-61.6766 168.227   4
  -1 -13  13-94.0613 93.8789   6
  -1  13  13-297.969 177.652   3
  -1 -13 -13-16.2182 133.261   8
   1 -13 -13-93.4324 98.2774   5
  -1 -13 -13-40.0254 87.9332   5
   1  13  13-18.0732 129.841   3
  -1 -13  13-47.9515 92.7649   7
   1  13  13-321.033 213.521   2
   1  13 -13-168.831 165.353   4
  -1 -13  14 164.900 94.1048   6
  -1  13  14 423.419 157.440   3
   1 -13 -14 189.242 107.086   5
  -1 -13 -14 164.960 102.882   5
  -1 -13 -14 199.299 139.237   8
   1  13  14 218.072 126.904   3
  -1 -13  14 12.2046 87.6121   7
   1  13  14 244.384 199.383   2
   1  13 -14 21.7111 169.618   4
  -1 -13  15 28.1643 89.3057   6
   1 -13 -15 109.572 107.647   5
  -1  13  15-20.7202 153.846   3
   1  13  15 201.240 122.976   3
  -1 -13 -15-270.636 99.2048   5
   1 -13 -15-13.0554 105.662   8
  -1  13  15 29.4839 201.780   2
  -1 -13  15 12.4989 105.237   7
   1  13 -15 89.3764 174.415   4
  -1 -13  16 633.375 142.432   6
   1 -13 -16 607.765 142.299   5
  -1  13  16 577.151 178.770   3
  -1 -13 -16 398.550 148.365   5
   1 -13 -16 560.571 149.666   8
   1  13  16 680.149 173.095   3
  -1  13  16 239.218 221.289   2
  -1 -13  16 409.916 140.726   7
   1  13 -16 780.588 207.904   4
   1 -13 -17 13.9760 115.942   8
  -1 -13  17 88.4375 96.3246   6
  -1 -13 -17 91.9258 161.868   8
   1 -13 -17-84.6647 112.751   5
  -1  13  17 20.2260 137.817   3
  -1 -13 -17 30.8270 109.621   5
   1  13  17 54.7817 117.576   3
  -1  13  17-30.1668 228.977   2
  -1 -13  17-65.7325 96.5194   7
   1  13 -17 187.950 162.912   4
  -1  13  18 3703.34 578.380   3
   1  13  18 3176.44 564.874   3
   1 -13 -18 3436.99 559.543   5
  -1 -13 -18 3237.14 563.507   5
  -1 -13 -18 3127.34 580.667   8
  -1  13  18 2544.30 605.061   2
   1  13 -18 3092.14 589.514   4
  -1 -13 -19 17.1169 118.250   5
   1 -13 -19 44.7430 113.005   5
   1 -13 -19 164.580 131.545   8
  -1  13  19-60.2837 133.714   3
  -1 -13 -19-19.8509 158.002   8
   1  13  19-36.9631 128.691   3
  -1  13  19 374.256 275.554   2
  -1 -13  19 55.5698 112.687   7
   1  13 -19 611.393 198.878   4
   1 -13 -20 2679.87 375.400   5
  -1 -13 -20 1900.27 374.542   5
  -1 -13 -20 2716.82 397.691   8
  -1  13  20 1641.52 375.168   3
   1  13  20 726.432 358.964   3
  -1  13  20 1988.42 443.773   2
   1 -13 -20 3166.68 380.345   8
   1 -13 -21 15.6355 130.645   8
   1 -13 -21-47.7173 113.306   5
  -1 -13 -21-18.7685 122.815   5
  -1 -13 -21-103.412 167.504   8
  -1  13  21-20.2177 135.434   3
  -1  13  21-160.772 236.119   2
   1  13  21-55.7154 115.501   3
   1 -13 -22 1986.73 387.444   5
   1 -13 -22 2189.15 391.617   8
  -1 -13 -22 2043.94 410.650   8
  -1 -13 -22 2314.92 399.265   5
  -1  13  22 2099.77 394.988   3
  -1  13  22 1902.14 452.865   2
   1  13  22 2141.79 386.450   3
   1 -13 -23-17.4696 132.610   5
   1 -13 -23-130.605 130.864   8
  -1 -13 -23 21.4446 172.995   8
  -1 -13 -23-20.6925 160.423   5
  -1  13  23-40.6385 145.678   3
  -1  13  23-200.795 258.543   2
   1  13  23 267.069 147.895   3
   1 -13 -24 517.044 170.878   8
   1 -13 -24 185.333 169.129   5
  -1 -13 -24 740.962 218.471   8
  -1 -13 -24 368.093 192.513   5
  -1  13  24 225.799 167.657   3
  -1  13  24 615.155 327.016   2
   1  13  24 306.600 159.037   3
   1 -13 -25-136.215 147.155   8
  -1 -13 -25-107.070 173.911   8
   1 -13 -25 19.4154 131.194   5
  -1 -13 -25 159.874 162.486   5
  -1  13  25 34.9181 248.349   2
  -1  13  25-62.3360 141.028   3
   1  13  25-39.1366 131.020   3
   1 -13 -26-121.637 141.750   8
  -1 -13 -26 151.915 174.704   8
   1 -13 -26 225.802 151.486   5
  -1 -13 -26 118.930 167.254   5
  -1  13  26 499.627 284.309   2
  -1  13  26 62.4434 133.590   3
   1  13  26-120.551 134.682   3
   1 -13 -27 21.4608 145.136   5
   1 -13 -27-53.1716 142.750   8
  -1 -13 -27 21.9533 170.383   8
  -1 -13 -27 24.8021 171.425   5
  -1  13  27-401.377 270.013   2
  -1  13  27-63.5406 143.244   3
   1  13  27-82.7831 126.663   3
   1 -13 -28 269.671 171.967   5
  -1  13  28 64.0434 132.764   3
   1  13  28 42.8833 134.767   3
   1 -13 -28 18.0754 120.059   8
   2  13   0 14.4167 115.074   1
   2 -13   0-19.5022 135.454   5
   2  13   0-35.6009 136.305   3
  -2 -13   0 49.1075 71.6927   5
   2  13   0 162.369 189.642   2
  -2 -13   0 73.9087 75.8799   8
   2  13   0 47.5071 98.2357   4
  -2  13   0 131.319 146.642   2
   2 -13   1-20.7674 149.478   5
   2 -13  -1 25.1163 65.7923   8
   2 -13  -1 18.8499 132.380   5
   2  13  -1 35.6935 142.580   3
  -2 -13   1 28.9102 74.4488   5
   2  13   1 106.501 134.726   3
   2  13  -1-159.704 173.789   2
  -2 -13  -1 20.0504 70.9957   5
  -2 -13  -1 79.0557 80.7237   8
   2  13   1-93.5490 172.328   2
  -2 -13   1 8.53001 69.2461   8
   2  13  -1-138.406 123.259   1
  -2 -13   1-36.1516 69.8225   7
   2  13  -1-61.8280 96.5199   4
  -2  13   1-136.975 154.144   2
  -2 -13   1 53.1018 75.8294   6
   2 -13   2 151.899 153.134   5
   2  13  -2 163.176 123.977   1
   2 -13  -2 35.8075 128.469   5
   2  13  -2 44.5426 164.823   2
   2  13  -2 107.294 129.345   3
  -2 -13   2-18.9815 66.6034   5
   2  13   2-17.6841 139.544   3
  -2 -13  -2-61.3420 74.9611   5
   2 -13  -2 50.6067 66.0685   8
  -2 -13   2-8.07889 64.9902   8
  -2 -13  -2 63.8000 88.3734   8
   2  13   2 117.297 180.689   2
  -2 -13   2 82.0758 63.4760   7
   2 -13   2 95.9338 85.1020   7
   2  13  -2-65.4504 103.016   4
  -2  13   2-23.7555 164.808   2
  -2 -13   2 76.6191 76.7466   6
  -2 -13  -3 390.764 120.387   8
   2 -13   3 513.332 179.529   5
   2  13  -3 151.412 183.998   2
   2 -13  -3 188.100 135.432   5
   2  13  -3 562.699 161.151   3
  -2 -13   3 299.616 102.038   5
  -2 -13  -3 448.221 104.686   5
   2  13   3 581.554 151.159   3
   2  13   3 304.807 195.458   2
  -2 -13   3 306.911 99.1044   7
   2 -13  -3 256.616 92.6847   8
   2  13  -3 497.872 136.309   1
   2 -13   3 509.751 113.516   7
   2  13  -3 489.802 134.707   4
  -2 -13   3 446.321 107.660   6
  -2  13   3 321.054 181.298   2
  -2  13   4-178.347 178.203   2
   2 -13   4-49.2075 160.784   5
   2 -13  -4 33.4905 117.641   5
   2 -13  -4-78.1215 69.4182   8
  -2 -13  -4 10.6322 75.0470   5
  -2 -13  -4 24.0388 97.9275   8
   2  13   4-47.1110 172.932   2
  -2 -13   4-47.4862 74.4483   7
   2 -13   4 13.3896 93.2921   7
   2  13  -4-100.648 110.736   4
   2  13   4 70.2374 134.744   3
  -2 -13   4 68.0484 79.7107   6
   2  13   5 3091.35 560.801   3
  -2  13   5 2832.81 579.254   3
  -2  13   5 2955.08 582.447   2
   2 -13  -5 3531.48 555.088   5
  -2 -13  -5 3088.07 541.333   5
  -2 -13  -5 3591.50 550.128   8
   2  13  -5 3187.43 553.959   4
   2  13   5 3169.50 579.248   2
  -2 -13   5 3030.71 541.577   6
  -2 -13   6-23.6705 75.0599   6
  -2  13   6-71.6894 167.122   3
   2 -13  -6-63.5689 116.215   5
  -2 -13  -6-44.6322 80.0077   5
   2  13   6-121.678 129.551   3
  -2 -13  -6 146.752 106.596   8
  -2 -13   6 29.9694 73.6278   7
   2  13   6-23.5993 165.044   2
   2  13  -6-15.9616 124.599   4
   2  13   7 4320.02 718.194   3
  -2 -13  -7 3596.55 703.870   5
  -2 -13   7 4475.09 703.731   7
   2  13  -7 4276.09 717.951   4
  -2 -13   7 4411.42 706.534   6
  -2 -13   8-36.3790 84.4915   6
   2  13   8 85.4821 119.342   3
  -2 -13   8-83.8751 83.9022   7
   2  13  -8-156.171 146.318   4
  -2  13   9 1057.63 340.631   2
   2 -13  -9 1014.24 255.001   8
  -2 -13   9 1593.52 260.147   6
  -2  13  10 145.278 180.450   3
   2 -13 -10 57.7309 106.359   5
  -2  13  10-86.8084 216.450   2
   2 -13 -10-10.0509 77.3943   8
  -2 -13 -10-33.4160 134.356   8
  -2  13  11-382.057 177.343   3
   2 -13 -11-57.4901 106.804   5
  -2  13  11-146.295 221.323   2
   2 -13 -11-72.8931 90.5535   8
  -2 -13 -11 17.7068 143.811   8
   2  13  11 34.6823 117.706   3
  -2 -13  11 22.5276 82.1652   7
  -2 -13 -11 91.2339 90.8716   5
  -2 -13  12 232.527 113.088   6
  -2  13  12 476.547 197.408   3
   2 -13 -12 239.782 127.686   5
  -2 -13 -12 399.825 179.392   8
   2  13  12 260.994 140.033   3
  -2 -13 -12 149.241 112.700   5
  -2 -13  12 149.267 105.006   7
   2  13 -12 754.208 198.327   4
  -2 -13  13 39.4683 85.6504   6
  -2  13  13-23.3175 172.523   3
   2 -13 -13-42.3858 100.560   5
  -2 -13 -13 141.742 93.1601   5
  -2 -13 -13-77.0724 149.947   8
   2  13  13 157.223 124.805   3
  -2 -13  13-23.7353 90.5048   7
   2  13 -13-42.1493 173.273   4
  -2 -13  14-67.1234 97.0474   6
  -2 -13 -14 14.8454 99.8141   5
  -2  13  14 69.6539 164.441   3
   2 -13 -14 167.606 106.425   5
  -2  13  14-30.1444 222.978   2
   2 -13 -14-186.550 101.296   8
  -2 -13 -14-178.005 135.378   8
   2  13  14 52.6835 122.316   3
  -2 -13  14 24.2148 87.8784   7
   2  13 -14 173.936 165.044   4
  -2 -13  15-13.7177 83.3300   6
  -2  13  15-22.7131 175.475   3
   2 -13 -15 27.8332 100.581   5
   2 -13 -15 119.067 101.994   8
  -2 -13 -15-124.301 106.345   5
  -2 -13 -15-146.814 167.568   8
   2  13  15 141.136 125.460   3
  -2 -13  15-12.3598 91.4338   7
   2  13 -15-66.9351 165.037   4
  -2  13  15-334.764 223.393   2
  -2 -13  16-56.0813 95.6292   6
  -2  13  16 22.6350 155.231   3
   2 -13 -16-140.988 106.330   5
  -2  13  16-184.784 224.541   2
  -2 -13 -16-81.3861 116.655   5
   2  13  16-17.4696 103.570   3
  -2 -13  16-63.1662 86.6619   7
   2 -13 -16-49.6247 96.0408   8
   2  13 -16 22.9773 168.960   4
  -2 -13  17 14.3110 135.616   6
  -2  13  17 509.735 188.822   3
   2 -13 -17 453.066 151.924   5
   2 -13 -17 748.120 155.890   8
  -2 -13 -17 870.050 171.006   5
   2  13  17 633.636 165.464   3
  -2  13  17 777.342 277.300   2
  -2 -13  17 858.269 154.633   7
   2  13 -17 637.914 222.092   4
   2 -13 -18 28.7277 105.037   5
  -2 -13  18-175.390 94.1038   6
  -2 -13 -18-17.8641 128.588   5
   2 -13 -18 79.4336 109.488   8
  -2  13  18 378.341 240.166   2
  -2 -13 -18-112.782 180.795   8
   2  13  18 17.7469 114.260   3
  -2  13  18 65.1109 150.494   3
  -2 -13  18 13.5273 107.022   7
   2  13 -18-48.5190 172.510   4
  -2 -13  19 1583.20 264.198   6
  -2  13  19 1624.17 303.430   3
   2 -13 -19 1719.47 273.691   8
  -2  13  19 2143.84 391.678   2
  -2 -13 -19 1393.80 291.399   5
  -2 -13 -19 1152.89 328.218   8
   2  13  19 1540.98 281.364   3
  -2 -13  19 666.144 258.895   7
   2 -13 -19 1516.93 267.823   5
   2  13 -19 1614.27 325.731   4
  -2  13  20 64.0876 160.393   3
  -2 -13  20 15.2495 101.566   6
   2 -13 -20 14.9687 101.998   5
   2 -13 -20-41.5537 112.100   8
  -2  13  20 97.1240 249.243   2
  -2 -13 -20-23.5359 201.591   8
  -2 -13 -20-98.4501 143.983   5
   2  13  20 54.4216 119.111   3
  -2 -13  20 85.5557 120.405   7
   2  13 -20 25.4252 183.011   4
  -2 -13  21 998.912 249.815   6
   2 -13 -21 1356.22 249.081   5
   2 -13 -21 1658.53 259.131   8
  -2  13  21 1352.48 279.664   3
  -2  13  21 856.029 330.792   2
  -2 -13 -21 1439.26 313.755   8
  -2 -13 -21 926.862 273.451   5
   2  13  21 1397.85 263.606   3
   2  13 -21 1298.91 304.135   4
   2 -13 -22 47.6159 117.919   5
   2 -13 -22-29.6532 123.425   8
  -2  13  22 33.5084 248.819   2
  -2  13  22 21.4570 134.707   3
  -2 -13 -22-24.3964 190.473   8
  -2 -13 -22-172.445 152.709   5
   2  13  22-55.4398 118.452   3
  -2 -13  22-29.6079 114.447   7
   2  13 -22 26.4364 199.252   4
   2 -13 -23 349.087 136.925   8
  -2  13  23 34.1488 249.311   2
  -2  13  23 433.998 169.883   3
  -2 -13 -23 45.2275 156.649   5
  -2 -13 -23 545.041 226.486   8
   2  13  23 170.082 131.203   3
  -2 -13  23 519.432 139.093   7
   2 -13 -23 493.312 146.751   5
   2  13 -23-26.8430 208.142   4
   2 -13 -24-17.0462 132.179   5
  -2  13  24 313.380 270.876   2
  -2 -13 -24-25.1028 213.196   8
  -2  13  24-86.6025 150.795   3
  -2 -13 -24-70.5872 195.186   5
   2  13  24-58.1082 130.818   3
   2 -13 -24 15.5377 130.839   8
   2 -13 -25 15.9088 133.795   8
   2 -13 -25-343.395 131.669   5
  -2  13  25-390.928 291.684   2
  -2 -13 -25-101.532 200.832   8
  -2  13  25-21.9237 144.212   3
   2  13  25 140.056 139.731   3
   2 -13 -26-48.8566 137.537   8
   2 -13 -26-113.525 134.580   5
  -2  13  26 36.3075 262.393   2
  -2 -13 -26 123.880 196.675   8
  -2  13  26 21.8764 142.273   3
  -2  13  27-185.535 287.689   2
   2 -13 -27 293.581 151.491   8
   2 -13 -27-100.497 147.024   5
  -2  13  27-66.5832 156.575   3
   2 -13 -28-16.6948 136.203   8
  -2  13  28-151.835 287.392   2
   2 -13 -28-63.7836 156.652   5
  -2  13  28-156.017 155.136   3
  -3 -13   0 1513.49 280.715   5
   3 -13   0 1692.07 333.174   5
  -3 -13   0 1871.47 291.285   8
  -3 -13   0 1705.95 289.673   7
   3  13   0 1619.51 340.938   2
   3  13   0 1446.42 285.015   4
  -3 -13   0 1572.64 284.957   6
   3  13   0 1560.39 300.284   3
   3  13   0 1549.30 293.311   1
   3 -13  -1 159.144 158.388   5
  -3 -13   1-18.4600 62.5048   5
  -3 -13  -1 137.529 74.4464   5
   3  13  -1 32.2724 123.008   3
   3  13   1 16.0479 115.607   3
  -3 -13  -1-11.4866 94.8210   8
   3  13  -1-42.8878 103.419   1
   3  13  -1-21.8008 159.478   2
   3  13   1-21.8894 173.231   2
  -3 -13   1 63.5369 81.9474   7
  -3 -13   1 39.3862 80.8244   8
   3  13  -1 54.7711 88.2108   4
  -3 -13   1-11.7646 84.4741   6
   3 -13  -2 212.390 162.082   5
  -3 -13   2 341.000 89.0340   5
  -3 -13  -2 446.538 97.4200   5
   3  13  -2 21.6088 182.422   2
   3  13  -2 446.142 131.502   3
  -3 -13  -2 262.059 118.574   8
  -3 -13   2 355.039 96.3283   7
   3  13   2 414.643 199.998   2
  -3 -13   2 340.266 98.4924   8
   3  13  -2 311.217 108.826   4
   3  13  -2 261.594 135.636   1
  -3  13   2 366.115 177.526   2
  -3 -13   2 442.284 109.951   6
   3  13   2 176.451 131.015   3
   3  13  -3-82.3443 118.563   1
   3 -13  -3-59.9169 138.504   5
  -3 -13  -3-20.9635 64.4170   5
   3 -13  -3-8.68451 65.0059   8
   3  13   3-65.0229 117.029   3
  -3 -13  -3 79.2510 108.591   8
  -3 -13   3 10.3556 74.8733   7
   3  13   3-65.4086 163.708   2
   3  13  -3-71.9755 101.017   4
  -3  13   3-71.1571 169.368   2
  -3 -13   3 60.7164 86.0280   6
   3 -13  -4 135.410 136.882   5
   3 -13  -4 359.539 91.4740   8
  -3 -13  -4 433.310 103.906   5
   3  13   4 358.676 127.465   3
  -3 -13  -4 490.732 143.285   8
   3  13  -4 243.032 144.577   1
  -3 -13   4 340.659 104.247   7
   3  13  -4 267.040 125.905   4
   3  13   4 285.401 178.556   2
  -3  13   4 73.5576 178.384   2
  -3 -13   4 320.829 113.805   6
   3 -13  -5 92.0621 131.030   5
  -3 -13  -5-33.6441 84.0472   5
  -3 -13  -5 152.981 126.231   8
   3  13   5-16.3672 116.500   3
  -3 -13   5 30.9620 76.5129   7
   3  13  -5 26.9335 108.408   4
   3  13  -5 18.3980 114.952   1
  -3 -13   5 75.1858 93.8761   6
  -3 -13  -6 1284.50 243.744   5
   3  13  -6 1078.27 278.574   1
  -3 -13  -6 1638.55 271.361   8
   3  13   6 1529.12 267.334   3
  -3 -13   6 1208.65 238.676   7
   3  13  -6 1367.84 262.952   4
  -3 -13   6 1271.55 248.199   6
  -3 -13  -7-11.9870 90.0086   5
   3  13   7 16.4765 111.765   3
   3  13  -7 120.526 155.730   1
  -3 -13   7-21.0632 81.3755   7
   3  13  -7 15.0707 118.441   4
  -3 -13   7 25.7629 89.7144   6
  -3  13   8 361.217 229.517   2
   3 -13  -8 598.545 142.092   8
   3  13  -8 652.307 183.743   4
  -3 -13   8 925.096 158.859   6
  -3  13   9 56.8249 194.442   2
  -3  13   9-151.170 197.327   3
   3 -13  -9-113.111 122.205   5
   3 -13  -9 66.7660 72.9161   8
  -3 -13  -9 19.4353 148.574   8
  -3  13  10 50.8504 209.662   3
  -3  13  10-173.545 217.996   2
   3 -13 -10 32.0028 105.146   5
  -3 -13 -10 13.6560 97.6013   5
  -3 -13 -10-20.0065 155.156   8
   3  13  10-16.6073 116.713   3
   3 -13 -10-29.3944 81.3900   8
  -3 -13  10-76.9167 87.3240   7
  -3  13  11-229.438 213.368   3
   3 -13 -11 124.623 120.367   5
   3 -13 -11 10.0435 84.8301   8
  -3 -13 -11-114.445 104.628   5
  -3 -13 -11 63.6754 175.537   8
   3  13  11-49.9451 125.471   3
  -3 -13  11-22.3107 85.6102   7
   3  13 -11 185.896 156.515   4
  -3 -13  11-67.3533 97.7578   6
  -3 -13  12 488.885 114.399   6
  -3  13  12 231.028 208.813   3
   3 -13 -12 333.929 129.705   5
  -3 -13 -12 119.981 106.462   5
  -3 -13 -12-196.794 189.282   8
   3  13  12-33.3980 121.806   3
  -3 -13  12 475.845 109.421   7
   3  13 -12 116.862 166.740   4
  -3 -13  13 136.792 83.5498   6
  -3  13  13-178.123 204.610   3
  -3  13  13 30.1841 229.102   2
   3 -13 -13-121.031 114.419   5
   3 -13 -13-63.0266 94.1959   8
  -3 -13 -13-31.4451 107.124   5
  -3 -13 -13-139.185 179.212   8
   3  13  13 83.9352 113.864   3
  -3 -13  13 69.2745 89.8171   7
   3  13 -13 81.4812 164.843   4
  -3 -13  14 385.706 109.423   6
  -3  13  14 50.9653 173.979   3
  -3  13  14 213.471 227.271   2
   3 -13 -14 237.177 126.204   5
   3 -13 -14 431.871 117.112   8
  -3 -13 -14 345.815 138.818   5
  -3 -13 -14 573.261 198.750   8
   3  13  14 303.956 135.395   3
  -3 -13  14 352.150 112.607   7
   3  13 -14 340.658 184.115   4
  -3 -13  15-69.3239 84.8911   6
  -3  13  15 50.1200 186.154   3
  -3  13  15 92.6000 211.321   2
   3 -13 -15 43.8375 106.600   5
  -3 -13 -15 68.8840 116.432   5
  -3 -13 -15-75.8100 180.525   8
   3  13  15 118.987 114.929   3
  -3 -13  15 71.8943 90.8182   7
   3  13 -15-66.6880 168.829   4
   3 -13 -15 100.338 94.3205   8
  -3 -13  16-70.3927 99.3635   6
  -3  13  16 171.948 187.821   3
  -3  13  16-218.750 227.645   2
   3 -13 -16-44.0570 116.627   5
   3 -13 -16-68.3443 98.1894   8
  -3 -13 -16-54.0037 129.108   5
  -3 -13 -16 155.828 206.851   8
   3  13  16 17.1538 103.670   3
  -3 -13  16 36.6227 84.7354   7
   3  13 -16-137.367 178.137   4
  -3 -13  17 14.2956 98.3762   6
   3 -13 -17-94.6429 95.5465   8
  -3  13  17-73.5668 173.002   3
  -3  13  17 316.173 245.991   2
   3 -13 -17 29.1290 108.236   5
  -3 -13 -17-18.8249 132.842   5
   3  13  17-207.950 112.771   3
  -3 -13  17 12.4532 91.8809   7
   3  13 -17 70.6020 176.749   4
  -3 -13  18 596.721 121.995   6
  -3  13  18 384.495 257.518   2
  -3  13  18 24.0583 181.027   3
   3 -13 -18 292.434 130.198   5
  -3 -13 -18 334.773 146.673   5
   3  13  18 157.978 122.322   3
  -3 -13  18 190.778 115.158   7
   3 -13 -18 326.762 119.697   8
   3  13 -18-121.038 204.687   4
  -3 -13  19 29.6766 95.6777   6
  -3 -13 -19 111.778 233.436   8
  -3  13  19-389.756 251.157   2
  -3  13  19-94.4053 172.920   3
   3 -13 -19-89.0088 114.731   5
   3 -13 -19-176.191 110.744   8
  -3 -13 -19-332.207 152.799   5
   3  13  19 53.4412 126.625   3
  -3 -13  19 91.0930 95.7820   7
   3  13 -19-223.557 204.458   4
  -3 -13  20 45.4061 121.038   6
  -3  13  20 32.9379 254.398   2
   3 -13 -20 537.309 143.005   5
  -3  13  20 377.722 190.061   3
   3 -13 -20 592.910 134.143   8
  -3 -13 -20 912.520 271.626   8
  -3 -13 -20 259.168 142.999   5
   3  13  20 581.107 148.978   3
   3  13 -20 356.593 210.593   4
   3 -13 -21 13.2056 116.878   8
  -3 -13  21 77.1344 107.886   6
  -3  13  21-200.752 240.826   2
   3 -13 -21-91.2661 109.924   5
  -3  13  21 115.790 159.880   3
  -3 -13 -21-203.224 237.889   8
  -3 -13 -21 89.9354 145.471   5
   3  13  21-55.6528 107.487   3
   3  13 -21 78.5990 197.423   4
  -3 -13  22 94.3992 106.327   6
  -3  13  22 136.047 252.219   2
   3 -13 -22 62.3105 115.334   5
   3 -13 -22 82.7007 117.442   8
  -3 -13 -22 265.234 257.294   8
  -3 -13  22 210.944 112.716   7
   3  13  22-19.0839 119.857   3
  -3  13  22 325.356 177.949   3
   3  13 -22-26.7427 210.229   4
  -3 -13  23-16.0606 110.113   6
  -3  13  23-346.095 293.501   2
   3 -13 -23-112.393 122.487   5
   3 -13 -23-14.1388 116.609   8
  -3  13  23-46.0813 165.291   3
  -3 -13 -23-203.142 272.499   8
  -3 -13  23-231.650 112.613   7
   3  13 -23 54.5707 228.921   4
  -3 -13  24-229.472 124.597   6
  -3  13  24-70.5284 283.636   2
   3 -13 -24 16.5432 117.836   5
  -3  13  24-69.2008 148.659   3
   3 -13 -24 29.0087 122.654   8
  -3 -13  24 14.9327 113.954   7
   3  13 -24 111.156 204.876   4
  -3  13  25-107.887 297.410   2
   3 -13 -25-102.930 147.796   5
   3 -13 -25-74.4375 118.597   8
  -3  13  25 163.655 157.173   3
  -3 -13  25 15.4281 111.980   7
   3  13 -25 28.1792 206.071   4
   3 -13 -26 88.9333 132.394   5
  -3  13  26 36.7180 279.903   2
   3 -13 -26 366.723 145.754   8
  -3  13  26 327.274 182.416   3
  -3 -13  26 303.254 129.969   7
   3  13 -26 342.072 215.056   4
  -3  13  27 37.5130 267.926   2
   3 -13 -27 15.6905 115.374   8
   3 -13 -27 18.8755 129.924   5
  -3  13  27 142.304 163.169   3
  -3  13  28 115.111 283.807   2
   3 -13 -28-32.2383 114.155   8
   3 -13 -28 80.1451 151.533   5
  -3  13  28-47.4589 159.496   3
  -4 -13   0 317.494 88.4123   5
  -4 -13   0 265.469 116.567   8
   4  13   0 218.757 116.798   3
  -4 -13   0 150.410 106.964   7
   4  13   0 235.509 86.5150   4
   4  13   0 291.538 97.7092   1
   4  13   0 20.1511 160.732   2
  -4 -13   0 265.519 106.374   6
   4  13  -1 3247.34 439.977   3
   4  13   1 2618.73 435.101   3
  -4 -13   1 2187.85 418.211   5
  -4 -13  -1 2223.12 419.345   5
  -4 -13   1 2437.14 425.330   8
  -4 -13  -1 2658.44 435.733   8
  -4 -13   1 2800.49 431.097   7
   4  13   1 2569.93 418.619   4
   4  13  -1 2090.19 420.053   4
   4  13  -1 2559.77 458.328   2
  -4 -13   1 2682.36 429.829   6
   4  13  -1 2129.13 424.584   1
   4  13  -2 138.372 104.458   1
  -4 -13  -2 363.579 98.8790   5
  -4 -13  -2 136.678 131.904   8
   4  13   2 330.710 119.456   3
  -4 -13   2 234.528 108.016   7
   4  13  -2 272.880 102.613   4
  -4 -13   2 203.246 107.680   6
   4 -13  -3 327.182 187.187   5
   4  13  -3 358.602 128.726   1
  -4 -13  -3 299.785 107.309   5
  -4 -13  -3 532.068 155.102   8
   4  13   3 302.662 128.556   3
  -4 -13   3 419.795 115.245   7
   4  13  -3 398.972 116.074   4
  -4 -13   3 410.964 121.201   6
   4 -13  -4 131.443 166.406   5
  -4 -13  -4 84.4124 88.0749   5
  -4 -13  -4-34.2591 137.449   8
   4  13  -4 48.3691 109.552   1
   4  13   4 111.313 102.070   3
  -4 -13   4-23.7729 84.7749   7
   4  13  -4-23.3694 95.3761   4
  -4 -13   4 110.765 101.450   6
  -4 -13  -5 609.966 114.692   5
   4  13   5 285.800 130.069   3
  -4 -13   5 280.688 116.180   7
   4  13  -5 356.411 124.507   4
   4  13  -5 324.328 155.851   1
  -4 -13  -5 131.304 163.694   8
  -4 -13   5 679.681 128.551   6
  -4 -13  -6 156.419 100.274   5
  -4 -13  -6 39.7927 164.492   8
   4  13   6 354.191 129.469   3
  -4 -13   6 161.685 101.279   7
   4  13  -6 258.289 119.920   4
  -4  13   6 201.719 183.427   2
   4  13  -6 18.2698 140.658   1
  -4 -13   6 266.013 110.739   6
   4 -13  -7 74.2335 79.8951   8
  -4 -13  -7 259.315 103.290   5
   4  13   7 209.281 117.218   3
  -4 -13   7 254.293 99.0522   7
   4  13  -7 379.848 120.504   4
  -4  13   7-78.0685 172.629   2
  -4 -13   7 339.028 111.449   6
   4 -13  -8 36.5527 131.749   5
   4 -13  -8 141.348 78.3874   8
  -4  13   8 80.0920 193.016   2
   4 -13  -9 105.667 121.188   5
   4 -13  -9-76.8336 70.1846   8
  -4 -13  -9-23.1185 196.406   8
   4  13  -9-21.1187 143.997   1
  -4  13   9-81.9772 193.594   2
  -4  13  10 77.5102 201.673   3
   4 -13 -10-17.3954 127.696   5
   4 -13 -10 68.5188 72.1413   8
  -4 -13 -10 169.720 120.849   5
  -4 -13 -10-71.7445 197.170   8
   4  13  10-194.682 117.248   3
  -4 -13  10-58.1081 94.9455   7
   4  13 -10 48.6461 144.657   4
  -4 -13  10 14.5358 107.525   6
   4  13 -10 22.0464 174.414   1
  -4  13  11 789.869 229.771   3
   4 -13 -11 591.083 157.667   5
   4  13 -11 137.841 210.567   1
  -4 -13 -11 660.463 145.594   5
  -4 -13 -11 430.340 242.295   8
   4  13  11 165.278 145.888   3
  -4 -13  11 420.124 122.351   7
   4  13 -11 154.070 167.239   4
  -4 -13  11 381.483 139.703   6
  -4  13  12-174.660 212.969   2
  -4  13  12-107.251 209.406   3
   4 -13 -12 114.946 116.501   5
   4 -13 -12 10.1552 73.4354   8
  -4 -13 -12-104.827 207.440   8
   4  13  12 116.427 114.043   3
  -4 -13  12 35.2192 81.7071   7
  -4 -13 -12 168.316 102.470   5
   4  13 -12-18.0354 142.852   4
   4  13 -12 23.8861 187.208   1
  -4 -13  12 73.9401 106.675   6
  -4  13  13 831.008 269.371   2
  -4  13  13 704.117 265.422   3
   4 -13 -13 1172.45 178.243   8
   4 -13 -13 881.760 197.365   5
  -4 -13 -13 668.145 195.412   5
  -4 -13 -13 1134.04 281.575   8
   4  13 -13 666.496 269.298   1
   4  13  13 469.026 196.464   3
  -4 -13  13 974.416 184.174   7
   4  13 -13 664.223 220.231   4
  -4 -13  13 899.289 187.895   6
   4  13 -14 25.5740 189.169   1
  -4  13  14-363.020 218.622   2
  -4  13  14 217.315 206.190   3
   4 -13 -14 95.9951 124.898   5
   4 -13 -14 10.6262 84.6444   8
  -4 -13 -14 28.6025 213.959   8
  -4 -13 -14-18.3691 112.208   5
   4  13  14-67.6590 98.6302   3
  -4 -13  14-24.0147 91.8139   7
   4  13 -14-159.487 159.284   4
  -4 -13  14 14.8351 88.5932   6
  -4 -13  15 806.318 167.888   6
  -4  13  15 430.583 276.952   2
  -4  13  15 903.617 243.414   3
   4 -13 -15 578.874 167.766   5
  -4 -13 -15 1093.36 299.710   8
  -4 -13 -15 826.651 184.172   5
   4 -13 -15 629.600 149.071   8
   4  13  15 444.781 165.221   3
  -4 -13  15 706.305 155.317   7
   4  13 -15 522.796 215.946   4
   4  13 -15 766.910 253.925   1
  -4 -13  16 75.0052 97.7127   6
   4  13 -16 191.686 218.851   1
  -4  13  16-93.7636 218.650   2
  -4  13  16 54.3478 205.593   3
   4 -13 -16 46.1013 110.322   5
   4 -13 -16 78.0229 96.4518   8
  -4 -13 -16-213.306 224.610   8
  -4 -13 -16-99.9963 133.312   5
  -4 -13  16 74.0559 96.8463   7
   4  13  16 138.941 119.525   3
   4  13 -16-174.713 170.566   4
  -4 -13  17-15.0628 99.3680   6
  -4  13  17-411.096 238.287   2
  -4  13  17-26.8126 199.070   3
   4 -13 -17 92.5827 110.620   5
   4 -13 -17-22.9321 90.4081   8
   4  13 -17 28.3685 206.624   1
  -4 -13 -17-125.464 236.351   8
  -4 -13 -17 20.7988 144.215   5
  -4 -13  17 25.0890 91.7268   7
   4  13  17-17.6666 108.497   3
   4  13 -17 227.590 173.982   4
  -4 -13  18 75.5818 105.344   6
  -4  13  18 289.095 248.660   2
  -4  13  18 158.212 208.848   3
   4 -13 -18 76.4370 118.518   5
   4 -13 -18 117.344 109.451   8
  -4 -13  18 204.361 114.840   7
   4  13  18 235.142 128.626   3
   4  13 -18 505.208 222.202   4
  -4 -13  19 91.0593 103.556   6
  -4  13  19 130.145 249.172   2
  -4  13  19-158.445 184.496   3
   4 -13 -19 15.1913 116.677   5
   4 -13 -19 60.3914 97.6444   8
  -4 -13  19 234.407 103.760   7
   4  13  19 92.9639 123.559   3
   4  13 -19 197.697 180.611   4
  -4 -13  20-15.3722 99.9487   6
  -4  13  20 98.9639 229.714   2
  -4  13  20 77.9513 193.640   3
   4 -13 -20 15.2851 109.135   5
   4 -13 -20-49.5248 103.621   8
   4  13 -20 25.3392 182.384   4
  -4 -13  21 201.848 107.806   6
  -4  13  21 234.703 248.865   2
  -4  13  21 51.1256 189.499   3
   4 -13 -21 108.726 126.609   5
   4 -13 -21 76.1942 112.231   8
   4  13 -21 103.982 190.476   4
  -4 -13  22 15.8020 112.824   6
  -4  13  22 34.0707 243.686   2
   4 -13 -22 144.392 119.479   8
   4 -13 -22 31.3027 117.954   5
  -4  13  22 179.424 189.414   3
  -4 -13  22 83.7104 111.666   7
   4  13 -22 265.917 206.644   4
  -4 -13  23 16.0906 115.556   6
  -4  13  23 302.467 213.931   3
   4 -13 -23 53.9390 125.601   8
  -4 -13  23 85.9793 121.551   7
   4 -13 -23 254.840 147.717   5
  -4  13  24 399.573 186.388   3
  -4 -13  24-163.768 109.026   6
  -4  13  24 634.790 281.930   2
   4 -13 -24 16.3780 117.381   5
   4 -13 -24 138.605 124.703   8
  -4 -13  24 88.4511 121.596   7
   4  13 -24 27.7477 226.187   4
  -4 -13  25 100.125 131.526   6
  -4  13  25 71.9092 272.013   2
   4 -13 -25 370.655 150.034   8
   4 -13 -25 422.478 154.900   5
  -4  13  25 982.806 216.787   3
  -4 -13  25 790.162 156.076   7
   4  13 -25 737.303 242.359   4
  -4 -13  26 170.224 115.822   6
  -4  13  26 73.3701 253.669   2
   4 -13 -26 17.4877 125.171   5
   4 -13 -26 44.0365 117.381   8
  -4  13  26 177.009 186.873   3
   4  13 -26 86.5057 213.758   4
  -4  13  27 824.291 317.368   2
   4 -13 -27 755.919 179.761   8
  -4  13  27 938.484 222.307   3
   4 -13 -27 289.403 165.678   5
  -4  13  28 38.3325 284.623   2
   4 -13 -28-19.0179 130.204   5
  -4  13  28 102.927 183.014   3
   5  13   0 2958.19 468.045   3
  -5 -13   0 2373.70 455.467   5
  -5 -13   0 2412.59 467.452   8
   5  13   0 2819.32 449.204   4
  -5 -13   0 2478.15 469.759   7
  -5 -13   0 2752.43 468.607   6
   5  13   1 324.764 94.5486   1
  -5 -13  -1 318.561 117.162   5
  -5 -13  -1 305.653 155.784   8
   5  13  -1 500.536 102.900   1
  -5 -13   1 373.791 131.176   7
   5  13   1 257.959 88.5891   4
   5  13   1 345.904 123.521   3
   5  13  -1 284.699 90.7541   4
  -5 -13   1 186.205 125.024   6
  -5 -13  -2 1503.30 310.750   5
  -5 -13  -2 1727.41 337.214   8
   5  13  -2 1833.81 304.652   4
  -5 -13   2 1450.45 320.808   7
   5  13   2 1550.55 321.540   3
   5  13  -2 1871.59 312.872   1
  -5 -13   2 2104.33 327.139   6
  -5 -13  -3 284.741 107.658   5
  -5 -13  -3 510.053 190.622   8
  -5 -13   3 206.384 120.050   7
   5  13   3 346.231 123.081   3
   5  13  -3 289.211 100.535   4
   5  13  -3 404.176 128.804   1
  -5 -13   3 266.249 121.753   6
  -5 -13  -4-112.529 105.002   5
  -5 -13  -4 20.7681 162.219   8
  -5 -13   4-28.3043 94.8796   7
   5  13   4 111.222 111.282   3
   5  13  -4 52.6276 88.3008   4
  -5 -13   4 31.1607 113.644   6
   5  13  -4 257.199 109.401   1
   5  13  -5 30.8555 128.545   1
  -5 -13  -5 463.891 122.638   5
  -5 -13  -5 394.784 190.269   8
  -5 -13   5 492.842 131.023   7
   5  13   5 316.953 122.793   3
   5  13  -5 400.210 110.103   4
  -5 -13   5 266.141 130.865   6
  -5 -13  -6 346.359 125.268   5
   5  13   6 385.045 125.415   3
   5  13  -6 399.419 116.521   4
  -5 -13   6 314.611 133.886   6
   5 -13  -7 105.278 146.641   5
  -5  13   7-150.874 169.801   2
   5 -13  -8-40.0912 153.470   5
  -5 -13  -8 304.418 207.396   8
   5  13  -8-130.396 144.654   1
  -5 -13   8-78.3428 100.171   7
  -5  13   8-102.937 196.907   2
   5 -13  -9 480.014 169.018   5
   5 -13  -9 408.424 103.141   8
  -5 -13  -9 200.959 151.514   5
  -5 -13  -9 479.789 281.672   8
  -5 -13   9 479.681 148.967   7
   5  13   9 213.010 148.023   3
   5  13  -9 361.671 164.070   4
   5  13  -9 294.925 183.802   1
  -5 -13   9 396.537 139.308   6
   5 -13 -10 314.392 135.021   5
  -5 -13 -10-83.2938 226.286   8
  -5 -13 -10 52.4066 131.962   5
  -5 -13  10 51.5706 118.333   7
   5  13  10-82.6091 122.096   3
   5  13 -10 43.8105 134.274   4
   5  13 -10 20.7009 169.879   1
  -5 -13  10 95.6182 131.316   6
   5 -13 -11 150.616 79.2870   8
   5 -13 -11 143.260 126.407   5
  -5 -13 -11 320.726 242.276   8
  -5 -13 -11 199.030 127.143   5
  -5 -13  11 64.2096 111.600   7
   5  13  11-16.8435 106.121   3
   5  13 -11 402.481 146.349   4
  -5  13  11 55.2085 183.636   2
  -5 -13  11 272.073 127.149   6
   5  13 -11-21.7351 164.298   1
   5 -13 -12 1136.61 179.328   8
   5  13 -12 250.722 238.116   1
   5 -13 -12 995.212 209.819   5
  -5 -13 -12 212.744 295.149   8
  -5 -13 -12 1012.93 212.308   5
  -5 -13  12 871.751 200.039   7
   5  13  12 459.893 205.802   3
   5  13 -12 1128.92 217.297   4
  -5  13  12 788.873 259.679   2
  -5 -13  12 1157.81 208.233   6
  -5  13  13 111.555 211.578   3
   5 -13 -13 363.969 142.822   5
   5 -13 -13 156.841 84.4264   8
   5  13 -13 47.7387 198.315   1
  -5 -13 -13-189.976 250.025   8
  -5 -13  13 193.879 108.080   7
   5  13  13 34.6789 110.415   3
   5  13 -13 310.819 141.001   4
  -5 -13  13 16.0334 112.911   6
  -5  13  13 373.492 222.538   2
  -5  13  14 1170.72 283.613   3
   5 -13 -14 1303.26 215.803   5
   5 -13 -14 1206.84 188.134   8
  -5 -13 -14 790.748 310.361   8
   5  13 -14 197.624 235.645   1
  -5 -13  14 994.975 190.911   7
   5  13  14 443.752 199.797   3
   5  13 -14 455.126 222.226   4
  -5 -13  14 1128.60 203.620   6
  -5  13  14 820.231 267.928   2
  -5  13  15 29.8832 178.529   2
  -5  13  15 318.944 227.229   3
   5 -13 -15 149.291 124.364   5
  -5 -13 -15 171.933 286.800   8
   5 -13 -15 109.161 93.0626   8
   5  13 -15-25.8137 187.645   1
  -5 -13  15 207.006 112.043   7
   5  13 -15 57.4899 152.956   4
  -5 -13  15 113.320 108.209   6
  -5  13  16 302.563 219.178   2
  -5  13  16 58.4714 228.208   3
   5 -13 -16 498.577 136.853   5
   5 -13 -16 289.853 106.539   8
  -5 -13  16 130.872 109.857   7
   5  13 -16 240.623 214.421   1
   5  13 -16 245.875 176.108   4
  -5 -13  16 422.369 140.108   6
  -5  13  17 339.264 227.501   2
  -5  13  17 116.951 223.319   3
   5 -13 -17 326.232 138.241   5
   5 -13 -17 193.899 104.179   8
  -5 -13  17 197.321 106.628   7
   5  13 -17 515.610 188.537   4
  -5 -13  17 65.2972 127.538   6
  -5  13  18 31.2364 226.624   2
  -5  13  18-295.297 229.709   3
   5 -13 -18 48.2276 124.626   5
   5 -13 -18 11.6750 92.3647   8
  -5 -13  18-106.778 103.474   7
   5  13 -18 112.421 172.491   4
   5  13 -18 29.0037 211.252   1
  -5 -13  18 48.5699 101.057   6
  -5 -13  19-145.952 108.166   6
  -5  13  19 286.917 239.422   2
  -5  13  19-204.835 231.572   3
   5 -13 -19-31.8672 118.899   5
   5 -13 -19 167.727 103.658   8
  -5 -13  19 122.098 108.204   7
   5  13 -19 70.2899 184.222   4
  -5 -13  20 16.2448 110.305   6
  -5  13  20 161.639 222.036   2
   5 -13 -20 282.716 109.556   8
  -5  13  20 28.8957 208.835   3
   5 -13 -20 32.1801 109.775   5
   5  13 -20 146.159 188.479   4
  -5 -13  21 32.5348 104.587   6
  -5  13  21 132.198 229.331   2
   5  13 -21-32.9589 250.321   1
  -5  13  21 145.176 227.578   3
   5 -13 -21-64.1151 121.990   5
   5 -13 -21 75.7124 105.364   8
  -5 -13  21 56.3453 110.315   7
   5  13 -21 333.827 210.605   4
  -5 -13  22 16.2911 108.153   6
  -5  13  22-470.001 267.405   2
   5  13 -22 34.4393 292.525   1
  -5  13  22-28.6706 196.303   3
   5 -13 -22 129.288 129.675   5
  -5 -13  22-85.7805 112.515   7
   5 -13 -22-52.0532 104.816   8
   5  13 -22-105.241 234.168   4
  -5 -13  23 16.3834 112.027   6
   5  13 -23 36.0683 285.132   1
  -5  13  23 339.522 207.903   3
   5 -13 -23 505.428 132.707   5
   5 -13 -23 214.193 112.274   8
  -5 -13  23 29.2831 111.439   7
   5  13 -23 26.8993 205.204   4
  -5 -13  24 132.925 118.896   6
  -5  13  24-277.853 264.304   2
   5  13 -24 75.7053 308.681   1
  -5  13  24 362.747 206.916   3
   5 -13 -24 96.4994 116.380   8
  -5 -13  24 300.417 121.256   7
   5  13 -24 27.5121 216.745   4
   5 -13 -24 315.728 132.560   5
  -5 -13  25 152.013 118.327   6
  -5  13  25-213.490 254.146   2
   5  13 -25 39.8252 286.736   1
   5 -13 -25-85.2671 117.373   8
  -5  13  25 28.0425 191.186   3
   5 -13 -25 67.7288 119.119   5
  -5 -13  25 108.856 114.363   7
   5  13 -25 56.1330 211.605   4
  -5  13  26 399.210 298.095   2
   5 -13 -26 436.571 180.832   5
  -5  13  26 863.153 242.095   3
   5 -13 -26 967.791 189.201   8
  -5  13  27-74.1378 260.350   2
   5 -13 -27 15.1439 120.245   8
   5 -13 -27 108.038 135.724   5
  -5  13  27-83.5732 181.158   3
   6  13   0 99.1562 75.6060   1
  -6 -13   0 20.9153 147.753   7
   6  13   0 124.024 71.6720   4
  -6 -13   0 53.9102 132.871   6
  -6 -13  -1 1498.48 320.452   8
  -6 -13  -1 1896.87 299.537   5
   6  13   1 1267.83 276.594   4
   6  13  -1 1583.21 281.005   4
  -6 -13   1 1207.17 315.543   7
   6  13   1 1758.91 309.588   3
   6  13   1 1692.33 284.130   1
   6  13  -1 1758.02 287.034   1
  -6 -13  -1 2229.64 325.447   6
  -6 -13   1 1744.08 317.945   6
   6  13  -2 730.162 140.091   1
  -6 -13  -2 382.933 205.797   8
  -6 -13  -2 738.315 161.698   5
  -6 -13   2 861.392 188.283   7
   6  13  -2 437.602 129.033   4
   6  13   2 764.592 161.624   3
  -6 -13   2 522.265 182.971   6
   6  13  -3 35.5325 93.5201   1
  -6 -13   3 254.844 138.463   7
   6  13  -3-18.0451 74.9413   4
   6  13   3 187.215 111.033   3
  -6 -13   3 17.8772 127.966   6
  -6 -13  -3 22.3487 177.617   8
  -6 -13  -4 537.745 214.924   8
  -6 -13   4 467.684 160.367   7
   6  13  -4 318.806 134.836   1
   6  13  -4 488.644 120.411   4
   6  13   4 512.731 150.941   3
  -6 -13   4 751.603 166.794   6
  -6 -13  -5 367.113 197.218   8
   6  13  -5 262.395 96.7307   4
   6  13   5 326.866 127.548   3
  -6 -13   5 537.268 157.158   6
   6  13   6 346.218 132.257   3
  -6 -13   7 419.388 156.109   7
   6  13  -7 252.183 156.492   1
  -6 -13  -8 337.762 255.844   8
   6  13  -8 168.156 134.463   4
   6  13  -9 485.241 228.629   1
  -6 -13  -9-88.5898 247.271   8
  -6 -13   9-105.214 134.668   7
   6  13  -9-88.8669 132.534   4
  -6 -13   9 653.358 246.847   6
   6  13 -10 341.887 173.230   1
  -6 -13 -10 62.0810 250.093   8
  -6 -13  10 281.551 151.164   7
   6  13 -10 240.885 140.686   4
  -6 -13  10 477.664 144.695   6
   6 -13 -11 135.964 148.767   5
   6  13 -11 160.487 167.087   1
  -6 -13  11-43.8550 135.233   7
   6  13 -11 257.299 140.979   4
  -6  13  11 26.6949 173.009   2
  -6 -13  11 230.465 134.097   6
   6 -13 -12 207.197 154.836   5
   6  13 -12 145.515 179.260   1
  -6 -13  12 28.8853 131.614   7
   6  13 -12 345.250 140.117   4
  -6  13  12 435.479 193.004   2
  -6 -13  12 281.697 134.753   6
   6 -13 -13 581.930 128.380   8
   6 -13 -13 311.962 161.813   5
   6  13 -13 372.583 190.075   1
  -6 -13  13 358.372 154.679   7
   6  13 -13 566.960 163.392   4
  -6  13  13 166.521 204.596   2
  -6  13  14 204.529 220.817   3
   6 -13 -14 179.527 135.668   5
   6 -13 -14 75.4934 88.1726   8
  -6 -13  14 99.6029 124.131   7
   6  13 -14 46.1774 159.328   1
   6  13 -14 300.093 132.132   4
  -6  13  14 84.5595 202.832   2
  -6 -13  14 317.492 128.953   6
  -6  13  15 512.477 262.152   3
   6 -13 -15 287.425 155.827   5
   6 -13 -15 572.160 130.053   8
  -6 -13  15 658.918 146.824   7
   6  13 -15 211.175 153.000   4
   6  13 -15 461.377 210.804   1
  -6  13  15 200.988 216.395   2
  -6 -13  15 565.294 153.441   6
  -6  13  16 123.724 221.155   3
   6 -13 -16 176.404 136.782   5
   6 -13 -16 101.120 96.6738   8
  -6 -13  16 57.0927 108.190   7
   6  13 -16-55.6396 144.253   4
   6  13 -16 150.976 205.242   1
  -6  13  16-29.2283 202.127   2
  -6 -13  16 52.6744 130.397   6
  -6  13  17-349.348 265.806   3
   6 -13 -17-17.3761 124.590   5
   6 -13 -17-11.5035 99.1107   8
  -6 -13  17 28.8154 109.382   7
   6  13 -17 19.5125 157.918   4
   6  13 -17-79.3240 200.706   1
  -6  13  17 178.629 216.007   2
  -6 -13  17-35.1979 125.677   6
  -6  13  18-225.525 246.747   3
   6 -13 -18 444.919 135.352   5
   6 -13 -18 259.270 108.860   8
  -6 -13  18 331.509 131.100   7
   6  13 -18 229.581 166.750   4
   6  13 -18 27.4355 196.270   1
  -6  13  18-30.1750 212.694   2
  -6 -13  18 17.6206 119.214   6
  -6  13  19 259.263 246.241   3
   6 -13 -19 152.168 136.586   5
   6 -13 -19 326.348 114.647   8
   6  13 -19 393.763 187.166   4
  -6  13  19 369.117 219.513   2
  -6 -13  19 314.309 137.792   6
  -6  13  20-32.3782 232.195   3
   6 -13 -20 17.0493 122.377   5
   6 -13 -20 86.9248 97.4477   8
   6  13 -20-45.7622 182.902   4
  -6  13  20 93.5834 217.311   2
  -6 -13  20 17.4639 118.609   6
  -6 -13  21 139.930 132.045   6
   6  13 -21 62.5895 229.629   1
  -6  13  21 294.788 251.776   3
   6 -13 -21 186.579 139.113   5
   6 -13 -21 344.600 123.383   8
  -6 -13  21 271.062 128.202   7
   6  13 -21 549.360 204.406   4
  -6  13  21-31.8504 235.377   2
  -6  13  22 614.610 261.727   2
  -6 -13  22 489.698 144.787   6
   6  13 -22-32.6641 260.820   1
  -6  13  22 97.4239 244.622   3
   6 -13 -22 219.906 139.363   5
   6 -13 -22 249.523 127.695   8
  -6 -13  22 410.473 149.059   7
  -6  13  23-230.143 226.063   2
  -6 -13  23 17.2310 120.636   6
   6  13 -23 204.984 257.498   1
  -6  13  23 96.5742 237.268   3
   6 -13 -23 16.9969 124.891   5
  -6 -13  23 77.6123 125.740   7
   6 -13 -23 13.5323 110.688   8
   6  13 -23 156.741 191.099   4
  -6  13  24 267.642 234.433   2
  -6 -13  24 189.571 122.443   6
   6  13 -24-35.8129 254.048   1
  -6  13  24 127.521 224.384   3
   6 -13 -24 260.199 128.679   5
   6 -13 -24-69.7529 99.0948   8
  13   6 -24 12.2633 96.8686   4
  -6 -13  24 254.045 123.137   7
   6  13 -24 27.0660 199.226   4
 -13  -6  24-28.0774 184.051   6
  -6  13  25 206.006 267.611   2
  -6 -13  25 52.1923 121.634   6
   6 -13 -25 420.874 142.232   5
  -6  13  25 315.746 229.284   3
   6 -13 -25 504.353 135.494   8
  13   6 -25 157.217 108.205   4
   6  13 -25 221.697 214.454   4
 -13  -6  25 196.234 205.272   6
  -6  13  26 70.0438 238.324   2
   6 -13 -26 284.501 141.059   5
   6 -13 -26 14.8933 117.058   8
  -6  13  26 127.079 215.378   3
   6 -13 -27 182.662 135.851   5
  -7 -13   0 610.545 198.327   6
   7  13  -1 60.2234 79.5867   1
  -7 -13  -1 101.701 153.349   6
  -7 -13   1 184.083 167.147   6
   7  13  -2 375.260 93.4368   1
  -7 -13  -2-69.0198 202.461   8
  -7 -13   2 226.202 176.696   7
   7  13  -2 269.223 90.4192   4
  -7 -13   2 450.930 180.770   6
  -7 -13  -3 359.310 231.558   8
   7  13  -3 232.328 90.5346   4
  -7 -13   3 324.537 185.324   6
  -7 -13  -4 974.117 308.990   8
   7  13  -5 147.178 102.380   1
  -7 -13   5 141.912 164.231   7
   7  13  -6 501.550 153.985   1
  -7 -13   6 579.331 196.305   7
   7  13  -6 620.871 139.612   4
  -7 -13   6 1065.98 206.326   6
  -7 -13   7 56.4720 153.972   7
   7  13  -7 585.659 132.506   1
   7  13  -7 278.331 109.810   4
  -7 -13   7 461.993 170.918   6
  -7 -13   8 146.927 160.839   7
   7  13  -8 456.229 114.734   4
   7  13  -8 376.032 151.820   1
  -7 -13   8 457.126 184.512   6
  -7 -13   9 17.5847 117.927   7
   7  13  -9 194.587 97.4614   4
   7  13  -9 63.6221 143.381   1
  -7 -13   9 99.2408 155.435   6
  -7 -13  10 86.0320 132.351   7
   7  13 -10-110.149 101.666   4
   7  13 -10 16.8330 125.814   1
  -7 -13  10-198.074 140.599   6
  -7 -13  11 50.5882 137.264   7
   7  13 -11 348.990 122.837   4
  -7 -13  11 411.308 164.666   6
   7  13 -11 160.275 138.311   1
  -7 -13  12 115.988 133.202   7
   7  13 -12 150.157 114.863   4
  -7 -13  12 39.1107 142.088   6
   7  13 -12 18.8087 141.984   1
   7  13 -13 218.421 179.988   1
  -7 -13  13 146.726 135.096   7
   7  13 -13 364.435 127.944   4
  -7 -13  13 293.000 149.651   6
   7  13 -14 20.9613 167.690   1
   7 -13 -14-116.722 148.970   5
  -7 -13  14 32.6818 122.090   7
   7  13 -14 184.089 130.194   4
  -7 -13  14 135.503 137.360   6
   7 -13 -15 19.0860 164.626   5
   7  13 -15 608.094 197.849   1
  -7 -13  15 451.478 162.991   7
   7  13 -15 627.464 161.033   4
  -7  13  15 306.445 210.620   2
  -7 -13  15 328.428 165.399   6
  -7  13  16-128.753 246.949   3
   7 -13 -16-18.7933 139.033   5
   7  13 -16 22.9259 168.305   1
  -7 -13  16-47.8149 123.588   7
   7  13 -16 34.0416 131.978   4
  -7  13  16-28.2453 186.350   2
  -7 -13  16 212.147 144.289   6
  -7  13  17 100.544 256.571   3
   7 -13 -17-18.5398 125.936   5
   7  13 -17 23.7627 172.271   1
  -7 -13  17 192.458 126.783   7
   7  13 -17 89.0445 144.769   4
  -7  13  17 57.3479 206.845   2
  -7 -13  17 114.446 133.537   6
  -7  13  18 311.920 262.985   3
   7 -13 -18 366.688 147.235   5
   7 -13 -18 285.964 107.575   8
   7  13 -18 25.1036 175.845   1
  -7 -13  18 461.454 131.334   7
   7  13 -18 168.825 161.033   4
  -7  13  18 553.390 212.118   2
  -7 -13  18 247.834 145.362   6
   7 -13 -19 134.514 102.308   8
  -7  13  19 71.1445 294.315   3
   7 -13 -19 127.159 133.585   5
   7  13 -19 140.640 157.175   4
  -7  13  19 88.8899 215.545   2
  -7 -13  19 266.853 143.140   6
  -7  13  20 397.908 296.526   3
   7 -13 -20 366.549 166.466   5
   7 -13 -20 664.082 141.977   8
   7  13 -20 827.047 242.914   1
   7  13 -20 717.257 195.187   4
  -7  13  20-30.0762 225.341   2
  -7 -13  20 509.578 162.067   6
  -7  13  21 36.5253 285.531   3
   7 -13 -21 400.069 183.278   5
   7 -13 -21 476.854 140.281   8
   7  13 -21 717.434 273.831   1
  -7 -13  21 658.649 177.247   7
   7  13 -21 375.621 213.410   4
  -7  13  21 337.267 262.600   2
  -7 -13  21 150.696 168.807   6
  -7  13  22 186.272 294.551   3
   7 -13 -22 217.306 138.912   5
   7  13 -22-119.643 214.763   1
  -7 -13  22 528.775 147.168   7
   7  13 -22 164.536 191.474   4
  -7  13  22 218.024 218.780   2
   7 -13 -22 291.912 116.283   8
  -7 -13  22 150.726 139.389   6
   7 -13 -23 177.459 118.859   8
  -7  13  23 148.738 288.194   3
   7 -13 -23 488.688 149.193   5
   7  13 -23 62.4633 247.335   1
  13   7 -23 11.9347 98.4127   4
  -7 -13  23 168.184 143.463   7
   7  13 -23 73.5616 202.248   4
 -13  -7  23 138.752 211.894   6
  -7  13  23 63.3363 211.171   2
  -7 -13  23 111.648 122.594   6
  -7 -13  24-18.5706 126.301   6
  -7  13  24-111.149 275.750   3
   7 -13 -24-489.422 150.685   5
   7 -13 -24-112.727 112.400   8
  13   7 -24-38.0116 100.764   4
   7  13 -24-50.9179 202.989   4
 -13  -7  24 27.4660 184.768   6
  -7  13  24-128.859 215.395   2
  -7  13  25 36.8600 261.533   3
   7 -13 -25 165.265 137.807   5
   7 -13 -25 160.248 130.966   8
  13   7 -25 54.0293 108.084   4
 -13  -7  25 110.313 209.951   6
  -7  13  25-32.9330 227.942   2
  -7  13  26 219.672 252.784   3
   7 -13 -26 168.905 139.377   5
   7 -13 -26-15.0808 120.138   8
  13   7 -26-116.112 112.565   4
 -13  -7  26 165.135 201.271   6
  -7  13  26 33.5836 223.670   2
  -8 -13   0 88.6734 179.410   6
  -8 -13  -1 65.6337 167.590   6
   8  13  -3-10.5021 76.5120   1
   8  13  -4 76.1142 88.0950   1
  -8 -13   4 218.998 154.820   7
   8  13  -4 40.6574 67.0469   4
  -8 -13   4 181.100 174.749   6
   8  13  -5 500.366 135.522   1
  -8 -13   5 721.663 216.205   7
   8  13  -5 587.667 123.148   4
  -8 -13   5 566.685 212.194   6
   8  13  -6 178.086 103.374   1
  -8 -13   6 186.924 189.915   7
   8  13  -6 251.150 83.4119   4
  -8 -13   6 158.475 161.480   6
   8  13  -7 758.505 165.963   1
  -8 -13   7 693.882 217.563   7
   8  13  -7 669.105 154.106   4
  -8 -13   7 1276.80 235.568   6
   8  13  -8 26.5965 95.1832   1
  -8 -13   8 21.8462 163.391   7
   8  13  -8 160.016 87.2441   4
  -8 -13   8 44.7605 155.126   6
   8  13  -9 154.351 108.813   1
  -8 -13   9 361.817 172.298   7
   8  13  -9 158.044 87.9177   4
  -8 -13   9 420.148 169.447   6
   8  13 -10 75.4257 111.867   1
  -8 -13  10 20.7477 165.760   7
   8  13 -10 255.139 100.874   4
  -8 -13  10 88.1441 157.120   6
  -8 -13  11-161.885 165.664   7
   8  13 -11-159.389 120.001   1
   8  13 -11-70.7917 92.1072   4
  -8 -13  11-21.9591 162.085   6
  -8 -13  12 237.047 157.740   7
   8  13 -12 87.1575 100.162   4
   8  13 -12-16.8355 130.138   1
  -8 -13  12 21.6666 153.882   6
  -8 -13  13 212.493 144.289   7
   8  13 -13 252.963 120.680   4
   8  13 -13 106.637 151.082   1
  -8 -13  13 409.709 170.991   6
  -8 -13  14-18.9012 142.173   7
   8  13 -14 323.223 121.645   4
   8  13 -14 202.480 155.355   1
  -8 -13  14 212.783 149.522   6
  -8 -13  15-18.5236 133.975   7
   8  13 -15-118.310 124.260   4
   8  13 -15 19.4519 144.527   1
  -8 -13  15 21.1993 145.184   6
  -8 -13  16 129.885 147.331   7
   8  13 -16 126.147 113.117   4
   8  13 -16-20.5520 144.998   1
  -8 -13  16-211.195 155.673   6
  -8 -13  17 36.5107 133.580   7
   8  13 -17 16.5257 136.432   4
   8  13 -17 85.1868 163.306   1
  -8 -13  17 208.610 148.891   6
  -8  13  18 73.5553 287.191   3
   8 -13 -18 118.175 137.999   5
  -8 -13  18-18.3388 127.985   7
   8  13 -18 69.1565 124.730   4
  -8 -13  18 41.5341 149.715   6
  -8  13  19 308.214 312.352   3
   8 -13 -19 742.985 188.248   5
   8  13 -19 401.774 179.828   4
  -8 -13  19 702.945 195.017   6
   8  13 -20 271.391 213.276   1
  -8  13  20 80.1908 327.149   3
   8 -13 -20-19.4573 152.860   5
  -8 -13  20 292.496 161.298   7
   8  13 -20 326.639 167.377   4
  -8 -13  20 204.287 181.414   6
   8  13 -21 51.2912 220.589   1
  -8  13  21 165.450 317.184   3
   8 -13 -21 658.156 189.332   5
  -8 -13  21 1016.82 188.796   7
   8  13 -21 102.816 199.509   4
  -8 -13  21 937.669 188.826   6
   8  13 -22 80.0513 205.321   1
  -8  13  22 464.888 306.302   3
   8 -13 -22 118.025 143.505   5
  13   8 -22 58.2508 95.6765   4
  -8 -13  22 422.786 159.170   7
   8  13 -22-172.540 171.655   4
  -8  13  22 120.293 210.720   2
  -8 -13  22 362.517 144.528   6
  -8  13  23-42.8341 342.295   3
   8 -13 -23 19.6097 143.041   5
  13   8 -23 61.4916 98.5613   4
  -8 -13  23 18.6522 119.128   7
   8  13 -23 22.5732 176.964   4
  -8  13  23 30.5784 197.994   2
 -13  -8  23 110.844 202.771   6
  -8 -13  23 100.348 140.569   6
  -8  13  24 43.1057 311.520   3
   8 -13 -24 39.2933 141.453   5
  13   8 -24-52.1137 102.784   4
  -8  13  24 62.2256 218.528   2
 -13  -8  24-109.334 202.967   6
  -8  13  25 44.0130 299.873   3
   8 -13 -25 98.5489 145.795   5
  13   8 -25-13.8775 101.095   4
  -8  13  25-31.6225 205.614   2
 -13  -8  25-27.0519 199.338   6
  -9 -13   2 145.247 188.518   6
  -9 -13   3 171.984 173.388   6
  -9 -13   4 74.6219 192.548   6
   9  13  -5 10.9412 82.1731   1
  -9 -13   5 24.9328 184.428   6
   9  13  -6 429.643 118.688   1
  -9 -13   6 365.754 197.953   7
  -9 -13   6 351.011 188.826   6
   9  13  -7 23.4890 89.8014   1
  -9 -13   7-103.732 175.905   7
   9  13  -7-17.6109 69.4550   4
  -9 -13   7-24.8698 170.959   6
   9  13  -8 97.8996 102.888   1
  -9 -13   8 280.463 172.426   7
   9  13  -8 268.880 88.7357   4
   9  13  -9-12.7680 91.9563   1
  -9 -13   9-24.9797 173.978   7
   9  13  -9 48.6883 74.5091   4
  -9 -13   9 49.0518 176.560   6
   9  13 -10-120.466 97.5461   1
  -9 -13  10 24.4049 171.423   7
   9  13 -10 40.9864 83.7650   4
  -9 -13  10 24.4731 162.244   6
   9  13 -11-42.8159 113.417   1
  -9 -13  11-119.189 181.667   7
   9  13 -11-10.8723 93.2897   4
  -9 -13  11-24.3697 180.338   6
   9  13 -12 60.1230 120.700   1
  -9 -13  12 302.611 182.465   7
   9  13 -12 366.019 114.423   4
   9  13 -13-311.153 123.245   1
  -9 -13  13 113.448 177.749   7
   9  13 -13-48.6213 94.3072   4
  -9 -13  13-167.062 173.066   6
   9  13 -14 525.054 145.510   1
  -9 -13  14 154.938 172.650   7
   9  13 -14 179.358 112.535   4
   9  13 -15 17.2794 122.872   1
  -9 -13  15 129.696 150.705   7
   9  13 -15 109.483 111.512   4
  -9 -13  15 186.620 173.909   6
  -9 -13  16 129.597 162.313   7
   9  13 -16 18.2306 103.890   1
   9  13 -16 43.2896 120.253   4
  -9 -13  16 22.9672 155.935   6
  -9 -13  17-21.1443 153.520   7
   9  13 -17 56.6141 143.492   1
   9  13 -17-273.036 128.562   4
  -9 -13  17-22.8221 156.200   6
   9  13 -18 145.405 122.677   4
  -9 -13  18 45.3709 166.248   6
   9  13 -19-524.121 163.319   4
  -9 -13  19 22.3531 167.262   6
  -9 -13  20 397.915 175.864   7
   9  13 -20 482.026 159.962   4
   9  13 -20 196.212 172.013   1
  -9 -13  20 66.6270 155.178   6
  -9 -13  21 20.6550 153.362   7
   9  13 -21-18.6314 141.032   4
   9  13 -21 203.598 163.378   1
  -9 -13  21 196.812 167.707   6
  13   9 -22 12.1468 95.2873   4
   9  13 -22 58.7700 165.008   4
 -13  -9  22 28.0859 198.143   6
  -9 -13  22-217.644 140.918   6
  -9  13  23-202.233 376.775   3
   9 -13 -23 127.134 170.378   5
  13   9 -23-12.8226 100.086   4
 -13  -9  23-55.0466 205.876   6
  -9  13  24 103.953 368.119   3
   9 -13 -24 21.2247 157.681   5
 -10 -13   6 27.0220 197.633   6
 -10 -13   7 190.669 196.966   6
  10  13  -8-11.6905 75.4342   1
  10  13  -8-26.1943 71.0636   4
 -10 -13   8-218.980 204.052   6
  10  13  -9 24.1620 89.8858   1
 -10 -13   9 277.075 220.716   7
  10  13  -9 63.9375 83.3652   4
 -10 -13   9-271.073 199.060   6
  10  13 -10 24.9899 95.2280   1
 -10 -13  10-110.087 191.674   7
  10  13 -10-19.2143 70.8565   4
 -10 -13  10-108.018 219.239   6
  10  13 -11 336.796 118.100   1
 -10 -13  11 463.588 193.186   7
  10  13 -12 54.3908 100.211   1
 -10 -13  12-26.9252 201.410   7
  10  13 -12-10.6728 86.6590   4
 -10 -13  12-212.196 199.878   6
  10  13 -13 800.988 193.111   1
 -10 -13  13 950.225 255.472   7
  10  13 -13 964.794 178.123   4
 -10 -13  13 757.194 254.720   6
  10  13 -14 14.7068 102.394   1
 -10 -13  14 103.213 182.207   7
  10  13 -14 59.4992 96.1331   4
 -10 -13  14 155.434 201.730   6
  10  13 -15 1033.16 160.932   1
 -10 -13  15 782.101 215.917   7
 -10 -13  15 381.931 201.004   6
  10  13 -16-16.1776 116.031   1
 -10 -13  16 75.4869 168.384   7
  10  13 -16-26.3196 106.553   4
 -10 -13  16-126.193 174.280   6
  10  13 -17 50.1628 124.510   1
 -10 -13  17 123.177 227.831   7
  10  13 -17 14.0318 117.127   4
 -10 -13  17 150.017 190.693   6
  10  13 -18-44.3188 122.726   4
 -10 -13  18-220.925 191.544   6
  10  13 -19 18.5403 139.981   1
  10  13 -19 62.9027 121.381   4
 -10 -13  19 97.4077 185.703   6
  10  13 -20 19.1921 130.351   1
 -10 -13  20 94.6912 178.511   7
  10  13 -20 32.9715 134.001   4
 -10 -13  20 47.9304 157.486   6
  13  10 -21 36.1704 93.6813   4
  10  13 -21 17.4013 127.396   4
 -13 -10  21 28.7417 194.169   6
 -10 -13  21 95.0425 165.580   6
  11  13 -10 372.636 99.1986   4
 -11 -13  10 323.407 224.015   6
  11  13 -11 12.3937 92.0164   1
  11  13 -11-28.5569 69.0607   4
 -11 -13  11 175.969 205.966   6
  11  13 -12 1048.94 215.040   1
 -11 -13  12 1430.35 302.102   7
  11  13 -13 92.4873 102.125   1
 -11 -13  13-348.480 205.852   7
  11  13 -13 94.6044 83.1060   4
 -11 -13  13 114.724 217.099   6
 -11 -13  14 2481.17 351.725   7
 -11 -13  14 2539.08 336.010   6
  11  13 -15-28.2013 101.908   1
 -11 -13  15 257.410 234.362   7
  11  13 -15-46.6679 92.3076   4
 -11 -13  15 83.8496 212.146   6
 -11 -13  16 791.862 245.986   7
  11  13 -16 648.886 134.207   4
 -11 -13  17 56.3939 215.551   7
  11  13 -17 12.8364 95.6610   4
 -11 -13  17-81.3336 179.697   6
  11  13 -18 163.851 114.820   4
 -11 -13  18-26.5501 189.735   6
  11  13 -19 16.4559 113.877   1
  11  13 -19-172.158 118.176   4
 -11 -13  19 52.5156 191.410   6
  13  11 -20-11.9904 95.1892   4
  12  13 -14 10.3799 79.9631   4
 -12 -13  14 91.5178 210.627   6
  12  13 -14 13.0081 98.0631   1
  12  13 -15 1808.31 225.344   1
 -12 -13  15 2177.59 340.339   6
  12  13 -16-13.7867 109.426   1
  12  13 -16 11.4641 90.9921   4
 -12 -13  16-29.6188 228.817   6
  12  13 -17 167.984 111.087   4
 -12 -13  17 702.093 228.351   6
   0  14   0-25.0173 184.363   2
   0 -14   0 52.2846 63.7917   8
   0  14   0-45.6080 182.210   3
   0 -14   0-27.6245 104.504   5
   0  14   1-104.128 187.371   2
   0  14  -1 67.7493 179.245   3
   0  14   1-137.831 187.068   3
   0 -14   1 56.7716 92.2835   5
   0 -14  -1-41.1834 101.924   5
   0 -14   1 17.2520 65.0036   8
   0 -14  -1 8.88374 71.4366   8
   0  14  -1 23.9741 166.232   2
   0  14  -2 222.996 179.754   3
   0  14   2 80.5680 196.830   2
   0  14   2 45.5712 163.753   3
   0 -14   2 85.9192 109.531   5
   0 -14  -2 204.271 104.151   5
   0 -14   2 85.5837 73.6427   8
   0 -14  -2 292.018 88.4278   8
   0  14  -2 251.403 160.233   2
   0  14  -2 269.859 134.573   4
   0 -14   3-12.5049 72.0211   6
   0  14  -3-43.9282 182.736   3
   0 -14   3-25.8096 66.4802   8
   0  14   3-205.201 190.259   3
   0  14   3-27.4620 189.598   2
   0 -14   3 86.8009 117.817   5
   0 -14  -3 81.2832 95.9477   5
   0 -14  -3 37.3499 73.1461   8
   0 -14   3-10.5605 79.2993   7
   0  14  -3 21.9146 147.302   2
   0  14  -3 120.813 130.534   4
   0  14  -4 1253.42 332.115   3
   0  14   4 1387.62 333.641   3
   0 -14  -4 1350.50 290.191   5
   0 -14   4 2306.87 291.677   7
   0 -14   4 1486.87 287.283   6
   0  14  -4 1308.77 318.571   2
   0  14  -4 1448.79 307.935   4
   0 -14   5 168.041 86.5951   6
   0 -14   5-77.4905 86.2266   7
   0  14  -5 18.1770 135.027   4
   0 -14   6 4666.19 762.504   6
   0 -14   6 4946.64 760.977   7
   0  14  -6 3555.18 773.173   4
   0 -14   7 13.3884 88.3305   6
   0  14   7-201.565 224.762   2
   0 -14  -7 54.7152 88.0012   8
   0 -14   7 23.1451 85.6066   7
   0  14  -7-76.2371 141.511   4
   0 -14  -8 1923.56 305.342   5
   0  14   8 1920.00 346.850   3
   0 -14  -8 1295.77 295.430   8
   0  14  -8 2287.33 335.028   4
   0  14   9 194.921 174.426   3
   0 -14  -9 250.699 114.180   5
   0 -14  -9 401.926 125.041   8
   0  14   9 319.130 264.774   2
   0  14  10 380.004 170.181   3
   0 -14 -10 359.992 115.018   5
   0 -14 -10 159.993 115.278   8
   0  14  10 291.215 235.057   2
   0 -14  10 261.997 118.250   7
   0  14 -10 368.857 164.515   4
   0  14  11-62.8969 154.499   3
   0 -14 -11 40.4297 92.2530   5
   0 -14 -11-115.633 105.301   8
   0  14  11-205.822 231.845   2
   0 -14  11 152.919 98.1284   7
   0  14 -11-125.724 147.790   4
   0 -14 -12-81.0246 95.7963   5
   0  14  12 41.6566 146.382   3
   0 -14 -12 26.8466 108.426   8
   0  14  12-29.5611 215.384   2
   0 -14  12-65.0703 95.3248   7
   0 -14 -13 123.325 100.977   5
   0  14  13-123.981 148.736   3
   0  14  13 29.7157 216.441   2
   0 -14 -13 13.6871 112.506   8
   0 -14  13-40.1039 93.4958   7
   0 -14 -14-13.9621 108.079   5
   0  14  14 121.256 135.977   3
   0 -14 -14 114.415 126.732   8
   0  14  14 150.500 228.918   2
   0 -14  14 150.257 103.937   7
   0 -14 -15-14.3069 108.500   5
   0  14  15-100.743 141.730   3
   0 -14 -16 73.3281 113.755   5
   0  14  16 503.635 156.444   3
   0 -14 -17-15.5634 134.484   8
   0 -14 -17-15.0489 115.517   5
   0  14  17 40.0366 143.564   3
   0  14  17 311.220 254.257   2
   0 -14 -18 1107.62 241.534   8
   0  14  18 1551.77 339.934   2
   0  14  18 1026.47 251.910   3
   0 -14 -18 1149.81 243.581   5
   0 -14 -19 16.0445 114.593   5
   0 -14 -19 33.2269 145.504   8
   0  14  19-161.281 239.502   2
   0  14  19-60.6183 140.737   3
   0  14  20 2647.13 463.505   3
   0 -14 -20 2638.09 451.069   5
   0 -14 -20 2812.87 463.357   8
   0  14  20 1512.72 502.431   2
   0 -14 -21-141.284 128.384   5
   0  14  21-20.1555 137.419   3
   0  14  21-133.177 254.901   2
   0 -14 -21-51.8144 157.474   8
   0 -14 -22 719.043 178.180   5
   0 -14 -22 334.322 171.417   8
   0  14  22 527.234 172.274   3
   0  14  22 305.808 290.154   2
   0 -14 -23 17.9100 147.249   8
   0 -14 -23-77.0675 132.482   5
   0  14  23 80.6498 134.940   3
   0  14  23-312.262 276.309   2
   0 -14 -24 145.790 150.858   8
   0 -14 -24 40.6164 142.186   5
   0  14  24 40.7452 128.019   3
   0  14  24-248.073 290.469   2
   0 -14 -25-74.0795 160.096   8
   0 -14 -25-105.843 150.051   5
   0  14  25 20.6254 130.266   3
   0  14  25 36.2024 257.512   2
   0 -14 -26 44.1971 166.840   5
   0  14  26-335.335 286.378   2
   0  14  26-165.365 150.995   3
   1  14   0-76.7728 191.598   2
   1 -14   0 167.152 122.023   5
   1  14   0 42.1210 155.990   3
  -1 -14   0 23.8003 92.2998   5
   1 -14   0 87.5044 69.4822   8
  -1 -14   0 8.88417 71.4510   8
  -1  14   0 48.1408 167.100   2
  -1  14   1 47.3971 193.588   3
   1  14  -1 24.7999 177.070   2
   1  14  -1-126.422 165.024   3
   1 -14   1 34.1109 115.685   5
   1 -14  -1 65.6511 118.609   5
   1  14   1-126.019 163.383   3
   1  14   1 52.3578 189.182   2
  -1 -14   1-35.6271 77.9727   5
  -1 -14  -1-11.9479 82.4905   5
   1 -14   1 8.71791 64.7318   8
  -1 -14  -1 27.4829 73.9028   8
  -1 -14   1-86.4715 74.6929   8
   1 -14  -1 53.1084 66.7037   8
  -1  14  -1-46.2170 158.146   2
  -1  14   1 25.0501 169.909   2
  -1  14   2 26.0564 185.282   2
   1  14  -2-94.6079 183.985   2
  -1  14   2 216.004 191.742   3
   1  14  -2-147.243 140.077   3
   1 -14   2 17.8244 126.746   5
   1 -14  -2-31.6309 120.472   5
   1  14   2-271.838 173.444   3
  -1 -14   2 83.0036 90.0007   5
   1  14   2 159.924 191.847   2
  -1 -14  -2-11.8198 82.6588   5
  -1 -14   2-8.49397 64.4700   8
  -1 -14  -2-9.59378 76.6461   8
   1 -14  -2 89.6607 72.7847   8
  -1  14  -2-66.6692 157.375   2
   1  14  -2-96.5740 127.332   4
  -1 -14   3 373.915 108.717   6
  -1  14   3 265.516 209.695   3
   1  14  -3 335.079 190.212   3
   1 -14   3 347.433 157.295   5
   1 -14  -3 420.756 144.835   5
   1  14   3 270.434 173.773   3
  -1 -14  -3 380.366 119.441   5
   1  14   3 269.944 212.466   2
   1 -14  -3 400.810 105.244   8
  -1 -14  -3 334.233 109.648   8
  -1 -14   3 491.745 108.933   7
   1 -14   3 523.656 115.104   7
   1  14  -3 514.198 152.639   4
   1  14  -3 407.166 165.787   2
  -1 -14   4 23.2116 75.0892   6
  -1  14   4-72.9122 190.990   3
   1 -14   4-56.4018 147.246   5
   1 -14  -4 15.0914 104.188   5
   1  14   4-41.3766 157.590   3
  -1 -14  -4-83.7959 91.5115   5
  -1 -14   4-10.1842 77.5771   7
   1 -14   4 34.2883 87.3726   7
   1  14  -4 136.666 127.310   4
  -1 -14  -4 10.7208 89.7247   8
  -1 -14  -5 2264.74 360.949   5
   1  14   5 1953.10 384.329   3
  -1 -14   5 1841.94 354.085   6
   1  14  -5 2189.38 381.918   4
  -1 -14   6-84.9996 83.0985   6
  -1  14   6 203.173 231.260   2
   1 -14  -6-68.3549 72.6477   8
  -1 -14   6 10.9405 82.5086   7
   1 -14   6-24.7805 89.1665   7
   1  14  -6-163.537 135.640   4
   1 -14  -7 2785.78 462.830   5
  -1  14   7 1786.80 494.369   3
  -1  14   7 2116.63 517.291   2
  -1 -14  -7 2203.04 458.049   8
   1  14   7 1536.65 501.768   2
  -1 -14   7 2908.84 456.741   7
   1  14  -7 3041.34 484.020   4
   1 -14   7 3250.83 460.060   7
  -1 -14   7 2684.38 455.236   6
  -1  14   8-96.2499 196.948   3
   1 -14  -8-128.447 110.568   5
  -1  14   8-118.859 260.487   2
   1  14   8 39.6162 151.929   3
  -1 -14  -8-100.744 99.4018   5
   1 -14  -8-20.9185 93.6370   8
  -1 -14  -8-143.025 119.612   8
   1  14   8 110.036 229.878   2
  -1  14   9 588.485 237.260   3
   1 -14  -9 825.094 177.641   5
  -1  14   9-60.0071 269.626   2
  -1 -14  -9 651.282 159.903   5
  -1 -14  -9 271.721 173.052   8
   1  14   9 275.045 193.868   3
   1 -14  -9 941.190 158.405   8
   1  14   9 441.813 281.877   2
  -1 -14   9 944.909 163.637   7
  -1 -14  10-13.2466 89.8549   6
  -1  14  10 116.844 166.176   3
   1 -14 -10-83.9323 103.081   5
  -1  14  10 120.983 219.438   2
  -1 -14 -10 194.187 98.2669   5
   1  14  10 19.5049 132.301   3
   1 -14 -10-112.176 91.9249   8
  -1 -14 -10 41.5817 116.007   8
   1  14  10 110.949 204.383   2
  -1 -14  10 61.0116 93.9471   7
   1  14 -10-246.568 169.921   4
  -1 -14  11 108.144 86.6951   6
  -1 -14 -11 13.2584 95.1429   5
  -1  14  11 68.3674 169.885   3
   1 -14 -11 41.9730 99.5785   5
  -1  14  11-30.4656 233.757   2
   1  14  11-77.6836 135.306   3
   1 -14 -11 58.1272 94.7650   8
  -1 -14 -11 14.5106 116.381   8
   1  14  11 55.7511 213.891   2
  -1 -14  11-62.1761 89.9632   7
   1  14 -11 189.664 169.504   4
  -1 -14  12-13.8246 86.3965   6
  -1  14  12-90.5246 164.892   3
   1 -14 -12 125.009 106.644   5
  -1 -14 -12-54.3983 93.9877   5
  -1  14  12-122.723 235.409   2
   1 -14 -12 84.5096 105.516   8
  -1 -14 -12 30.4367 122.835   8
   1  14  12 28.2647 212.248   2
   1  14  12 19.3555 126.536   3
  -1 -14  12 87.6573 96.5009   7
   1  14 -12 86.6704 162.732   4
  -1 -14  13 183.379 97.3823   6
  -1  14  13 401.313 249.842   2
  -1  14  13 202.318 161.132   3
   1 -14 -13 168.283 103.352   5
  -1 -14 -13 195.369 104.036   5
   1  14  13 38.2637 139.192   3
  -1 -14 -13-108.809 127.413   8
   1 -14 -13 98.4026 98.4494   8
   1  14  13 313.572 220.394   2
  -1 -14  13 89.3311 90.0359   7
   1  14 -13 200.589 165.473   4
  -1 -14  14-100.680 87.3607   6
  -1  14  14 109.679 151.445   3
   1 -14 -14 42.4820 119.913   5
  -1 -14 -14-57.3216 105.195   5
  -1 -14 -14-32.7018 128.927   8
   1  14  14 76.7653 126.606   3
   1  14  14 173.968 241.223   2
  -1 -14  14-52.0357 89.0338   7
   1  14 -14 227.963 167.334   4
  -1 -14  15 117.583 96.1513   6
  -1 -14 -15 66.8349 143.594   8
   1 -14 -15-42.5486 105.804   5
  -1  14  15-43.6327 141.232   3
  -1 -14 -15 29.6133 112.082   5
   1  14  15 38.5458 124.786   3
   1  14  15 381.350 225.884   2
  -1 -14  15-26.5486 100.505   7
   1  14 -15-23.3973 168.475   4
   1 -14 -16 28.7686 100.662   5
  -1  14  16 42.5610 149.496   3
  -1 -14 -16 91.7564 112.745   5
   1 -14 -16 54.3592 115.134   8
  -1  14  16-127.133 258.037   2
   1  14  16 154.526 135.702   3
  -1 -14  16-67.2525 101.052   7
   1  14 -16-71.7808 168.781   4
   1 -14 -17 923.941 174.690   5
  -1  14  17 721.631 205.796   3
  -1 -14 -17 461.633 168.199   5
   1 -14 -17 568.159 172.385   8
  -1  14  17 865.030 305.414   2
   1  14  17 523.068 182.374   3
  -1 -14  17 646.300 153.221   7
   1  14 -17 658.447 218.294   4
   1 -14 -18-15.0228 110.694   5
  -1  14  18 84.8232 135.835   3
  -1 -14 -18 99.6805 127.001   5
  -1 -14 -18-146.893 156.375   8
  -1  14  18 162.521 238.589   2
   1  14  18-95.9715 132.513   3
   1 -14 -18 14.4809 124.727   8
  -1 -14  18 14.0769 98.4432   7
   1  14  18 31.0471 227.015   2
   1  14 -18-24.8676 173.905   4
   1 -14 -19 1463.37 296.750   5
  -1 -14 -19 1721.48 299.240   5
  -1  14  19 1576.29 313.668   3
  -1 -14 -19 1855.50 312.224   8
   1 -14 -19 1535.88 293.119   8
  -1  14  19 1221.06 367.914   2
   1  14  19 1155.55 298.803   3
   1  14  19 1650.65 386.181   2
   1 -14 -20-31.7396 113.769   5
   1 -14 -20 45.1973 124.209   8
  -1 -14 -20 18.3392 134.095   5
  -1 -14 -20 59.1470 166.945   8
  -1  14  20-126.896 147.903   3
  -1  14  20 33.3706 238.262   2
   1  14  20 58.0533 135.327   3
   1  14  20-32.4874 241.201   2
   1 -14 -21 1176.61 227.629   5
   1 -14 -21 1591.11 239.723   8
  -1 -14 -21 803.513 250.490   8
  -1 -14 -21 995.313 230.016   5
  -1  14  21 505.386 226.790   3
  -1  14  21 407.415 300.148   2
   1  14  21 1462.56 241.675   3
   1  14  21 698.309 324.734   2
   1 -14 -22-17.1090 130.459   5
   1 -14 -22-64.2616 144.917   8
  -1 -14 -22 61.3204 185.258   8
  -1 -14 -22-99.7817 147.725   5
  -1  14  22-21.1887 152.014   3
  -1  14  22-310.996 284.079   2
   1  14  22 77.5809 139.726   3
   1  14  22-68.0929 272.066   2
   1 -14 -23 107.148 131.981   5
   1 -14 -23 16.3754 131.806   8
  -1 -14 -23 145.478 173.964   8
  -1 -14 -23 41.9186 145.967   5
  -1  14  23 35.2021 269.786   2
  -1  14  23 256.439 148.140   3
   1  14  23 274.784 129.668   3
   1  14  23-139.459 257.614   2
   1 -14 -24-66.7637 140.083   8
   1 -14 -24 18.6453 132.999   5
  -1 -14 -24 21.0952 167.764   8
  -1 -14 -24 65.6066 148.701   5
  -1  14  24-538.331 285.045   2
  -1  14  24-106.217 134.410   3
   1  14  24-19.8926 132.268   3
   1  14  24-428.289 262.189   2
   1 -14 -25-119.009 140.181   8
   1 -14 -25 39.5011 132.764   5
  -1 -14 -25 62.2013 174.049   8
  -1 -14 -25-45.6496 151.299   5
  -1  14  25 36.5960 275.768   2
  -1  14  25 107.244 146.148   3
   1  14  25-60.7161 134.791   3
   1  14  25-109.584 284.154   2
   1 -14 -26-165.138 154.778   5
  -1 -14 -26 119.442 168.809   5
  -1  14  26-373.543 274.399   2
  -1  14  26-150.022 142.457   3
   1  14  26 102.215 142.152   3
   2 -14   0 422.830 177.754   5
   2  14   0 589.268 172.718   3
   2  14   0 554.921 228.321   2
  -2 -14   0 446.577 113.534   5
  -2 -14   0 514.277 113.582   8
  -2  14   0 139.769 178.353   2
   2  14   1 178.659 193.839   2
   2 -14   1 20.8767 158.602   5
   2 -14  -1 19.4860 140.979   5
   2  14  -1 98.8957 188.453   2
   2  14  -1 57.2769 134.255   3
  -2 -14   1 10.3624 74.2992   5
   2  14   1-18.9081 136.808   3
  -2 -14  -1-43.2822 76.2957   5
   2 -14  -1 35.7492 68.6600   8
  -2 -14   1 90.2854 70.8004   8
  -2 -14  -1 90.8017 77.9692   8
  -2  14   1 96.7608 172.850   2
  -2 -14   2 80.0458 71.0728   6
   2 -14   2 89.1726 156.285   5
   2  14  -2 192.880 175.261   2
   2 -14  -2 129.680 131.105   5
   2  14  -2 172.496 158.873   3
   2  14   2 56.4361 137.987   3
  -2 -14  -2 33.0129 84.8301   5
  -2 -14  -2 32.1893 78.6095   8
   2  14   2 180.157 195.649   2
  -2 -14   2 29.8514 76.3126   7
   2  14  -2 69.6600 131.682   1
   2  14  -2 59.3678 112.777   4
  -2 -14   3 46.9461 75.9458   6
   2 -14   3 46.6632 152.447   5
   2 -14  -3 198.668 138.072   5
   2  14   3-18.7164 131.448   3
  -2 -14  -3 44.7340 78.5508   5
  -2 -14  -3 11.4731 92.8518   8
   2  14   3-77.2361 187.522   2
   2  14  -3-36.7271 137.367   1
  -2 -14   3-30.3643 73.1536   7
   2  14  -3-140.130 126.002   4
  -2 -14   4 392.002 113.842   6
  -2 -14  -4 352.642 113.191   5
   2 -14   4 452.807 215.443   5
   2  14   4 427.325 155.470   3
  -2 -14  -4 384.256 126.052   8
   2  14   4 487.666 209.183   2
  -2 -14   4 524.589 113.253   7
   2 -14   4 480.451 133.545   7
   2  14  -4 293.741 153.582   4
   2  14  -4 420.391 170.525   1
  -2 -14   5-12.0065 71.3186   6
  -2  14   5 27.8584 195.665   2
  -2 -14  -5 11.6004 90.2816   5
   2  14   5-55.3827 140.651   3
   2 -14  -5 56.3032 67.8700   8
  -2 -14   5-10.5072 83.7172   7
   2  14  -5 101.167 131.638   4
  -2 -14   6 1488.44 236.109   6
  -2  14   6 656.792 285.182   2
   2 -14  -6 1078.50 225.079   8
  -2 -14   6 1481.21 234.540   7
   2  14  -6 1148.35 262.190   4
  -2 -14   7 37.2494 86.1032   6
  -2  14   7-87.6194 218.470   2
  -2  14   7-177.512 207.152   3
   2 -14  -7-64.4754 119.681   5
   2 -14  -7-9.73737 72.8487   8
  -2 -14  -7-14.1280 115.773   8
   2  14   7-25.8489 205.169   2
   2  14  -7 127.578 150.722   4
  -2 -14  -8 951.970 175.727   5
  -2  14   8 662.796 274.133   3
  -2  14   8 1015.77 310.759   2
   2 -14  -8 718.564 190.947   5
   2 -14  -8 706.532 157.973   8
   2  14   8 402.396 203.909   3
  -2 -14  -8 505.328 187.952   8
  -2  14   9-101.002 200.557   3
  -2  14   9-181.805 246.863   2
   2 -14  -9 15.4283 106.317   5
  -2 -14  -9-90.1499 102.830   5
   2  14   9 18.3155 141.695   3
  -2 -14  -9-15.6655 138.118   8
  -2 -14   9-57.1101 97.2888   7
   2  14   9-313.467 240.901   2
   2 -14  -9-10.2349 85.9880   8
  -2 -14  10 26.0552 78.6800   6
  -2  14  10 25.2500 176.582   3
  -2  14  10 183.868 239.196   2
   2 -14 -10-15.0034 113.879   5
  -2 -14 -10 52.9923 89.0471   5
   2 -14 -10-41.9428 90.5706   8
  -2 -14 -10-214.764 134.531   8
   2  14  10 257.085 133.752   3
  -2 -14  10-11.6462 90.5968   7
   2  14  10-52.7441 222.015   2
   2  14 -10-20.3278 145.729   4
  -2 -14  11-92.7474 87.8994   6
  -2  14  11 148.752 182.616   3
  -2  14  11-216.763 228.680   2
   2 -14 -11-104.358 112.552   5
   2 -14 -11 21.5771 87.2516   8
  -2 -14 -11 95.5842 104.386   5
  -2 -14 -11-67.6095 131.463   8
   2  14  11 36.8338 120.126   3
  -2 -14  11-402.360 95.4606   7
   2  14  11 266.993 203.948   2
   2  14 -11-104.539 166.100   4
  -2 -14  12 377.943 112.648   6
  -2  14  12 222.073 183.391   3
  -2  14  12 31.2689 220.194   2
   2 -14 -12 482.538 132.454   5
   2 -14 -12 483.257 116.398   8
  -2 -14 -12 285.737 158.662   8
  -2 -14 -12 183.106 122.899   5
   2  14  12 184.354 137.389   3
  -2 -14  12 398.299 119.454   7
   2  14  12 571.352 236.364   2
   2  14 -12 237.368 169.609   4
  -2 -14  13-13.7692 86.8707   6
  -2  14  13 98.1153 183.486   3
   2 -14 -13-146.209 106.922   5
   2 -14 -13 34.0918 89.9168   8
  -2 -14 -13-14.7564 103.647   5
  -2 -14 -13 127.987 148.901   8
   2  14  13-36.9118 132.852   3
  -2 -14  13 49.0635 92.1060   7
   2  14 -13-244.519 171.139   4
  -2 -14  14 84.4303 97.3895   6
  -2  14  14 479.360 179.091   3
   2 -14 -14 230.831 110.975   5
  -2 -14 -14 107.819 122.586   5
  -2 -14 -14 522.161 173.758   8
   2  14  14 166.556 134.042   3
  -2 -14  14 277.041 99.5193   7
   2  14 -14 251.778 181.828   4
  -2 -14  15 28.7155 88.6727   6
  -2  14  15-214.579 178.348   3
   2 -14 -15 58.1451 94.5266   5
  -2  14  15-321.472 237.782   2
  -2 -14 -15-48.2203 116.625   5
  -2 -14 -15 19.8041 162.783   8
   2  14  15 55.6142 116.944   3
   2 -14 -15 12.2081 97.5448   8
  -2 -14  15 38.4340 94.4129   7
   2  14 -15 141.296 165.391   4
  -2 -14  16-14.6282 88.4242   6
  -2  14  16 139.823 172.408   3
   2 -14 -16-88.1240 100.584   5
  -2  14  16 194.867 242.064   2
  -2 -14 -16-83.8975 113.873   5
  -2 -14 -16-141.929 176.619   8
   2  14  16 74.3065 114.772   3
  -2 -14  16 13.0514 93.6403   7
   2  14 -16-120.968 179.664   4
   2 -14 -16-12.4443 103.600   8
  -2 -14  17 119.326 99.8428   6
   2 -14 -17-58.8441 117.189   5
  -2  14  17 23.2046 177.416   3
  -2  14  17-262.443 274.572   2
   2 -14 -17-38.7512 101.216   8
  -2 -14 -17 52.5859 116.772   5
   2  14  17-18.6307 115.087   3
  -2 -14  17-93.1503 102.136   7
   2  14 -17-49.4064 176.407   4
  -2 -14  18-45.6243 101.782   6
   2 -14 -18 401.950 126.371   5
  -2  14  18 317.751 178.426   3
  -2  14  18 33.1985 237.796   2
   2 -14 -18 685.037 133.043   8
  -2 -14 -18 146.394 144.996   5
   2  14  18 149.908 131.544   3
  -2 -14  18 275.542 117.004   7
   2  14 -18 379.138 210.624   4
  -2 -14  19-15.5018 106.649   6
   2 -14 -19-150.810 105.561   5
  -2  14  19-201.525 270.109   2
  -2  14  19 22.6206 154.183   3
  -2 -14 -19 152.587 145.357   5
  -2 -14 -19-156.703 177.738   8
   2  14  19 111.531 119.154   3
   2 -14 -19 107.525 112.244   8
  -2 -14  19 70.4157 99.8322   7
   2  14 -19 362.089 194.228   4
  -2 -14  20 870.832 196.320   6
   2 -14 -20 787.481 201.510   5
  -2  14  20 1464.56 340.637   2
  -2  14  20 1047.38 238.597   3
   2 -14 -20 853.483 208.598   8
  -2 -14 -20 753.614 252.931   8
  -2 -14 -20 695.720 224.145   5
   2  14  20 1068.96 215.650   3
  -2 -14  20 1153.86 205.062   7
   2  14 -20 1506.13 287.500   4
   2 -14 -21 15.8617 121.767   5
  -2  14  21 138.298 267.140   2
   2 -14 -21 42.8542 111.210   8
  -2  14  21 201.291 167.975   3
  -2 -14 -21-23.2547 190.013   8
  -2 -14 -21 167.034 154.499   5
   2  14  21 18.9478 128.595   3
  -2 -14  21-58.3831 106.405   7
   2  14 -21-134.363 205.476   4
   2 -14 -22 163.003 144.325   5
  -2  14  22 807.828 340.390   2
   2 -14 -22 277.044 137.062   8
  -2  14  22 156.215 174.476   3
  -2 -14 -22 212.849 224.167   8
  -2 -14 -22 304.856 186.406   5
   2  14  22 38.4142 139.213   3
   2  14 -22 409.350 234.618   4
   2 -14 -23 16.8525 125.411   5
  -2  14  23-428.742 271.316   2
   2 -14 -23-148.891 123.421   8
  -2 -14 -23-240.015 205.168   8
  -2  14  23 67.6099 150.321   3
  -2 -14 -23 159.357 160.773   5
   2  14  23-39.0181 127.132   3
  -2  14  24 36.2420 264.167   2
   2 -14 -24-139.453 119.199   5
   2 -14 -24 106.424 130.246   8
  -2 -14 -24 267.440 228.125   8
  -2  14  24-112.254 150.548   3
  -2 -14 -24-236.252 165.529   5
   2  14  24-139.400 126.675   3
  -2  14  25-110.723 252.578   2
   2 -14 -25-31.0413 126.389   8
  -2  14  25-22.6976 149.731   3
   2 -14 -25 18.4437 125.098   5
   2  14  25 60.8695 129.310   3
  -2  14  26 37.6337 279.418   2
   2 -14 -26-19.2725 133.648   5
  -2  14  26 45.2278 144.871   3
   3 -14   0 73.5981 167.431   5
   3  14   0 315.288 144.690   3
  -3 -14   0 193.748 97.6487   8
   3  14   0 265.765 187.611   2
  -3 -14   0 133.385 80.7223   5
   3  14  -1 2409.78 327.053   3
  -3 -14  -1 1677.04 295.874   5
   3 -14  -1 1687.10 346.979   5
   3  14  -1 1540.37 310.459   1
   3  14  -1 1586.13 354.994   2
   3  14   1 1760.64 318.841   3
  -3 -14  -1 1573.35 299.070   8
   3  14   1 1619.46 347.579   2
   3  14  -1 1430.84 302.360   4
  -3 -14  -2 173.801 77.2879   5
   3  14   2 121.675 123.297   3
  -3 -14  -2 149.049 105.387   8
   3  14   2-72.2312 184.221   2
  -3 -14   2 78.5971 88.4575   7
   3  14  -2 227.577 109.630   1
   3  14  -2 65.6215 106.275   4
  -3 -14   2-24.8801 91.2030   6
  -3 -14  -3 201.341 86.5506   5
   3  14   3 105.425 132.998   3
  -3 -14  -3 104.175 106.608   8
   3  14   3 167.530 181.838   2
  -3 -14   3 77.9492 89.6981   7
   3  14  -3 263.135 120.553   4
   3  14  -3 191.421 128.869   1
  -3 -14   3 88.3671 92.7376   6
   3  14  -4 18.5391 134.066   1
   3 -14  -4 9.28769 70.9211   8
  -3 -14  -4 138.308 88.1213   5
  -3 -14  -4 253.448 128.207   8
   3  14   4 17.5818 127.209   3
   3  14   4 335.473 184.284   2
   3  14  -4-14.6108 120.051   4
  -3  14   4 77.8743 196.740   2
  -3 -14   4 90.4411 84.5891   6
   3 -14  -5-18.9252 138.822   5
  -3 -14  -5 118.928 89.3186   5
   3  14   5 158.465 117.775   3
   3 -14  -5 37.5634 81.1913   8
   3  14  -5-19.4277 144.664   1
  -3 -14   5 55.8926 84.3465   7
   3  14  -5 46.1965 125.102   4
  -3  14   5 26.7177 194.154   2
  -3 -14   5 117.678 94.7616   6
   3 -14  -6 332.439 137.072   5
   3 -14  -6 19.0768 68.4879   8
   3  14  -6 145.958 134.588   4
  -3  14   6-137.937 209.696   2
  -3 -14   6 39.6520 95.8045   6
  -3  14   7 334.578 241.198   3
   3 -14  -7 620.570 170.838   5
   3 -14  -7 223.187 97.9398   8
  -3 -14  -7 198.431 170.476   8
  -3  14   8-405.385 250.858   2
  -3  14   8 78.2129 213.041   3
   3 -14  -8 34.1267 127.761   5
   3 -14  -8 68.9910 81.2058   8
  -3 -14  -8 209.352 104.348   5
  -3 -14  -8 34.9835 148.649   8
   3  14   8 35.2595 124.975   3
   3  14  -8 22.0103 180.442   1
  -3 -14   8-57.2736 92.8671   7
  -3  14   9-148.966 211.858   2
  -3  14   9 105.102 194.350   3
   3 -14  -9 16.8076 115.537   5
   3 -14  -9-50.0906 78.4711   8
  -3 -14  -9-13.6473 95.0420   5
  -3 -14  -9 55.5644 136.480   8
   3  14   9-17.8635 110.911   3
  -3 -14   9 57.9233 87.6203   7
   3  14  -9 22.6734 153.096   1
   3  14  -9 74.0966 143.111   4
  -3 -14   9 13.6282 91.1863   6
  -3 -14  10-68.6197 95.5677   6
  -3  14  10 273.526 238.027   2
  -3  14  10-132.603 199.109   3
   3 -14 -10-32.5584 110.416   5
   3 -14 -10 30.6181 81.0062   8
  -3 -14 -10-28.5313 101.024   5
  -3 -14 -10 117.780 159.352   8
   3  14  10-53.6526 115.135   3
  -3 -14  10 11.7151 88.2768   7
   3  14 -10 96.9424 156.398   4
  -3 -14  11 290.076 120.681   6
  -3  14  11 185.316 223.049   2
  -3  14  11 396.930 221.905   3
   3 -14 -11 306.444 133.267   5
   3 -14 -11 510.540 108.541   8
  -3 -14 -11 476.662 132.073   5
  -3 -14 -11 322.495 174.283   8
   3  14  11 250.470 139.335   3
  -3 -14  11 166.124 109.396   7
   3  14 -11 425.606 185.529   4
  -3 -14  12 14.0908 97.2805   6
  -3  14  12 371.662 202.941   3
   3 -14 -12-109.623 108.116   5
   3 -14 -12 42.6289 83.4674   8
  -3 -14 -12 46.7014 109.326   5
  -3 -14 -12 64.1981 184.832   8
   3  14  12-17.8945 108.681   3
  -3 -14  12-48.0680 93.1582   7
   3  14 -12-127.047 171.348   4
  -3 -14  13 949.108 199.461   6
  -3  14  13 760.435 272.676   3
   3 -14 -13 1182.81 211.565   5
  -3 -14 -13 1057.38 213.400   5
  -3 -14 -13 989.527 265.659   8
   3  14  13 573.180 215.458   3
  -3 -14  13 961.763 199.288   7
   3  14 -13 1083.14 250.513   4
  -3 -14  14 71.2071 101.121   6
  -3  14  14 96.0866 231.380   2
  -3  14  14 314.427 198.428   3
   3 -14 -14 15.2453 111.064   5
   3 -14 -14 145.280 95.0510   8
  -3 -14 -14 101.897 115.845   5
  -3 -14 -14 497.152 192.917   8
   3  14  14 143.756 124.013   3
  -3 -14  14 160.425 102.416   7
   3  14 -14-159.390 185.316   4
  -3 -14  15 346.506 110.202   6
  -3  14  15 64.7652 243.704   2
  -3  14  15 231.168 194.495   3
   3 -14 -15 442.006 132.950   5
   3 -14 -15 512.414 127.413   8
  -3 -14 -15 265.527 146.524   5
  -3 -14 -15 623.527 210.337   8
   3  14  15 559.215 143.702   3
  -3 -14  15 339.064 122.929   7
   3  14 -15 421.475 203.625   4
  -3 -14  16 190.344 106.513   6
  -3  14  16 196.137 291.864   2
  -3  14  16 333.046 203.038   3
   3 -14 -16 45.1323 117.664   5
   3 -14 -16 11.6885 99.4433   8
  -3 -14 -16 110.654 132.775   5
  -3 -14 -16 320.047 210.023   8
   3  14  16-144.977 121.300   3
  -3 -14  16 76.5231 99.6239   7
   3  14 -16-24.1071 189.837   4
  -3 -14  17 14.8831 96.4462   6
  -3  14  17-165.393 261.739   2
  -3  14  17 100.413 191.978   3
   3 -14 -17 15.1168 103.136   5
   3 -14 -17 12.0525 94.5511   8
  -3 -14 -17-101.028 220.029   8
  -3 -14 -17-115.325 154.647   5
   3  14  17-127.725 121.631   3
  -3 -14  17-129.703 97.5292   7
   3  14 -17 321.840 197.218   4
  -3 -14  18 181.778 111.308   6
  -3  14  18-66.8810 262.725   2
  -3  14  18-50.1187 181.962   3
   3 -14 -18 181.697 121.080   5
   3 -14 -18 159.906 112.728   8
  -3 -14 -18-80.1485 160.680   5
   3  14  18 147.176 127.383   3
   3  14 -18 127.104 186.645   4
  -3 -14  19 15.4250 108.572   6
  -3  14  19 33.8820 241.314   2
  -3  14  19 147.416 179.335   3
   3 -14 -19 136.686 116.470   5
  -3 -14 -19 146.300 143.840   5
   3  14  19 204.576 124.965   3
  -3 -14  19 364.651 111.363   7
   3  14 -19 338.746 197.808   4
   3 -14 -19 351.559 123.493   8
  -3 -14  20-31.3861 103.725   6
  -3  14  20 205.852 256.712   2
   3 -14 -20-30.7844 112.296   5
  -3  14  20-171.944 176.210   3
   3 -14 -20 26.0652 102.275   8
  -3 -14 -20 27.0084 229.448   8
  -3 -14 -20 218.385 150.251   5
   3  14  20-263.724 125.611   3
  -3 -14  20-55.1766 110.393   7
   3  14 -20-133.272 200.952   4
  -3 -14  21 15.9786 111.329   6
  -3  14  21 34.7775 256.129   2
   3 -14 -21 171.734 130.399   5
  -3  14  21 264.823 174.539   3
   3 -14 -21 199.705 112.391   8
  -3 -14 -21 137.497 226.989   8
  -3 -14 -21 226.634 176.327   5
   3  14  21 306.553 132.773   3
  -3 -14  21 56.4366 101.673   7
   3  14 -21-217.585 207.491   4
  -3 -14  22 211.535 129.390   6
  -3  14  22 70.6326 306.520   2
   3 -14 -22 32.0152 129.816   5
   3 -14 -22 95.2879 119.225   8
  -3  14  22 95.1336 192.257   3
  -3 -14 -22 27.9438 240.152   8
  -3 -14 -22-23.5409 188.499   5
   3  14  22 351.645 144.754   3
   3  14 -22 27.7434 236.427   4
  -3 -14  23-82.8499 111.367   6
  -3  14  23-466.428 279.300   2
   3 -14 -23 16.4675 119.474   5
   3 -14 -23 27.8370 119.683   8
  -3  14  23-95.7029 156.683   3
  -3 -14 -23-56.6225 238.576   8
   3  14  23-80.0481 122.683   3
   3  14 -23-169.562 217.061   4
  -3  14  24-72.9484 279.903   2
   3 -14 -24 16.9418 120.183   5
   3 -14 -24-14.2381 123.861   8
  -3  14  24 167.654 155.119   3
  -3 -14  24 60.9000 118.644   7
   3  14 -24 114.562 225.931   4
  -3  14  25 185.606 298.630   2
   3 -14 -25 807.035 150.495   5
   3 -14 -25 444.256 152.135   8
  -3  14  25 72.7493 170.599   3
   3  14 -25-463.690 241.892   4
   3 -14 -26-36.3342 151.161   5
  -3  14  26 96.8965 163.580   3
   4  14   0 3590.39 502.454   3
  -4 -14   0 2440.61 483.145   5
   4  14   0 3076.87 530.767   2
  -4 -14  -1 580.747 152.198   5
  -4 -14  -1 666.967 174.530   8
   4  14   1 942.171 188.238   3
   4  14   1 914.366 224.294   2
   4  14  -1 694.851 161.309   4
   4  14  -1 810.020 169.915   1
  -4 -14  -2 1968.03 335.917   8
   4  14  -2 1627.19 330.834   1
  -4 -14  -2 1860.39 322.812   5
   4  14   2 2216.25 338.360   3
  -4 -14   2 1471.18 327.212   7
   4  14  -2 1778.25 324.015   4
   4  14   2 1730.51 366.021   2
  -4 -14   2 1954.04 332.619   6
   4  14  -3 547.964 171.681   1
  -4 -14  -3 500.679 173.087   8
   4  14   3 911.212 175.640   3
  -4 -14   3 753.666 160.092   7
   4  14  -3 650.173 156.164   4
   4  14   3 1246.23 233.661   2
  -4 -14  -3 439.491 149.548   5
  -4 -14   3 662.383 157.833   6
   4 -14  -4-89.6398 168.063   5
   4  14  -4-202.587 147.121   1
  -4 -14  -4-100.477 97.7769   5
   4  14   4-136.909 127.156   3
  -4 -14   4-76.0847 102.352   7
   4  14  -4 26.1947 115.011   4
  -4 -14   4 14.2219 97.6459   6
   4 -14  -5 231.800 175.628   5
   4  14   5 190.144 134.072   3
  -4 -14   5 240.220 124.478   7
   4  14  -5 535.185 143.133   4
  -4  14   5 618.642 243.189   2
  -4 -14   5 430.374 128.294   6
   4 -14  -6 204.197 183.143   5
   4 -14  -6 67.2819 85.0517   8
  -4  14   6 26.4930 207.245   2
   4  14  -7 180.886 183.107   1
   4 -14  -7 563.705 184.113   5
   4 -14  -7 497.042 131.274   8
  -4 -14  -7 972.072 156.609   5
  -4 -14  -7-39.3164 197.833   8
  -4 -14   7 758.786 152.949   7
  -4  14   7 327.553 230.520   2
   4 -14  -8-18.6083 127.956   5
   4  14  -8-106.590 159.499   1
   4 -14  -8 19.7403 80.2013   8
  -4 -14  -8 14.7174 104.283   5
  -4 -14  -8 83.4875 166.785   8
   4  14   8-68.6249 114.836   3
  -4 -14   8-62.2122 99.4669   7
   4  14  -8-161.305 127.656   4
  -4  14   8 307.476 197.979   2
  -4 -14   8-29.4798 104.442   6
   4 -14  -9 219.200 131.126   5
   4 -14  -9 90.3317 88.6776   8
  -4 -14  -9 230.303 119.077   5
  -4 -14  -9 44.2791 174.533   8
   4  14   9 312.985 128.503   3
   4  14  -9 177.922 180.497   1
  -4 -14   9 99.5499 89.6854   7
   4  14  -9-17.0024 140.601   4
  -4  14   9 200.140 185.686   2
  -4 -14   9 223.080 110.223   6
  -4  14  10 134.608 216.338   3
   4 -14 -10 440.764 141.401   5
  -4 -14 -10 47.9803 117.450   5
  -4 -14 -10 251.001 202.949   8
   4 -14 -10 429.337 102.406   8
   4  14  10 139.146 126.041   3
  -4 -14  10 223.993 120.045   7
   4  14 -10 277.703 180.980   1
   4  14 -10 465.338 170.381   4
  -4 -14  10 359.487 116.603   6
  -4  14  10 496.175 232.146   2
  -4  14  11-27.3129 204.825   3
   4 -14 -11 348.024 127.055   5
   4 -14 -11 187.314 88.5097   8
  -4 -14 -11 379.852 130.375   5
  -4 -14 -11 169.734 186.943   8
   4  14  11 34.8216 114.650   3
  -4 -14  11 37.3826 98.8813   7
   4  14 -11 131.763 156.913   4
  -4 -14  11 301.444 110.139   6
   4  14 -11 95.3981 163.597   1
  -4  14  12 1322.55 282.487   3
   4 -14 -12 1081.22 208.701   5
   4  14 -12 74.2198 243.068   1
  -4 -14 -12 1255.79 203.666   5
  -4 -14 -12 901.212 252.292   8
   4  14  12 436.593 201.856   3
  -4 -14  12 749.425 185.742   7
   4  14 -12 1067.62 238.987   4
  -4 -14  12 971.789 189.417   6
  -4  14  13 247.214 236.712   2
  -4  14  13 250.961 196.786   3
   4 -14 -13 230.307 128.446   5
   4 -14 -13 226.216 99.8287   8
  -4 -14 -13 358.502 129.875   5
  -4 -14 -13 265.826 212.705   8
   4  14  13-17.5315 121.039   3
  -4 -14  13 138.715 102.524   7
   4  14 -13 207.321 187.204   4
  -4 -14  13 183.127 107.878   6
  -4 -14  14 1074.41 220.365   6
  -4  14  14 1855.74 336.488   2
  -4  14  14 1112.89 310.111   3
   4 -14 -14 1338.87 228.642   5
   4 -14 -14 1626.42 213.930   8
   4  14 -14 395.315 288.732   1
  -4 -14 -14 1290.14 305.748   8
  -4 -14 -14 1625.13 246.514   5
   4  14  14 71.4497 210.126   3
  -4 -14  14 785.704 213.484   7
   4  14 -14 1364.30 261.345   4
  -4 -14  15 323.472 113.037   6
  -4  14  15 64.0427 240.065   2
  -4  14  15 84.0207 224.498   3
   4 -14 -15 255.366 134.978   5
   4 -14 -15 414.549 110.025   8
  -4 -14 -15-28.3294 226.983   8
  -4 -14 -15 506.294 162.717   5
   4  14  15 377.855 133.895   3
  -4 -14  15 205.092 110.341   7
   4  14 -15 27.1968 203.731   1
   4  14 -15 22.5841 178.231   4
  -4 -14  16 401.704 125.766   6
   4  14 -16 84.0443 223.592   1
  -4  14  16 64.6856 250.964   2
  -4  14  16 360.056 229.675   3
   4 -14 -16 768.201 149.006   5
   4 -14 -16 229.254 115.014   8
  -4 -14 -16-29.1991 247.907   8
  -4 -14 -16 508.135 167.785   5
   4  14  16 363.164 132.812   3
  -4 -14  16 245.903 120.000   7
   4  14 -16 400.133 203.712   4
  -4 -14  17 294.219 116.617   6
  -4  14  17 394.311 239.297   2
  -4  14  17 327.052 223.845   3
   4 -14 -17 298.589 139.206   5
   4 -14 -17 352.678 109.662   8
  -4 -14 -17 586.248 248.493   8
  -4 -14 -17 21.0651 161.397   5
   4  14 -17 28.8847 216.161   1
  -4 -14  17 288.635 115.764   7
   4  14  17 147.157 129.530   3
   4  14 -17 98.0137 200.858   4
  -4 -14  18 15.4355 99.4093   6
  -4  14  18 33.2083 247.494   2
   4  14 -18-596.893 228.971   1
  -4  14  18-54.5841 196.459   3
   4 -14 -18 15.5485 115.906   5
   4 -14 -18 12.0034 92.4495   8
  -4 -14  18-93.2437 97.8150   7
   4  14  18 279.982 148.662   3
   4  14 -18-327.042 201.654   4
  -4 -14  19 312.288 123.851   6
  -4  14  19 101.249 260.430   2
  -4  14  19 80.5507 196.052   3
   4 -14 -19 187.961 125.441   5
   4 -14 -19 134.886 107.850   8
   4  14 -19 30.8570 232.513   1
  -4 -14  19 324.999 111.428   7
   4  14  19 19.0695 121.053   3
   4  14 -19 25.7827 195.594   4
  -4 -14  20 285.024 117.428   6
  -4  14  20-34.1515 241.996   2
   4  14 -20-63.9234 234.760   1
  -4  14  20 26.8954 182.620   3
   4 -14 -20 15.7291 116.209   5
   4 -14 -20 12.6067 104.911   8
  -4 -14  20 41.3044 106.333   7
   4  14  20 117.358 126.207   3
   4  14 -20-264.393 212.081   4
  -4 -14  21 16.0875 108.286   6
  -4  14  21-347.294 288.124   2
  -4  14  21 26.4726 187.559   3
   4 -14 -21 237.174 125.220   5
   4 -14 -21 12.8962 115.487   8
  -4 -14  21 14.0477 109.431   7
   4  14 -21-27.0368 220.932   4
  -4 -14  22-32.6995 106.397   6
   4 -14 -22-16.0615 118.882   5
  -4  14  22 105.646 248.389   2
  -4  14  22 26.5538 175.227   3
   4 -14 -22 171.632 115.379   8
   4  14 -22-165.820 218.677   4
  -4 -14  23 132.902 123.309   6
   4  14 -23 107.942 249.519   1
  -4  14  23 35.7435 254.259   2
   4 -14 -23 391.852 143.199   5
  -4  14  23 261.140 197.251   3
   4 -14 -23 285.398 126.876   8
  -4 -14  23 455.687 126.321   7
   4  14 -23 225.576 236.384   4
  -4 -14  24 16.8853 109.338   6
  -4  14  24-181.549 268.686   2
   4 -14 -24 301.920 134.542   5
   4 -14 -24 250.690 127.306   8
  -4  14  24 336.378 194.408   3
   4  14 -24 37.6025 265.230   1
   4  14 -24 28.7145 223.967   4
  -4  14  25 36.9302 253.184   2
   4 -14 -25 121.031 140.538   5
   4 -14 -25 314.231 132.741   8
  -4  14  25 26.1204 174.601   3
   4 -14 -26 536.380 181.668   5
  -4  14  26 1075.03 230.838   3
   5  14   1 2763.46 398.105   3
  -5 -14  -1 2000.33 377.639   5
  -5 -14  -1 2046.42 394.077   8
   5  14  -1 1856.51 370.612   4
  -5 -14   1 2070.89 395.731   7
  -5 -14   1 2643.65 391.947   6
   5  14  -1 2037.82 373.997   1
  -5 -14  -2 1291.98 289.330   5
  -5 -14  -2 1519.04 316.552   8
   5  14  -2 1684.30 289.644   4
  -5 -14   2 1740.70 310.560   7
   5  14   2 1518.80 303.229   3
   5  14  -2 1668.96 294.145   1
  -5 -14   2 1691.40 311.388   6
  -5 -14  -3 965.775 210.598   5
  -5 -14  -3 1311.97 261.194   8
   5  14   3 925.764 222.459   3
  -5 -14   3 902.600 216.498   7
   5  14  -3 1107.22 201.387   4
   5  14  -3 772.648 200.565   1
  -5 -14   3 778.267 215.578   6
  -5 -14  -4 1283.01 265.468   5
   5  14   4 1190.16 276.350   3
   5  14  -4 1449.01 261.752   4
  -5 -14   4 1583.47 279.111   6
  -5 -14  -6 482.953 218.136   8
  -5 -14   6 843.810 159.464   7
   5 -14  -7-21.3282 154.590   5
   5  14  -7 37.2853 151.333   1
  -5 -14  -7 48.3115 103.845   5
  -5 -14  -7 23.2814 182.730   8
  -5 -14   7 42.4138 105.646   7
   5  14   7 120.727 110.005   3
   5  14  -7 13.7890 110.096   4
  -5 -14   7 273.664 121.006   6
   5 -14  -8 851.460 216.238   5
  -5 -14  -8 846.643 191.290   5
  -5 -14  -8 593.121 259.803   8
   5  14  -8 1100.91 230.632   1
  -5 -14   8 1048.96 201.231   7
   5  14   8 241.318 201.334   3
   5  14  -8 997.385 193.104   4
  -5  14   8 161.838 224.047   2
  -5 -14   8 1083.59 197.727   6
   5 -14  -9-19.3859 142.917   5
   5 -14  -9 101.173 80.4317   8
  -5 -14  -9 26.1685 202.213   8
  -5 -14  -9 34.4804 117.549   5
  -5 -14   9-54.8609 98.8240   7
   5  14   9-139.707 121.693   3
   5  14  -9 20.7066 165.491   1
   5  14  -9-15.1448 123.797   4
  -5 -14   9 16.2427 121.583   6
   5 -14 -10 628.553 159.274   5
   5 -14 -10 462.287 109.179   8
  -5 -14 -10 54.3005 218.780   8
  -5 -14 -10 462.915 143.227   5
  -5 -14  10 272.579 128.149   7
   5  14  10 122.534 138.973   3
   5  14 -10 161.616 147.488   4
   5  14 -10 369.594 193.536   1
  -5  14  10 338.077 227.867   2
  -5 -14  10 554.879 150.908   6
   5 -14 -11 422.966 152.420   5
  -5 -14 -11 479.370 241.483   8
  -5 -14 -11 815.527 162.010   5
  -5 -14  11 507.006 138.186   7
   5  14  11 281.803 142.558   3
   5  14 -11 255.707 154.802   4
   5  14 -11 91.0461 194.845   1
  -5 -14  11 164.068 125.576   6
   5  14 -12 380.771 259.576   1
  -5  14  12 1373.07 308.466   3
   5 -14 -12 1390.83 235.547   5
  -5 -14 -12 806.749 317.139   8
  -5 -14 -12 1187.80 223.650   5
  -5 -14  12 1309.14 213.817   7
   5  14  12 376.251 215.841   3
   5  14 -12 952.343 239.332   4
  -5  14  12 586.208 297.488   2
  -5 -14  12 1072.18 212.670   6
  -5  14  13 972.186 317.444   3
   5 -14 -13 1308.28 252.371   5
   5  14 -13 441.790 267.230   1
   5 -14 -13 1557.24 223.516   8
  -5 -14 -13 1584.23 353.401   8
  -5 -14 -13 931.553 245.218   5
  -5 -14  13 1250.88 240.047   7
   5  14  13 18.0790 239.832   3
   5  14 -13 1248.41 268.402   4
  -5  14  13 1343.44 313.268   2
  -5 -14  13 1873.09 248.571   6
  -5  14  14 963.739 282.949   3
   5 -14 -14 293.026 152.481   5
   5 -14 -14 507.104 131.782   8
   5  14 -14 460.964 225.840   1
  -5 -14 -14 677.934 274.750   8
  -5 -14  14 643.613 146.510   7
   5  14  14 165.212 151.276   3
   5  14 -14 715.775 194.630   4
  -5  14  14 394.974 257.217   2
  -5 -14  14 773.321 160.136   6
  -5  14  15 472.491 267.088   3
   5 -14 -15 758.547 171.811   5
   5 -14 -15 675.087 150.223   8
  -5 -14 -15 545.285 299.062   8
   5  14 -15 237.598 232.408   1
  -5 -14  15 533.206 155.811   7
   5  14  15 243.817 155.313   3
   5  14 -15 438.136 202.732   4
  -5 -14  15 941.591 167.304   6
  -5  14  15 61.8676 227.400   2
  -5  14  16 907.108 279.221   2
  -5  14  16 473.973 262.322   3
   5 -14 -16 840.120 184.127   5
   5 -14 -16 1010.73 171.368   8
  -5 -14 -16 353.150 284.762   8
   5  14 -16-27.4947 239.021   1
  -5 -14  16 634.620 167.610   7
   5  14 -16 852.547 230.883   4
  -5 -14  16 728.336 175.865   6
  -5 -14  17 82.9842 109.185   6
  -5  14  17 222.991 220.990   2
  -5  14  17 59.9896 242.824   3
   5 -14 -17 16.4922 119.853   5
   5 -14 -17-11.7130 91.6893   8
  -5 -14  17 151.993 114.130   7
   5  14 -17 28.3760 204.361   1
   5  14 -17-160.051 184.568   4
  -5 -14  18 299.009 150.323   6
  -5  14  18 32.2220 253.298   2
  -5  14  18 596.241 259.496   3
   5 -14 -18 536.535 162.574   5
   5 -14 -18 442.943 136.492   8
  -5 -14  18 895.016 153.180   7
   5  14 -18 414.029 249.050   1
   5  14 -18 507.125 212.975   4
  -5 -14  19 16.6149 110.521   6
  -5  14  19 32.8306 248.464   2
  -5  14  19-88.4664 219.137   3
   5 -14 -19 16.3604 119.062   5
   5 -14 -19 110.087 94.9558   8
  -5 -14  19 113.381 113.244   7
   5  14 -19 30.5881 218.595   1
   5  14 -19 25.1125 204.711   4
  -5 -14  20 348.916 142.116   6
  -5  14  20 593.568 232.052   3
   5 -14 -20 308.644 146.063   5
   5 -14 -20 425.510 131.426   8
  -5 -14  20 456.907 135.532   7
   5  14 -20 730.251 226.265   4
   5  14 -20 348.680 256.680   1
  -5 -14  21 16.5235 116.287   6
  -5  14  21 67.8311 255.674   2
  -5  14  21-205.258 218.651   3
   5 -14 -21-81.2837 130.096   5
   5 -14 -21-12.8183 111.278   8
   5  14 -21-186.995 243.937   4
  -5 -14  22 183.538 135.973   6
  -5  14  22 68.7631 247.821   2
  -5  14  22 579.501 220.206   3
   5 -14 -22 595.405 147.071   5
   5 -14 -22 394.639 133.164   8
   5  14 -22 218.425 222.104   4
  -5 -14  23 16.8896 113.791   6
  -5  14  23 34.8855 238.058   2
   5 -14 -23 66.7049 123.607   5
  -5  14  23-145.813 198.254   3
   5 -14 -23 107.922 104.357   8
  -5 -14  23 196.555 122.312   7
   5  14 -23 27.9171 229.145   4
   5  14 -23 249.606 265.080   1
  -5 -14  24 154.195 137.777   6
  -5  14  24 35.4381 253.458   2
   5 -14 -24 662.518 157.215   5
  -5  14  24 691.595 230.769   3
   5 -14 -24 332.401 134.677   8
   5  14 -24 854.128 247.306   4
  -5  14  25 254.175 307.420   2
   5 -14 -25 270.403 135.341   8
  -5  14  25 695.975 224.616   3
   5 -14 -25 259.682 139.545   5
   6  14   0 2097.34 373.724   4
   6  14   0 2321.33 381.684   1
   6  14  -1 983.791 205.236   1
  -6 -14   1 819.315 249.207   7
   6  14  -1 1194.37 205.376   4
  -6 -14   1 1358.74 250.741   6
  -6 -14  -2 225.004 195.304   8
  -6 -14  -2 585.620 159.656   5
  -6 -14   2 419.949 187.991   7
   6  14  -2 525.582 125.979   4
   6  14   2 804.441 162.788   3
  -6 -14   2 715.835 165.344   6
  -6 -14  -3 1316.18 333.392   8
  -6 -14  -3 1359.34 299.998   5
   6  14  -3 1772.49 287.778   4
   6  14   3 1732.40 310.045   3
  -6 -14  -5 1058.19 299.964   8
  -6 -14   5 1283.28 265.067   7
   6  14  -5 1164.90 251.626   1
  -6 -14  -6 25.3891 213.140   8
  -6 -14   6-84.8611 138.785   7
   6  14  -6 106.536 96.9356   4
   6  14   6 91.5002 137.900   3
   6  14  -6 231.090 123.014   1
  -6 -14   6 142.808 134.075   6
  -6 -14  -7 589.856 285.538   8
  -6 -14   7 407.778 226.404   7
   6  14  -7 999.275 217.407   4
   6  14   7 995.339 239.578   3
   6  14  -7 1513.62 241.525   1
  -6 -14   7 1842.42 251.348   6
  -6 -14  -8 648.724 249.072   8
  -6 -14   8 336.866 141.982   7
   6  14  -8 381.282 122.750   4
   6  14   8-129.895 129.337   3
  -6 -14   8 286.956 161.734   6
   6  14  -8 369.186 167.426   1
   6  14  -9 278.417 175.593   1
  -6 -14  -9 765.556 282.425   8
  -6 -14   9 647.379 173.639   7
   6  14  -9 505.231 161.264   4
   6  14   9 487.923 188.079   3
   6  14 -10 19.5845 144.934   1
  -6 -14 -10-155.135 245.498   8
  -6 -14  10 77.8089 119.896   7
   6  14 -10 14.7270 114.657   4
  -6 -14  10 54.0979 135.467   6
   6 -14 -11 814.733 205.520   5
   6  14 -11 804.807 232.749   1
  -6 -14 -11 292.590 303.627   8
  -6 -14  11 966.488 204.610   7
   6  14 -11 864.928 201.294   4
  -6  14  11 111.443 229.506   2
  -6 -14  11 1173.97 211.494   6
   6 -14 -12 19.1778 145.980   5
   6  14 -12 86.9250 164.724   1
  -6 -14 -12 443.131 275.929   8
  -6 -14  12 181.724 124.362   7
   6  14 -12 404.543 145.385   4
  -6  14  12 396.469 197.619   2
  -6 -14  12 322.402 135.082   6
   6 -14 -13 1006.17 239.405   5
   6 -14 -13 1068.46 207.738   8
   6  14 -13 1210.89 270.231   1
  -6 -14  13 1351.02 226.271   7
   6  14 -13 660.754 229.109   4
  -6  14  13 720.114 279.810   2
  -6 -14  13 1345.44 236.178   6
  -6  14  14 237.610 269.563   3
   6 -14 -14 454.421 167.704   5
   6 -14 -14 444.886 133.943   8
   6  14 -14 431.836 213.338   1
  -6 -14  14 798.721 163.952   7
   6  14 -14 393.187 177.983   4
  -6  14  14 351.650 238.117   2
  -6 -14  14 845.042 172.699   6
  -6  14  15 549.299 287.429   3
   6 -14 -15 652.476 178.747   5
   6 -14 -15 747.366 155.235   8
  -6 -14  15 777.240 174.205   7
   6  14 -15 272.491 231.680   1
   6  14 -15 479.191 196.106   4
  -6  14  15 149.124 224.178   2
  -6 -14  15 756.639 176.886   6
  -6  14  16 31.1862 241.842   3
   6 -14 -16 142.162 135.023   5
   6 -14 -16 138.466 98.1893   8
  -6 -14  16-45.1173 122.245   7
   6  14 -16-25.9725 177.853   1
   6  14 -16-20.1565 166.803   4
  -6  14  16-181.305 205.051   2
  -6 -14  16 18.0526 118.116   6
  -6  14  17 639.316 281.213   3
   6 -14 -17 471.795 175.901   5
   6 -14 -17 589.574 158.054   8
  -6 -14  17 568.981 177.091   7
   6  14 -17 698.107 201.952   4
   6  14 -17 993.035 259.277   1
  -6  14  17 460.645 266.140   2
  -6 -14  17 1286.29 194.909   6
  -6  14  18 193.727 246.529   3
   6 -14 -18 68.6991 125.260   5
   6 -14 -18 216.596 102.119   8
  -6 -14  18 90.6114 103.819   7
   6  14 -18 22.1650 157.873   4
   6  14 -18 56.2501 212.604   1
  -6  14  18 62.1619 227.892   2
  -6 -14  18 35.7797 115.837   6
  -6  14  19 680.661 294.704   3
   6 -14 -19 673.418 178.265   5
   6 -14 -19 603.371 155.277   8
  -6 -14  19 1114.16 168.856   7
   6  14 -19 625.999 230.710   4
   6  14 -19 552.871 260.165   1
  -6  14  19 221.416 256.442   2
  -6 -14  19 17.8828 177.537   6
  -6 -14  20 357.697 151.228   6
  -6  14  20 526.569 300.253   3
   6 -14 -20 393.350 152.159   5
   6 -14 -20 163.924 125.848   8
  -6 -14  20 412.706 148.031   7
   6  14 -20 392.690 254.322   4
   6  14 -20 874.504 290.116   1
  -6  14  20 608.650 289.652   2
  -6 -14  21 375.052 165.335   6
  -6  14  21 786.020 285.661   3
   6 -14 -21 527.784 171.694   5
   6 -14 -21 685.176 154.260   8
   6  14 -21 637.290 247.414   4
  -6  14  21 554.786 271.259   2
  -6 -14  22-35.1514 121.956   6
   6  14 -22 32.5296 237.902   1
  -6  14  22 130.207 222.817   3
   6 -14 -22 34.4618 129.925   5
   6 -14 -22-106.176 103.349   8
   6  14 -22 26.4499 205.098   4
  -6  14  22-66.1864 226.522   2
  -6 -14  23 841.977 178.990   6
  -6  14  23 1053.58 290.418   3
   6 -14 -23 1004.03 191.065   5
   6 -14 -23 354.456 163.862   8
   6  14 -23 493.107 258.299   4
  -6  14  23 940.202 280.712   2
  -6  14  24-163.503 235.394   3
   6 -14 -24 52.5544 128.633   5
   6 -14 -24-56.0815 106.853   8
  -6  14  24 68.6412 250.974   2
   6 -14 -25 482.564 174.361   5
  -6  14  25 209.298 256.178   2
   7  14   0 814.591 156.124   4
   7  14  -1 396.481 98.8891   4
   7  14  -3 23.1319 89.0408   1
  -7 -14   3-67.8219 158.767   7
   7  14  -4 799.569 197.919   1
   7  14  -4 835.259 194.327   4
  -7 -14   4 903.128 246.766   7
   7  14  -5 349.261 130.923   1
  -7 -14  -5 371.702 231.155   8
  -7 -14   5 295.072 180.930   7
   7  14  -5 464.034 117.079   4
  -7 -14   5 679.472 185.468   6
  -7 -14  -6 668.160 289.848   8
   7  14  -6 444.942 182.732   1
  -7 -14   6 1004.88 231.330   7
   7  14  -6 997.402 185.824   4
  -7 -14  -7 495.680 280.080   8
   7  14  -7 836.823 172.885   1
  -7 -14   7 568.653 210.695   7
   7  14  -7 513.494 148.199   4
  -7 -14   7 1060.14 200.566   6
  -7 -14   8 421.183 185.830   7
   7  14  -8 584.194 147.342   4
   7  14  -8 316.415 168.622   1
  -7 -14   9 505.558 169.868   7
   7  14  -9 264.213 134.810   4
   7  14  -9 434.467 165.588   1
  -7 -14   9 792.019 182.383   6
  -7 -14  10 843.297 182.100   7
   7  14 -10 292.322 138.450   4
   7  14 -10 353.209 167.169   1
  -7 -14  10 811.652 182.175   6
  -7 -14  11 123.063 137.248   7
   7  14 -11-111.921 116.072   4
   7  14 -11 18.6545 141.103   1
  -7 -14  11 99.0096 131.893   6
  -7 -14  12 1195.30 252.925   7
   7  14 -12 731.761 236.638   4
  -7 -14  12 1603.52 264.678   6
   7  14 -12 1277.99 270.958   1
   7  14 -13 20.7194 151.507   1
  -7 -14  13 17.2705 130.148   7
   7  14 -13-15.6692 135.348   4
  -7 -14  13 19.6231 131.296   6
   7  14 -14 578.331 222.132   1
  -7 -14  14 1155.61 197.284   7
   7  14 -14 295.607 190.375   4
  -7 -14  14 1215.17 211.844   6
  -7  14  15-92.9672 240.884   3
   7  14 -15 248.044 175.034   1
   7 -14 -15 168.809 139.195   5
  -7 -14  15 251.278 128.566   7
   7  14 -15 103.173 134.586   4
  -7 -14  15 156.490 142.746   6
  -7  14  16 193.253 264.498   3
   7 -14 -16 714.542 175.049   5
   7  14 -16 498.349 220.306   1
  -7 -14  16 655.215 160.697   7
   7  14 -16 201.560 166.638   4
  -7  14  16 468.281 230.788   2
  -7 -14  16 547.097 172.793   6
  -7  14  17 33.4574 250.783   3
   7 -14 -17 147.981 130.361   5
   7  14 -17 147.216 192.840   1
  -7 -14  17 66.3992 121.508   7
   7  14 -17 135.024 157.903   4
  -7  14  17-88.9157 198.948   2
  -7 -14  17 135.540 134.647   6
  -7  14  18 344.839 277.268   3
   7 -14 -18 657.500 168.186   5
   7  14 -18 723.580 224.308   1
  -7 -14  18 333.942 152.246   7
   7  14 -18 223.058 192.254   4
  -7  14  18 150.211 214.636   2
  -7 -14  18 483.816 167.946   6
  -7  14  19 247.003 319.762   3
   7 -14 -19 757.451 183.241   5
   7 -14 -19 484.520 158.243   8
   7  14 -19 1123.37 270.648   1
  -7 -14  19 927.641 197.613   7
   7  14 -19 468.366 239.878   4
  -7  14  19 274.263 259.527   2
  -7 -14  19 540.963 187.880   6
  -7  14  20 71.6473 255.140   3
   7 -14 -20 291.477 153.230   5
   7 -14 -20 420.159 125.806   8
  -7 -14  20 585.312 163.387   7
   7  14 -20 363.049 198.108   4
  -7  14  20 154.452 225.511   2
  -7 -14  20 269.761 145.237   6
  -7  14  21 110.106 267.088   3
   7 -14 -21 506.147 142.799   5
   7 -14 -21 247.667 112.568   8
   7  14 -21 355.830 212.185   4
  -7  14  21 62.8020 235.888   2
  -7 -14  21 190.338 143.969   6
  -7 -14  22 455.788 166.365   6
  -7  14  22 774.972 299.230   3
   7 -14 -22 631.237 166.860   5
   7 -14 -22 468.666 141.066   8
   7  14 -22 607.419 251.688   1
   7  14 -22 272.159 218.781   4
  -7  14  22 63.7082 242.881   2
  -7  14  23 73.8785 272.300   3
   7 -14 -23 36.6570 129.503   5
   7 -14 -23 41.2964 114.113   8
  -7  14  23 97.3788 220.307   2
   7 -14 -24 293.961 151.999   5
   7 -14 -24 425.094 135.402   8
  -7  14  24 164.871 233.256   2
   8  14  -2-7.95098 65.1691   4
  -8 -14   2-22.3684 178.711   6
   8  14  -3 254.501 99.0047   1
   8  14  -3 241.086 84.8923   4
  -8 -14   3 487.931 175.743   6
   8  14  -4 22.8693 77.2544   1
  -8 -14   4 200.755 174.330   7
   8  14  -4 52.2473 77.0042   4
  -8 -14   4 222.169 165.916   6
   8  14  -5 489.937 152.424   1
  -8 -14   5 763.674 228.413   7
   8  14  -5 607.246 147.569   4
   8  14  -6 985.048 204.508   1
  -8 -14   6 699.825 272.955   7
   8  14  -6 1025.13 194.984   4
  -8 -14   6 1494.38 263.506   6
   8  14  -7 53.0944 110.468   1
  -8 -14   7 509.033 184.631   7
   8  14  -7 183.202 90.3439   4
  -8 -14   7 596.626 191.482   6
   8  14  -8 711.510 179.970   1
  -8 -14   8 1469.04 238.118   7
  -8 -14   8 1479.31 231.943   6
   8  14  -9 269.826 126.126   1
  -8 -14   9 22.0270 163.062   7
   8  14  -9 22.7744 95.9562   4
  -8 -14   9 308.967 168.837   6
   8  14 -10 31.5999 116.746   1
  -8 -14  10 85.9243 159.723   7
   8  14 -10 84.0977 95.1260   4
  -8 -14  10-21.8291 154.191   6
  -8 -14  11 167.655 162.262   7
   8  14 -11 83.3801 142.690   1
   8  14 -11 266.174 110.877   4
  -8 -14  11 522.765 175.146   6
  -8 -14  12 61.3605 160.482   7
   8  14 -12 67.8752 103.956   4
   8  14 -12 246.288 144.629   1
  -8 -14  12 21.7248 162.722   6
  -8 -14  13 759.566 190.350   7
   8  14 -13 500.357 145.812   4
   8  14 -13 309.308 162.398   1
  -8 -14  13 368.389 186.370   6
  -8 -14  14 97.7555 149.118   7
   8  14 -14-45.2076 123.708   4
   8  14 -14-19.1736 128.500   1
  -8 -14  14 257.309 155.136   6
  -8 -14  15 306.305 158.743   7
   8  14 -15 301.019 140.040   4
   8  14 -15 80.8788 156.061   1
  -8 -14  16 19.1511 137.306   7
   8  14 -16-50.3203 124.081   4
   8  14 -16 21.3179 160.649   1
  -8 -14  16-21.3211 144.628   6
  -8 -14  17 489.268 171.447   7
   8  14 -17 351.096 141.629   4
   8  14 -17 154.248 189.497   1
  -8 -14  17 462.753 170.339   6
  -8 -14  18 622.940 188.538   7
   8  14 -18 311.912 186.329   4
  -8 -14  18 272.519 195.454   6
   8  14 -18 626.700 221.773   1
  -8  14  19 340.430 300.196   3
   8 -14 -19 347.302 161.277   5
  -8 -14  19 316.760 146.975   7
   8  14 -19 98.3662 168.637   4
  -8 -14  19 167.245 157.215   6
   8  14 -19 24.0165 176.212   1
   8 -14 -20 518.240 191.813   5
   8  14 -20 475.216 211.937   4
  -8 -14  20 812.962 201.136   6
  -8  14  21 323.212 306.988   3
   8 -14 -21 136.093 161.571   5
   8  14 -21 520.261 184.370   4
  -8 -14  21-20.5811 146.966   6
  -8  14  22 289.148 314.141   3
   8 -14 -22 310.007 157.351   5
  -8  14  23 682.589 344.469   3
   8 -14 -23 271.348 154.853   5
  -8  14  23 219.109 223.615   2
  -9 -14   1 356.099 198.409   6
  -9 -14   2 24.0417 181.864   6
  -9 -14   3 97.1815 163.321   6
   9  14  -4 96.9542 66.2358   4
  -9 -14   4 218.338 176.248   6
   9  14  -5 103.095 94.7252   1
   9  14  -5 185.804 78.3365   4
   9  14  -6-11.8366 84.3508   1
  -9 -14   6 26.8094 164.738   7
   9  14  -6 35.5288 69.7861   4
  -9 -14   6 268.581 193.237   6
   9  14  -7 1106.03 175.608   1
  -9 -14   7 954.706 260.864   7
  -9 -14   7 1381.31 237.135   6
   9  14  -8 12.8035 100.368   1
  -9 -14   8 52.3872 195.424   7
   9  14  -8 68.6300 84.4855   4
  -9 -14   8 145.679 181.853   6
   9  14  -9 360.533 121.579   1
  -9 -14   9 179.780 199.047   7
   9  14  -9 270.437 102.526   4
  -9 -14   9 364.112 182.907   6
   9  14 -10 113.571 107.369   1
  -9 -14  10 175.735 178.520   7
   9  14 -10-120.448 91.1032   4
  -9 -14  10 216.064 186.110   6
   9  14 -11-59.6186 119.861   1
  -9 -14  11-269.757 182.766   7
   9  14 -11 92.2169 93.0042   4
  -9 -14  11 215.628 174.515   6
   9  14 -12 31.3680 105.176   1
  -9 -14  12 311.355 180.897   7
   9  14 -12-49.1298 97.6306   4
  -9 -14  12 406.200 179.158   6
   9  14 -13 291.835 134.382   1
  -9 -14  13 93.3823 179.823   7
   9  14 -13 142.467 109.667   4
  -9 -14  13 495.041 177.655   6
   9  14 -14-17.0792 121.860   1
   9  14 -14-40.9931 108.917   4
  -9 -14  14 70.4033 160.914   6
   9  14 -15 17.9637 128.826   1
  -9 -14  15-44.4275 164.340   7
   9  14 -15-87.5683 123.988   4
  -9 -14  15 70.0930 164.808   6
  -9 -14  16 44.3611 185.083   7
   9  14 -16 132.462 162.533   1
   9  14 -16-92.2195 119.969   4
  -9 -14  16 23.0690 168.025   6
  -9 -14  17 173.555 171.682   7
   9  14 -17 19.5573 156.818   1
   9  14 -17-16.1487 129.927   4
  -9 -14  17-22.9659 173.744   6
  -9 -14  18 65.1332 154.943   7
   9  14 -18-144.239 161.917   1
   9  14 -18-68.3250 147.302   4
  -9 -14  18-159.851 139.315   6
  -9 -14  19 127.882 177.129   7
   9  14 -19 383.493 167.787   1
   9  14 -19 124.991 156.970   4
  -9 -14  19 224.816 162.442   6
   9  14 -20 18.6454 142.052   4
  -9 -14  20-67.0358 164.040   6
 -10 -14   5-105.148 198.826   6
  10  14  -6-33.1698 67.2911   4
 -10 -14   6 630.791 203.811   6
  10  14  -7 26.0132 67.9578   4
 -10 -14   7-52.8448 190.197   6
  10  14  -7 11.8160 90.3625   1
  10  14  -8 60.9453 95.3119   1
  10  14  -8 182.417 80.2998   4
 -10 -14   8 317.663 195.814   6
  10  14  -9-25.1869 86.7661   1
 -10 -14   9 113.271 208.741   7
  10  14  -9 47.8482 76.9293   4
 -10 -14   9 210.119 192.139   6
  10  14 -10 13.0681 100.562   1
 -10 -14  10 281.411 192.076   7
  10  14 -10 70.4318 84.0006   4
 -10 -14  10 78.8785 186.552   6
  10  14 -11-272.003 102.762   1
 -10 -14  11 111.547 220.357   7
  10  14 -11 53.3512 81.1253   4
 -10 -14  11-183.833 197.702   6
  10  14 -12 283.202 126.733   1
 -10 -14  12 137.704 210.408   7
  10  14 -12 145.894 99.3491   4
 -10 -14  12 674.087 215.985   6
  10  14 -13-14.8088 118.693   1
 -10 -14  13 81.0027 187.218   7
  10  14 -13-11.8056 101.685   4
 -10 -14  13 25.8349 185.207   6
  10  14 -14 672.775 147.809   1
 -10 -14  14 607.088 224.717   7
  10  14 -14 12.5683 118.690   4
 -10 -14  14 462.883 189.743   6
 -10 -14  15-25.7909 225.298   7
  10  14 -15 13.2407 120.388   4
  10  14 -15-16.0179 117.267   1
 -10 -14  15 253.144 180.835   6
  10  14 -16 16.7882 132.836   1
 -10 -14  16-151.252 182.909   7
  10  14 -16 41.8437 106.278   4
 -10 -14  16 125.792 180.376   6
  10  14 -17 52.9149 123.374   1
 -10 -14  17 25.1575 187.498   7
  10  14 -17 14.8808 116.965   4
 -10 -14  17-74.9310 173.947   6
  10  14 -18 18.2079 141.187   1
 -10 -14  18 24.5862 174.139   7
  10  14 -18 15.6517 119.267   4
 -10 -14  18 24.6110 169.939   6
  10  14 -19-16.5914 131.291   4
 -10 -14  19-24.4504 182.239   6
  11  14  -9-17.9639 74.0519   4
 -11 -14   9 142.877 214.537   6
  11  14 -10 28.2317 71.0209   4
 -11 -14  10 56.6040 215.622   6
  11  14 -10 12.4938 87.0908   1
  11  14 -11 373.514 118.880   1
  11  14 -11 266.330 101.515   4
 -11 -14  11 594.848 234.809   6
  11  14 -12-13.2876 102.980   1
 -11 -14  12-178.209 248.124   7
  11  14 -12-114.842 87.6633   4
 -11 -14  12 28.3017 217.442   6
  11  14 -13 960.137 179.642   1
 -11 -14  13 501.599 260.549   7
  11  14 -13 493.658 152.732   4
  11  14 -14 28.3766 102.534   1
 -11 -14  14-29.3615 225.249   7
  11  14 -14-34.5614 92.9343   4
 -11 -14  14 27.7925 200.842   6
  11  14 -15 292.513 127.423   1
 -11 -14  15 727.647 240.754   7
  11  14 -15 134.439 106.101   4
 -11 -14  15 359.197 219.769   6
  11  14 -16-91.1803 115.808   1
 -11 -14  16 28.7612 217.539   7
  11  14 -16 38.5759 107.351   4
 -11 -14  16-27.1715 201.002   6
 -11 -14  17 28.2319 170.123   7
  11  14 -17 123.383 105.392   4
 -11 -14  17 26.9411 205.712   6
  12  14 -13 30.7938 85.4142   4
 -12 -14  13 240.532 215.752   6
  12  14 -14 290.528 138.039   4
  12  14 -14 821.778 156.138   1
  12  14 -15 11.3829 92.7383   4
 -12 -14  15 59.4949 216.686   6
   0  15   0 78.8179 242.083   2
   0  15   0 24.0107 210.827   3
   0 -15   0 190.413 125.362   5
   0 -15   0 65.7284 83.4726   8
   0  15  -1 286.593 211.724   3
   0  15   1 312.681 240.551   3
   0 -15   1 472.469 148.465   5
   0 -15  -1 318.946 140.300   5
   0 -15   1 537.797 113.548   8
   0  15  -1 227.149 223.062   2
   0  15  -2-71.0520 191.693   3
   0 -15   2-89.4272 116.397   5
   0 -15   2 18.4317 76.3027   8
   0  15  -2-48.4594 185.261   2
   0  15   3-116.515 237.175   2
   0  15  -3-186.016 185.208   2
   0  15   4 29.6404 221.716   2
   0 -15  -4-10.1726 85.3967   8
   0  15  -4-19.0081 146.850   4
   0  15   5 308.745 188.086   3
   0  15   5 300.767 250.174   2
   0 -15  -5 153.177 123.141   5
   0 -15  -5 200.000 112.774   8
   0 -15   5 721.749 123.774   7
   0  15  -5 465.406 161.569   4
   0  15   6-23.5590 174.953   3
   0  15   6 212.740 232.357   2
   0 -15  -6-27.8070 98.5303   5
   0 -15  -6 10.8686 87.1927   8
   0  15  -6-197.889 159.163   4
   0  15   7 413.213 189.931   3
   0 -15  -7 388.781 132.016   5
   0  15   7 214.560 257.519   2
   0 -15  -7 448.977 126.268   8
   0  15   8-91.0420 151.612   3
   0 -15  -8-55.5883 95.1726   5
   0  15   8-246.623 218.340   2
   0 -15  -8 34.8619 90.7756   8
   0 -15   8 12.7846 90.9800   7
   0  15  -8-20.6420 145.617   4
   0  15   9 135.408 159.737   3
   0 -15  -9 388.161 117.565   5
   0  15   9 123.967 251.353   2
   0 -15  -9 324.569 111.691   8
   0 -15   9 156.592 116.574   7
   0  15  10-22.3652 159.049   3
   0 -15 -10 111.711 94.3096   5
   0  15  10 156.074 237.784   2
   0 -15 -10-87.2193 103.372   8
   0 -15  10-79.3626 92.1335   7
   0 -15 -11 182.851 101.337   5
   0  15  11-110.868 156.573   3
   0 -15 -11 51.7325 106.897   8
   0 -15  11 121.227 98.3117   7
   0  15  11 219.446 227.130   2
   0 -15 -12-42.5593 103.334   5
   0  15  12-86.3143 152.182   3
   0 -15 -12 40.3377 105.669   8
   0  15  12-62.9829 220.231   2
   0 -15  12 27.4385 103.761   7
   0  15  13 962.659 189.796   3
   0 -15 -13 533.524 153.009   8
   0  15  13 537.874 252.298   2
   0 -15 -13 488.063 136.378   5
   0 -15  13 279.222 145.021   7
   0 -15 -14-14.5939 111.388   5
   0  15  14-21.2736 156.910   3
   0 -15 -14 14.2584 120.939   8
   0  15  14-447.887 273.325   2
   0 -15 -15 89.4501 113.138   5
   0  15  15 84.7224 145.552   3
   0 -15 -15 333.908 135.888   8
   0  15  15 128.862 259.624   2
   0 -15 -16-60.9417 111.404   5
   0 -15 -16 45.4534 128.667   8
   0  15  16 20.9118 141.841   3
   0 -15 -17 62.3605 113.416   5
   0  15  17-230.588 144.333   3
   0 -15 -18 64.2074 116.551   5
   0 -15 -18 80.4983 171.002   8
   0  15  18-147.255 142.116   3
   0  15  18 234.171 254.865   2
   0 -15 -19 743.844 179.471   5
   0 -15 -19 655.878 179.248   8
   0  15  19 758.836 206.344   3
   0  15  19 612.429 295.270   2
   0 -15 -20 17.1550 124.922   5
   0 -15 -20 16.6925 140.114   8
   0  15  20-62.6298 143.271   3
   0 -15 -21 214.269 127.586   5
   0 -15 -21 220.838 150.326   8
   0  15  21 188.443 149.026   3
   0  15  21-35.0683 280.041   2
   0 -15 -22-51.8411 137.767   8
   0 -15 -22-452.190 144.129   5
   0  15  22 42.0395 149.451   3
   0  15  22-142.981 265.110   2
   0 -15 -23 17.5624 144.122   8
   0 -15 -23 19.6300 132.777   5
   0  15  23-364.580 258.302   2
   0  15  23-105.654 139.618   3
   0 -15 -24 20.4483 143.373   5
   0  15  24 105.115 133.697   3
  -1  15   0 49.7533 249.714   3
   1  15   0 896.656 246.113   2
   1 -15   0 814.718 183.884   5
   1  15   0 467.468 213.337   3
  -1 -15   0 559.553 147.733   5
  -1 -15   0 649.445 139.077   8
   1  15  -1-183.368 219.234   2
  -1  15  -1-245.723 229.243   3
   1 -15   1-17.6869 137.584   5
   1  15  -1-245.647 205.842   3
   1  15   1-155.063 208.619   3
  -1 -15   1 12.4048 92.7895   5
  -1 -15  -1 49.9072 95.0402   5
  -1 -15  -1 117.214 90.6922   8
  -1 -15   1 9.31805 80.4827   8
   1 -15   1-9.32619 78.2834   8
   1  15  -2 251.163 206.088   2
   1 -15   2 72.2890 137.530   5
   1  15   2 44.0670 171.502   3
  -1 -15  -2 287.893 107.469   5
  -1  15  -2 70.7643 170.307   2
  -1  15   2 27.4426 203.018   2
  -1  15   3 56.9577 206.616   2
   1 -15   3 18.8855 140.741   5
   1 -15  -3-9.71149 78.5885   8
  -1 -15   4 161.872 84.6427   6
  -1  15   4 87.7290 204.028   2
  -1  15   4 76.9467 203.970   3
   1 -15  -4 31.7990 104.650   5
   1  15   4 87.4655 217.642   2
   1 -15  -4 59.2005 77.0065   8
  -1 -15  -4 21.7385 91.5756   8
  -1 -15   4 98.8180 80.6580   7
   1  15  -4 92.5421 152.651   4
  -1 -15   5-38.1244 85.0376   6
  -1  15   5 120.390 225.137   2
  -1  15   5 380.584 204.020   3
   1 -15  -5 15.6612 109.998   5
   1  15   5-43.1797 170.803   3
  -1 -15  -5 38.4815 90.4751   5
   1  15   5-29.3484 220.346   2
   1 -15  -5 70.3817 82.4027   8
  -1 -15  -5-57.3134 79.8374   8
  -1 -15   5 11.3236 89.8907   7
   1 -15   5-75.9205 97.7658   7
   1  15  -5 114.411 146.293   4
  -1  15   6 153.156 229.274   2
  -1  15   6 253.292 203.437   3
   1 -15  -6 309.558 124.234   5
   1  15   6 299.849 162.269   3
  -1 -15  -6 155.524 105.456   5
   1 -15  -6 309.635 101.204   8
   1  15   6 206.564 236.076   2
  -1 -15  -6 71.3227 106.066   8
  -1  15   7 31.0670 234.230   2
  -1  15   7 226.956 200.307   3
   1 -15  -7 90.1935 101.803   5
  -1 -15  -7 52.3482 94.8993   5
   1  15   7 21.2492 155.572   3
   1 -15  -7 73.7729 80.0907   8
  -1 -15  -7-12.3415 99.5468   8
   1  15   7-206.328 233.311   2
  -1 -15   8 121.244 99.1879   6
  -1  15   8 350.968 198.906   3
  -1  15   8 31.3988 242.290   2
   1 -15  -8 253.722 117.322   5
   1 -15  -8 398.969 106.885   8
  -1 -15  -8 396.885 119.218   5
   1  15   8 63.2425 150.256   3
  -1 -15  -8 320.704 121.085   8
   1  15   8 590.669 240.805   2
  -1 -15   8 406.401 117.289   7
   1 -15   8 263.596 128.204   7
   1  15  -8 268.045 163.733   4
  -1 -15   9-27.4296 87.8699   6
  -1  15   9 73.3042 185.471   3
  -1  15   9 95.0857 252.400   2
   1 -15  -9 14.8445 106.862   5
  -1 -15  -9 93.8592 82.3655   5
   1  15   9 20.8840 140.379   3
   1 -15  -9-66.4451 93.5185   8
  -1 -15  -9-13.3673 107.155   8
   1  15   9 88.8096 231.073   2
  -1 -15   9-50.8490 95.8078   7
   1 -15   9-56.7058 102.054   7
   1  15  -9-126.680 152.585   4
  -1 -15  10 27.9294 95.8765   6
  -1  15  10 145.396 174.588   3
  -1  15  10 255.700 240.089   2
   1 -15 -10 87.4022 104.291   5
  -1 -15 -10 68.2278 98.5175   5
   1  15  10 20.7003 143.737   3
   1 -15 -10 125.739 87.1014   8
  -1 -15 -10-13.9418 117.963   8
   1  15  10-149.327 219.354   2
  -1 -15  10 25.8602 102.240   7
   1  15 -10-173.428 162.937   4
  -1 -15  11 99.7447 80.0799   6
  -1  15  11 24.0322 181.369   3
   1 -15 -11 232.825 109.712   5
  -1  15  11-96.6523 224.574   2
  -1 -15 -11-27.8729 99.6098   5
   1 -15 -11-11.8015 97.5214   8
   1  15  11 121.601 144.465   3
  -1 -15 -11 87.2428 126.686   8
   1  15  11 419.635 244.293   2
  -1 -15  11 53.6712 102.339   7
   1  15 -11-133.673 163.212   4
  -1 -15  12 463.971 139.384   6
  -1  15  12 983.211 213.000   3
   1 -15 -12 715.786 154.435   5
  -1  15  12 551.488 271.158   2
  -1 -15 -12 498.935 148.268   5
   1 -15 -12 806.433 145.234   8
   1  15  12 302.973 177.024   3
  -1 -15 -12 121.398 154.872   8
   1  15  12 180.842 259.140   2
  -1 -15  12 667.773 155.859   7
   1  15 -12 341.610 200.311   4
  -1 -15  13-14.7972 93.8690   6
  -1  15  13 23.2104 151.678   3
   1 -15 -13 102.044 96.6691   5
  -1  15  13-32.6645 254.109   2
  -1 -15 -13 102.108 115.051   5
   1 -15 -13-75.8491 98.7175   8
  -1 -15 -13 77.3226 128.691   8
   1  15  13-60.5910 136.404   3
   1  15  13 273.114 229.518   2
  -1 -15  13 27.6775 95.5864   7
   1  15 -13-140.209 176.111   4
  -1 -15  14 769.488 167.080   6
   1 -15 -14 660.273 176.976   5
  -1  15  14 552.844 213.808   3
  -1  15  14 691.896 304.990   2
  -1 -15 -14 839.210 172.802   5
   1 -15 -14 617.015 167.660   8
  -1 -15 -14 614.397 192.648   8
   1  15  14 727.932 192.638   3
   1  15  14 1170.48 298.135   2
  -1 -15  14 666.738 169.998   7
   1  15 -14 762.863 223.899   4
   1 -15 -15 103.547 106.999   5
  -1  15  15-112.225 164.184   3
  -1 -15 -15-30.7708 105.394   5
   1 -15 -15-106.683 111.704   8
  -1 -15 -15 32.9702 140.873   8
   1  15  15 60.7791 138.727   3
   1  15  15-217.516 242.589   2
  -1 -15  15-70.6128 100.532   7
   1  15 -15-24.3521 183.560   4
   1 -15 -16-14.9184 108.882   5
  -1 -15 -16 63.3780 117.300   5
  -1 -15 -16 155.413 142.750   8
   1  15  16 202.625 133.903   3
   1  15  16 284.627 257.985   2
  -1 -15  16 71.8717 109.776   7
  -1  15  16 200.571 160.490   3
   1  15 -16 24.8364 186.404   4
   1 -15 -17 15.2137 106.523   5
  -1  15  17 22.1953 147.899   3
  -1 -15 -17-49.3357 113.162   5
   1 -15 -17 14.0989 119.154   8
  -1  15  17 338.400 226.463   2
   1  15  17 202.773 138.867   3
  -1 -15  17-14.6441 112.069   7
   1 -15 -18 155.442 118.419   5
   1 -15 -18 315.730 129.672   8
  -1  15  18 218.417 154.436   3
  -1 -15 -18 393.607 132.690   5
  -1  15  18 102.836 285.611   2
   1  15  18 200.445 148.956   3
   1 -15 -19 31.8481 109.475   5
  -1 -15 -19-17.8005 120.206   5
  -1  15  19-175.263 156.432   3
  -1 -15 -19 36.5994 153.618   8
  -1  15  19 34.5999 259.774   2
   1 -15 -19 14.6059 113.244   8
   1  15  19 120.383 129.183   3
   1  15  19 100.066 240.089   2
   1 -15 -20 326.620 140.522   5
   1 -15 -20 714.337 149.008   8
  -1 -15 -20 167.743 173.558   8
  -1 -15 -20 507.110 170.098   5
  -1  15  20 210.685 286.818   2
  -1  15  20 132.116 175.461   3
   1  15  20 160.882 152.765   3
   1  15  20 34.0838 276.115   2
   1 -15 -21 33.5504 118.758   5
   1 -15 -21-262.995 130.404   8
  -1 -15 -21-214.880 165.486   8
  -1 -15 -21-136.807 158.230   5
  -1  15  21-35.6577 284.548   2
  -1  15  21-21.8823 149.565   3
   1  15  21-121.286 146.664   3
   1  15  21 69.7001 254.503   2
   1 -15 -22 105.123 134.510   5
   1 -15 -22 173.204 151.126   8
  -1 -15 -22 59.5921 160.319   8
  -1 -15 -22-81.2688 135.399   5
  -1  15  22-36.2430 254.582   2
  -1  15  22 21.9826 149.192   3
   1  15  22-20.3462 129.111   3
   1  15  22-106.950 255.623   2
   1 -15 -23 80.1202 131.148   8
   1 -15 -23-182.451 139.104   5
  -1 -15 -23-121.025 180.413   8
  -1  15  23-184.327 285.103   2
  -1 -15 -23-295.601 155.540   5
  -1  15  23-22.1311 138.026   3
   1  15  23 80.9155 127.611   3
   1  15  23-109.397 255.351   2
   1 -15 -24 56.9981 130.079   5
  -1  15  24-37.5317 262.497   2
  -1 -15 -24 21.9735 168.614   5
  -1  15  24 65.8595 146.244   3
   1  15  24-20.4435 125.608   3
   2  15   0 54.1178 227.395   2
   2  15   0-40.2591 169.818   3
  -2 -15   0-34.0945 90.2805   5
  -2 -15   0-119.960 95.4394   8
   2 -15   1 774.712 231.354   5
   2  15  -1 1033.03 270.968   2
   2  15  -1 850.668 231.942   3
   2  15   1 1099.52 280.460   2
   2  15   1 1040.20 240.109   3
  -2 -15  -1 1118.54 185.308   5
  -2 -15  -1 831.013 180.495   8
  -2  15   1 178.405 249.628   2
   2 -15   2 67.0879 168.606   5
  -2 -15  -2-58.4574 87.6404   5
   2  15   2 20.2263 150.278   3
   2 -15  -2-28.7001 80.7410   8
  -2  15   2-131.784 194.292   2
  -2  15   3 388.470 218.430   3
   2 -15   3 334.276 178.007   5
   2 -15  -3 279.821 151.476   5
   2 -15  -3 86.8968 79.8408   8
  -2  15   3 163.791 201.435   2
   2  15  -3 135.153 154.124   1
  -2 -15   4 24.7500 82.8231   6
  -2  15   4 104.722 204.361   3
   2 -15   4-25.0001 170.343   5
   2 -15  -4-18.2233 130.659   5
   2 -15  -4-58.7847 77.5384   8
  -2 -15  -4-24.5173 103.525   8
   2  15   4-139.493 207.144   2
  -2 -15   4-11.1905 85.2707   7
   2  15  -4-60.7898 137.457   1
   2  15  -4 90.6803 156.661   4
  -2  15   4 197.767 208.188   2
  -2  15   5-29.0121 209.418   2
  -2 -15   5 24.9390 84.5308   6
  -2  15   5 79.2520 203.988   3
   2 -15  -5 139.740 134.463   5
  -2 -15  -5 147.698 91.3757   5
   2 -15  -5 119.368 80.0098   8
   2  15   5 79.0437 145.354   3
  -2 -15  -5 51.1116 104.927   8
   2  15   5 307.233 209.518   2
   2  15  -5 111.934 153.210   4
  -2  15   6-209.618 195.684   2
  -2  15   6 211.586 206.469   3
   2 -15  -6 102.883 128.309   5
  -2 -15  -6 12.6011 89.3026   5
   2 -15  -6 20.1775 80.4123   8
   2  15   6-137.546 140.906   3
  -2 -15  -6-39.9868 110.944   8
   2  15   6-444.556 235.296   2
  -2  15   7 30.6072 220.546   2
  -2  15   7-26.5540 195.936   3
   2 -15  -7 99.2292 110.109   5
  -2 -15  -7 103.204 98.1142   5
   2 -15  -7 82.0072 83.6005   8
   2  15   7 117.294 134.186   3
  -2 -15  -7-13.8998 114.018   8
   2  15   7 139.065 215.862   2
  -2 -15   7 23.5620 92.5411   7
  -2 -15   8 13.1479 88.9385   6
  -2  15   8 62.4422 230.113   2
  -2  15   8-53.2074 205.594   3
   2 -15  -8 146.339 115.272   5
  -2 -15  -8-13.2253 98.7062   5
   2 -15  -8 41.7856 87.8511   8
   2  15   8 38.9695 140.349   3
  -2 -15  -8-188.520 128.798   8
   2  15   8-111.458 219.034   2
  -2 -15   8 119.817 94.3107   7
   2  15  -8 325.804 163.822   4
  -2 -15   9 80.5449 85.1202   6
  -2  15   9 31.7051 252.474   2
  -2  15   9-78.7037 192.570   3
   2 -15  -9-16.0526 101.259   5
   2 -15  -9-21.3245 90.0266   8
  -2 -15  -9-13.5589 94.0175   5
  -2 -15  -9 136.406 127.596   8
   2  15   9 116.855 143.509   3
   2  15   9 139.713 202.726   2
  -2 -15   9-48.8096 92.9536   7
   2  15  -9-189.008 169.407   4
  -2 -15  10 95.5781 94.3652   6
  -2  15  10-160.724 247.662   2
  -2  15  10 235.283 217.714   3
   2 -15 -10 140.181 118.203   5
   2 -15 -10 174.253 94.0555   8
  -2 -15 -10-13.9099 99.3958   5
  -2 -15 -10 111.116 128.827   8
   2  15  10-38.9794 120.747   3
   2  15  10 113.110 221.684   2
  -2 -15  10-49.6757 90.9845   7
   2  15 -10 86.2035 171.893   4
  -2 -15  11 598.077 119.634   6
  -2  15  11 195.100 252.221   2
  -2  15  11 52.0383 200.312   3
   2 -15 -11 865.727 144.511   5
   2 -15 -11 322.540 123.398   8
  -2 -15 -11 214.488 127.530   5
  -2 -15 -11 283.528 151.941   8
   2  15  11 468.249 163.671   3
   2  15  11 398.689 234.686   2
  -2 -15  11 490.855 138.035   7
   2  15 -11 798.383 207.469   4
  -2 -15  12 156.103 100.151   6
  -2  15  12-295.355 248.216   2
  -2  15  12-25.3905 166.739   3
   2 -15 -12-15.3753 107.134   5
   2 -15 -12 11.3795 90.6955   8
  -2 -15 -12 44.1252 102.054   5
  -2 -15 -12 102.179 142.575   8
   2  15  12 77.9581 136.348   3
   2  15  12-28.7503 217.463   2
  -2 -15  12 12.7870 99.8799   7
   2  15 -12-159.809 171.442   4
  -2 -15  13 968.414 222.194   6
  -2  15  13 960.509 320.262   2
  -2  15  13 1286.43 281.809   3
   2 -15 -13 1328.29 234.334   5
   2 -15 -13 1578.64 225.516   8
  -2 -15 -13 1290.70 228.653   5
  -2 -15 -13 1040.58 254.471   8
   2  15  13 1090.23 251.016   3
  -2 -15  13 712.552 215.479   7
   2  15  13 556.235 290.096   2
   2  15 -13 1197.45 283.374   4
  -2 -15  14-44.1220 96.8129   6
  -2  15  14 319.935 198.871   3
   2 -15 -14 90.5073 118.728   5
   2 -15 -14 83.2041 111.515   8
  -2 -15 -14 63.9685 126.642   5
  -2 -15 -14 18.3389 163.590   8
   2  15  14 136.344 142.355   3
  -2 -15  14 52.5119 93.7111   7
   2  15  14 534.655 237.594   2
   2  15 -14-72.0268 179.310   4
  -2 -15  15 523.946 144.570   6
  -2  15  15 489.335 202.910   3
  -2 -15 -15 682.054 155.847   5
  -2 -15 -15 676.774 190.651   8
   2  15  15 603.418 169.427   3
  -2 -15  15 548.088 146.916   7
   2  15  15 212.434 251.240   2
   2  15 -15 714.309 215.956   4
  -2 -15  16 30.5398 96.9431   6
  -2  15  16 34.0228 248.821   2
  -2  15  16 24.3085 178.498   3
   2 -15 -16-15.1399 107.327   5
   2 -15 -16-24.9835 106.194   8
  -2 -15 -16-173.203 118.107   5
  -2 -15 -16 158.081 167.393   8
   2  15  16 155.661 132.658   3
  -2 -15  16 27.1361 90.0644   7
   2  15  16 652.145 252.142   2
   2  15 -16 176.526 190.087   4
  -2 -15  17-77.7117 96.4972   6
  -2  15  17-137.376 253.063   2
  -2  15  17 71.3123 168.337   3
   2 -15 -17 12.9194 109.083   8
  -2 -15 -17-18.0396 128.804   5
  -2 -15 -17-20.1951 167.511   8
   2 -15 -17 30.5190 115.407   5
   2  15  17-116.786 132.023   3
  -2 -15  17 27.5832 109.469   7
   2  15  17 253.412 237.820   2
   2  15 -17 154.927 192.429   4
  -2 -15  18-15.8203 98.9682   6
  -2  15  18 69.4089 275.532   2
   2 -15 -18 91.8463 122.475   5
  -2  15  18 165.386 175.540   3
   2 -15 -18 118.335 122.552   8
  -2 -15 -18 18.7698 119.195   5
   2  15  18-97.6266 123.978   3
  -2 -15  18 112.273 98.7827   7
   2  15 -18-158.431 193.934   4
  -2 -15  19 32.2480 103.017   6
  -2  15  19 35.1012 265.004   2
   2 -15 -19 15.5638 106.357   5
  -2  15  19 115.824 162.139   3
   2 -15 -19 54.5460 118.591   8
  -2 -15 -19 58.5326 148.992   5
   2  15  19 78.3964 130.934   3
  -2 -15  19 257.369 115.399   7
   2  15 -19 429.403 208.694   4
  -2  15  20 284.315 323.996   2
   2 -15 -20 15.9241 135.090   5
   2 -15 -20 83.3277 119.779   8
  -2  15  20 208.350 172.038   3
  -2 -15 -20 110.726 207.271   8
  -2 -15 -20 202.629 167.886   5
   2  15  20 59.0809 139.306   3
  -2 -15  20-14.5963 119.657   7
   2  15  20 239.736 296.278   2
   2  15 -20 436.557 244.596   4
  -2  15  21 215.876 269.184   2
   2 -15 -21-228.125 115.045   5
   2 -15 -21 99.0031 119.539   8
  -2  15  21 69.6329 164.462   3
  -2 -15 -21 157.845 187.116   8
  -2 -15 -21 21.0714 138.449   5
   2  15  21 117.404 127.964   3
  -2 -15  21 74.6114 116.999   7
   2  15 -21 193.855 200.200   4
  -2  15  22 182.458 266.837   2
   2 -15 -22 16.7105 121.261   5
   2 -15 -22-14.4067 126.515   8
  -2 -15 -22-183.343 195.751   8
  -2  15  22-115.680 151.183   3
  -2 -15 -22 21.9174 161.516   5
   2  15  22 19.7751 124.762   3
  -2  15  23 37.0621 257.090   2
   2 -15 -23 120.652 135.203   5
   2 -15 -23 146.756 120.859   8
  -2  15  23 116.715 151.216   3
  -2 -15 -23-91.3085 151.490   5
   2  15  23 20.0221 125.862   3
   2  15  23-408.356 293.776   2
   2 -15 -24 17.7949 124.445   5
  -2  15  24-23.2263 155.393   3
   3  15   0 2963.84 509.218   3
   3  15   0 2675.75 528.203   2
   3 -15  -1 117.180 170.741   5
  -3 -15  -1 56.5341 85.3785   5
   3  15   1 244.457 141.517   3
  -3 -15  -1 69.8710 95.5126   8
   3  15   1 105.031 206.930   2
   3 -15  -2 314.599 225.547   5
  -3 -15  -2 939.269 169.653   5
   3  15   2 842.167 208.643   3
   3 -15  -3-126.934 150.476   5
   3  15  -3 36.5264 134.104   1
   3  15  -3-31.7857 132.268   4
  -3  15   3 52.6738 179.473   2
   3 -15  -4 204.627 149.020   5
   3 -15  -4 147.102 86.3944   8
  -3 -15  -4 110.964 115.611   8
   3  15   4 208.951 210.308   2
   3  15  -4 81.9243 128.837   4
  -3  15   4 108.774 199.026   2
  -3 -15   4 253.202 102.717   6
   3 -15  -5-136.170 132.777   5
   3 -15  -5 59.4317 77.4660   8
  -3 -15  -5 125.926 99.6103   5
  -3 -15  -5 57.9634 113.006   8
   3  15   5-18.8550 130.417   3
   3  15   5 208.798 210.687   2
  -3  15   5 55.9964 194.297   2
  -3  15   6-26.6386 204.394   3
   3 -15  -6 75.8020 136.996   5
   3 -15  -6-60.2131 82.3170   8
  -3 -15  -6-64.6221 94.5775   5
  -3 -15  -6-15.1635 123.151   8
   3  15   6 37.7150 117.763   3
   3  15   6 25.9217 200.290   2
  -3 -15   6-60.9379 92.2480   7
   3  15  -6 63.8231 168.342   1
  -3  15   6 115.454 203.588   2
  -3 -15   7 69.1888 97.5921   6
   3  15  -7 22.1278 169.158   1
  -3  15   7-80.8749 205.352   3
   3 -15  -7 18.1395 115.018   5
   3 -15  -7-40.7748 77.0977   8
  -3 -15  -7 66.5552 90.6947   5
  -3 -15  -7-111.442 119.088   8
   3  15   7 150.487 124.095   3
  -3 -15   7-24.5250 90.0144   7
   3  15   7 52.0027 171.528   2
   3  15  -7-188.243 154.724   4
  -3  15   7-59.1198 225.169   2
  -3  15   8-90.6548 220.138   2
  -3 -15   8-125.335 94.1274   6
  -3  15   8 54.4933 209.803   3
   3 -15  -8 124.391 129.501   5
   3 -15  -8-51.7850 77.5900   8
  -3 -15  -8 13.7481 95.4224   5
  -3 -15  -8 83.8000 135.694   8
   3  15   8-18.7652 131.300   3
  -3 -15   8 24.6716 94.0639   7
   3  15   8 183.151 191.361   2
   3  15  -8 290.785 166.561   4
  -3 -15   9 41.9979 89.1659   6
  -3  15   9 154.274 217.761   2
  -3  15   9 81.9831 226.146   3
   3 -15  -9 52.4000 132.844   5
   3 -15  -9-31.5279 86.2638   8
  -3 -15  -9 157.304 102.039   5
  -3 -15  -9 52.9859 146.743   8
   3  15  -9 23.6929 172.101   1
   3  15   9-18.9735 126.044   3
  -3 -15   9 198.672 103.341   7
   3  15   9-53.0761 194.230   2
   3  15  -9-40.4553 148.717   4
  -3 -15  10 299.624 106.271   6
  -3  15  10 251.501 225.212   2
  -3  15  10 82.4980 203.694   3
   3 -15 -10 50.6244 120.156   5
   3  15 -10 24.3460 186.799   1
   3 -15 -10 277.446 95.8905   8
  -3 -15 -10 74.5090 108.164   5
  -3 -15 -10 205.091 157.046   8
   3  15  10-18.9573 125.068   3
  -3 -15  10 200.413 100.554   7
   3  15  10 53.7304 193.752   2
   3  15 -10 295.519 186.845   4
  -3 -15  11 157.632 86.1477   6
  -3  15  11 95.9860 223.030   2
  -3  15  11 381.806 211.657   3
   3 -15 -11 33.2484 117.673   5
   3 -15 -11 10.8548 89.7886   8
  -3 -15 -11 15.5203 99.4269   5
  -3 -15 -11 57.2527 158.617   8
   3  15  11-18.9163 124.005   3
  -3 -15  11 75.8318 96.8010   7
   3  15 -11 22.0129 171.533   4
   3  15 -11-24.9373 184.725   1
  -3 -15  12 1194.32 263.025   6
  -3  15  12 1073.73 352.404   2
  -3  15  12 1392.55 327.613   3
   3 -15 -12 1306.44 271.594   5
   3 -15 -12 2014.09 257.016   8
  -3 -15 -12 1342.29 269.421   5
  -3 -15 -12 1292.48 305.628   8
   3  15  12 490.871 274.127   3
  -3 -15  12 1557.69 262.397   7
   3  15 -12 1246.81 309.238   4
  -3 -15  13 43.7158 97.9761   6
  -3  15  13-26.8543 206.754   3
   3 -15 -13 143.940 120.542   5
   3 -15 -13-90.4267 98.2046   8
  -3 -15 -13-67.4036 127.465   5
  -3 -15 -13 124.257 165.471   8
   3  15  13 37.7023 118.936   3
  -3 -15  13 12.9001 95.4502   7
   3  15 -13 116.265 179.657   4
  -3 -15  14 664.147 201.543   6
  -3  15  14 1124.57 287.612   3
   3 -15 -14 1503.23 222.340   5
  -3 -15 -14 1034.89 222.712   5
  -3 -15 -14 1206.94 264.148   8
   3  15  14 264.113 209.328   3
  -3 -15  14 1134.39 205.917   7
   3  15 -14 1719.33 275.063   4
  -3 -15  15 74.9165 95.4956   6
  -3  15  15 33.6834 255.661   2
  -3  15  15 26.1946 200.246   3
   3 -15 -15 78.1420 112.042   5
   3 -15 -15 47.0163 95.1219   8
  -3 -15 -15-54.6865 131.210   5
  -3 -15 -15-202.536 173.250   8
   3  15  15-37.7757 120.379   3
  -3 -15  15-65.9557 98.3098   7
   3  15 -15-122.752 212.050   4
  -3 -15  16 335.002 123.158   6
  -3  15  16-238.676 239.399   2
  -3  15  16 339.455 197.152   3
   3 -15 -16 477.387 137.710   5
   3 -15 -16 468.807 128.546   8
  -3 -15 -16 577.012 210.312   8
  -3 -15 -16 416.568 154.077   5
   3  15  16 397.244 154.431   3
  -3 -15  16 320.446 128.306   7
   3  15 -16 352.740 208.072   4
  -3 -15  17 15.4850 92.5218   6
  -3  15  17 343.977 260.167   2
  -3  15  17-104.088 178.906   3
   3 -15 -17-15.4988 116.419   5
   3 -15 -17-36.7066 114.208   8
  -3 -15 -17-171.031 202.694   8
  -3 -15 -17-78.6911 134.681   5
   3  15  17 113.982 133.464   3
  -3 -15  17-54.1401 108.546   7
   3  15 -17-129.211 198.283   4
  -3 -15  18 78.8617 97.5063   6
  -3  15  18 34.7878 233.866   2
  -3  15  18-25.4902 184.993   3
   3 -15 -18-77.5365 111.716   5
   3 -15 -18-112.911 104.479   8
  -3 -15 -18 100.063 200.556   8
  -3 -15 -18-102.220 138.118   5
   3  15  18 38.1824 124.218   3
  -3 -15  18-13.7359 105.850   7
   3  15 -18-158.859 220.321   4
  -3 -15  19-16.0218 108.699   6
  -3  15  19-281.114 276.148   2
   3 -15 -19-15.6531 109.958   5
  -3  15  19-50.8783 167.836   3
   3 -15 -19-102.221 104.730   8
  -3 -15 -19 106.281 151.170   5
   3  15  19-76.9591 128.746   3
  -3 -15  19 153.579 102.906   7
   3  15 -19-162.478 217.758   4
  -3 -15  20 81.4095 113.455   6
   3 -15 -20-47.4943 125.771   5
  -3  15  20-391.470 304.338   2
  -3  15  20 24.9323 174.299   3
   3 -15 -20 273.428 115.958   8
  -3 -15 -20 22.1390 179.813   5
   3  15  20 233.021 135.519   3
  -3 -15  20 99.7863 111.197   7
   3  15 -20 27.6231 219.786   4
  -3 -15  21 16.5580 113.787   6
  -3  15  21-180.089 253.159   2
   3 -15 -21 48.0808 112.085   5
  -3  15  21 49.8131 171.514   3
   3 -15 -21 53.6813 113.782   8
  -3 -15 -21 26.6024 216.201   8
  -3 -15 -21 45.7847 152.087   5
   3  15  21 255.997 149.823   3
  -3 -15  21 145.409 118.863   7
   3  15 -21-84.5144 209.414   4
  -3 -15  22-16.8308 106.975   6
  -3  15  22 72.9734 270.996   2
   3 -15 -22-81.9916 118.264   5
   3 -15 -22 13.6837 116.107   8
  -3  15  22-245.941 187.489   3
  -3 -15 -22-270.377 240.046   8
  -3 -15 -22 94.8319 154.326   5
  -3 -15  22 14.8554 105.028   7
   3  15  22-100.014 134.033   3
   3  15 -22-143.406 228.514   4
  -3 -15  23-154.324 107.809   6
  -3  15  23 36.9925 263.134   2
   3 -15 -23 16.8421 123.811   5
   3 -15 -23 13.9565 113.854   8
  -3  15  23 49.4739 156.182   3
   3  15  23-102.324 131.923   3
   3  15 -23-87.2270 234.639   4
   3 -15 -24 449.846 145.336   5
  -3  15  24 98.9715 174.406   3
   4  15   1 2514.19 435.209   3
   4  15   1 2130.19 467.704   2
  -4 -15  -2 533.545 131.543   5
   4  15   2 367.177 150.694   3
   4  15  -3 467.146 153.786   4
  -4 -15   3 665.378 153.404   6
   4 -15  -4 298.217 161.687   5
  -4 -15  -4 159.899 145.242   8
   4  15   4 217.333 194.353   2
   4 -15  -5-86.3127 140.993   5
  -4 -15  -5-13.7798 97.1915   5
  -4 -15  -5-16.8205 141.198   8
   4  15  -5-18.8833 129.807   1
   4  15   5 36.9752 126.529   3
  -4 -15   5 40.4681 96.7157   7
   4  15   5 24.0882 185.449   2
  -4  15   5-135.292 193.984   2
   4 -15  -6 479.826 188.330   5
  -4 -15  -6 679.418 148.229   5
  -4 -15  -6 372.161 177.143   8
   4  15   6 569.712 175.460   3
  -4 -15   6 349.526 143.692   7
   4  15  -6 875.304 210.393   1
   4  15  -6 500.968 162.525   4
  -4  15   6 388.098 232.102   2
  -4 -15   6 653.423 151.505   6
   4 -15  -7 138.855 139.896   5
   4 -15  -7-30.6243 84.1674   8
  -4 -15  -7-29.4907 102.686   5
  -4 -15  -7 93.5854 151.945   8
   4  15   7 36.5546 126.187   3
  -4 -15   7-26.8258 98.4601   7
   4  15  -7-118.941 130.815   4
   4  15  -7-127.078 168.108   1
  -4  15   7 341.528 208.911   2
  -4 -15   7-14.9522 100.504   6
   4  15  -8-22.1463 164.361   1
   4 -15  -8 174.106 146.924   5
   4 -15  -8 196.193 90.2046   8
  -4 -15  -8 76.7983 111.376   5
  -4 -15  -8-19.7939 160.745   8
   4  15   8-18.4658 115.436   3
  -4 -15   8 80.3410 103.607   7
   4  15  -8-107.096 141.383   4
  -4  15   8 349.783 176.551   2
  -4 -15   8 76.0308 112.856   6
  -4  15   9 54.9428 204.294   3
   4 -15  -9 148.435 130.280   5
   4 -15  -9 20.9456 85.2825   8
   4  15  -9 69.2554 174.344   1
  -4 -15  -9 47.9392 115.608   5
  -4 -15  -9-83.8861 165.766   8
   4  15   9 128.936 130.423   3
  -4 -15   9 13.3780 105.424   7
   4  15  -9 131.106 147.152   4
  -4  15   9 297.710 229.490   2
  -4 -15   9 137.620 102.967   6
  -4  15  10 444.935 232.013   3
   4 -15 -10 163.836 132.364   5
   4 -15 -10 234.100 90.4559   8
  -4 -15 -10 98.7084 121.953   5
  -4 -15 -10-21.5413 187.734   8
   4  15 -10-23.9774 180.432   1
   4  15  10 18.3775 122.083   3
  -4 -15  10 120.193 105.816   7
   4  15 -10-19.6471 156.410   4
  -4  15  10 273.286 220.855   2
  -4 -15  10 338.653 121.929   6
  -4  15  11 620.010 262.486   3
   4 -15 -11 1159.82 204.522   5
   4 -15 -11 1136.28 178.349   8
  -4 -15 -11 752.247 210.572   5
  -4 -15 -11 870.070 258.655   8
   4  15  11 532.045 205.724   3
  -4 -15  11 1160.16 196.846   7
   4  15 -11 640.049 258.461   1
   4  15 -11 514.616 233.575   4
  -4  15  11 525.746 269.018   2
  -4 -15  11 773.126 195.144   6
  -4 -15  12 201.991 114.820   6
  -4  15  12 28.2938 209.858   3
   4 -15 -12 277.577 136.157   5
   4 -15 -12 297.193 98.8199   8
  -4 -15 -12 213.065 133.013   5
  -4 -15 -12-188.582 196.993   8
   4  15  12 111.623 127.887   3
  -4 -15  12 53.3198 110.174   7
   4  15 -12 386.753 185.588   4
   4  15 -12 50.9577 219.542   1
   4  15 -13 315.784 285.777   1
  -4  15  13 1569.42 337.478   3
   4 -15 -13 1664.27 265.441   5
  -4 -15 -13 1028.58 324.365   8
  -4 -15 -13 1826.34 273.220   5
   4  15  13 428.466 263.145   3
  -4 -15  13 1463.65 248.553   7
  -4 -15  13 1480.41 261.564   6
   4  15 -13 1277.33 300.710   4
  -4 -15  14 46.8421 104.932   6
  -4  15  14 97.7109 233.409   2
  -4  15  14 170.050 233.807   3
   4 -15 -14 250.100 124.014   5
   4  15 -14 107.851 217.032   1
  -4 -15 -14 310.307 206.890   8
  -4 -15 -14 57.5101 137.224   5
   4  15  14 55.9860 128.153   3
  -4 -15  14 107.513 109.561   7
   4  15 -14 161.119 170.778   4
  -4 -15  15 860.168 211.405   6
  -4  15  15 755.918 298.277   2
  -4  15  15 398.256 286.890   3
   4 -15 -15 975.828 228.278   5
   4 -15 -15 1295.19 207.503   8
  -4 -15 -15 1039.50 286.833   8
  -4 -15 -15 1613.37 249.057   5
   4  15  15 881.165 228.984   3
  -4 -15  15 1165.68 215.622   7
   4  15 -15 528.204 289.954   1
   4  15 -15 1030.06 273.208   4
  -4 -15  16 234.920 112.078   6
  -4  15  16 233.807 219.964   2
  -4  15  16 252.321 218.212   3
   4 -15 -16 308.300 131.071   5
   4  15 -16-28.5028 217.117   1
   4 -15 -16 530.269 116.112   8
  -4 -15 -16 565.699 232.538   8
  -4 -15 -16 123.526 147.940   5
   4  15  16-94.2847 125.826   3
  -4 -15  16 299.492 114.580   7
   4  15 -16 99.6608 201.329   4
  -4 -15  17-110.730 101.823   6
  -4  15  17 271.835 255.711   2
  -4  15  17 140.252 202.660   3
   4 -15 -17 239.713 128.051   5
   4 -15 -17 71.9974 103.691   8
  -4 -15 -17 58.2057 242.757   8
  -4 -15 -17 85.7760 150.355   5
   4  15 -17-58.4996 210.421   1
  -4 -15  17 220.105 114.424   7
   4  15  17 152.396 128.066   3
   4  15 -17 357.940 216.579   4
  -4 -15  18 95.9024 103.279   6
  -4  15  18-68.5944 245.123   2
  -4  15  18 27.5813 197.668   3
   4 -15 -18 208.231 138.239   5
   4 -15 -18 196.259 107.041   8
  -4 -15 -18-119.604 255.839   8
  -4 -15 -18 576.593 172.497   5
  -4 -15  18 83.5547 116.739   7
   4  15  18 173.343 127.027   3
   4  15 -18 30.1263 227.519   1
   4  15 -18 157.095 211.296   4
  -4 -15  19 64.7539 108.241   6
  -4  15  19 34.8293 276.614   2
  -4  15  19-110.473 212.097   3
   4 -15 -19-15.9436 126.085   5
   4 -15 -19 12.5013 101.309   8
  -4 -15 -19-61.3238 265.747   8
  -4 -15 -19-573.930 186.614   5
  -4 -15  19-28.1632 125.008   7
   4  15  19-19.6104 143.719   3
   4  15 -19 26.8374 227.457   4
   4  15 -19-526.845 268.594   1
  -4 -15  20 32.8497 109.700   6
   4  15 -20 127.750 268.835   1
  -4  15  20 246.348 269.783   2
  -4  15  20 162.994 203.447   3
   4 -15 -20 177.520 134.967   5
   4 -15 -20 217.848 115.781   8
  -4 -15  20 85.7650 96.4240   7
   4  15  20 120.547 131.541   3
   4  15 -20 27.4438 215.156   4
  -4 -15  21 50.0203 107.490   6
  -4  15  21 142.367 252.110   2
   4  15 -21 296.830 259.239   1
   4 -15 -21 113.370 114.358   5
  -4  15  21-299.530 196.075   3
   4 -15 -21 13.0753 107.947   8
  -4 -15  21 29.0834 122.193   7
   4  15 -21-28.0377 218.920   4
  -4 -15  22 16.9081 117.532   6
  -4  15  22-72.4059 248.372   2
   4  15 -22 204.723 252.978   1
   4 -15 -22 147.855 117.648   5
  -4  15  22 294.826 188.252   3
   4 -15 -22 213.553 116.603   8
  -4 -15  22 14.8178 117.365   7
   4  15 -22 28.6120 213.943   4
  -4  15  23 268.794 183.641   3
   4 -15 -23 81.8184 112.567   8
   4 -15 -23 133.389 125.464   5
   5  15   2 1098.77 239.742   3
  -5 -15  -4-168.658 154.766   8
  -5 -15   4 145.228 122.373   7
   5  15  -4 128.403 123.898   1
   5  15  -5 203.566 182.546   1
  -5 -15  -5 593.457 225.587   8
  -5 -15  -5 1249.94 189.557   5
   5  15   5 438.853 204.272   3
  -5 -15   5 780.080 184.005   7
   5  15  -5 1073.04 189.906   4
  -5 -15   5 1046.23 192.631   6
   5  15  -6 200.831 145.280   1
  -5 -15  -6-20.9364 166.780   8
  -5 -15  -6 16.1569 114.674   5
   5  15   6 239.134 122.918   3
  -5 -15   6 200.232 125.779   7
   5  15  -6-14.5626 112.644   4
  -5 -15   6 246.322 127.053   6
   5  15  -7 38.5271 166.638   1
  -5 -15  -7 110.986 214.462   8
  -5 -15  -7 265.577 135.600   5
   5  15   7 292.591 153.008   3
  -5 -15   7 419.463 148.359   7
   5  15  -7 517.437 151.634   4
  -5 -15   7 643.137 149.540   6
   5 -15  -8-20.5375 144.231   5
   5  15  -8 20.3017 133.927   1
  -5 -15  -8 164.705 188.587   8
  -5 -15  -8-51.5415 120.148   5
  -5 -15   8-29.6432 109.212   7
   5  15   8 18.4533 127.951   3
   5  15  -8 96.2140 121.712   4
  -5  15   8 28.1726 187.611   2
  -5 -15   8-82.8207 121.117   6
   5 -15  -9 500.780 158.785   5
  -5 -15  -9 436.733 208.186   8
  -5 -15  -9 247.536 133.250   5
   5  15  -9 21.3356 163.539   1
  -5 -15   9 161.881 130.221   7
   5  15   9 239.355 155.669   3
   5  15  -9 354.586 147.038   4
  -5  15   9 172.318 231.369   2
  -5 -15   9 599.282 135.814   6
   5 -15 -10 211.272 152.898   5
   5 -15 -10 149.414 86.8147   8
  -5 -15 -10 77.4525 207.702   8
  -5 -15 -10 128.289 136.217   5
  -5 -15  10 87.5500 120.948   7
   5  15  10-18.6246 121.188   3
   5  15 -10 67.1551 185.044   1
   5  15 -10 195.494 147.219   4
  -5  15  10 497.705 227.491   2
  -5 -15  10 284.435 129.772   6
  -5  15  11 871.837 262.570   3
   5 -15 -11 660.758 182.556   5
   5 -15 -11 671.361 138.064   8
  -5 -15 -11 801.541 271.018   8
  -5 -15 -11 304.418 155.263   5
  -5 -15  11 579.469 153.512   7
   5  15  11 596.452 168.499   3
   5  15 -11 336.472 183.624   4
   5  15 -11 234.120 204.123   1
  -5  15  11 835.284 254.258   2
  -5 -15  11 773.329 166.770   6
  -5  15  12 718.233 275.146   3
   5 -15 -12 729.290 201.406   5
  -5 -15 -12 939.362 285.801   8
  -5 -15 -12 824.705 208.696   5
  -5 -15  12 989.361 196.980   7
   5  15  12 149.788 196.995   3
   5  15 -12 1295.61 235.962   4
   5  15 -12 244.189 234.889   1
  -5 -15  12 1282.11 210.875   6
   5  15 -13 652.401 239.486   1
  -5  15  13 1050.38 296.730   3
   5 -15 -13 282.777 157.661   5
  -5 -15 -13 590.551 257.200   8
  -5 -15 -13 769.840 184.735   5
  -5 -15  13 607.250 153.142   7
   5  15  13 266.212 172.856   3
   5  15 -13 535.556 184.813   4
  -5  15  13 277.956 233.857   2
  -5 -15  13 558.006 155.172   6
  -5  15  14 618.724 294.765   3
   5  15 -14 626.732 241.456   1
   5 -15 -14 683.529 174.632   5
   5 -15 -14 658.987 154.067   8
  -5 -15 -14 398.144 272.760   8
  -5 -15 -14 439.322 182.455   5
  -5 -15  14 1036.91 175.250   7
   5  15  14 95.7481 149.709   3
   5  15 -14 496.486 214.884   4
  -5  15  14 1193.30 285.968   2
  -5 -15  14 831.452 170.612   6
  -5  15  15 836.902 290.688   3
   5 -15 -15 477.634 153.661   5
   5 -15 -15 439.622 135.551   8
   5  15 -15 624.224 263.054   1
  -5 -15 -15 1108.71 301.764   8
  -5 -15  15 463.461 152.087   7
   5  15  15-19.4185 150.233   3
   5  15 -15 813.083 215.371   4
  -5  15  15 478.665 265.663   2
  -5 -15  15 543.828 144.799   6
  -5 -15  16 17.0287 112.954   6
  -5  15  16 29.8544 234.629   3
   5 -15 -16 271.833 134.925   5
   5 -15 -16 188.637 109.884   8
  -5 -15 -16 304.155 265.397   8
   5  15 -16 55.7503 210.184   1
  -5 -15  16 57.7711 100.312   7
   5  15  16 39.5077 124.179   3
   5  15 -16 211.845 197.377   4
  -5  15  16 193.427 235.613   2
  -5 -15  17 251.924 140.899   6
  -5  15  17 452.137 242.945   3
   5 -15 -17 532.634 154.729   5
   5 -15 -17 504.741 132.851   8
   5  15 -17 257.817 237.608   1
  -5 -15  17 538.506 146.767   7
   5  15 -17 342.872 206.047   4
  -5  15  17-32.7583 220.118   2
  -5  15  18 33.0946 249.145   2
  -5 -15  18-16.7764 113.739   6
  -5  15  18-29.8814 223.445   3
   5 -15 -18-133.430 139.561   5
   5 -15 -18-220.613 108.026   8
   5  15 -18-29.7467 232.126   1
  -5 -15  18-132.221 120.671   7
   5  15 -18-50.9159 190.611   4
  -5  15  19 33.6863 266.477   2
  -5 -15  19 301.743 137.840   6
  -5  15  19 451.056 243.534   3
   5 -15 -19 131.980 127.797   5
   5 -15 -19 300.134 122.144   8
   5  15 -19 214.449 253.363   1
  -5 -15  19 412.102 132.692   7
   5  15 -19 528.577 226.426   4
  -5 -15  20 84.4917 114.365   6
  -5  15  20 374.536 229.500   2
  -5  15  20 267.550 227.907   3
   5 -15 -20 65.4660 122.277   5
   5 -15 -20 203.984 112.062   8
  -5 -15  20 44.7104 119.925   7
   5  15 -20 31.5900 233.407   1
   5  15 -20-189.436 209.777   4
  -5 -15  21 323.687 142.071   6
  -5  15  21 416.174 281.397   2
  -5  15  21 119.750 216.523   3
   5 -15 -21 647.033 152.932   5
   5 -15 -21 442.743 132.506   8
  -5 -15  21 347.762 151.675   7
   5  15 -21 783.129 285.818   1
   5  15 -21 414.830 224.840   4
  -5 -15  22 34.4549 118.984   6
  -5  15  22 105.292 256.652   2
  -5  15  22-148.039 209.699   3
   5 -15 -22 50.1131 125.918   5
   5 -15 -22 159.633 111.714   8
   5  15 -22-424.090 238.039   4
  -5  15  23 142.211 227.645   2
   5 -15 -23 101.870 122.715   5
  -5  15  23 234.509 213.805   3
   6  15  -2 545.860 140.179   1
   6  15  -3 53.0072 82.2741   1
  -6 -15   3-79.7505 154.027   7
  -6 -15   3-54.1261 127.238   6
  -6 -15  -4 1799.43 326.959   8
  -6 -15  -4 962.695 267.527   5
   6  15  -4 882.938 258.561   1
  -6 -15   4 1426.64 286.828   7
   6  15  -4 1353.33 254.204   4
   6  15   4 1038.58 277.749   3
  -6 -15   4 2313.04 283.786   6
  -6 -15  -5 46.3573 190.180   8
  -6 -15  -5 17.8678 122.131   5
  -6 -15   5 55.7801 133.117   7
   6  15  -5 46.0209 118.505   1
   6  15  -5 113.075 107.449   4
   6  15   5-58.1907 130.143   3
  -6 -15   5 162.948 134.275   6
  -6 -15  -6 490.348 267.342   8
  -6 -15  -6 894.312 204.294   5
  -6 -15   6 535.184 209.297   7
   6  15  -6 911.047 183.202   4
   6  15   6 505.287 209.592   3
   6  15  -6 615.935 204.378   1
  -6 -15  -7 101.230 230.972   8
  -6 -15  -7 710.718 179.492   5
  -6 -15   7 839.940 177.591   7
   6  15  -7 623.661 154.869   4
   6  15   7 97.5591 166.201   3
   6  15  -7 377.084 178.265   1
  -6 -15   7 710.255 178.589   6
  -6 -15  -8 349.810 230.806   8
  -6 -15   8 584.288 165.084   7
   6  15  -8 391.852 157.133   4
   6  15   8 332.168 166.690   3
  -6 -15   8 968.291 172.465   6
   6  15  -8 387.334 185.501   1
   6  15  -9-19.4483 150.343   1
  -6 -15  -9 85.7248 224.617   8
  -6 -15   9-50.7292 121.344   7
   6  15  -9-45.5784 122.673   4
   6  15   9-98.4901 131.898   3
  -6 -15   9 18.1324 132.694   6
   6  15 -10 716.488 233.607   1
  -6 -15 -10 654.301 319.542   8
  -6 -15  10 965.246 200.894   7
   6  15 -10 826.752 200.524   4
   6  15  10 198.452 190.142   3
  -6 -15  10 1398.09 212.290   6
   6  15 -11-21.5256 165.872   1
  -6 -15 -11 189.873 265.727   8
  -6 -15  11 16.3939 129.892   7
   6  15 -11 16.6337 142.650   4
  -6 -15  11 109.115 130.572   6
   6 -15 -12 765.127 206.486   5
   6  15 -12 519.909 230.501   1
  -6 -15 -12 992.045 321.354   8
  -6 -15  12 985.349 193.009   7
   6  15 -12 929.312 207.255   4
  -6  15  12 58.8057 247.979   2
  -6 -15  12 929.662 199.949   6
  -6  15  13 321.412 247.770   3
   6 -15 -13 491.722 158.332   5
   6  15 -13 23.2902 182.804   1
  -6 -15  13 239.030 131.963   7
   6  15 -13 166.117 151.597   4
  -6  15  13 268.273 203.339   2
  -6 -15  13 347.181 143.132   6
  -6  15  14 329.484 289.045   3
   6 -15 -14 900.463 197.661   5
   6 -15 -14 719.004 169.770   8
   6  15 -14 1122.31 244.987   1
  -6 -15  14 678.541 187.586   7
   6  15 -14 368.931 203.314   4
  -6  15  14 363.093 264.940   2
  -6 -15  14 769.135 187.072   6
  -6  15  15 30.7502 268.855   3
   6 -15 -15 286.726 140.496   5
   6 -15 -15 11.6271 105.885   8
   6  15 -15 51.0636 187.152   1
  -6 -15  15 94.9797 123.000   7
   6  15 -15 249.275 170.198   4
  -6  15  15-122.908 209.762   2
  -6 -15  15 18.3212 125.518   6
  -6  15  16 62.5375 263.146   3
   6 -15 -16 571.837 163.911   5
   6 -15 -16 555.752 143.836   8
  -6 -15  16 658.908 167.769   7
   6  15 -16 420.325 231.891   1
   6  15 -16 914.799 216.822   4
  -6  15  16 342.038 237.809   2
  -6 -15  16 659.322 165.398   6
  -6  15  17-31.9549 264.339   3
   6 -15 -17 34.9871 127.098   5
   6 -15 -17-84.2519 102.728   8
  -6 -15  17-31.5376 125.752   7
   6  15 -17 54.9085 206.986   1
   6  15 -17-250.848 178.731   4
  -6  15  17 94.7562 214.340   2
  -6 -15  17-18.3339 126.755   6
  -6  15  18 225.057 271.636   3
   6 -15 -18 549.943 162.907   5
   6 -15 -18 675.474 143.960   8
  -6 -15  18 298.009 170.702   7
   6  15 -18 28.2734 279.267   1
   6  15 -18 166.845 236.670   4
  -6  15  18 352.588 269.304   2
  -6 -15  18 677.797 173.660   6
  -6 -15  19 72.2693 124.594   6
  -6  15  19 707.832 261.848   3
   6 -15 -19 51.7828 120.348   5
  -6 -15  19 347.913 130.179   7
   6  15 -19 173.603 196.874   4
   6  15 -19 291.420 225.296   1
  -6  15  19 259.368 240.513   2
   6 -15 -19 87.6242 101.605   8
  -6 -15  20 594.520 165.089   6
  -6  15  20 946.577 282.629   3
   6 -15 -20 872.175 171.672   5
   6 -15 -20 422.193 150.985   8
  -6 -15  20 654.729 173.043   7
   6  15 -20 309.040 236.556   4
   6  15 -20 631.380 276.207   1
  -6  15  20 296.615 238.636   2
  -6 -15  21 53.8845 127.647   6
  -6  15  21 97.4728 238.375   3
   6 -15 -21 207.369 131.204   5
   6 -15 -21 104.611 113.380   8
   6  15 -21 26.7192 208.052   4
   6  15 -21 31.4890 197.515   1
  -6  15  21 466.716 255.592   2
  -6  15  22 526.811 271.920   3
   6 -15 -22 448.001 153.677   5
  -6  15  22 135.026 247.876   2
   7  15  -2-34.8317 88.8369   1
  -7 -15   2 72.7805 166.067   7
   7  15  -2-48.2518 74.9060   4
  -7 -15   2 40.2045 144.739   6
   7  15  -3 1205.01 212.952   1
  -7 -15   3 681.343 259.616   7
   7  15  -3 1010.55 205.485   4
  -7 -15   3 1286.21 258.430   6
   7  15  -4 77.6003 107.799   1
  -7 -15   4 45.8361 172.734   7
   7  15  -4 232.918 95.0216   4
  -7 -15   4 201.075 152.607   6
   7  15  -5 516.385 194.447   1
  -7 -15  -5 827.585 275.789   8
  -7 -15   5 1537.08 257.407   7
   7  15  -5 801.136 190.094   4
  -7 -15   5 1355.49 230.237   6
  -7 -15  -6 600.682 271.154   8
   7  15  -6 335.745 167.797   1
  -7 -15   6 556.988 209.234   7
   7  15  -6 807.407 163.398   4
  -7 -15  -7 519.777 287.996   8
   7  15  -7 1016.30 198.981   1
  -7 -15   7 675.446 219.892   7
   7  15  -7 702.014 180.429   4
  -7 -15   7 1157.43 218.803   6
  -7 -15  -8 934.380 333.270   8
  -7 -15   8 480.057 228.844   7
   7  15  -8 1171.00 227.622   1
   7  15  -8 1064.36 208.368   4
  -7 -15   8 1098.08 237.481   6
  -7 -15   9 156.546 176.552   7
   7  15  -9 415.213 141.388   4
   7  15  -9 297.311 158.552   1
  -7 -15   9 619.787 174.796   6
  -7 -15  10 57.4245 138.910   7
   7  15 -10 43.6609 124.340   4
   7  15 -10 55.3518 146.960   1
  -7 -15  10-80.0250 139.946   6
  -7 -15  11 637.029 200.437   7
   7  15 -11 839.210 187.565   4
   7  15 -11 428.022 213.580   1
  -7 -15  12 128.502 139.016   7
   7  15 -12-63.9729 125.462   4
   7  15 -12 20.0885 162.718   1
  -7 -15  12 140.194 143.754   6
  -7 -15  13 937.109 193.140   7
   7  15 -13 636.073 176.480   4
  -7 -15  13 832.586 193.916   6
   7  15 -14-66.5502 161.626   1
  -7 -15  14 53.1416 132.072   7
   7  15 -14 17.5140 132.995   4
  -7 -15  14 79.2574 140.955   6
  -7 -15  15 691.070 188.385   7
   7  15 -15 276.925 190.395   4
  -7 -15  15 812.497 200.959   6
  -7  15  16 32.0951 243.868   3
   7  15 -16-23.9951 192.655   1
   7 -15 -16-128.857 128.140   5
  -7 -15  16-104.763 144.835   7
   7  15 -16-138.533 159.026   4
  -7 -15  16 59.4395 150.810   6
  -7  15  17 231.154 275.494   3
   7 -15 -17 239.820 173.999   5
   7  15 -17 503.604 246.360   1
  -7 -15  17 822.713 186.738   7
   7  15 -17 311.995 211.774   4
  -7  15  17 183.287 246.638   2
  -7 -15  17 812.057 202.308   6
  -7  15  18 409.107 256.655   3
   7 -15 -18 199.876 141.182   5
   7  15 -18 25.9525 197.502   1
  -7 -15  18 207.417 139.729   7
   7  15 -18 130.907 175.265   4
  -7  15  18 463.285 220.828   2
  -7 -15  18 276.830 142.982   6
  -7  15  19 347.201 285.225   3
   7 -15 -19 383.199 150.204   5
   7  15 -19 26.7690 202.538   1
  -7 -15  19 365.004 156.764   7
   7  15 -19 342.608 190.680   4
  -7  15  19 31.2720 225.045   2
  -7 -15  19 370.986 161.600   6
  -7  15  20 140.647 266.701   3
   7 -15 -20 523.302 165.866   5
   7 -15 -20 373.469 141.205   8
  -7 -15  20 472.610 168.533   7
   7  15 -20 119.386 201.961   4
  -7  15  20 855.529 254.415   2
  -7 -15  20 837.136 175.708   6
  -7  15  21 216.100 278.602   3
   7 -15 -21 555.537 154.673   5
   7 -15 -21 329.531 131.621   8
  -7  15  21 32.0877 239.153   2
  -7  15  22 180.957 277.277   3
   7 -15 -22 181.700 142.523   5
   8  15  -2 189.891 77.6017   4
   8  15  -2 101.370 87.4535   1
   8  15  -3 23.2229 82.3737   1
  -8 -15   3-104.710 195.574   7
   8  15  -3 126.456 76.6321   4
  -8 -15   3 307.308 173.050   6
   8  15  -4 215.812 112.160   1
  -8 -15   4 129.670 196.339   7
   8  15  -4 293.225 101.598   4
   8  15  -5 262.956 133.046   1
   8  15  -5 430.365 123.963   4
   8  15  -6 357.066 129.117   1
  -8 -15   6 24.9858 194.977   7
   8  15  -6 399.458 118.050   4
  -8 -15   7 1342.92 329.591   7
   8  15  -7 1170.71 274.930   4
   8  15  -7 1847.43 290.643   1
  -8 -15   7 2010.35 326.552   6
   8  15  -8 43.7633 110.519   1
  -8 -15   8 257.822 175.402   7
   8  15  -8 58.1672 95.2163   4
  -8 -15   8 502.616 168.497   6
   8  15  -9 399.461 146.372   1
  -8 -15   9 548.702 210.188   7
   8  15  -9 294.217 132.118   4
  -8 -15   9 830.025 194.960   6
   8  15 -10 80.9943 139.306   1
  -8 -15  10 713.752 187.514   7
   8  15 -10 232.642 122.074   4
  -8 -15  10 851.641 194.899   6
  -8 -15  11-43.5203 164.593   7
   8  15 -11 17.0468 120.755   1
   8  15 -11 13.8069 105.214   4
  -8 -15  11 87.2887 156.468   6
  -8 -15  12 42.4626 157.782   7
   8  15 -12 53.8845 132.120   1
   8  15 -12 203.720 122.835   4
  -8 -15  12 327.210 159.555   6
  -8 -15  13 165.964 163.474   7
   8  15 -13-153.018 123.240   4
   8  15 -13-94.5007 116.701   1
  -8 -15  13-108.145 166.950   6
  -8 -15  14 385.146 169.237   7
   8  15 -14 16.0474 123.480   4
   8  15 -14-19.8723 160.009   1
  -8 -15  14 604.352 166.425   6
  -8 -15  15-242.814 171.579   7
   8  15 -15-16.8092 144.439   4
   8  15 -15-167.294 172.611   1
  -8 -15  15 21.5314 157.016   6
  -8 -15  16 19.8134 160.706   7
   8  15 -16 88.8478 151.728   4
   8  15 -16 150.965 172.084   1
  -8 -15  16 21.4622 156.703   6
  -8 -15  17 416.166 163.451   7
   8  15 -17 281.026 162.527   4
   8  15 -17 181.427 181.338   1
  -8 -15  17 192.586 149.269   6
  -8 -15  18 136.265 152.245   7
   8  15 -18 118.229 158.719   4
   8  15 -18 116.929 183.216   1
  -8 -15  18 21.1695 143.157   6
  -8 -15  19 566.294 185.286   7
   8  15 -19 41.4108 174.362   4
   8  15 -19 540.766 200.249   1
  -8 -15  19 253.436 173.289   6
  -8  15  21 1057.30 305.042   3
   8 -15 -21 477.233 184.690   5
   9  15  -1 106.232 65.2949   4
   9  15  -2-31.5686 63.6922   4
  -9 -15   2-47.1138 176.942   6
   9  15  -3-24.6911 63.7407   4
  -9 -15   3-47.2639 174.851   6
   9  15  -4 214.970 79.4702   4
  -9 -15   4 94.8830 169.693   6
   9  15  -5-11.9671 89.9604   1
   9  15  -5-27.2024 69.9539   4
  -9 -15   5-95.3116 172.251   6
   9  15  -6 470.402 144.299   1
  -9 -15   6 772.083 243.125   7
   9  15  -6 437.601 125.102   4
   9  15  -7 12.8268 99.6400   1
  -9 -15   7-54.5958 183.588   7
   9  15  -7-69.9730 73.9316   4
  -9 -15   7-23.7529 166.935   6
   9  15  -8 641.125 156.525   1
  -9 -15   8 755.698 247.923   7
   9  15  -8 441.170 141.851   4
   9  15  -9-13.9205 95.1557   1
  -9 -15   9-238.288 202.546   7
   9  15  -9-88.3881 91.4151   4
  -9 -15   9 190.512 175.641   6
   9  15 -10 14.7901 111.413   1
  -9 -15  10 51.7751 177.651   7
   9  15 -10 117.667 94.9247   4
  -9 -15  10 142.914 165.680   6
   9  15 -11 15.5123 107.309   1
  -9 -15  11 126.499 177.806   7
   9  15 -11 12.4079 100.637   4
  -9 -15  11 118.993 170.054   6
   9  15 -12 32.0473 123.798   1
  -9 -15  12 49.4215 184.844   7
   9  15 -12 52.3706 97.2181   4
  -9 -15  12-188.350 171.489   6
   9  15 -13-50.5037 133.236   1
  -9 -15  13-120.402 182.141   7
   9  15 -13-82.8909 112.910   4
  -9 -15  13-188.038 173.915   6
   9  15 -14 194.726 144.178   1
  -9 -15  14 328.646 210.659   7
   9  15 -14 58.9753 117.346   4
  -9 -15  14 93.8404 197.677   6
   9  15 -15 18.5952 125.580   1
  -9 -15  15-68.6738 173.764   7
   9  15 -15 93.0418 118.147   4
  -9 -15  15-70.2055 166.424   6
  -9 -15  16 68.5120 156.295   7
   9  15 -16 19.5458 142.926   1
   9  15 -16-113.810 129.902   4
  -9 -15  16 161.904 178.067   6
  -9 -15  17-200.749 170.984   7
   9  15 -17 20.1611 152.447   1
   9  15 -17-136.171 135.693   4
  -9 -15  17 46.0487 156.680   6
  -9 -15  18 691.138 178.716   7
   9  15 -18 231.452 153.706   4
  -9 -15  18 503.940 193.214   6
  10  15  -4-23.8874 59.6109   4
 -10 -15   4 431.519 197.470   6
  10  15  -5 207.911 85.0876   4
 -10 -15   5 613.955 213.013   6
  10  15  -6-43.5223 71.1269   4
 -10 -15   6-101.785 196.067   6
  10  15  -7 291.674 97.0550   4
  10  15  -7 245.898 111.890   1
  10  15  -8 12.6820 94.9953   1
  10  15  -8 77.2042 77.2630   4
 -10 -15   8-180.071 191.057   6
  10  15  -9 131.212 108.501   1
 -10 -15   9 377.250 198.450   7
  10  15  -9 182.643 83.9154   4
 -10 -15   9-129.054 190.418   6
  10  15 -10 13.5883 96.7063   1
  10  15 -10-32.0051 86.9671   4
 -10 -15  10 25.5949 189.354   6
  10  15 -11 42.3806 105.826   1
 -10 -15  11-85.8173 231.734   7
  10  15 -11-145.892 91.1643   4
 -10 -15  11 25.6205 192.652   6
  10  15 -12 14.7002 116.856   1
 -10 -15  12 84.7844 220.750   7
  10  15 -12 188.910 101.104   4
 -10 -15  12 204.906 198.196   6
  10  15 -13 46.0753 120.871   1
 -10 -15  13 110.795 197.071   7
  10  15 -13 12.6047 93.1087   4
 -10 -15  13 76.6613 186.963   6
  10  15 -14-31.6761 112.746   1
 -10 -15  14 81.2112 214.217   7
  10  15 -14 93.0466 103.181   4
 -10 -15  14-25.2518 189.657   6
  10  15 -15 16.5777 124.918   1
 -10 -15  15 26.4427 193.348   7
  10  15 -15-28.0400 101.315   4
 -10 -15  15 50.3264 180.391   6
  10  15 -16 34.6912 128.581   1
 -10 -15  16 26.3448 202.995   7
  10  15 -16 59.8212 120.940   4
 -10 -15  16 100.295 179.953   6
  10  15 -17 15.7162 127.255   4
 -10 -15  17 49.9133 179.684   6
  11  15  -8-17.7788 74.4122   4
 -11 -15   8 437.053 201.361   6
  11  15  -9 46.5666 78.9707   4
 -11 -15   9 137.430 208.084   6
  11  15 -10-49.2974 77.4745   4
 -11 -15  10-248.646 199.746   6
  11  15 -10 25.9055 94.1830   1
  11  15 -11-173.535 100.963   1
  11  15 -11-20.7271 86.3128   4
 -11 -15  11 54.8630 195.443   6
  11  15 -12 55.0641 102.851   1
 -11 -15  12-30.3189 198.230   7
  11  15 -12 54.4513 86.7476   4
 -11 -15  12 27.4386 187.919   6
  11  15 -13-14.2043 96.0017   1
 -11 -15  13 271.084 227.832   7
  11  15 -13-80.1582 90.9880   4
 -11 -15  13-27.4284 195.882   6
  11  15 -14 117.455 120.068   1
 -11 -15  14 89.8931 204.633   7
  11  15 -14 60.9317 98.0648   4
  11  15 -15-51.3410 104.350   4
 -11 -15  15 27.0124 196.060   6
  12  15 -13 191.306 99.7065   4
 -12 -15  13 498.314 222.688   6
   0 -16   0 803.257 174.655   8
   0  16   0 1103.45 286.261   2
   0  16   1 57.3575 208.066   2
   0  16   1 50.5109 205.019   3
   0 -16  -1-120.001 115.075   5
   0 -16  -1 50.9042 83.1654   8
   0  16   2 472.070 243.994   2
   0  16   2 327.499 208.626   3
   0 -16  -2 342.131 133.811   5
   0 -16  -2 443.329 115.029   8
   0  16   3-91.4621 235.171   2
   0  16   3-125.422 192.324   3
   0 -16  -3-88.6762 103.095   5
   0 -16  -3-84.0972 86.3372   8
   0  16   4-124.946 232.864   2
   0  16   4 49.8400 184.422   3
   0 -16  -4 102.888 112.527   5
   0 -16  -4 21.4378 86.1291   8
   0  16   5 95.0774 218.851   2
   0  16   5 173.038 202.610   3
   0 -16  -5-14.6424 106.757   5
   0 -16  -5 21.9965 91.3522   8
   0  16   6-32.0214 240.644   2
   0  16   6-49.0065 179.484   3
   0 -16  -6 58.3271 99.9189   5
   0 -16  -6 112.339 94.0677   8
   0  16   7-64.6075 253.106   2
   0  16   7 23.8458 172.474   3
   0 -16  -7 116.432 103.323   5
   0 -16  -7 69.1298 98.1136   8
   0 -16   7-27.7815 101.830   7
   0  16   8-293.079 247.430   2
   0  16   8 23.6273 165.627   3
   0 -16  -8 14.5913 107.713   5
   0 -16  -8 213.701 100.889   8
   0 -16   8 56.0402 112.872   7
   0  16   9-70.1691 167.694   3
   0  16   9 65.4816 236.611   2
   0 -16  -9-73.3046 109.283   5
   0 -16  -9 73.4267 101.534   8
   0 -16   9-42.8004 111.383   7
   0  16  10 23.1600 169.366   3
   0 -16 -10-29.4609 105.207   5
   0  16  10 32.9296 246.330   2
   0 -16 -10 63.2159 105.533   8
   0 -16  10 14.3320 104.013   7
   0 -16 -11 308.113 128.790   5
   0  16  11 344.243 197.371   3
   0  16  11 99.3142 296.189   2
   0 -16 -11 130.593 120.601   8
   0 -16  11 101.876 125.035   7
   0 -16 -12 1538.77 225.920   5
   0  16  12 1157.46 268.502   3
   0  16  12 532.617 325.476   2
   0 -16 -12 892.237 215.708   8
   0 -16  12 966.719 229.360   7
   0 -16 -13 14.9820 112.394   5
   0  16  13-22.4700 158.036   3
   0 -16 -13-54.9071 111.059   8
   0  16  13-367.962 239.959   2
   0 -16 -14 1892.96 294.616   8
   0 -16 -14 1249.37 281.849   5
   0  16  14 1428.65 310.386   3
   0  16  14 1384.66 367.778   2
   0 -16 -15 31.0361 107.706   5
   0 -16 -15 159.112 118.987   8
   0  16  15-175.064 142.362   3
   0 -16 -16 253.144 124.871   5
   0 -16 -16 255.426 136.663   8
   0  16  16 284.254 167.241   3
   0  16  16 653.562 293.371   2
   0 -16 -17 16.2004 114.756   5
   0 -16 -17-45.8273 133.063   8
   0  16  17-21.8853 150.457   3
   0 -16 -18 132.611 137.085   5
   0  16  18 87.7144 147.876   3
   0 -16 -19 17.0260 126.459   5
   0 -16 -19 32.3493 145.824   8
   0  16  19 321.678 288.337   2
   0  16  19-219.373 148.164   3
   0 -16 -20 370.113 145.788   5
   0 -16 -20 98.6469 144.297   8
   0  16  20 72.6910 266.988   2
   0  16  20 21.6908 151.923   3
   0 -16 -21-33.4185 130.725   8
   0 -16 -21 74.1765 138.996   5
   0  16  21 21.7176 142.859   3
   0 -16 -22 57.7555 132.135   5
   0  16  22 152.289 147.095   3
   1  16   0 142.247 228.281   2
  -1  16   0 315.787 203.708   3
   1 -16   0 214.891 146.923   5
   1 -16   0 69.9815 79.5994   8
  -1  16   0 186.529 184.398   2
  -1  16   1 637.398 248.001   3
   1  16   1 970.207 266.853   2
   1 -16  -1 316.295 173.253   5
   1 -16  -1 956.440 153.522   8
  -1 -16  -1 583.957 153.011   8
  -1  16  -1 667.642 243.678   2
  -1  16   1 470.577 239.819   2
  -1  16   2 79.5342 196.561   3
   1  16   2 60.2386 205.656   2
   1 -16  -2 138.053 132.148   5
   1  16   2 138.374 163.882   3
  -1 -16  -2 132.322 93.9137   5
   1 -16  -2 10.1749 79.4991   8
  -1 -16  -2 63.9129 89.9157   8
  -1  16   2 285.695 216.489   2
  -1  16   3-147.830 220.351   2
  -1  16   3 265.679 197.447   3
   1  16   3 335.893 239.118   2
   1 -16  -3 152.775 125.600   5
   1  16   3 251.868 176.705   3
  -1 -16  -3 13.3230 97.0473   5
  -1 -16  -3 175.244 99.3270   8
   1 -16  -3 92.9491 88.7949   8
  -1  16   4 30.5844 215.792   2
  -1  16   4-26.5286 197.072   3
   1 -16  -4 16.6705 114.278   5
   1  16   4 30.9041 233.814   2
   1  16   4-204.522 178.702   3
  -1 -16  -4-13.5501 96.5815   5
   1 -16  -4 115.126 84.4176   8
  -1 -16  -4 101.187 93.4929   8
  -1  16   5 62.5866 231.777   2
  -1  16   5 185.286 214.538   3
   1 -16  -5 98.5338 118.821   5
   1  16   5-31.1406 226.251   2
   1  16   5 22.5302 151.915   3
  -1 -16  -5 40.9919 92.6339   5
   1 -16  -5 116.849 89.2002   8
  -1 -16  -5 58.9002 99.6188   8
  -1 -16   6-13.7996 77.5477   6
  -1  16   6-127.759 217.646   2
  -1  16   6-184.342 207.677   3
   1 -16  -6-47.6866 117.637   5
   1  16   6 223.355 165.251   3
  -1 -16  -6-13.7748 103.492   5
   1  16   6-125.253 242.776   2
   1 -16  -6 43.2476 83.3281   8
  -1 -16  -6 97.4122 101.379   8
  -1 -16   6 37.4629 86.3014   7
   1  16  -6 209.010 164.844   4
  -1 -16   7 182.174 98.9737   6
  -1  16   7 456.435 265.852   2
  -1  16   7-52.3263 191.064   3
   1 -16  -7 110.128 120.638   5
  -1 -16  -7-41.6401 103.594   5
   1  16   7-132.883 167.459   3
   1  16   7-31.4363 249.896   2
   1 -16  -7 66.1226 89.4091   8
  -1 -16  -7 138.276 100.079   8
  -1 -16   7 63.9731 93.8541   7
   1 -16   7 157.269 113.577   7
   1  16  -7 234.806 175.994   4
  -1 -16   8 228.238 103.195   6
  -1  16   8 32.9906 235.597   2
  -1  16   8-101.933 191.381   3
   1 -16  -8 46.7689 115.843   5
  -1 -16  -8 125.972 102.456   5
   1  16   8-43.8141 153.276   3
   1 -16  -8-22.4826 91.6651   8
   1  16   8 252.463 233.466   2
  -1 -16  -8-91.0699 107.692   8
  -1 -16   8 13.0701 97.1558   7
   1 -16   8 14.6157 105.728   7
   1  16  -8-87.6154 166.917   4
  -1 -16   9-43.4347 98.2047   6
  -1  16   9-33.2920 240.584   2
  -1  16   9-75.7379 182.440   3
   1 -16  -9-15.4807 106.413   5
  -1 -16  -9 127.394 99.8278   5
   1  16   9 21.6951 148.473   3
   1 -16  -9 114.596 101.427   8
  -1 -16  -9-67.3930 113.141   8
   1  16   9 94.8909 246.049   2
  -1 -16   9-80.0234 106.210   7
   1  16  -9 22.3614 168.502   4
  -1 -16  10 29.4851 96.3239   6
  -1  16  10-100.681 280.873   2
  -1  16  10-150.026 191.146   3
   1 -16 -10 46.1529 111.615   5
  -1 -16 -10 14.3723 105.497   5
   1 -16 -10 11.6990 96.1581   8
   1  16  10-64.5977 151.854   3
  -1 -16 -10 13.9878 122.484   8
   1  16  10-285.466 257.483   2
  -1 -16  10 40.9903 98.7389   7
   1  16 -10-22.9232 165.654   4
  -1 -16  11 764.919 163.934   6
  -1  16  11 270.393 296.463   2
  -1  16  11 470.558 236.812   3
   1 -16 -11 880.254 184.373   5
  -1 -16 -11 864.836 174.158   5
   1 -16 -11 1031.74 172.768   8
   1  16  11 149.698 204.450   3
  -1 -16 -11 436.604 184.944   8
   1  16  11 1113.47 303.823   2
  -1 -16  11 567.713 170.466   7
   1  16 -11 467.696 221.584   4
  -1 -16  12-122.193 100.510   6
  -1  16  12 34.0139 262.129   2
  -1  16  12 73.6178 189.952   3
   1 -16 -12 228.278 120.587   5
  -1 -16 -12-14.9520 109.980   5
   1 -16 -12 111.274 100.131   8
  -1 -16 -12 236.600 122.868   8
   1  16  12 63.8483 151.809   3
   1  16  12 127.833 246.322   2
  -1 -16  12 42.6479 103.424   7
   1  16 -12 95.5129 176.350   4
   1 -16 -13 2183.11 322.777   5
  -1  16  13 959.536 389.477   2
   1 -16 -13 2014.76 317.579   8
  -1  16  13 2148.83 362.451   3
  -1 -16 -13 1541.33 317.318   5
  -1 -16 -13 1818.87 328.078   8
   1  16  13 1487.20 331.551   3
   1  16  13 872.675 381.830   2
  -1 -16  13 1569.35 316.892   7
   1  16 -13 1557.26 370.250   4
  -1  16  14 34.5221 281.305   2
   1 -16 -14 30.6491 113.372   5
  -1  16  14-23.6733 170.695   3
  -1 -16 -14 140.531 120.635   5
   1 -16 -14-12.9422 105.550   8
  -1 -16 -14 78.4059 120.302   8
   1  16  14-63.7273 139.161   3
   1  16  14 32.5290 219.871   2
  -1 -16  14 160.362 116.531   7
   1  16 -14 297.667 204.759   4
  -1  16  15 382.776 311.164   2
   1 -16 -15 566.546 191.031   5
  -1  16  15 632.977 233.509   3
  -1 -16 -15 1167.16 203.691   5
   1 -16 -15 843.016 200.841   8
  -1 -16 -15 1226.56 217.006   8
   1  16  15 1232.39 222.451   3
   1  16  15 1452.43 328.941   2
  -1 -16  15 708.959 196.425   7
   1 -16 -16 77.4897 105.590   5
  -1  16  16 139.448 173.130   3
   1 -16 -16 108.734 111.577   8
  -1 -16 -16 98.5295 122.279   5
  -1 -16 -16 66.5782 140.831   8
   1  16  16 21.2133 134.550   3
   1  16  16 33.3389 249.776   2
  -1 -16  16 107.080 120.634   7
   1 -16 -17-47.2923 110.312   5
  -1  16  17 91.0841 160.635   3
  -1 -16 -17-16.9988 124.356   5
  -1 -16 -17 17.3656 144.526   8
   1  16  17-20.9332 140.752   3
   1  16  17-339.270 253.807   2
   1 -16 -18 32.1738 124.213   5
  -1  16  18 572.797 311.244   2
   1 -16 -18 99.9424 125.137   8
  -1 -16 -18 193.992 142.504   5
  -1  16  18 204.502 169.289   3
  -1 -16 -18 123.787 162.418   8
   1  16  18-209.014 149.293   3
   1 -16 -19 65.6415 111.165   5
  -1  16  19 253.727 272.483   2
   1 -16 -19 101.574 115.624   8
  -1 -16 -19 109.800 126.549   5
  -1  16  19 68.2866 163.766   3
   1  16  19 20.8882 142.353   3
  -1  16  20-403.977 287.631   2
   1 -16 -20 67.1781 132.422   5
   1 -16 -20-30.0726 126.955   8
  -1 -16 -20-18.3122 157.728   8
  -1 -16 -20-19.2565 145.634   5
  -1  16  20 45.6816 148.510   3
   1  16  20 83.5750 144.248   3
   1  16  20 35.7597 261.474   2
  -1  16  21-260.832 302.521   2
   1 -16 -21 17.2103 128.824   5
   1 -16 -21-91.6724 144.307   8
  -1 -16 -21 18.6131 149.262   8
  -1 -16 -21-99.8792 139.779   5
  -1  16  21-136.074 151.807   3
   1  16  21 188.549 157.360   3
   1  16  21 109.600 276.334   2
   1 -16 -22 71.7335 129.454   5
  -1  16  22 45.4860 140.781   3
   2 -16   0 1028.72 261.358   5
  -2  16   1 453.783 229.578   3
   2 -16   1-22.1777 157.145   5
   2 -16  -1 41.5458 149.182   5
   2  16   1-262.915 244.655   2
  -2 -16  -1 241.159 102.208   8
  -2  16   1 106.831 179.902   2
  -2  16   2 594.331 244.720   3
   2 -16  -2 454.807 192.213   5
   2  16   2 1005.40 272.936   2
   2 -16  -2 800.486 157.887   8
  -2 -16  -2 557.556 167.488   5
   2  16   2 849.363 218.648   3
  -2 -16  -2 826.412 168.450   8
  -2  16   2 689.392 229.541   2
  -2  16   3 27.2869 211.041   3
   2 -16  -3 76.9099 143.106   5
   2  16   3 178.644 216.245   2
   2 -16  -3 91.9457 76.5114   8
  -2 -16  -3 12.6517 89.7865   5
   2  16   3 126.201 157.653   3
  -2 -16  -3-23.8106 102.175   8
  -2  16   3 228.283 201.490   2
  -2  16   4 273.920 237.943   3
   2 -16  -4 18.7501 134.020   5
   2 -16  -4 113.750 88.6846   8
  -2 -16  -4 179.740 102.182   5
   2  16   4 20.8476 151.152   3
   2  16   4 179.119 230.543   2
  -2 -16  -4 49.2160 101.214   8
  -2  16   4 265.397 206.149   2
  -2  16   5-165.106 220.621   3
   2 -16  -5 238.244 138.832   5
   2 -16  -5 52.4540 88.4529   8
  -2 -16  -5 13.0699 94.3918   5
   2  16   5 20.7129 154.319   3
  -2 -16  -5 247.046 113.515   8
   2  16   5 537.972 241.032   2
   2  16  -5 110.451 159.442   1
  -2  16   5 363.048 223.693   2
  -2  16   6 92.9303 217.548   2
  -2 -16   6-26.8541 88.5846   6
  -2  16   6-138.008 214.713   3
   2 -16  -6-17.6068 121.560   5
   2 -16  -6-85.1747 84.5143   8
  -2 -16  -6 80.1142 86.8248   5
   2  16   6 61.7475 138.980   3
  -2 -16  -6 107.887 112.538   8
   2  16   6-29.8834 208.099   2
  -2 -16   6 62.3858 95.3899   7
   2  16  -6-103.160 164.300   4
   2  16  -6 68.2623 167.667   1
  -2  16   7 255.056 233.904   2
  -2 -16   7 54.5685 95.3008   6
  -2  16   7 276.204 220.776   3
   2 -16  -7 155.117 130.804   5
   2 -16  -7 248.124 89.1011   8
  -2 -16  -7-13.6565 100.140   5
   2  16   7 124.581 153.023   3
  -2 -16  -7 168.269 123.280   8
   2  16   7 119.511 220.982   2
  -2 -16   7 63.3917 98.1137   7
   2  16  -7 105.637 160.923   4
   2  16  -7-23.3293 170.994   1
  -2 -16   8-27.8054 93.4478   6
  -2  16   8-32.4924 230.100   2
  -2  16   8 244.827 201.969   3
   2 -16  -8 84.6962 126.709   5
   2 -16  -8 43.7432 90.1633   8
  -2 -16  -8 27.9345 102.920   5
  -2 -16  -8-58.3756 120.321   8
   2  16   8-82.6710 140.815   3
   2  16   8-29.9009 224.489   2
  -2 -16   8-12.8767 93.7921   7
   2  16  -8-65.1310 167.723   4
  -2 -16   9 296.919 101.617   6
  -2  16   9-297.706 265.691   2
  -2  16   9 270.765 229.267   3
   2 -16  -9 50.0121 114.896   5
   2 -16  -9 111.043 91.7956   8
  -2 -16  -9 142.922 98.4784   5
  -2 -16  -9-45.5739 119.035   8
   2  16   9-61.8868 136.541   3
   2  16   9 329.411 235.179   2
  -2 -16   9 221.950 108.050   7
   2  16  -9-66.6535 166.480   4
  -2 -16  10 316.310 119.598   6
  -2  16  10 134.125 260.774   2
  -2  16  10 403.687 224.269   3
   2 -16 -10 274.999 131.976   5
   2 -16 -10 350.246 109.548   8
  -2 -16 -10 73.2450 114.484   5
  -2 -16 -10 284.951 136.413   8
   2  16  10 82.4512 152.901   3
   2  16  10-120.188 252.695   2
  -2 -16  10 185.061 113.176   7
   2  16 -10 228.337 173.512   4
  -2 -16  11 293.028 106.403   6
  -2  16  11 203.636 254.199   2
  -2  16  11 480.858 242.721   3
   2 -16 -11 256.299 126.331   5
   2 -16 -11 184.251 110.396   8
  -2 -16 -11 150.201 120.349   5
  -2 -16 -11-64.4504 137.221   8
   2  16  11 20.6076 142.064   3
   2  16  11 60.3996 217.114   2
  -2 -16  11 174.292 111.427   7
   2  16 -11-70.3556 177.251   4
  -2 -16  12 639.742 237.923   6
  -2  16  12 1268.84 343.051   2
  -2  16  12 1327.20 300.712   3
   2 -16 -12 1224.20 249.792   5
   2 -16 -12 1609.35 237.428   8
  -2 -16 -12 1714.65 257.094   5
  -2 -16 -12 774.482 259.924   8
   2  16  12 1047.85 273.547   3
  -2 -16  12 1476.76 247.813   7
   2  16  12 1285.63 331.209   2
   2  16 -12 934.322 285.615   4
  -2 -16  13 15.1211 99.1187   6
  -2  16  13-34.5233 238.475   2
  -2  16  13-25.8131 178.387   3
   2 -16 -13 155.831 117.694   5
   2 -16 -13 59.8912 96.6454   8
  -2 -16 -13 128.012 119.516   5
  -2 -16 -13-120.121 144.684   8
   2  16  13 61.4814 139.855   3
   2  16  13 123.477 235.277   2
  -2 -16  13-13.7334 100.346   7
   2  16 -13 319.460 205.209   4
  -2 -16  14 1571.08 295.350   6
  -2  16  14 2367.02 408.852   2
  -2  16  14 1204.12 335.142   3
   2 -16 -14 1824.41 296.467   5
   2 -16 -14 1407.33 293.476   8
  -2 -16 -14 1246.16 299.238   5
  -2 -16 -14 1869.63 319.926   8
   2  16  14 1473.13 305.235   3
   2  16  14 1413.71 364.165   2
  -2 -16  14 1803.67 297.472   7
   2  16 -14 1131.45 329.349   4
  -2 -16  15 187.810 106.000   6
  -2  16  15 74.9259 174.406   3
   2 -16 -15 172.155 112.952   5
   2 -16 -15 12.4212 97.1713   8
  -2 -16 -15 103.427 117.645   5
  -2 -16 -15-91.7263 158.989   8
   2  16  15 122.456 129.397   3
   2  16  15 63.6314 222.878   2
  -2 -16  15 14.0285 114.626   7
   2  16 -15 102.502 187.101   4
  -2 -16  16 254.455 114.057   6
   2 -16 -16 202.454 127.233   5
  -2  16  16 248.016 182.810   3
  -2 -16 -16 250.509 140.830   5
  -2 -16 -16 501.356 170.680   8
   2  16  16 346.009 145.023   3
   2  16  16 292.486 252.188   2
  -2 -16  16 398.510 125.497   7
   2  16 -16 104.867 198.367   4
  -2 -16  17 194.214 110.061   6
  -2  16  17 321.602 292.190   2
   2 -16 -17 15.6602 110.297   5
  -2  16  17 73.9825 183.561   3
   2 -16 -17 142.474 104.967   8
  -2 -16 -17-111.514 133.880   5
  -2 -16 -17 78.7057 169.983   8
   2  16  17 121.939 145.106   3
   2  16  17 33.2482 266.807   2
  -2 -16  17 72.0858 120.657   7
   2  16 -17 133.927 219.871   4
  -2  16  18 468.959 300.380   2
   2 -16 -18 110.694 125.731   5
  -2  16  18 144.265 201.028   3
   2 -16 -18 253.980 128.839   8
  -2 -16 -18 20.0740 176.226   8
  -2 -16 -18 19.2844 154.080   5
   2  16  18 183.024 155.417   3
   2  16  18 372.245 288.475   2
  -2 -16  18-146.222 113.662   7
   2  16 -18-27.2604 213.873   4
  -2  16  19 327.964 299.525   2
   2 -16 -19 96.2836 126.132   5
  -2  16  19 23.9799 168.426   3
   2 -16 -19 54.3331 104.603   8
  -2 -16 -19 139.877 146.133   5
   2  16  19 20.3658 133.733   3
  -2 -16  19-133.633 109.019   7
   2  16 -19-193.540 202.182   4
  -2  16  20-295.049 264.827   2
   2 -16 -20-32.7315 115.444   5
   2 -16 -20-82.8121 117.508   8
  -2  16  20 23.9525 165.335   3
  -2 -16 -20-41.4024 149.172   5
   2  16  20-20.4156 141.142   3
  -2 -16  20-241.737 123.958   7
  -2  16  21 37.3164 262.331   2
   2 -16 -21 50.1530 113.998   5
   2 -16 -21 99.8300 116.004   8
  -2  16  21 47.4701 173.275   3
  -2 -16 -21 350.324 171.885   8
  -2 -16 -21 64.3723 144.039   5
   2  16  21-102.615 144.003   3
   2 -16 -22-51.4710 125.247   5
   3 -16   0 25.2757 176.058   5
   3 -16  -1 1134.05 300.001   5
   3  16   1 1555.70 341.192   2
   3 -16  -2 90.5780 167.091   5
  -3 -16  -2 37.0957 85.0868   5
   3  16   2 28.2839 224.668   2
  -3 -16  -2 74.8416 97.4364   8
   3  16   2 40.0627 140.957   3
   3 -16  -3 958.677 209.085   5
  -3 -16  -3 658.922 150.084   5
  -3 -16  -3 356.921 159.195   8
   3  16   3 539.170 183.785   3
   3  16   3 1102.47 264.746   2
  -3  16   3 303.399 229.516   2
   3 -16  -4 105.254 149.693   5
  -3 -16  -4-51.8752 98.7945   5
  -3 -16  -4-27.4904 123.257   8
   3  16   4 19.9339 136.423   3
   3  16   4 196.442 217.553   2
  -3  16   4 28.3596 208.170   2
  -3 -16   5 83.5946 100.229   6
  -3  16   5 55.1638 211.761   3
   3  16  -5 63.6959 161.947   1
   3 -16  -5 61.2051 142.314   5
   3 -16  -5 62.4909 76.0234   8
  -3 -16  -5 66.5867 95.0652   5
  -3 -16  -5-42.9056 118.922   8
   3  16   5 40.1890 140.774   3
   3  16   5 111.927 222.980   2
   3  16  -5-57.8955 157.375   4
  -3  16   5 174.878 194.275   2
  -3 -16   6 111.965 94.8914   6
  -3  16   6 83.6007 210.740   3
   3 -16  -6 116.527 140.920   5
   3 -16  -6 84.3480 85.5623   8
  -3 -16  -6 68.3971 104.608   5
  -3 -16  -6 152.453 129.203   8
   3  16   6 40.1346 143.222   3
   3  16  -6 44.3163 162.372   1
   3  16   6 419.094 230.333   2
  -3 -16   6 145.143 110.561   7
   3  16  -6 158.421 168.144   4
  -3  16   6 59.8156 212.544   2
  -3 -16   7 99.7755 95.9827   6
  -3  16   7 279.820 210.934   3
   3 -16  -7-75.6890 128.478   5
   3 -16  -7-106.770 92.4063   8
  -3 -16  -7 84.5473 100.781   5
  -3 -16  -7 15.8902 132.724   8
   3  16   7 59.9604 140.487   3
   3  16   7 195.518 217.351   2
  -3 -16   7 132.562 105.033   7
   3  16  -7 23.0182 163.111   1
   3  16  -7-20.6193 154.346   4
  -3  16   7 153.681 216.839   2
  -3 -16   8 200.230 101.398   6
  -3  16   8 28.1431 217.665   3
   3 -16  -8-74.0105 130.357   5
   3 -16  -8 86.6932 86.3575   8
  -3 -16  -8 14.4329 94.4166   5
  -3 -16  -8 149.453 139.367   8
   3  16   8 179.198 153.101   3
   3  16   8 139.830 223.667   2
  -3 -16   8-26.6327 105.510   7
   3  16  -8 105.777 155.037   4
   3  16  -8-23.8230 175.176   1
  -3  16   8 31.3873 239.314   2
  -3  16   9 32.0050 228.518   2
  -3 -16   9 14.3492 95.5716   6
  -3  16   9-28.2720 218.419   3
   3 -16  -9 124.478 129.532   5
   3 -16  -9 21.9983 88.7420   8
   3  16  -9 49.1597 185.224   1
  -3 -16  -9 14.9763 111.204   5
  -3 -16  -9-101.469 134.680   8
   3  16   9-39.6988 130.954   3
   3  16   9-308.857 226.499   2
  -3 -16   9 106.929 106.102   7
   3  16  -9-44.0368 184.284   4
  -3  16  10 260.863 240.413   2
  -3 -16  10 58.3985 106.664   6
   3  16 -10 50.5221 203.940   1
  -3  16  10 195.917 226.640   3
   3 -16 -10 87.1390 131.588   5
   3 -16 -10 100.306 86.8001   8
  -3 -16 -10 31.1430 110.586   5
  -3 -16 -10-106.553 161.090   8
   3  16  10-60.1228 134.341   3
  -3 -16  10 67.1155 107.215   7
   3  16  10-284.678 234.132   2
   3  16 -10 203.660 181.562   4
  -3 -16  11 886.437 198.520   6
  -3  16  11 663.076 295.399   2
  -3  16  11 671.382 275.613   3
   3 -16 -11 1629.32 227.379   5
   3 -16 -11 1231.99 198.036   8
  -3 -16 -11 922.005 213.145   5
  -3 -16 -11 953.493 243.827   8
   3  16  11 579.007 229.085   3
  -3 -16  11 893.475 203.114   7
   3  16  11 891.164 308.695   2
   3  16 -11 232.497 260.948   1
   3  16 -11 1068.47 260.763   4
  -3 -16  12-44.8358 96.2497   6
  -3  16  12-235.771 238.533   2
  -3  16  12 27.9144 208.043   3
   3 -16 -12 116.197 126.019   5
   3 -16 -12 11.4689 88.0226   8
  -3 -16 -12-134.517 119.103   5
  -3 -16 -12 152.862 155.621   8
   3  16 -12 184.230 206.837   1
   3  16  12 39.7669 141.989   3
  -3 -16  12-54.4530 102.612   7
   3  16  12-262.211 221.149   2
   3  16 -12-118.916 172.567   4
  -3  16  13 1368.44 381.238   2
  -3  16  13 1886.85 342.144   3
   3 -16 -13 2104.38 306.566   5
   3 -16 -13 2096.97 289.987   8
  -3 -16 -13 1642.66 304.582   5
  -3 -16 -13 1512.09 329.546   8
   3  16  13 772.822 310.466   3
  -3 -16  13 1274.14 290.723   7
   3  16  13 1696.57 376.400   2
  -3 -16  13 1439.69 294.970   6
   3  16 -13 750.689 336.110   1
   3  16 -13 1784.08 351.748   4
  -3 -16  14 246.586 108.093   6
  -3  16  14 310.155 238.266   2
  -3  16  14 217.628 217.010   3
   3 -16 -14 80.3770 117.340   5
   3 -16 -14 11.8641 101.574   8
  -3 -16 -14-90.7220 124.840   5
  -3 -16 -14 206.383 165.919   8
   3  16  14-19.7865 130.545   3
  -3 -16  14 69.0546 104.867   7
   3  16  14-60.6932 243.571   2
   3  16 -14 150.438 204.584   4
  -3 -16  15 422.494 184.529   6
  -3  16  15 1001.61 270.553   3
   3 -16 -15 1023.51 200.397   5
  -3 -16 -15 1199.93 261.524   8
  -3 -16 -15 894.441 209.344   5
   3  16  15 1126.71 214.284   3
  -3 -16  15 1002.96 198.479   7
   3  16  15 778.211 292.770   2
   3  16 -15 797.433 259.907   4
  -3 -16  16 31.7903 102.330   6
  -3  16  16-457.072 251.034   2
  -3  16  16 211.765 195.790   3
   3 -16 -16 31.9224 118.057   5
  -3 -16 -16 22.3485 166.549   8
  -3 -16 -16 77.2835 142.907   5
   3  16  16-118.506 119.281   3
  -3 -16  16-42.1739 101.992   7
   3  16 -16 131.821 189.762   4
  -3 -16  17 48.3685 113.788   6
  -3  16  17-35.6071 280.977   2
  -3  16  17 26.3715 206.150   3
   3 -16 -17-222.463 120.701   5
   3 -16 -17 276.205 117.946   8
  -3 -16 -17 297.479 209.680   8
  -3 -16 -17 260.306 156.167   5
   3  16  17 138.528 136.495   3
  -3 -16  17 14.2046 105.667   7
   3  16 -17 134.284 220.354   4
  -3 -16  18-278.211 114.819   6
  -3  16  18-35.8949 269.853   2
  -3  16  18-103.266 206.057   3
   3 -16 -18 31.9696 127.643   5
   3 -16 -18-140.319 117.269   8
  -3 -16 -18-46.8327 202.176   8
  -3 -16 -18 41.5421 154.849   5
   3  16  18 19.8374 129.109   3
  -3 -16  18-14.3703 113.038   7
   3  16 -18-247.067 221.180   4
  -3 -16  19 66.4342 119.550   6
  -3  16  19-145.434 276.957   2
   3 -16 -19-15.9572 113.476   5
  -3  16  19 77.2658 182.393   3
   3 -16 -19-91.2383 104.138   8
  -3 -16 -19-23.9410 190.650   8
  -3 -16 -19-21.5373 156.260   5
   3  16  19 139.588 124.473   3
  -3 -16  19 14.5607 113.660   7
   3  16 -19 139.952 194.917   4
  -3 -16  20-16.8581 102.966   6
  -3  16  20 330.421 255.659   2
   3 -16 -20 48.4304 111.941   5
  -3  16  20 154.026 187.708   3
   3 -16 -20 13.2543 111.914   8
  -3 -16 -20-268.226 169.658   5
   3  16  20-140.504 145.054   3
  -3 -16  20 14.7739 109.694   7
   3  16 -20 28.5385 212.681   4
  -3 -16  21-274.528 118.787   6
  -3  16  21 74.3417 257.886   2
   3 -16 -21-82.0600 126.659   5
   3 -16 -21 80.9059 113.533   8
  -3  16  21-25.2264 176.638   3
  -3 -16 -21-23.2303 172.700   5
   3  16  21-20.2989 128.347   3
  -3 -16  21 15.0248 108.507   7
   3  16 -21-174.299 226.148   4
   4  16   2 1159.29 302.503   2
  -4 -16  -3-27.2843 94.1858   5
  -4 -16  -3 29.9021 122.889   8
   4  16   3-39.4940 138.098   3
   4  16   3 52.4378 199.719   2
   4 -16  -4 141.209 184.688   5
  -4 -16  -4 181.512 105.344   5
  -4 -16  -4 124.540 134.799   8
   4  16   4 117.478 139.076   3
   4  16   4 156.695 200.419   2
   4 -16  -5 44.2439 144.539   5
   4  16  -5-117.162 136.559   1
  -4 -16  -5-28.9840 100.052   5
  -4 -16  -5-146.161 135.111   8
   4  16   5 137.893 132.404   3
  -4 -16   5 116.521 119.349   7
   4  16   5 51.6993 201.769   2
   4  16  -5 34.9169 136.736   4
  -4 -16   5 15.2393 108.809   6
   4 -16  -6-85.3739 144.130   5
  -4 -16  -6-30.1051 102.581   5
  -4 -16  -6 238.114 146.513   8
   4  16   6-78.1830 122.020   3
   4  16  -6 20.5441 147.888   1
  -4 -16   6 14.5370 113.104   7
   4  16   6 25.8489 199.011   2
   4  16  -6-182.648 136.134   4
  -4  16   6 231.408 217.180   2
  -4 -16   6 107.191 102.949   6
  -4  16   7-27.6761 211.570   3
   4 -16  -7-20.6757 147.622   5
   4 -16  -7-10.6382 84.7137   8
  -4 -16  -7 200.591 117.955   5
  -4 -16  -7 71.4510 147.716   8
   4  16   7 77.6086 124.281   3
  -4 -16   7 14.4871 115.739   7
   4  16   7 207.593 209.986   2
   4  16  -7-284.704 165.025   1
   4  16  -7 93.8809 149.028   4
  -4  16   7-325.170 210.202   2
  -4 -16   7-77.0360 110.006   6
  -4  16   8-28.0719 232.143   3
   4 -16  -8 118.241 141.277   5
   4 -16  -8-86.1825 92.2714   8
  -4 -16  -8-32.0759 118.177   5
  -4 -16  -8 93.9968 154.518   8
   4  16   8-78.2569 132.699   3
  -4 -16   8-14.4392 116.106   7
   4  16   8 131.400 214.007   2
   4  16  -8 235.674 174.739   4
  -4  16   8-181.335 214.908   2
   4  16  -8 22.8641 179.676   1
  -4 -16   8-15.4678 111.335   6
   4  16  -9-166.633 167.219   1
  -4  16   9 85.0216 210.447   3
   4 -16  -9 96.0663 144.827   5
   4 -16  -9-32.7369 86.1235   8
  -4 -16  -9 33.2894 123.171   5
  -4 -16  -9 19.8241 167.420   8
   4  16   9 38.9532 128.539   3
  -4 -16   9-14.3938 116.171   7
   4  16  -9 164.250 183.664   4
  -4  16   9-185.199 223.087   2
  -4 -16   9 232.976 120.048   6
  -4 -16  10 331.224 125.063   6
  -4  16  10 544.489 227.861   3
   4 -16 -10 165.907 160.788   5
   4 -16 -10 243.263 97.5529   8
   4  16 -10 148.253 200.433   1
  -4 -16 -10 119.661 128.320   5
  -4 -16 -10 293.456 167.799   8
   4  16  10 19.3961 143.862   3
  -4 -16  10 157.943 124.401   7
   4  16 -10 278.033 178.123   4
  -4  16  10 125.735 246.971   2
  -4 -16  11 79.0422 108.663   6
  -4  16  11-315.732 215.494   3
   4 -16 -11 72.3458 148.657   5
   4 -16 -11 101.014 91.6839   8
  -4 -16 -11-21.4948 182.536   8
  -4 -16 -11-159.483 124.969   5
   4  16 -11 25.2884 186.336   1
   4  16  11-137.216 134.148   3
  -4 -16  11-28.6236 118.710   7
   4  16 -11 155.902 198.675   4
  -4  16  11 31.9886 238.390   2
  -4 -16  12 854.594 191.319   6
  -4  16  12 808.841 275.971   3
   4 -16 -12 890.584 200.453   5
   4 -16 -12 889.282 177.529   8
  -4 -16 -12 1117.08 252.524   8
  -4 -16 -12 1028.12 210.507   5
   4  16  12 312.720 201.489   3
  -4 -16  12 1283.54 202.076   7
   4  16 -12 417.781 257.884   1
   4  16 -12 548.378 236.571   4
  -4  16  12 585.310 265.443   2
  -4 -16  13-63.3527 93.5172   6
  -4  16  13-116.017 233.992   3
   4 -16 -13-17.1974 125.796   5
   4 -16 -13-57.8827 93.7461   8
  -4 -16 -13-117.137 184.752   8
  -4 -16 -13 19.0257 136.987   5
   4  16  13 39.0530 129.472   3
  -4 -16  13 57.3572 111.599   7
   4  16 -13-26.8945 190.488   1
   4  16 -13-95.0948 189.346   4
  -4  16  13 231.236 235.883   2
  -4 -16  14 1441.94 238.130   6
  -4  16  14 975.521 317.298   3
   4 -16 -14 1020.15 246.338   5
  -4 -16 -14 1639.14 300.897   8
  -4 -16 -14 959.443 256.289   5
   4  16  14 1346.91 256.261   3
  -4 -16  14 1130.23 239.425   7
   4  16 -14 1260.60 291.393   4
   4  16 -14 741.190 303.156   1
  -4 -16  15 31.9874 106.046   6
  -4  16  15 33.8518 233.723   2
   4  16 -15-141.146 227.003   1
  -4  16  15 143.613 210.038   3
   4 -16 -15 16.5706 115.424   5
  -4 -16 -15-128.150 199.391   8
  -4 -16 -15-20.3018 137.107   5
   4  16  15 97.8141 127.226   3
  -4 -16  15-28.7864 111.998   7
   4  16 -15 202.911 196.645   4
  -4 -16  16 242.245 113.460   6
  -4  16  16 34.3640 267.510   2
  -4  16  16 366.852 223.428   3
   4 -16 -16 247.492 131.083   5
   4  16 -16 172.860 238.965   1
   4 -16 -16 290.980 111.993   8
  -4 -16 -16 184.606 225.979   8
  -4 -16 -16 357.908 166.129   5
   4  16  16 294.423 148.402   3
  -4 -16  16 230.197 118.273   7
   4  16 -16 727.548 230.199   4
  -4 -16  17 180.323 117.618   6
  -4  16  17 34.6369 290.114   2
  -4  16  17 310.372 243.981   3
   4 -16 -17 227.061 130.926   5
   4 -16 -17-61.5668 107.278   8
  -4 -16 -17 81.3714 229.303   8
  -4 -16 -17 21.8731 157.234   5
   4  16 -17-88.2852 237.669   1
  -4 -16  17 14.5028 118.301   7
   4  16  17 39.9181 135.872   3
   4  16 -17 159.954 224.730   4
  -4 -16  18 16.5878 109.999   6
  -4  16  18-211.119 257.304   2
  -4  16  18-138.569 205.013   3
   4 -16 -18-64.9344 119.664   5
   4 -16 -18 12.5317 98.5366   8
  -4 -16 -18-111.488 235.350   8
  -4 -16 -18 90.1907 164.262   5
  -4 -16  18 190.265 116.596   7
   4  16  18 40.2592 121.614   3
   4  16 -18 30.2637 237.048   1
   4  16 -18 109.141 207.869   4
  -4 -16  19-218.543 114.216   6
   4  16 -19-185.894 229.257   1
  -4  16  19-212.984 245.156   2
  -4  16  19-27.7455 189.151   3
   4 -16 -19-16.2157 118.754   5
   4 -16 -19 102.001 111.842   8
  -4 -16 -19 200.112 240.052   8
  -4 -16 -19-232.713 169.628   5
  -4 -16  19-73.5642 118.867   7
   4  16  19 101.640 125.700   3
   4  16 -19 27.9154 200.231   4
  -4 -16  20 17.0467 106.995   6
  -4  16  20 397.189 281.851   2
   4  16 -20 31.7676 210.576   1
  -4  16  20-27.7723 188.387   3
   4 -16 -20-65.4664 112.529   5
   4 -16 -20 90.8237 109.259   8
  -4 -16 -20-263.486 244.305   8
  -4 -16  20 14.8899 104.601   7
   4  16  20 20.6736 132.450   3
   4  16 -20 57.0324 217.233   4
  -4 -16  21-103.586 108.969   6
   4 -16 -21 33.0794 114.749   5
  -4  16  21 27.3590 200.860   3
   4  16 -21 29.0890 211.908   4
   5  16   3 78.5847 130.830   3
   5  16   3-120.064 181.602   2
  -5 -16  -4 89.8587 136.019   8
  -5 -16  -4 364.010 127.626   5
   5  16   4 334.214 157.342   3
   5  16  -4 356.868 141.236   4
   5  16   4 311.507 192.130   2
   5  16  -4 281.392 129.686   1
  -5 -16  -5-188.656 155.936   8
  -5 -16  -5 195.761 115.587   5
   5  16   5 19.7105 126.749   3
  -5 -16   5 151.437 125.424   7
   5  16  -5-46.7915 123.484   4
   5  16  -5 17.8190 132.270   1
  -5 -16   5 232.794 121.153   6
   5  16  -6 18.7999 150.195   1
  -5 -16  -6 59.5783 158.143   8
  -5 -16  -6-33.3979 112.752   5
   5  16   6-58.5763 128.805   3
  -5 -16   6-16.3325 133.415   7
   5  16  -6 16.0639 137.586   4
  -5 -16   6 50.1075 129.033   6
   5  16  -7 217.859 177.983   1
  -5 -16  -7 419.188 199.689   8
  -5 -16  -7 258.693 136.144   5
   5  16   7 19.6355 136.142   3
  -5 -16   7 113.073 129.389   7
   5  16  -7 387.654 161.250   4
  -5 -16   7 251.708 134.905   6
   5 -16  -8 145.913 158.385   5
   5  16  -8-20.8315 165.507   1
  -5 -16  -8-88.7034 177.252   8
  -5 -16  -8 265.345 138.923   5
  -5 -16   8 79.8666 141.080   7
   5  16   8 19.4982 133.724   3
   5  16  -8 194.540 154.361   4
  -5 -16   8 84.2725 122.276   6
   5 -16  -9-20.2711 142.480   5
   5  16  -9 43.7438 166.112   1
  -5 -16  -9-250.472 186.094   8
  -5 -16  -9-146.307 129.106   5
  -5 -16   9-15.7981 124.284   7
   5  16   9-137.560 131.604   3
   5  16  -9 74.2297 145.458   4
  -5  16   9 149.167 195.952   2
  -5 -16   9 67.6021 118.833   6
  -5  16  10 339.692 232.499   3
   5 -16 -10 237.405 162.388   5
  -5 -16 -10 218.000 206.311   8
  -5 -16 -10 132.400 137.606   5
   5  16 -10 45.8048 167.568   1
  -5 -16  10 94.0202 128.594   7
   5  16  10-137.173 130.857   3
   5  16 -10-136.160 157.711   4
  -5  16  10 90.9777 226.557   2
  -5 -16  10 254.019 124.366   6
  -5  16  11 57.6435 226.048   3
   5 -16 -11 75.9074 153.358   5
   5 -16 -11 235.457 98.9632   8
  -5 -16 -11 149.869 224.676   8
  -5 -16 -11-19.4508 129.714   5
  -5 -16  11 294.874 130.399   7
   5  16  11 136.923 138.661   3
   5  16 -11 23.9265 180.626   1
   5  16 -11 183.428 168.455   4
  -5  16  11-339.154 238.283   2
  -5 -16  11 548.980 134.734   6
  -5  16  12 291.934 244.087   3
   5 -16 -12 93.2101 148.763   5
   5 -16 -12 102.255 92.3579   8
  -5 -16 -12 106.585 213.437   8
  -5 -16 -12 181.483 140.063   5
  -5 -16  12 107.702 121.483   7
   5  16  12-59.3630 125.763   3
   5  16 -12 405.255 178.116   4
   5  16 -12-49.8530 182.911   1
  -5  16  12-188.016 207.291   2
  -5 -16  12 86.0513 120.322   6
  -5  16  13 918.369 261.986   3
   5 -16 -13 792.664 172.083   5
  -5 -16 -13 827.132 251.820   8
  -5 -16 -13 103.725 170.536   5
  -5 -16  13 570.820 153.728   7
   5  16  13 138.974 160.241   3
   5  16 -13 446.120 178.467   4
   5  16 -13 310.549 233.770   1
  -5 -16  13 499.697 144.787   6
  -5 -16  14 69.0345 111.876   6
  -5  16  14-29.7464 219.855   3
   5 -16 -14 142.507 124.701   5
  -5 -16 -14-117.662 235.630   8
  -5 -16 -14 299.534 146.777   5
  -5 -16  14 183.744 118.305   7
   5  16  14 19.9478 125.686   3
   5  16 -14 139.457 175.981   4
  -5  16  14 64.6432 227.637   2
   5  16 -14 26.4888 187.594   1
  -5 -16  15 534.763 157.716   6
   5  16 -15-27.4497 210.943   1
  -5  16  15 180.258 249.264   3
   5 -16 -15 604.660 160.240   5
   5 -16 -15 332.699 125.768   8
  -5 -16 -15 213.247 250.975   8
  -5 -16 -15 705.584 181.482   5
  -5 -16  15 491.694 150.422   7
   5  16  15 181.510 147.944   3
   5  16 -15 483.675 217.781   4
  -5  16  15 721.748 261.366   2
  -5 -16  16 292.981 131.135   6
  -5  16  16 239.185 247.658   3
   5  16 -16 28.0793 235.714   1
   5 -16 -16-51.4719 139.625   5
   5 -16 -16 169.061 113.669   8
  -5 -16 -16 346.985 266.479   8
  -5 -16  16 382.311 141.502   7
   5  16  16 143.547 147.337   3
   5  16 -16 452.620 230.092   4
  -5  16  16 728.333 282.668   2
  -5 -16  17-120.423 121.010   6
  -5  16  17 240.914 231.390   3
   5 -16 -17 100.787 122.085   5
   5 -16 -17-110.542 100.864   8
   5  16 -17 87.2440 238.648   1
  -5 -16 -17-326.392 277.480   8
  -5 -16  17-46.1270 114.470   7
   5  16  17-83.3354 134.087   3
   5  16 -17-365.891 211.223   4
  -5  16  17-436.708 249.749   2
  -5 -16  18 188.911 118.391   6
  -5  16  18 29.7596 223.608   3
   5 -16 -18 33.5943 131.034   5
   5 -16 -18 225.139 107.100   8
   5  16 -18 29.7706 226.139   1
  -5 -16  18 91.9838 126.623   7
   5  16 -18 375.020 221.857   4
  -5  16  18-169.463 236.960   2
  -5 -16  19-17.2974 117.396   6
  -5  16  19 59.8847 216.416   3
   5 -16 -19-82.9355 122.291   5
   5 -16 -19-12.7349 105.393   8
   5  16 -19-30.5116 234.931   1
  -5 -16  19 46.3604 127.472   7
   5  16 -19 109.622 220.402   4
  -5  16  19-413.009 254.602   2
  -5 -16  20 69.7223 123.508   6
  -5  16  20 236.742 218.093   3
   5 -16 -20-116.744 116.708   5
  -5 -16  20-15.6048 91.0686   7
   5  16 -20-252.627 219.880   4
   6  16  -4 74.7145 108.179   1
   6  16   4-104.212 147.461   3
   6  16  -4 295.483 128.913   4
  -6 -16  -5 106.649 191.332   8
  -6 -16  -5 295.784 150.304   5
  -6 -16   5 312.752 177.809   7
   6  16  -5 268.273 148.623   1
   6  16   5 124.613 158.690   3
   6  16  -5 378.013 144.355   4
  -6 -16   5 568.127 165.936   6
  -6 -16  -6 112.756 209.264   8
  -6 -16  -6 169.785 144.774   5
  -6 -16   6 134.226 173.010   7
   6  16   6 554.896 167.764   3
   6  16  -6 306.526 144.738   4
   6  16  -6 390.399 161.365   1
  -6 -16   6 624.124 149.615   6
  -6 -16  -7 358.708 199.182   8
  -6 -16  -7 38.5213 133.629   5
  -6 -16   7 258.080 152.135   7
   6  16   7 20.5832 128.388   3
   6  16  -7-30.1399 125.185   4
   6  16  -7 89.6293 130.804   1
  -6 -16   7 238.941 135.613   6
  -6 -16  -8 101.476 209.578   8
  -6 -16  -8 276.166 141.056   5
  -6 -16   8 416.624 159.518   7
   6  16   8 143.940 148.965   3
   6  16  -8 157.243 127.547   4
   6  16  -8 189.123 156.962   1
  -6 -16   8 331.205 135.464   6
   6  16  -9 358.215 173.794   1
  -6 -16  -9 539.994 221.729   8
  -6 -16   9 160.376 135.375   7
   6  16   9-20.6751 158.411   3
   6  16  -9 147.634 144.558   4
  -6 -16   9 92.1508 133.103   6
   6  16 -10 20.9090 146.997   1
  -6 -16 -10-111.899 224.321   8
  -6 -16  10-122.801 144.791   7
   6  16  10 62.4497 129.416   3
   6  16 -10-69.0351 143.315   4
  -6 -16  10-55.4404 116.766   6
   6  16 -11 460.708 195.014   1
  -6 -16 -11 89.6423 239.295   8
  -6 -16  11 189.993 140.732   7
   6  16  11 146.710 142.584   3
   6  16 -11 435.423 164.174   4
  -6 -16  11 351.896 153.133   6
  -6  16  12-230.959 242.517   3
   6 -16 -12 155.955 156.634   5
   6  16 -12 22.9814 184.192   1
  -6 -16 -12 248.908 258.140   8
  -6 -16  12 17.0019 129.342   7
   6  16 -12 133.473 161.408   4
  -6 -16  12 371.278 130.400   6
  -6  16  13 325.475 264.644   3
   6 -16 -13 357.316 167.650   5
   6  16 -13 577.185 208.406   1
  -6 -16 -13 356.927 269.945   8
  -6 -16  13 918.672 173.984   7
   6  16 -13 160.157 175.419   4
  -6  16  13 30.7993 219.090   2
  -6 -16  13 297.138 141.718   6
  -6  16  14 301.758 251.805   3
   6 -16 -14 241.609 152.896   5
   6  16 -14 49.3501 180.426   1
  -6 -16  14 301.670 143.752   7
   6  16 -14 83.9895 163.977   4
  -6  16  14-124.645 227.747   2
  -6 -16  14 167.124 123.257   6
  -6  16  15 493.434 293.193   3
   6 -16 -15 198.747 155.892   5
   6 -16 -15 178.303 108.397   8
  -6 -16  15 232.149 155.976   7
   6  16 -15 769.811 225.186   4
  -6  16  15 536.614 282.134   2
  -6 -16  15 185.856 152.519   6
  -6  16  16 93.5477 239.406   3
   6 -16 -16-71.8904 129.191   5
   6 -16 -16 12.1000 100.206   8
   6  16 -16-26.4054 197.009   1
  -6 -16  16 33.2265 134.771   7
   6  16 -16-161.051 178.608   4
  -6  16  16-31.9153 230.828   2
  -6 -16  16-241.356 135.029   6
  -6 -16  17 222.579 134.051   6
  -6  16  17 253.833 248.815   3
   6 -16 -17 333.023 130.380   5
   6 -16 -17-61.4361 101.969   8
  -6 -16  17 213.843 122.640   7
   6  16 -17 302.812 208.812   1
   6  16 -17 72.0759 173.202   4
  -6  16  17 291.017 229.292   2
  -6 -16  18 92.5234 131.218   6
  -6  16  18 31.8052 243.812   3
   6 -16 -18 105.026 121.682   5
   6 -16 -18 12.5185 101.648   8
  -6 -16  18 231.217 115.457   7
   6  16 -18 28.2343 206.447   1
   6  16 -18 25.3426 181.120   4
  -6  16  18 721.556 260.097   2
  -6 -16  19 405.752 147.644   6
  -6  16  19 64.5617 239.795   3
   6 -16 -19 258.581 141.261   5
   6 -16 -19 139.995 112.702   8
  -6 -16  19 382.073 141.419   7
   6  16 -19 29.4221 192.031   1
   6  16 -19 131.630 220.146   4
  -6  16  19 165.636 240.324   2
  -6  16  20 128.584 226.611   3
   6 -16 -20 187.841 125.704   5
   7  16  -4 80.0955 107.416   1
  -7 -16   4 119.426 187.545   7
   7  16  -4 212.597 111.088   4
  -7 -16   4 578.230 166.785   6
   7  16  -5 383.903 162.360   1
  -7 -16   5 985.168 223.497   7
   7  16  -5 520.259 147.230   4
  -7 -16   5 1106.88 201.841   6
  -7 -16  -6 78.4204 220.726   8
   7  16  -6 14.9817 109.682   1
  -7 -16   6 201.423 168.559   7
   7  16  -6 337.386 122.043   4
   7  16  -7 852.448 193.673   1
  -7 -16   7 700.280 215.623   7
   7  16  -7 708.103 174.909   4
  -7 -16   7 1159.52 219.080   6
  -7 -16  -8-28.7428 225.113   8
  -7 -16   8-62.7973 157.157   7
   7  16  -8 33.9268 125.946   1
   7  16  -8 71.3580 112.154   4
  -7 -16   8-120.171 151.472   6
  -7 -16  -9 397.881 252.070   8
  -7 -16   9 184.444 160.053   7
   7  16  -9 303.857 150.796   1
   7  16  -9 134.386 131.938   4
  -7 -16   9 260.487 140.448   6
  -7 -16  10 501.175 176.015   7
   7  16 -10 265.397 139.709   4
   7  16 -10 395.129 167.138   1
  -7 -16  10 500.909 168.692   6
  -7 -16  11 39.2367 140.126   7
   7  16 -11-97.9635 129.221   4
   7  16 -11 19.8016 147.618   1
  -7 -16  11-40.0632 141.909   6
  -7 -16  12 326.612 161.578   7
   7  16 -12 187.718 137.380   4
   7  16 -12-20.8093 155.807   1
  -7 -16  12 20.0309 132.418   6
  -7 -16  13-153.507 164.045   7
   7  16 -13-89.8759 137.604   4
  -7 -16  13 80.1902 147.899   6
   7  16 -13 21.8244 168.759   1
   7  16 -14 583.563 228.315   1
  -7 -16  14 395.351 196.301   7
   7  16 -14 472.911 200.088   4
  -7 -16  14 441.282 187.860   6
   7  16 -15-93.9881 170.279   1
  -7 -16  15 18.4851 142.383   7
   7  16 -15 59.6611 158.878   4
  -7 -16  15-280.867 150.607   6
   7  16 -16 245.806 197.392   1
  -7 -16  16 277.223 143.828   7
   7  16 -16 104.427 155.276   4
  -7 -16  16 200.329 141.817   6
  -7  16  17 195.630 246.289   3
   7  16 -17 25.2439 203.064   1
   7 -16 -17 330.766 149.434   5
  -7 -16  17 382.074 160.083   7
   7  16 -17 89.1414 165.990   4
  -7 -16  17 299.795 153.203   6
  -7  16  18-33.5300 259.153   3
   7 -16 -18 54.0348 133.693   5
  -7 -16  18 218.756 146.976   7
   7  16 -18 23.3265 187.170   4
  -7  16  18 63.3680 222.765   2
  -7 -16  18 319.475 146.677   6
  -7  16  19 203.880 268.581   3
   7 -16 -19 271.097 130.716   5
   8  16  -3 72.8618 94.8912   1
   8  16  -4 438.592 118.796   1
  -8 -16   4 187.880 204.472   7
   8  16  -5 26.1534 98.0486   1
  -8 -16   5 105.580 185.477   7
   8  16  -5 175.665 93.1252   4
  -8 -16   5 152.887 164.977   6
   8  16  -6 1157.93 203.421   1
  -8 -16   6 259.192 244.396   7
   8  16  -6 668.337 184.588   4
  -8 -16   6 1572.74 241.833   6
   8  16  -7 173.754 118.706   1
  -8 -16   7 25.3822 183.935   7
   8  16  -7 24.2285 95.8647   4
  -8 -16   7 131.122 161.610   6
   8  16  -8 471.076 156.555   1
  -8 -16   8 487.286 211.794   7
   8  16  -8 433.398 139.528   4
   8  16  -9 15.9876 122.218   1
  -8 -16   9 47.5571 166.290   7
   8  16  -9-26.7835 106.292   4
  -8 -16   9-21.8723 152.959   6
   8  16 -10 16.8325 125.294   1
  -8 -16  10 371.425 191.044   7
   8  16 -10 112.691 112.843   4
  -8 -16  10 65.1459 145.696   6
   8  16 -11 88.4335 143.664   1
  -8 -16  11-90.6047 167.614   7
   8  16 -11 59.1872 119.084   4
  -8 -16  11 21.7334 149.473   6
  -8 -16  12 353.567 189.270   7
   8  16 -12-18.6055 142.232   1
   8  16 -12-62.0185 129.379   4
  -8 -16  12-173.806 158.860   6
  -8 -16  13 21.5760 165.156   7
   8  16 -13-19.5408 149.620   1
   8  16 -13 146.099 131.221   4
  -8 -16  13 21.7018 161.951   6
  -8 -16  14-129.086 149.117   7
   8  16 -14 84.9421 133.259   4
   8  16 -14-348.597 156.200   1
  -8 -16  14 86.6436 150.772   6
  -8 -16  15 168.080 178.456   7
   8  16 -15-144.796 140.841   4
   8  16 -15 63.2850 147.568   1
  -8 -16  15 64.8954 153.232   6
  -8 -16  16-143.763 157.859   7
   8  16 -16 38.1320 146.594   4
   8  16 -16 332.053 176.551   1
  -8 -16  16 108.024 139.432   6
   8  16 -17 20.0455 145.474   4
   8  16 -17 22.7583 144.342   1
  -8 -16  17 21.5748 148.340   6
   9  16  -3 160.023 75.4805   4
   9  16  -4 74.9567 75.3733   4
  -9 -16   4-46.8018 161.093   6
   9  16  -5 947.583 186.572   1
   9  16  -5 745.074 174.798   4
   9  16  -6 64.3340 92.7412   1
  -9 -16   6-199.015 195.486   7
   9  16  -6 61.6480 78.4192   4
  -9 -16   6-47.0058 165.821   6
   9  16  -7 747.249 158.560   1
  -9 -16   7 591.512 239.367   7
   9  16  -8 13.8858 103.723   1
  -9 -16   8-139.340 195.840   7
   9  16  -8-11.3350 88.4569   4
  -9 -16   8-212.479 170.754   6
   9  16  -9 332.594 124.158   1
  -9 -16   9 27.3744 204.116   7
   9  16  -9 83.4878 97.3829   4
   9  16 -10 15.1230 129.501   1
  -9 -16  10 214.254 219.592   7
   9  16 -10 238.734 118.343   4
  -9 -16  10 210.864 177.758   6
   9  16 -11 15.8414 132.202   1
  -9 -16  11 26.1758 194.619   7
   9  16 -11-39.7365 98.8880   4
  -9 -16  11-328.224 181.416   6
   9  16 -12 16.5897 119.444   1
  -9 -16  12 25.5691 186.257   7
   9  16 -12 13.9335 107.682   4
  -9 -16  12 23.4544 143.277   6
   9  16 -13-330.673 142.066   1
  -9 -16  13-149.447 172.604   7
   9  16 -13 59.4352 124.881   4
  -9 -16  13 117.299 166.116   6
   9  16 -14 18.2703 150.057   1
  -9 -16  14 97.0697 197.614   7
   9  16 -14 218.136 124.648   4
  -9 -16  14-23.4581 155.532   6
   9  16 -15 38.2991 141.106   1
  -9 -16  15 24.1744 166.171   7
   9  16 -15 16.3274 130.868   4
  -9 -16  15-116.997 166.392   6
   9  16 -16 256.291 145.991   4
  -9 -16  16-601.050 175.632   6
  10  16  -3 40.5428 61.9876   4
 -10 -16   3 172.174 175.133   6
  10  16  -4 143.738 80.9078   4
 -10 -16   4 593.865 191.367   6
  10  16  -5 150.365 79.8876   4
 -10 -16   5 124.502 189.165   6
  10  16  -6 611.136 133.031   4
 -10 -16   6 819.216 235.737   6
  10  16  -7 145.642 87.9213   4
 -10 -16   7 324.282 204.268   6
  10  16  -7 76.6099 94.0280   1
  10  16  -8 355.237 114.234   1
  10  16  -8 71.3120 103.252   4
  10  16  -9 13.6054 102.151   1
 -10 -16   9-59.6352 194.821   7
  10  16  -9 42.8080 76.7280   4
 -10 -16   9-276.583 183.140   6
  10  16 -10 182.993 118.901   1
 -10 -16  10-207.670 201.864   7
  10  16 -10 125.195 94.3519   4
 -10 -16  10 25.2117 190.657   6
  10  16 -11 219.383 125.338   1
 -10 -16  11-29.4257 211.820   7
  10  16 -11 239.852 104.499   4
 -10 -16  11-75.7512 182.290   6
  10  16 -12 15.2024 114.559   1
 -10 -16  12 58.1298 198.026   7
  10  16 -12 25.2785 96.2824   4
 -10 -16  12-202.146 175.960   6
  10  16 -13-94.0098 115.197   1
 -10 -16  13 199.507 217.201   7
  10  16 -13 106.700 106.757   4
 -10 -16  13 100.141 177.412   6
 -10 -16  14 27.8383 209.177   7
  10  16 -14 98.2399 103.764   4
 -10 -16  14-75.1008 180.388   6
  11  16  -8-28.0215 73.6477   4
 -11 -16   8 213.200 208.721   6
  11  16  -9 39.2241 74.6825   4
 -11 -16   9 26.5707 190.581   6
  11  16 -10 92.6358 80.4665   4
 -11 -16  10 80.0815 186.175   6
  11  16 -10 13.3967 101.115   1
  11  16 -11 13.7970 101.663   1
  11  16 -11-21.6408 80.9384   4
 -11 -16  11 53.6205 196.036   6
 -11 -16  12-248.179 219.028   7
  11  16 -12 11.5103 92.8470   4
  11  16 -13 157.674 103.099   4
 -11 -16  13-80.7324 195.305   6
   0  17   0 25.9599 202.633   3
   0 -17   0-31.8680 119.636   5
   0  17   0 114.437 205.925   2
   0  17   1 776.555 253.500   3
   0 -17  -1 899.662 180.991   5
   0 -17  -1 584.963 159.568   8
   0  17   1 949.153 288.428   2
   0  17   2-30.7260 225.606   2
   0  17   2 257.397 204.375   3
   0 -17  -2-62.6378 108.724   5
   0 -17  -2-65.9215 93.7379   8
   0  17   3 31.4987 245.577   2
   0  17   3-25.5523 203.876   3
   0 -17  -3 466.414 137.322   5
   0 -17  -3 311.277 114.162   8
   0  17   4 32.4401 237.201   2
   0  17   4 101.414 201.893   3
   0 -17  -4-108.189 121.456   5
   0 -17  -4 56.4262 96.9309   8
   0  17   5-32.9775 260.801   2
   0  17   5 100.531 198.533   3
   0 -17  -5 199.625 127.052   5
   0 -17  -5 103.727 103.454   8
   0  17   6 33.4158 265.237   2
   0  17   6 124.456 198.877   3
   0 -17  -6-91.7319 113.967   5
   0 -17  -6 82.2025 106.681   8
   0  17   7-101.447 259.580   2
   0  17   7 221.863 192.632   3
   0 -17  -7 91.7479 105.505   5
   0 -17  -7 11.9528 97.4603   8
   0  17   8-68.1046 254.716   2
   0  17   8-48.7744 179.011   3
   0 -17  -8 15.3241 114.205   5
   0 -17  -8 12.1870 100.786   8
   0 -17   8 29.9076 115.929   7
   0  17   9-342.582 268.367   2
   0  17   9 72.4145 180.643   3
   0 -17  -9 61.3900 108.381   5
   0 -17  -9 62.3550 96.5075   8
   0 -17   9 31.0566 112.799   7
   0  17  10-241.017 266.298   2
   0 -17 -10-30.7573 111.423   5
   0  17  10-167.192 165.386   3
   0 -17 -10-115.475 110.630   8
   0 -17  10 15.7517 125.261   7
   0  17  11 311.710 280.980   2
   0 -17 -11 709.390 160.635   5
   0  17  11 306.785 207.390   3
   0 -17 -11 660.299 153.372   8
   0 -17  11 520.178 165.178   7
   0  17  12 139.336 248.242   2
   0 -17 -12 77.5730 122.208   5
   0  17  12 23.3355 166.068   3
   0 -17 -12 149.904 122.042   8
   0  17  13 1086.16 360.886   2
   0 -17 -13 1348.39 267.488   5
   0  17  13 1596.54 303.070   3
   0 -17 -13 1353.62 272.030   8
   0  17  14 35.3272 258.315   2
   0 -17 -14 63.6798 113.675   5
   0 -17 -14-28.5041 114.607   8
   0  17  14-114.781 161.899   3
   0 -17 -15 889.377 200.851   5
   0  17  15 783.552 348.255   2
   0 -17 -15 795.358 207.522   8
   0  17  15 1233.22 256.089   3
   0 -17 -16-32.8893 136.796   5
   0 -17 -16-104.756 140.400   8
   0  17  16 22.7898 169.216   3
   0 -17 -17 16.7668 125.083   5
   0 -17 -17 106.304 112.565   8
   0  17  17 36.3155 277.883   2
   0  17  17 113.911 150.786   3
   0 -17 -18-85.5923 118.438   5
   0 -17 -18-47.2316 133.540   8
   0  17  18 22.5076 158.258   3
   0 -17 -19-35.0645 136.393   5
   0  17  19 67.4336 143.995   3
  -1  17   0 1042.93 297.882   3
   1 -17   0 1331.05 244.610   5
   1  17   1-30.5310 232.095   2
  -1  17  -1 163.469 231.062   3
  -1  17   1-82.7909 219.422   3
   1 -17   1 75.4730 145.328   5
   1 -17  -1 272.129 148.761   5
   1  17   1 289.819 188.959   3
  -1 -17  -1 125.352 107.632   5
   1 -17  -1 96.1427 79.1784   8
  -1 -17  -1-33.1638 92.6046   8
  -1  17   1-28.6930 215.017   2
   1  17   2 597.225 271.352   2
  -1  17   2 221.259 239.054   3
   1 -17  -2 603.967 162.530   5
   1  17   2 479.693 205.595   3
  -1 -17  -2 504.231 141.856   5
   1 -17  -2 237.086 116.401   8
  -1 -17  -2 506.272 131.415   8
  -1  17   2 445.643 256.767   2
   1  17   3 31.9712 248.118   2
  -1  17   3 248.589 240.172   3
   1 -17  -3 17.4487 121.022   5
   1  17   3-23.8014 177.756   3
  -1 -17  -3 112.802 109.172   5
   1 -17  -3 130.998 93.9566   8
  -1 -17  -3 46.1101 99.9673   8
  -1  17   3-152.795 230.564   2
  -1  17   4 220.621 249.857   2
  -1  17   4 247.981 208.431   3
   1  17   4 454.036 286.562   2
   1 -17  -4 257.205 142.085   5
   1  17   4 117.966 190.484   3
  -1 -17  -4 243.294 130.133   5
   1 -17  -4 365.522 110.826   8
  -1 -17  -4 211.451 116.275   8
  -1  17   5 322.589 272.842   2
  -1  17   5 301.430 232.443   3
   1  17   5 359.664 301.775   2
   1 -17  -5 185.630 145.559   5
   1  17   5 304.110 199.765   3
  -1 -17  -5 259.159 120.520   5
   1 -17  -5 213.082 100.700   8
  -1 -17  -5 84.8024 108.196   8
  -1  17   6-132.599 244.534   2
  -1  17   6-81.6529 223.320   3
   1  17   6-328.915 264.726   2
   1 -17  -6 16.6443 123.183   5
  -1 -17  -6-43.4265 103.995   5
   1  17   6 92.7198 173.771   3
   1 -17  -6-90.8218 99.0024   8
  -1 -17  -6-124.592 107.634   8
  -1  17   7-33.7498 237.782   2
  -1  17   7 158.919 200.488   3
   1 -17  -7-16.4466 120.830   5
   1  17   7-264.465 250.733   2
  -1 -17  -7 233.077 119.409   5
   1  17   7-114.599 174.378   3
   1 -17  -7 92.1374 95.9867   8
  -1 -17  -7 346.174 112.667   8
  -1 -17   8-75.5544 97.9372   6
  -1  17   8 307.827 242.476   2
  -1  17   8 52.4613 195.806   3
   1 -17  -8 276.697 130.525   5
   1  17   8-33.1780 240.974   2
  -1 -17  -8 161.654 100.762   5
   1  17   8 90.7239 158.345   3
   1 -17  -8 58.7817 98.4594   8
  -1 -17  -8 52.8921 111.892   8
  -1 -17   8-13.9999 110.229   7
   1  17  -8 46.1719 178.088   4
  -1  17   9 69.2231 257.412   2
  -1  17   9-25.9590 182.161   3
   1 -17  -9 48.3569 119.722   5
  -1 -17  -9 74.3858 105.559   5
   1  17   9 133.151 261.142   2
   1 -17  -9 95.7619 102.182   8
   1  17   9 269.867 161.922   3
  -1 -17  -9 258.965 124.693   8
  -1 -17   9 28.5131 104.119   7
   1  17  -9-47.0859 168.085   4
  -1  17  10 139.751 268.466   2
  -1  17  10 179.767 176.185   3
   1 -17 -10 176.013 124.791   5
  -1 -17 -10 120.920 120.037   5
   1 -17 -10 316.819 111.844   8
   1  17  10 233.895 249.654   2
   1  17  10 178.505 170.600   3
  -1 -17 -10 183.052 125.667   8
  -1 -17  10 318.555 125.534   7
   1  17 -10 143.717 181.310   4
  -1  17  11 633.273 271.951   2
  -1  17  11 279.568 183.105   3
   1 -17 -11 47.4903 102.808   5
  -1 -17 -11 46.1395 110.305   5
   1 -17 -11 382.407 116.850   8
  -1 -17 -11 114.181 120.889   8
   1  17  11 469.244 260.983   2
   1  17  11 133.053 163.360   3
  -1 -17  11 58.5687 120.621   7
   1  17 -11-73.2241 188.840   4
  -1  17  12 1061.30 341.835   2
  -1  17  12 955.112 265.139   3
   1 -17 -12 1060.45 219.999   5
  -1 -17 -12 1142.50 222.475   5
   1 -17 -12 1006.14 216.998   8
  -1 -17 -12 1256.38 229.046   8
   1  17  12 1105.31 247.371   3
   1  17  12 1182.52 330.373   2
  -1 -17  12 1128.74 224.501   7
   1  17 -12 297.732 252.764   4
  -1  17  13-213.830 284.689   2
   1 -17 -13 31.6558 117.914   5
  -1  17  13 174.156 167.976   3
  -1 -17 -13 63.7669 111.408   5
   1 -17 -13 167.477 108.900   8
  -1 -17 -13 245.282 124.146   8
   1  17  13 176.478 151.982   3
   1  17  13 271.777 272.345   2
  -1 -17  13 194.904 122.649   7
  -1  17  14 933.727 373.132   2
   1 -17 -14 1220.87 269.289   5
  -1  17  14 1305.41 302.757   3
  -1 -17 -14 1577.80 269.251   5
   1 -17 -14 1448.53 258.338   8
  -1 -17 -14 1105.56 271.383   8
   1  17  14 1409.86 289.872   3
   1  17  14 1777.87 379.781   2
  -1 -17  14 1253.33 264.384   7
  -1  17  15 397.921 327.467   2
   1 -17 -15 143.403 140.164   5
  -1  17  15 23.9320 178.777   3
   1 -17 -15 174.712 136.859   8
  -1 -17 -15 166.131 132.470   5
  -1 -17 -15 145.848 147.018   8
   1  17  15 43.8896 160.432   3
   1  17  15 34.6333 303.087   2
  -1 -17  15 46.3076 128.784   7
  -1  17  16 36.5073 276.075   2
   1 -17 -16 273.694 132.459   5
  -1  17  16 427.714 178.421   3
   1 -17 -16 290.749 135.095   8
  -1 -17 -16 306.381 142.331   5
  -1 -17 -16 214.165 150.227   8
   1  17  16 43.7411 153.144   3
   1  17  16 244.772 288.504   2
   1 -17 -17 212.482 128.726   5
   1 -17 -17 14.0406 111.401   8
  -1  17  17-118.109 164.714   3
  -1 -17 -17-17.5745 122.678   5
  -1 -17 -17 68.6590 146.014   8
   1  17  17 213.233 273.729   2
   1  17  17 87.2709 140.717   3
   1 -17 -18-16.6110 117.293   5
  -1 -17 -18-73.7266 145.931   5
  -1 -17 -18 17.4520 137.271   8
  -1  17  18 47.0919 173.597   3
   1  17  18-253.132 258.258   2
   1  17  18-65.2781 159.213   3
  -1  17  19 75.2784 271.074   2
   1 -17 -19 16.9028 122.013   5
   1 -17 -19 14.7223 94.2819   8
  -1 -17 -19 35.5002 118.565   8
  -1 -17 -19 152.583 135.939   5
  -1  17  19 116.671 166.183   3
   1  17  19 108.509 143.461   3
  -2  17   0 831.115 249.637   3
   2 -17   0 353.743 199.036   5
  -2  17   1 1008.02 290.688   3
   2 -17   1 662.589 230.072   5
   2 -17  -1 749.938 226.137   5
  -2  17   2 28.2433 221.236   3
   2 -17  -2-187.068 165.023   5
   2  17   2 31.0981 261.064   2
  -2 -17  -2-26.2606 99.0210   5
   2  17   2 22.1110 177.265   3
  -2 -17  -2-11.7838 105.739   8
  -2  17   2 86.1083 218.675   2
  -2  17   3 540.202 263.209   3
   2 -17  -3 396.326 181.537   5
   2  17   3 910.402 308.463   2
   2 -17  -3 507.775 129.247   8
  -2 -17  -3 388.049 141.880   5
   2  17   3 284.822 195.229   3
  -2 -17  -3 343.557 143.223   8
  -2  17   3 710.818 257.615   2
  -2  17   4 371.212 261.748   3
   2 -17  -4 675.431 185.928   5
   2  17   4 789.178 310.488   2
   2 -17  -4 457.688 132.736   8
  -2 -17  -4 543.770 153.773   5
   2  17   4 696.132 230.931   3
  -2 -17  -4 707.403 167.117   8
  -2  17   4 152.300 244.814   2
  -2  17   5-57.2361 234.688   3
   2 -17  -5-18.8355 157.456   5
   2  17   5-31.6240 252.005   2
   2 -17  -5 22.0567 88.3308   8
  -2 -17  -5 180.210 108.616   5
   2  17   5 21.9315 166.731   3
  -2 -17  -5 130.273 119.280   8
  -2  17   5-31.3740 234.871   2
  -2  17   6 310.808 231.542   3
   2 -17  -6 459.202 150.116   5
   2 -17  -6 145.347 89.7037   8
  -2 -17  -6 183.959 105.871   5
   2  17   6-31.6593 232.752   2
  -2 -17  -6 80.5366 115.743   8
   2  17   6 239.568 173.480   3
  -2  17   6 481.406 237.690   2
  -2  17   7-32.7534 238.665   2
  -2  17   7 84.4756 216.893   3
   2 -17  -7-53.9349 126.984   5
   2 -17  -7 67.9949 85.9937   8
  -2 -17  -7 57.6671 107.268   5
  -2 -17  -7 69.3033 128.266   8
   2  17   7 126.604 235.978   2
   2  17   7-64.9576 158.479   3
   2  17  -7 24.3131 179.970   1
   2  17  -7 135.055 165.373   4
  -2  17   8 233.671 251.898   2
  -2 -17   8 323.313 115.740   6
  -2  17   8 167.898 230.174   3
   2 -17  -8 299.641 149.141   5
   2 -17  -8 401.414 110.061   8
  -2 -17  -8 411.960 127.994   5
  -2 -17  -8 129.022 122.718   8
   2  17   8 21.5924 158.185   3
   2  17   8 94.9311 259.198   2
   2  17  -8 323.052 207.311   1
  -2 -17   8 305.338 129.912   7
   2  17  -8 115.364 193.779   4
  -2  17   9 271.584 249.186   2
  -2 -17   9 104.327 102.893   6
  -2  17   9-27.7904 196.800   3
   2 -17  -9-85.1179 128.745   5
   2 -17  -9-46.4304 92.7352   8
  -2 -17  -9 15.0197 100.022   5
  -2 -17  -9-44.5484 129.323   8
   2  17   9-21.5474 142.819   3
   2  17   9-63.3203 227.880   2
  -2 -17   9 56.1356 106.135   7
   2  17  -9-75.8376 189.091   1
   2  17  -9 70.6003 187.400   4
  -2 -17  10 303.062 128.272   6
  -2  17  10 344.716 266.069   2
  -2  17  10 220.390 216.167   3
   2 -17 -10 503.546 145.554   5
   2 -17 -10 388.455 118.333   8
  -2 -17 -10 122.904 128.936   5
  -2 -17 -10 293.171 146.551   8
   2  17  10 430.217 185.441   3
   2  17  10 669.680 266.002   2
  -2 -17  10 496.560 130.712   7
   2  17 -10 216.968 189.945   4
  -2 -17  11 353.623 140.276   6
  -2  17  11 34.9866 267.702   2
  -2  17  11 857.558 234.854   3
   2 -17 -11 846.278 156.784   5
   2 -17 -11 681.727 141.355   8
  -2 -17 -11 738.880 157.648   5
  -2 -17 -11 722.794 174.464   8
   2  17  11 86.7362 171.043   3
   2  17  11 608.472 264.043   2
  -2 -17  11 257.734 142.848   7
   2  17 -11 196.597 226.466   4
  -2 -17  12 218.431 117.868   6
  -2  17  12 460.153 283.163   2
   2 -17 -12 558.321 146.674   5
   2 -17 -12 146.072 115.253   8
  -2 -17 -12 322.555 131.434   5
  -2 -17 -12 434.729 155.531   8
   2  17  12 129.564 155.335   3
   2  17  12 676.083 268.907   2
  -2 -17  12 259.941 128.655   7
   2  17 -12 226.051 205.655   4
  -2 -17  13 539.326 246.436   6
  -2  17  13 1646.06 351.802   2
  -2  17  13 1052.20 301.574   3
   2 -17 -13 1581.24 258.925   5
   2 -17 -13 1553.43 251.686   8
  -2 -17 -13 1133.58 259.305   5
  -2 -17 -13 1156.83 273.961   8
   2  17  13 1892.83 287.654   3
   2  17  13 1729.37 357.028   2
  -2 -17  13 1236.73 252.949   7
   2  17 -13 1490.50 317.541   4
  -2 -17  14 337.928 127.022   6
  -2  17  14 495.399 211.935   3
   2 -17 -14 580.758 143.608   5
   2 -17 -14 477.235 128.573   8
  -2 -17 -14 397.044 149.002   5
  -2 -17 -14 177.462 148.731   8
   2  17  14 107.210 153.962   3
   2  17  14 65.9170 252.413   2
  -2 -17  14 308.926 133.837   7
   2  17 -14 365.985 211.116   4
  -2 -17  15 687.335 206.234   6
  -2  17  15 2290.13 406.563   2
  -2  17  15 1188.86 286.586   3
   2 -17 -15 1129.11 213.201   5
   2 -17 -15 729.197 208.478   8
  -2 -17 -15 1214.96 231.872   5
  -2 -17 -15 795.193 239.649   8
   2  17  15 405.759 228.385   3
   2  17  15 1845.12 379.920   2
  -2 -17  15 1008.16 217.316   7
   2  17 -15 1255.58 295.453   4
  -2 -17  16 465.690 130.167   6
  -2  17  16 73.2043 280.408   2
   2 -17 -16 80.7489 135.265   5
  -2  17  16 25.1965 175.753   3
   2 -17 -16 181.557 112.883   8
  -2 -17 -16 313.153 167.018   8
  -2 -17 -16 314.480 144.046   5
   2  17  16 212.618 138.084   3
   2  17  16-33.9839 263.327   2
  -2 -17  16 59.8105 116.568   7
   2  17 -16 81.5637 194.052   4
   2 -17 -17 80.4766 122.180   5
  -2  17  17 99.9386 186.204   3
  -2 -17 -17 96.2957 155.861   8
  -2 -17 -17-19.1668 138.522   5
   2  17  17 21.1952 135.094   3
   2  17  17-34.7236 271.040   2
  -2 -17  17-90.8723 106.827   7
   2  17 -17 27.5875 192.117   4
  -2  17  18 148.998 291.942   2
   2 -17 -18 308.930 120.081   5
  -2  17  18 49.6136 174.932   3
  -2 -17 -18-39.2736 168.167   8
  -2 -17 -18 178.526 156.296   5
   2  17  18 402.211 160.005   3
   2  17  18 177.608 251.998   2
  -2 -17  18 229.583 129.636   7
   2  17 -18 532.288 228.781   4
   2 -17 -19 16.5069 118.466   5
  -2  17  19-267.814 173.922   3
  -2 -17 -19-20.5005 154.012   5
   2  17  19-63.4826 139.704   3
  -2 -17  19 30.9937 110.785   7
   3 -17  -1 248.636 211.422   5
   3 -17  -2 700.341 222.983   5
  -3  17   3 169.445 237.529   3
   3 -17  -3 134.751 170.357   5
   3  17   3 180.527 248.999   2
  -3 -17  -3 147.778 106.732   5
  -3 -17  -3 331.161 134.502   8
   3  17   3 294.198 167.152   3
  -3  17   4-199.758 214.778   3
   3 -17  -4 346.661 168.060   5
  -3 -17  -4 220.318 112.446   5
  -3 -17  -4 27.9213 121.189   8
   3  17   4 30.0199 249.458   2
   3  17   4 21.1548 156.606   3
  -3  17   4-88.4395 213.568   2
  -3  17   5 544.831 247.117   3
   3 -17  -5 356.007 174.017   5
   3 -17  -5 229.345 100.093   8
  -3 -17  -5 239.087 125.043   5
  -3 -17  -5 173.287 130.949   8
   3  17   5 479.058 232.650   2
   3  17   5 400.940 167.725   3
  -3  17   5 362.461 236.227   2
  -3  17   6-57.7187 223.728   3
   3 -17  -6 101.508 151.866   5
   3 -17  -6-66.2682 83.2411   8
  -3 -17  -6 28.8389 98.2555   5
  -3 -17  -6 44.9397 112.890   8
   3  17   6 20.9929 135.833   3
   3  17   6 59.7077 231.438   2
  -3  17   6-216.577 224.474   2
  -3 -17   7 190.490 106.122   6
  -3  17   7 115.891 235.334   3
   3 -17  -7 77.4240 138.145   5
   3 -17  -7 379.862 106.857   8
  -3 -17  -7 59.2752 102.468   5
  -3 -17  -7 108.879 136.047   8
   3  17  -7-95.2362 188.501   1
   3  17   7 232.656 151.078   3
   3  17   7 417.294 248.027   2
  -3 -17   7 272.698 123.938   7
   3  17  -7-66.7485 170.514   4
  -3  17   7 63.3048 218.363   2
  -3 -17   8 14.8062 99.1503   6
  -3  17   8 58.0960 211.616   3
   3 -17  -8-94.3995 136.501   5
   3 -17  -8-22.6080 85.9037   8
  -3 -17  -8 61.3707 115.267   5
  -3 -17  -8-161.587 134.901   8
   3  17   8 63.1350 149.707   3
   3  17   8-148.955 221.222   2
   3  17  -8-24.6133 189.533   1
  -3 -17   8-28.7884 110.118   7
   3  17  -8 91.1394 179.102   4
  -3  17   8-227.035 239.933   2
  -3 -17   9 149.659 110.614   6
  -3  17   9 143.532 222.346   3
   3 -17  -9 349.721 144.705   5
   3 -17  -9 366.577 99.0985   8
  -3 -17  -9 109.800 123.910   5
  -3 -17  -9 151.300 146.383   8
   3  17   9 41.8953 135.561   3
   3  17   9 447.874 235.790   2
  -3 -17   9 216.451 135.532   7
   3  17  -9 25.3577 205.724   1
   3  17  -9 302.633 179.033   4
  -3  17   9 297.335 245.129   2
  -3 -17  10 15.2043 98.6364   6
   3  17 -10 156.193 207.440   1
  -3  17  10 28.6469 216.648   3
   3 -17 -10 378.530 132.067   5
   3 -17 -10 150.989 98.6531   8
  -3 -17 -10 113.913 116.706   5
  -3 -17 -10-17.5379 140.868   8
   3  17  10 20.8337 149.888   3
   3  17  10-29.9884 237.166   2
  -3 -17  10 130.973 118.457   7
   3  17 -10 71.6754 186.762   4
  -3  17  10 235.204 252.010   2
  -3  17  11 205.055 247.266   2
  -3 -17  11 61.5910 105.070   6
  -3  17  11 142.620 228.846   3
   3 -17 -11 86.7910 133.131   5
   3 -17 -11 353.241 110.996   8
  -3 -17 -11 202.401 125.442   5
  -3 -17 -11 107.123 165.944   8
   3  17  11 231.131 142.577   3
   3  17 -11 264.678 212.031   1
   3  17  11 422.398 244.119   2
  -3 -17  11 203.733 129.715   7
   3  17 -11 365.990 217.949   4
  -3  17  12 1240.10 320.226   2
  -3 -17  12 718.354 186.336   6
   3  17 -12 189.191 256.865   1
  -3  17  12 766.384 273.033   3
   3 -17 -12 581.574 192.987   5
   3 -17 -12 1024.47 185.119   8
  -3 -17 -12 1136.72 212.288   5
  -3 -17 -12 897.347 224.955   8
   3  17  12 501.685 219.840   3
   3  17  12 981.358 307.340   2
  -3 -17  12 1092.51 195.539   7
   3  17 -12 650.020 250.491   4
  -3 -17  13 301.451 122.002   6
  -3  17  13 209.683 244.269   2
  -3  17  13 249.363 210.118   3
   3 -17 -13 506.779 139.219   5
   3 -17 -13 470.457 114.121   8
  -3 -17 -13 362.593 179.457   8
  -3 -17 -13 235.796 127.440   5
   3  17  13 311.944 154.271   3
   3  17  13 620.717 256.018   2
  -3 -17  13 14.6491 123.599   7
   3  17 -13 192.408 219.515   1
   3  17 -13 153.682 190.939   4
  -3 -17  14 901.107 184.627   6
  -3  17  14 850.454 330.525   2
   3  17 -14 195.018 260.070   1
  -3  17  14 660.591 261.367   3
   3 -17 -14 411.980 188.056   5
   3 -17 -14 1075.62 180.929   8
  -3 -17 -14 622.479 226.323   8
  -3 -17 -14 1277.17 220.707   5
   3  17  14 850.074 217.351   3
   3  17  14 729.170 304.186   2
  -3 -17  14 1043.29 188.827   7
   3  17 -14 131.183 239.495   4
  -3 -17  15-146.748 110.903   6
  -3  17  15 107.020 245.621   2
  -3  17  15 82.0652 207.890   3
   3 -17 -15 245.568 143.959   5
   3 -17 -15 186.106 119.395   8
  -3 -17 -15 287.468 184.677   8
  -3 -17 -15 271.868 145.078   5
   3  17  15 310.035 140.268   3
  -3 -17  15 310.405 127.334   7
   3  17  15 225.778 259.094   2
   3  17 -15-28.2420 219.093   1
   3  17 -15 133.616 200.235   4
  -3 -17  16 297.524 123.066   6
  -3  17  16 454.294 225.798   3
   3 -17 -16 179.957 133.238   5
  -3 -17 -16 336.042 185.647   8
  -3 -17 -16 437.855 157.179   5
   3  17  16 82.4841 144.108   3
   3  17 -16 57.3219 217.987   1
  -3 -17  16 148.499 120.183   7
   3  17  16 297.882 267.352   2
   3  17 -16 300.466 185.299   4
  -3 -17  17-16.7954 115.423   6
  -3  17  17 73.2593 258.538   2
  -3  17  17 106.332 190.861   3
   3 -17 -17 146.323 115.616   5
  -3 -17 -17-221.587 185.202   8
  -3 -17 -17 102.900 148.504   5
   3  17 -17 29.0855 219.421   1
   3  17  17 185.528 143.323   3
  -3 -17  17 74.8016 113.223   7
   3  17  17 34.0173 264.826   2
   3  17 -17 167.184 204.801   4
  -3 -17  18 187.361 110.348   6
  -3  17  18-258.340 253.980   2
   3 -17 -18-48.9128 122.131   5
  -3  17  18-26.4692 199.835   3
   3 -17 -18 52.1504 108.521   8
  -3 -17 -18 22.6641 183.238   8
  -3 -17 -18 21.2861 146.195   5
   3  17  18 144.351 147.156   3
  -3 -17  18 135.797 113.953   7
   3  17  18 245.154 264.190   2
   3  17 -18 284.339 226.760   4
  -3 -17  19 138.078 117.306   6
   3 -17 -19 180.265 133.425   5
  -3  17  19 155.323 187.798   3
  -3 -17 -19 176.099 165.103   5
   3  17  19 124.066 140.944   3
   3  17 -19 28.8425 218.597   4
  -4 -17  -4 89.4190 106.426   5
  -4 -17  -4 15.3249 123.614   8
   4  17   4 27.8547 213.913   2
   4  17   4 83.2098 133.611   3
   4 -17  -5 45.4173 177.298   5
  -4 -17  -5-45.6916 100.077   5
  -4 -17  -5-63.5609 126.188   8
   4  17   5 82.3773 139.744   3
   4  17   5-138.572 206.576   2
  -4  17   6 85.2182 231.735   3
   4 -17  -6 87.4749 165.371   5
  -4 -17  -6 126.292 109.397   5
  -4 -17  -6 101.532 140.202   8
   4  17  -6 21.0966 154.881   1
   4  17   6 124.250 143.639   3
   4  17   6-82.8784 223.987   2
  -4 -17   7 110.896 109.543   6
  -4  17   7-85.9913 225.564   3
   4 -17  -7 63.3754 149.454   5
  -4 -17  -7 171.730 140.784   8
  -4 -17  -7 16.1483 108.192   5
   4  17   7 164.257 145.285   3
   4  17   7-110.353 225.673   2
   4  17  -7 44.9931 172.992   1
  -4 -17   7 78.3457 116.941   7
   4  17  -7 104.762 154.255   4
  -4  17   7 61.1594 208.683   2
  -4 -17   8-95.1711 112.830   6
  -4  17   8-28.9373 228.181   3
   4 -17  -8-61.4105 139.498   5
   4 -17  -8 11.2147 86.6893   8
  -4 -17  -8 71.7147 148.292   8
  -4 -17  -8-16.7490 125.782   5
   4  17   8-103.363 132.453   3
  -4 -17   8-31.2076 121.416   7
   4  17   8 165.886 212.867   2
   4  17  -8-117.420 177.629   1
   4  17  -8-21.4534 164.607   4
  -4  17   8 280.942 235.238   2
  -4 -17   9-15.8707 98.0060   6
  -4  17   9 87.5432 215.021   3
   4 -17  -9-175.643 135.904   5
   4 -17  -9 11.3466 83.6127   8
  -4 -17  -9 94.0132 144.249   8
  -4 -17  -9 17.3485 120.295   5
   4  17   9 20.5484 140.627   3
  -4 -17   9-77.6862 119.199   7
   4  17   9 83.9760 210.159   2
   4  17  -9 22.2664 165.939   4
  -4  17   9-63.6308 229.000   2
   4  17  -9 24.4126 183.958   1
  -4 -17  10 177.044 111.364   6
   4  17 -10 50.5936 192.017   1
  -4  17  10-145.703 217.785   3
   4 -17 -10 57.0924 128.962   5
   4 -17 -10 149.270 92.6047   8
  -4 -17 -10 79.1510 168.359   8
  -4 -17 -10 53.3260 125.388   5
   4  17  10-102.154 135.775   3
  -4 -17  10 46.3911 110.285   7
   4  17  10 423.556 214.180   2
   4  17 -10 231.245 187.257   4
  -4  17  10 421.339 244.775   2
  -4 -17  11 305.751 132.307   6
  -4  17  11 380.411 248.555   3
   4 -17 -11 409.840 156.830   5
   4  17 -11 129.114 192.300   1
   4 -17 -11 220.828 115.320   8
  -4 -17 -11 647.211 184.933   8
  -4 -17 -11 625.210 153.621   5
   4  17  11 182.836 147.163   3
  -4 -17  11-30.7886 126.128   7
   4  17  11 343.450 237.650   2
   4  17 -11 336.233 203.379   4
  -4  17  11 230.531 277.085   2
  -4 -17  12 16.0920 104.116   6
  -4  17  12 117.236 226.424   3
   4 -17 -12 17.8816 123.453   5
   4 -17 -12 47.1369 96.2638   8
  -4 -17 -12-42.7316 172.898   8
  -4 -17 -12-19.0054 137.343   5
   4  17 -12 53.2616 192.447   1
   4  17  12-41.0353 135.995   3
  -4 -17  12-45.9336 114.106   7
   4  17  12-58.5377 205.551   2
   4  17 -12 24.5613 180.287   4
  -4  17  12 33.4403 233.858   2
  -4 -17  13 681.527 183.667   6
  -4  17  13 838.890 275.323   3
   4 -17 -13 1230.61 204.208   5
   4 -17 -13 836.125 166.677   8
  -4 -17 -13 1227.03 242.055   8
  -4 -17 -13 196.528 185.113   5
   4  17 -13 328.422 276.035   1
   4  17  13 531.985 201.538   3
  -4 -17  13 660.627 189.059   7
   4  17  13 1105.37 292.299   2
   4  17 -13 856.053 233.138   4
  -4  17  13 373.228 277.348   2
  -4 -17  14 130.918 121.696   6
  -4  17  14 520.288 244.091   3
   4 -17 -14 17.3359 133.801   5
   4 -17 -14 302.914 115.890   8
  -4 -17 -14 92.8582 208.801   8
  -4 -17 -14 80.6841 149.326   5
   4  17  14 61.2572 143.478   3
  -4 -17  14 229.228 139.263   7
   4  17 -14 27.8221 202.029   1
   4  17 -14 386.653 217.379   4
  -4  17  14-34.2091 255.385   2
  -4 -17  15 199.206 137.240   6
  -4  17  15 403.919 231.895   3
   4 -17 -15 590.836 156.180   5
  -4 -17 -15 596.536 205.686   8
  -4 -17 -15 667.851 177.494   5
   4  17  15 204.156 153.673   3
  -4 -17  15 414.121 149.780   7
   4  17 -15 570.460 247.177   1
   4  17 -15 423.064 212.964   4
  -4  17  16-35.1978 245.119   2
  -4 -17  16-201.377 117.889   6
  -4  17  16 28.2750 213.079   3
   4 -17 -16 16.7695 122.652   5
  -4 -17 -16 147.162 200.374   8
  -4 -17 -16-21.5888 154.169   5
   4  17  16 124.154 128.499   3
  -4 -17  16 45.8397 108.245   7
   4  17 -16 243.559 218.318   4
   4  17 -16 115.984 220.891   1
   4  17 -17 265.287 233.286   1
  -4  17  17 354.503 256.271   2
  -4 -17  17-169.888 111.211   6
  -4  17  17 338.854 210.549   3
   4 -17 -17 16.4549 125.976   5
   4 -17 -17 50.5492 100.867   8
  -4 -17 -17-78.1252 215.462   8
  -4 -17 -17 89.4628 159.836   5
  -4 -17  17 30.7150 117.601   7
   4  17  17 62.2210 126.152   3
   4  17 -17 192.999 200.935   4
  -4  17  18 143.890 234.004   2
  -4 -17  18 68.8311 121.069   6
   4  17 -18-30.2281 217.696   1
  -4  17  18 112.878 208.854   3
   4 -17 -18-263.978 122.712   5
  -4 -17 -18 160.494 208.916   8
  -4 -17 -18-115.008 173.478   5
  -4 -17  18-30.9048 125.259   7
   4  17  18-83.4810 133.886   3
   4  17 -18 28.1867 203.012   4
  -4 -17  19 17.4120 106.475   6
   4  17 -19 86.3258 210.470   4
  -5 -17  -5 162.459 150.606   8
  -5 -17  -5 119.320 128.068   5
   5  17   5 41.8188 137.581   3
   5  17   5 51.1111 185.391   2
  -5 -17  -6 245.647 152.910   8
  -5 -17  -6-87.0565 115.405   5
   5  17   6-41.3518 138.968   3
   5  17   6-25.5356 203.344   2
   5  17  -6-36.2816 143.511   4
   5  17  -6-19.2493 149.737   1
   5  17  -7-182.327 159.752   1
  -5 -17  -7-19.8264 167.415   8
  -5 -17  -7-17.9443 124.981   5
  -5 -17   7-52.2998 135.633   7
   5  17   7-83.0020 144.519   3
   5  17   7-51.2865 193.949   2
   5  17  -7 18.9394 146.842   4
  -5 -17   7 189.315 123.901   6
   5  17  -8-86.6767 162.356   1
  -5 -17  -8 208.649 178.951   8
  -5 -17  -8 55.1007 128.240   5
  -5 -17   8-103.472 137.645   7
   5  17   8-82.2948 139.857   3
   5  17   8 129.339 197.967   2
   5  17  -8 158.196 164.780   4
  -5 -17   8 224.037 122.399   6
  -5  17   9 85.8329 223.321   3
   5 -17  -9-20.5514 152.008   5
   5  17  -9 22.7080 172.355   1
  -5 -17  -9 64.0090 177.507   8
  -5 -17  -9 18.9472 124.991   5
  -5 -17   9-68.1808 127.026   7
   5  17   9 20.7025 145.390   3
   5  17  -9-60.8698 163.148   4
  -5 -17   9 17.2740 124.333   6
  -5  17  10 28.9231 202.361   3
   5 -17 -10 19.9710 136.206   5
   5  17 -10 23.3169 161.791   1
  -5 -17 -10 203.360 186.957   8
  -5 -17 -10 19.5490 133.334   5
  -5 -17  10 16.8393 117.924   7
   5  17  10 82.4011 125.267   3
   5  17 -10 21.1850 168.261   4
  -5  17  10-125.306 225.564   2
  -5 -17  10 51.8529 109.766   6
  -5  17  11 322.143 247.307   3
   5 -17 -11-19.4821 143.080   5
  -5 -17 -11 143.917 197.204   8
  -5 -17 -11 60.1890 133.689   5
   5  17 -11-24.3019 174.280   1
  -5 -17  11 16.6823 122.071   7
   5  17  11-20.5229 135.467   3
   5  17 -11 110.512 165.395   4
  -5  17  11-95.2602 226.764   2
  -5 -17  11-17.2998 121.585   6
  -5 -17  12 245.193 117.061   6
  -5  17  12 325.917 242.905   3
   5 -17 -12 355.330 155.109   5
   5 -17 -12 410.322 115.209   8
  -5 -17 -12 197.665 205.209   8
  -5 -17 -12 373.487 153.203   5
  -5 -17  12 197.990 125.530   7
   5  17  12 62.1792 147.720   3
   5  17 -12 25.2873 207.266   1
   5  17 -12 413.715 190.981   4
  -5  17  12 32.2108 273.043   2
  -5 -17  13 104.997 130.359   6
  -5  17  13 266.922 276.493   3
   5 -17 -13 202.118 164.095   5
   5 -17 -13-11.8666 106.032   8
  -5 -17 -13 203.964 209.107   8
  -5 -17 -13 319.611 165.349   5
  -5 -17  13 181.771 146.054   7
   5  17  13 20.7462 147.208   3
   5  17 -13 78.6739 216.325   1
   5  17 -13 406.215 200.940   4
  -5  17  13 587.936 262.979   2
  -5 -17  14 227.144 133.416   6
  -5  17  14 238.935 232.727   3
   5 -17 -14 673.034 156.696   5
  -5 -17 -14 734.628 244.383   8
  -5 -17 -14 525.925 171.337   5
  -5 -17  14 343.405 154.372   7
   5  17  14 332.867 148.925   3
   5  17 -14 173.764 200.367   4
   5  17 -14 187.224 229.141   1
  -5 -17  15-104.579 115.140   6
  -5  17  15-90.2723 234.949   3
   5 -17 -15-17.4885 132.877   5
  -5 -17 -15 56.2800 242.451   8
  -5 -17 -15 247.848 147.338   5
  -5 -17  15-64.8032 118.154   7
   5  17  15 21.0776 139.836   3
   5  17 -15-177.874 189.464   4
  -5  17  15-401.369 243.691   2
   5  17 -15 27.6379 213.599   1
  -5 -17  16 17.3951 117.161   6
  -5  17  16 29.7880 211.378   3
   5 -17 -16 155.857 122.365   5
   5 -17 -16 12.3577 109.627   8
  -5 -17 -16 145.565 246.887   8
  -5 -17  16 275.983 137.731   7
   5  17  16-85.1532 129.271   3
   5  17 -16 210.986 202.773   4
  -5  17  16 169.341 248.967   2
   5  17 -16 28.1510 200.631   1
  -5 -17  17-17.5073 115.313   6
   5  17 -17-726.641 237.138   1
  -5  17  17-179.489 214.085   3
   5 -17 -17-33.8825 105.622   5
  -5 -17 -17-249.040 235.879   8
  -5 -17  17-32.5542 130.434   7
   5  17  17-21.5796 136.191   3
   5  17 -17 54.0087 184.561   4
  -5 -17  18 88.1416 121.796   6
  -5 -17  18-16.1938 113.437   7
  -6 -17  -6-84.9080 182.341   8
  -6 -17  -6-19.5163 129.496   5
  -6 -17   6-60.6166 146.099   7
   6  17  -6-86.7929 130.109   1
   6  17   6-21.9310 143.271   3
   6  17  -6-175.026 129.510   4
  -6 -17   6-111.178 128.127   6
  -6 -17  -7 335.829 201.259   8
  -6 -17  -7 258.832 154.141   5
  -6 -17   7 297.682 160.439   7
   6  17   7 173.634 150.890   3
   6  17  -7 416.614 146.710   4
   6  17  -7 219.418 157.031   1
  -6 -17   7 241.283 147.079   6
  -6 -17  -8-23.6978 208.725   8
  -6 -17  -8 101.623 132.952   5
  -6 -17   8 78.0020 141.067   7
   6  17   8 21.7320 137.232   3
   6  17  -8 69.8383 139.183   4
   6  17  -8 19.2716 124.853   1
  -6 -17   8-18.7493 130.163   6
  -6 -17  -9-24.3669 197.055   8
  -6 -17   9 57.4819 141.340   7
   6  17   9 130.241 142.516   3
   6  17  -9 402.451 160.794   4
   6  17  -9 40.5279 145.359   1
  -6 -17   9-56.3477 130.985   6
   6  17 -10-63.7615 153.273   1
  -6 -17 -10 51.9539 207.750   8
  -6 -17  10-37.6963 147.922   7
   6  17  10-65.4573 148.296   3
   6  17 -10-95.8531 154.932   4
  -6 -17  10-75.2681 126.830   6
   6  17 -11-155.795 193.717   1
  -6 -17 -11-27.7592 238.766   8
  -6 -17  11 18.5333 145.218   7
   6  17  11-109.600 135.951   3
   6  17 -11-220.726 169.404   4
  -6 -17  11 18.8263 141.913   6
   6  17 -12 23.2572 206.594   1
  -6 -17 -12 230.400 238.283   8
  -6 -17  12-72.9227 156.760   7
   6  17 -12 231.053 186.803   4
  -6 -17  12 733.799 171.629   6
   6  17 -13 145.610 180.998   1
  -6 -17 -13 59.8891 244.191   8
  -6 -17  13 125.484 140.896   7
   6  17 -13 323.771 176.206   4
  -6 -17  13 75.3215 131.503   6
  -6  17  14 151.304 223.824   3
   6 -17 -14 92.1914 129.490   5
   6  17 -14-278.175 175.345   1
  -6 -17 -14 96.3859 255.845   8
  -6 -17  14 53.7525 130.504   7
   6  17 -14-135.377 185.450   4
  -6 -17  14 18.8036 114.843   6
  -6 -17  15 225.491 133.436   6
  -6  17  15 60.9945 232.517   3
   6 -17 -15-36.4460 134.125   5
   6  17 -15-155.099 196.450   1
  -6 -17  15 211.495 133.172   7
   6  17 -15-141.338 185.376   4
  -6  17  15 64.6830 228.295   2
  -6 -17  16 74.9700 134.030   6
  -6  17  16 30.9326 239.388   3
   6 -17 -16 176.706 133.425   5
   6  17 -16 53.7366 209.487   1
  -6 -17  16 158.639 142.895   7
   6  17 -16-98.0389 183.206   4
  -6  17  16 32.7124 221.332   2
  -6 -17  17 37.3476 127.936   6
   6 -17 -17 122.829 136.160   5
  -6 -17  17 87.1649 131.020   7
   6  17 -17-229.086 193.292   4
   7  17  -6 155.862 140.285   1
  -7 -17   6 327.738 191.196   7
   7  17  -6 358.332 137.550   4
  -7 -17   6 627.883 167.813   6
  -7 -17  -7-75.8422 205.468   8
   7  17  -7-459.841 128.352   1
  -7 -17   7-45.8407 169.740   7
   7  17  -7-74.6156 126.205   4
  -7 -17   7-141.683 149.044   6
  -7 -17  -8 214.784 251.466   8
  -7 -17   8 22.4327 170.950   7
   7  17  -8 17.2763 137.883   1
   7  17  -8 248.734 122.944   4
  -7 -17  -9-166.773 239.412   8
  -7 -17   9-21.9559 177.676   7
   7  17  -9-18.5322 143.669   1
   7  17  -9 48.0915 130.546   4
  -7 -17   9 20.2268 139.038   6
  -7 -17 -10 386.792 279.398   8
  -7 -17  10 193.440 181.629   7
   7  17 -10 155.778 170.717   1
   7  17 -10 200.513 159.472   4
  -7 -17  10 161.834 157.890   6
  -7 -17  11-231.218 176.218   7
   7  17 -11-193.206 150.305   4
   7  17 -11-80.2152 154.833   1
  -7 -17  11-20.2480 151.892   6
  -7 -17  12 20.5600 151.021   7
   7  17 -12 36.8987 146.542   4
   7  17 -12 63.0987 156.260   1
  -7 -17  12 20.2661 145.979   6
  -7 -17  13 20.1209 143.749   7
   7  17 -13-19.3710 148.167   4
   7  17 -13 88.1328 159.931   1
  -7 -17  13 40.5444 134.461   6
  -7 -17  14-80.2929 142.742   7
   7  17 -14 20.3337 157.091   4
   7  17 -14 23.0196 168.974   1
  -7 -17  14 20.2593 142.284   6
   7  17 -15-23.5903 168.438   1
  -7 -17  15-19.6709 162.182   7
   7  17 -15-149.197 168.619   4
  -7 -17  15 121.316 138.377   6
   7  17 -16 24.6089 143.709   1
  -7 -17  16-135.086 157.373   7
   7  17 -16 133.884 168.352   4
  -7 -17  16-161.639 133.553   6
   8  17  -5 475.996 128.768   1
   8  17  -5 304.127 123.176   4
   8  17  -6-14.1552 102.358   1
  -8 -17   6 26.9355 193.909   7
   8  17  -6-12.7147 94.1173   4
  -8 -17   6 217.296 158.929   6
   8  17  -7 695.930 156.790   1
  -8 -17   7 686.713 242.909   7
  -8 -17   7 935.054 202.714   6
   8  17  -8 15.7559 120.086   1
  -8 -17   8-129.406 195.064   7
   8  17  -8-13.7601 115.231   4
  -8 -17   8-43.5252 155.435   6
   8  17  -9 16.5583 126.102   1
  -8 -17   9-25.3502 193.469   7
   8  17  -9 273.750 124.390   4
  -8 -17   9 348.720 176.608   6
   8  17 -10-17.4095 122.657   1
  -8 -17  10 222.755 202.417   7
   8  17 -10 60.2032 117.088   4
  -8 -17  10 87.1877 148.167   6
   8  17 -11-237.528 136.780   1
  -8 -17  11-289.889 177.892   7
   8  17 -11-94.3521 124.953   4
  -8 -17  11 108.956 150.611   6
  -8 -17  12-23.5590 168.318   7
   8  17 -12 115.089 138.476   1
   8  17 -12 82.1429 125.314   4
  -8 -17  12 217.718 157.556   6
  -8 -17  13 137.843 169.156   7
   8  17 -13 19.7316 143.206   1
   8  17 -13 17.1600 127.137   4
  -8 -17  13 217.638 154.694   6
  -8 -17  14 156.934 162.144   7
   8  17 -14 20.6545 147.019   1
   8  17 -14 18.4086 130.529   4
  -8 -17  14-21.7614 153.610   6
  -8 -17  15-223.365 179.751   7
   8  17 -15 19.3567 148.673   4
  -8 -17  15 43.5174 149.739   6
   9  17  -5-77.6666 102.424   1
   9  17  -5 203.151 93.3779   4
   9  17  -6 306.922 124.171   1
  -9 -17   6 205.484 205.472   7
   9  17  -6 291.129 109.225   4
  -9 -17   6 487.113 199.542   6
   9  17  -7 69.1818 108.394   1
  -9 -17   7 29.2513 212.146   7
   9  17  -7 152.705 101.078   4
  -9 -17   7 139.297 171.359   6
   9  17  -8 273.269 128.460   1
  -9 -17   8 201.943 211.209   7
   9  17  -8 222.126 112.924   4
   9  17  -9-14.9644 115.665   1
  -9 -17   9 28.3509 198.768   7
   9  17  -9 103.557 106.026   4
  -9 -17   9 325.913 173.414   6
   9  17 -10 15.6336 113.914   1
  -9 -17  10 27.7640 193.020   7
   9  17 -10 285.577 112.027   4
  -9 -17  10 139.964 171.421   6
   9  17 -11 98.1057 116.450   1
  -9 -17  11 81.4469 211.415   7
   9  17 -11 199.800 118.153   4
  -9 -17  11 280.296 166.860   6
   9  17 -12-17.0996 133.609   1
  -9 -17  12 26.5155 186.313   7
   9  17 -12-14.9444 121.848   4
  -9 -17  12-163.822 155.968   6
   9  17 -13-89.5504 130.014   1
  -9 -17  13-105.625 206.159   7
   9  17 -13 31.2874 123.835   4
  -9 -17  13 23.3941 158.020   6
   9  17 -14-16.3670 134.147   4
  -9 -17  14-23.3716 156.396   6
  10  17  -5 228.186 99.3229   4
 -10 -17   5 1050.15 211.396   6
  10  17  -6 89.4658 85.5402   4
 -10 -17   6 490.124 185.721   6
  10  17  -7 291.275 112.854   4
  10  17  -7 198.153 122.938   1
  10  17  -8 27.2223 106.704   1
  10  17  -8 229.266 94.7869   4
 -10 -17   8 244.754 173.011   6
  10  17  -9 14.0362 115.738   1
 -10 -17   9 460.675 228.064   7
  10  17  -9 80.3142 87.5709   4
 -10 -17   9 441.895 194.629   6
  10  17 -10 86.9063 116.765   1
 -10 -17  10 122.309 212.085   7
  10  17 -10 132.717 98.2243   4
 -10 -17  10 196.989 177.701   6
  10  17 -11 89.8376 115.740   1
 -10 -17  11-212.349 230.283   7
  10  17 -11-50.8199 92.2608   4
 -10 -17  11 296.267 172.702   6
  10  17 -12 133.556 106.481   4
 -10 -17  12 247.508 178.667   6
  11  17  -7 66.0832 74.6140   4
 -11 -17   7 307.585 190.241   6
  11  17  -8 89.0140 81.9103   4
 -11 -17   8 335.372 190.482   6
  11  17  -9-62.2328 75.3711   4
 -11 -17   9-155.768 185.017   6
  11  17 -10 87.2400 88.3686   4
 -11 -17  10-26.1090 183.687   6
   0  18   1 26.7075 205.496   3
   0  18   1 274.756 212.961   2
   0  18   2 1034.73 260.629   3
   0 -18  -2 526.664 181.217   5
   0 -18  -2 686.132 160.107   8
   0  18   2 504.581 257.765   2
   0  18   3 227.924 239.110   2
   0  18   3-157.998 198.555   3
   0 -18  -3-16.3365 117.333   5
   0 -18  -3-70.7003 96.8189   8
   0  18   4 199.603 238.521   2
   0  18   4 104.434 186.456   3
   0 -18  -4 48.6186 115.309   5
   0 -18  -4-35.7305 94.3055   8
   0  18   5 237.167 269.195   2
   0  18   5-77.6164 195.339   3
   0 -18  -5-96.6478 121.111   5
   0 -18  -5-96.5452 95.6250   8
   0  18   6-309.887 249.869   2
   0  18   6 25.6207 191.728   3
   0 -18  -6 176.824 111.121   5
   0 -18  -6-12.2469 101.126   8
   0  18   7-210.113 251.046   2
   0  18   7 25.3451 178.742   3
   0 -18  -7 112.500 123.295   5
   0 -18  -7-49.7640 96.4469   8
   0  18   8 247.216 262.500   2
   0  18   8 25.0706 172.775   3
   0 -18  -8 80.2974 120.766   5
   0 -18  -8 63.2398 105.327   8
   0  18   9-177.612 275.534   2
   0 -18  -9-48.1480 117.724   5
   0  18   9 99.1863 178.723   3
   0 -18  -9-89.9590 103.758   8
   0  18  10 71.4740 257.241   2
   0 -18 -10-64.2026 126.167   5
   0  18  10-73.4413 165.320   3
   0 -18 -10-13.0797 112.383   8
   0 -18  10 32.7761 111.694   7
   0  18  11-538.321 328.512   2
   0 -18 -11-48.2929 125.164   5
   0  18  11-169.288 192.193   3
   0 -18 -11-13.3683 108.950   8
   0 -18  11 33.5870 127.371   7
   0  18  12 469.516 329.601   2
   0 -18 -12 648.427 194.008   5
   0  18  12 1173.62 260.606   3
   0 -18 -12 879.265 200.481   8
   0  18  13 145.460 265.414   2
   0 -18 -13-196.684 131.625   5
   0 -18 -13-55.6085 122.264   8
   0  18  13-142.401 165.440   3
   0  18  14 476.251 278.906   2
   0 -18 -14 514.506 154.224   5
   0 -18 -14 543.392 165.566   8
   0  18  14 707.168 205.211   3
   0  18  15 147.720 278.280   2
   0 -18 -15-16.8213 130.854   5
   0 -18 -15-14.7579 117.139   8
   0  18  15-23.4846 172.385   3
   0  18  16-186.542 283.177   2
   0 -18 -16 68.2594 119.852   5
   0 -18 -16-29.9074 121.780   8
   0  18  16 46.8607 157.488   3
   0 -18 -17-104.467 128.537   5
   0  18  17-116.989 168.669   3
  -1  18   0 339.266 266.392   3
  -1  18   0 230.209 219.977   2
  -1  18   1 706.947 240.044   3
   1 -18  -1 513.509 173.232   5
   1 -18  -1 191.912 109.997   8
  -1  18   1 29.6773 210.365   2
   1  18   2 485.652 245.859   2
  -1  18   2 621.461 249.217   3
   1 -18  -2 354.324 153.478   5
   1  18   2 247.885 193.246   3
   1 -18  -2 11.4060 96.3520   8
  -1  18   2 305.710 237.310   2
   1  18   3 99.1115 230.853   2
  -1  18   3-28.1248 224.779   3
   1 -18  -3 402.410 145.489   5
   1  18   3 98.3291 172.975   3
  -1 -18  -3 59.5194 105.808   5
   1 -18  -3 23.0176 95.6577   8
  -1 -18  -3 193.688 111.049   8
  -1  18   3 63.1054 206.044   2
   1  18   4 101.013 242.982   2
  -1  18   4 27.9522 223.270   3
   1 -18  -4 53.8860 130.969   5
  -1 -18  -4 45.2350 111.624   5
   1  18   4 389.913 195.472   3
   1 -18  -4 198.135 102.992   8
  -1 -18  -4 61.5477 107.158   8
  -1  18   4-32.3358 233.396   2
   1  18   5 34.0107 258.624   2
  -1  18   5 110.893 207.971   3
   1 -18  -5 88.3989 140.288   5
  -1 -18  -5 45.4100 110.514   5
   1  18   5-24.1525 173.862   3
   1 -18  -5 129.926 95.0645   8
  -1 -18  -5 62.5942 101.888   8
  -1  18   5 598.346 249.147   2
  -1  18   6 237.474 240.063   2
   1  18   6 102.632 248.011   2
  -1  18   6 54.8863 199.299   3
   1 -18  -6 156.800 129.888   5
  -1 -18  -6 136.836 116.260   5
   1  18   6-167.183 183.643   3
   1 -18  -6 238.810 107.239   8
  -1 -18  -6 51.2245 106.462   8
  -1  18   7 34.5060 259.238   2
   1  18   7 378.270 271.315   2
  -1  18   7-108.641 196.205   3
   1 -18  -7 223.474 130.371   5
  -1 -18  -7 76.5495 114.951   5
   1 -18  -7 144.862 96.3444   8
   1  18   7 141.764 164.198   3
  -1 -18  -7 235.538 114.656   8
  -1  18   8 70.1062 252.890   2
  -1  18   8-53.7348 198.720   3
   1  18   8 379.954 275.597   2
   1 -18  -8 356.389 137.111   5
  -1 -18  -8 139.186 115.681   5
   1 -18  -8 171.116 101.321   8
   1  18   8-23.7851 167.228   3
  -1 -18  -8-94.0433 110.077   8
  -1  18   9-213.331 266.951   2
  -1  18   9 26.5673 173.600   3
   1  18   9 208.057 245.575   2
   1 -18  -9 134.329 129.742   5
  -1 -18  -9-15.6804 104.938   5
   1 -18  -9-12.4000 106.534   8
   1  18   9 47.1439 173.042   3
  -1 -18  -9-13.7998 113.800   8
  -1  18  10-35.9487 272.073   2
  -1  18  10-78.7778 191.456   3
   1 -18 -10 233.783 124.719   5
  -1 -18 -10 15.9164 116.450   5
   1 -18 -10 365.325 116.915   8
  -1 -18 -10 170.543 120.243   8
   1  18  10-23.3698 154.792   3
  -1 -18  10 62.0399 125.304   7
  -1  18  11-435.514 297.647   2
  -1  18  11 155.695 202.242   3
   1 -18 -11 115.472 116.037   5
   1  18  11 104.899 295.489   2
  -1 -18 -11-80.7741 127.140   5
   1 -18 -11 256.129 111.622   8
  -1 -18 -11 43.1408 128.221   8
   1  18  11-23.2060 170.796   3
  -1 -18  11 125.650 120.716   7
  -1  18  12 73.2240 294.494   2
   1 -18 -12 180.861 150.566   5
  -1  18  12 205.239 219.985   3
   1  18  12 422.400 333.456   2
  -1 -18 -12 590.595 153.214   5
   1 -18 -12 297.892 139.979   8
  -1 -18 -12 651.811 157.924   8
   1  18  12 277.395 183.365   3
  -1 -18  12 79.1676 139.511   7
  -1  18  13 809.515 330.523   2
   1 -18 -13 935.301 190.496   5
  -1  18  13 938.821 238.520   3
   1 -18 -13 579.354 176.220   8
   1  18  13 850.419 310.986   2
  -1 -18 -13 734.668 184.758   5
  -1 -18 -13 903.294 194.370   8
   1  18  13 852.838 219.868   3
  -1 -18  13 575.738 186.900   7
  -1  18  14 407.797 303.460   2
   1 -18 -14 164.291 122.202   5
  -1  18  14 325.812 187.918   3
   1 -18 -14 67.0480 110.468   8
  -1 -18 -14 391.094 142.279   5
   1  18  14 570.836 272.541   2
  -1 -18 -14 108.641 135.353   8
   1  18  14 91.9554 166.349   3
  -1 -18  14 177.095 121.687   7
  -1  18  15 485.975 287.033   2
   1 -18 -15 297.515 140.701   5
  -1  18  15 463.440 188.647   3
   1 -18 -15 271.447 131.590   8
  -1 -18 -15 138.945 140.684   5
  -1 -18 -15 225.054 154.674   8
   1  18  15 830.293 282.374   2
   1  18  15 732.001 180.370   3
  -1  18  16 225.919 290.850   2
   1 -18 -16 217.087 126.705   5
   1 -18 -16 152.789 126.490   8
  -1  18  16 121.074 184.672   3
  -1 -18 -16 375.369 144.318   5
  -1 -18 -16 32.6398 145.635   8
   1  18  16-439.070 295.170   2
   1  18  16 68.3129 151.384   3
  -1 -18 -17-18.4358 125.044   5
   1  18  17 22.6873 148.231   3
  -2  18   0 173.088 230.624   3
   2 -18   0 387.045 181.637   5
  -2  18   1 406.994 247.158   3
   2 -18  -1 639.890 197.663   5
  -2  18   2 175.283 231.833   3
   2 -18  -2 749.636 189.828   5
  -2  18   2 297.342 231.583   2
  -2  18   3 585.881 249.245   3
   2  18   3 65.5309 246.834   2
   2 -18  -3 790.462 186.618   5
  -2 -18  -3 141.706 123.090   5
   2  18   3 363.777 190.503   3
  -2  18   3 366.344 247.812   2
  -2  18   4-117.164 219.932   3
   2  18   4 98.8713 253.741   2
   2 -18  -4-60.7503 149.814   5
   2 -18  -4 57.2525 86.9689   8
  -2 -18  -4 57.6837 103.013   5
  -2 -18  -4-25.9455 124.478   8
   2  18   4 22.9188 159.628   3
  -2  18   4 31.3968 201.139   2
  -2  18   5 729.824 263.978   3
   2 -18  -5 531.274 187.064   5
   2  18   5 925.865 298.233   2
   2 -18  -5 659.766 146.514   8
  -2 -18  -5 528.996 157.930   5
  -2 -18  -5 559.374 162.483   8
   2  18   5 659.791 207.620   3
  -2  18   5 386.279 255.027   2
  -2  18   6-29.0643 225.802   3
   2 -18  -6 244.736 152.956   5
   2  18   6 132.607 263.148   2
   2 -18  -6 374.451 106.600   8
  -2 -18  -6 104.648 114.262   5
  -2 -18  -6 109.367 113.700   8
   2  18   6 180.956 161.728   3
  -2  18   6-65.7571 238.589   2
  -2  18   7 86.6096 230.935   3
   2 -18  -7 183.993 151.814   5
   2  18   7 563.874 261.599   2
   2 -18  -7 201.334 105.926   8
  -2 -18  -7 228.402 130.920   5
  -2 -18  -7 450.151 133.925   8
   2  18   7 293.059 172.229   3
  -2  18   7 168.523 254.854   2
  -2  18   8 85.8820 215.648   3
   2 -18  -8 54.0932 127.322   5
   2 -18  -8 107.939 100.437   8
   2  18   8 33.2523 255.705   2
  -2 -18  -8 155.154 120.739   5
  -2 -18  -8 159.139 115.047   8
   2  18   8-22.6978 157.010   3
  -2  18   8 240.111 247.521   2
  -2  18   9 104.690 270.901   2
  -2  18   9 425.373 245.061   3
   2 -18  -9 460.385 159.994   5
   2 -18  -9 303.396 119.941   8
  -2 -18  -9 364.224 130.254   5
   2  18   9 499.942 282.159   2
  -2 -18  -9 283.525 138.401   8
   2  18   9 407.488 191.603   3
   2  18  -9 26.1925 202.762   1
   2  18  -9 223.110 213.943   4
  -2  18  10-283.353 284.938   2
  -2 -18  10 111.665 110.966   6
  -2  18  10-137.770 196.934   3
   2 -18 -10 331.166 134.010   5
   2 -18 -10-85.8318 93.4924   8
  -2 -18 -10 32.3349 115.308   5
  -2 -18 -10-15.4235 134.617   8
   2  18  10 267.191 266.977   2
   2  18  10 45.1624 158.167   3
   2  18 -10 159.000 199.883   1
  -2 -18  10 137.601 117.215   7
   2  18 -10 151.932 192.402   4
  -2  18  11 934.022 317.962   2
  -2 -18  11 258.408 142.319   6
  -2  18  11 708.547 262.789   3
   2 -18 -11 635.544 175.654   5
   2 -18 -11 941.800 149.424   8
  -2 -18 -11 364.137 166.801   5
  -2 -18 -11 463.174 178.663   8
   2  18  11 1273.40 339.130   2
   2  18  11 291.913 190.623   3
  -2 -18  11 446.235 162.597   7
   2  18 -11 214.168 242.050   1
   2  18 -11 463.106 234.435   4
  -2 -18  12 229.482 126.337   6
  -2  18  12 36.1349 273.663   2
  -2  18  12 512.330 206.045   3
   2 -18 -12 526.278 146.585   5
   2 -18 -12 313.732 123.159   8
  -2 -18 -12 218.934 138.932   5
  -2 -18 -12 291.531 155.302   8
   2  18  12 471.171 276.671   2
   2  18  12 424.423 188.869   3
  -2 -18  12 232.288 131.469   7
   2  18 -12-26.2656 204.531   4
  -2 -18  13 399.154 147.594   6
  -2  18  13-292.940 288.597   2
  -2  18  13 533.759 205.965   3
   2 -18 -13 518.628 145.905   5
   2 -18 -13 572.973 140.647   8
  -2 -18 -13 712.023 160.254   5
  -2 -18 -13 404.263 163.721   8
   2  18  13 1192.33 306.455   2
   2  18  13 66.6923 155.518   3
  -2 -18  13 373.739 145.650   7
   2  18 -13 53.3277 210.052   4
  -2  18  14 888.320 290.957   2
  -2  18  14 924.290 222.187   3
   2 -18 -14 583.159 160.810   5
   2 -18 -14 450.787 149.856   8
  -2 -18 -14 538.302 158.056   5
  -2 -18 -14 359.481 183.042   8
   2  18  14 1099.85 300.037   2
   2  18  14 198.903 166.607   3
  -2 -18  14 375.662 141.451   7
   2  18 -14 379.617 218.502   4
  -2  18  15 483.931 288.345   2
   2 -18 -15 548.172 165.326   5
  -2  18  15 732.538 232.602   3
   2 -18 -15 392.863 138.722   8
  -2 -18 -15 571.176 172.281   8
  -2 -18 -15 611.468 160.195   5
   2  18  15 419.229 298.222   2
   2  18  15 461.266 181.258   3
  -2 -18  15-15.7318 141.603   7
   2  18 -15 192.502 219.867   4
  -2  18  16-37.6433 245.088   2
   2 -18 -16 248.834 130.991   5
  -2  18  16 50.8824 173.808   3
   2 -18 -16 53.2966 94.4482   8
  -2 -18 -16 72.6523 162.109   8
  -2 -18 -16 57.4405 115.686   5
   2  18  16 70.7180 264.798   2
   2  18  16 109.193 143.261   3
  -2 -18  16-31.6388 129.858   7
   2  18 -16 307.158 227.749   4
  -2 -18  17 334.421 151.886   7
  -3  18   2 349.760 250.077   3
   3 -18  -2 265.010 180.668   5
  -3  18   3 29.3862 238.749   3
   3 -18  -3 416.439 194.479   5
  -3  18   4 207.042 249.938   3
   3 -18  -4 712.954 203.327   5
   3  18   4 410.710 259.993   2
  -3 -18  -4 538.418 144.883   5
   3  18   4 221.244 182.587   3
  -3  18   5 59.4397 238.299   3
   3 -18  -5-21.5156 156.240   5
   3  18   5 31.5472 230.768   2
  -3 -18  -5 14.8884 107.371   5
  -3 -18  -5 71.7315 115.919   8
   3  18   5 65.9778 147.970   3
  -3  18   5 93.4549 214.232   2
  -3  18   6 887.120 281.340   3
   3 -18  -6 520.502 172.230   5
   3 -18  -6 438.554 129.813   8
  -3 -18  -6 452.486 162.162   8
   3  18   6 754.768 274.921   2
   3  18   6 221.345 178.017   3
  -3  18   6 764.732 257.841   2
  -3  18   7 147.713 230.619   3
   3 -18  -7 20.2068 149.089   5
   3 -18  -7 198.276 92.2815   8
  -3 -18  -7 280.461 125.811   5
  -3 -18  -7 46.7264 125.767   8
   3  18   7 94.0881 262.328   2
   3  18   7 87.9986 156.222   3
  -3  18   7 618.223 252.828   2
  -3  18   8 412.172 240.941   3
   3 -18  -8 333.132 150.141   5
   3 -18  -8 282.886 118.516   8
  -3 -18  -8 193.165 131.383   5
  -3 -18  -8 189.013 138.133   8
   3  18   8 908.126 261.262   2
   3  18   8 87.5307 155.052   3
  -3  18   8 398.280 238.324   2
  -3 -18   9-47.1289 99.1008   6
  -3  18   9-175.898 209.320   3
   3 -18  -9-18.7261 129.288   5
   3 -18  -9 23.8176 93.5925   8
  -3 -18  -9-66.6656 116.065   5
  -3 -18  -9 81.6839 137.135   8
   3  18   9 470.094 255.210   2
   3  18   9-44.0696 155.401   3
   3  18  -9 156.109 207.190   1
  -3 -18   9 15.7545 115.649   7
   3  18  -9-73.8119 182.676   4
  -3  18   9 202.500 236.026   2
  -3 -18  10 207.215 125.553   6
  -3  18  10 174.831 236.608   3
   3 -18 -10 548.693 153.973   5
   3 -18 -10 542.436 125.476   8
  -3 -18 -10 288.752 157.277   8
  -3 -18 -10 275.785 149.399   5
   3  18  10 316.000 262.920   2
   3  18  10 197.042 176.921   3
  -3 -18  10 125.903 137.922   7
   3  18 -10 423.065 233.782   1
   3  18 -10 150.984 200.062   4
  -3  18  10 68.5676 265.886   2
  -3 -18  11 306.787 119.744   6
  -3  18  11 231.576 240.162   3
   3 -18 -11 251.109 155.533   5
   3 -18 -11 48.8246 100.546   8
  -3 -18 -11 229.703 164.290   8
  -3 -18 -11 123.148 145.323   5
   3  18  11 507.923 277.772   2
   3  18  11-152.141 165.378   3
  -3 -18  11 392.800 145.907   7
   3  18 -11-76.8195 192.714   4
   3  18 -11 27.0451 218.430   1
  -3  18  11 278.224 279.145   2
  -3  18  12 458.474 266.451   2
  -3 -18  12 327.612 117.985   6
   3  18 -12 55.1721 222.519   1
  -3  18  12 479.287 251.841   3
   3 -18 -12 563.955 153.454   5
   3 -18 -12 444.666 129.893   8
  -3 -18 -12 539.215 170.805   8
  -3 -18 -12 364.057 148.344   5
   3  18  12 280.643 173.556   3
   3  18  12 480.037 265.580   2
  -3 -18  12 78.9397 125.540   7
   3  18 -12 576.053 230.638   4
  -3  18  13 357.747 282.312   2
  -3 -18  13 16.5747 119.693   6
  -3  18  13 559.212 225.522   3
   3 -18 -13 399.592 143.254   5
   3 -18 -13 162.508 119.868   8
  -3 -18 -13 525.201 181.728   8
  -3 -18 -13 659.276 146.199   5
   3  18 -13 223.085 210.894   1
   3  18  13 326.575 169.062   3
   3  18  13 162.663 265.869   2
  -3 -18  13 330.375 127.310   7
   3  18 -13-53.5071 212.770   4
  -3  18  14 684.096 284.029   2
  -3 -18  14 335.586 137.543   6
  -3  18  14 194.148 215.318   3
   3 -18 -14 744.052 156.431   5
   3 -18 -14 366.357 130.713   8
  -3 -18 -14 650.444 202.899   8
  -3 -18 -14 467.265 173.354   5
   3  18  14 325.164 172.192   3
   3  18  14 626.156 278.991   2
  -3 -18  14 457.868 144.669   7
   3  18 -14 84.9654 218.634   1
   3  18 -14 244.770 238.809   4
  -3  18  15 766.033 306.572   2
  -3 -18  15 68.1399 112.124   6
  -3  18  15 192.678 194.522   3
   3 -18 -15 151.353 136.817   5
   3 -18 -15 523.764 127.835   8
   3  18 -15 28.6021 213.403   1
  -3 -18 -15 160.312 170.034   8
  -3 -18 -15-40.1703 136.045   5
   3  18  15 43.1748 146.463   3
   3  18  15-33.6687 258.901   2
  -3 -18  15 157.531 127.331   7
   3  18 -15 221.743 209.217   4
  -3 -18  16 465.733 140.892   6
  -3  18  16 268.473 209.278   3
   3 -18 -16 268.507 146.085   5
  -3 -18 -16 573.170 198.296   8
  -3 -18 -16 538.214 170.088   5
   3  18  16 666.499 186.330   3
   3  18 -16 28.9590 205.667   1
  -3 -18  16 268.755 136.264   7
   3  18 -16 565.604 247.811   4
  -3 -18  17-209.489 123.020   6
   3  18 -17 28.6859 202.118   4
  -4 -18  -5 143.989 115.803   5
   4  18   5 88.4125 230.268   2
   4  18   5 130.539 160.547   3
  -4  18   6 176.319 235.355   3
   4 -18  -6 134.455 178.468   5
  -4 -18  -6 66.0633 135.159   8
  -4 -18  -6 281.450 128.150   5
   4  18   6 117.338 222.469   2
   4  18   6 107.634 142.204   3
  -4  18   7 325.417 241.761   3
   4 -18  -7 194.203 161.489   5
  -4 -18  -7-17.1077 149.966   8
  -4 -18  -7 222.691 130.670   5
   4  18   7-204.644 213.072   2
   4  18   7 194.822 157.744   3
  -4  18   8-88.6746 226.011   3
   4 -18  -8 20.8685 151.482   5
  -4 -18  -8-17.7604 143.350   8
  -4 -18  -8 227.480 127.546   5
   4  18   8-64.4480 147.099   3
   4  18   8 87.6718 215.390   2
   4  18  -8 23.9552 175.906   1
  -4  18   8-128.404 225.493   2
  -4 -18   9 16.1905 112.464   6
  -4  18   9 177.873 236.168   3
   4 -18  -9 181.976 138.537   5
   4 -18  -9 82.4103 90.5681   8
  -4 -18  -9-36.0547 160.116   8
  -4 -18  -9 72.3656 134.992   5
   4  18   9 21.6158 155.107   3
   4  18   9-58.6100 240.220   2
  -4 -18   9 16.8096 142.085   7
   4  18  -9-24.8949 194.433   1
   4  18  -9-144.522 187.490   4
  -4  18   9 32.6629 243.508   2
  -4 -18  10 147.629 121.047   6
  -4  18  10 29.6861 228.567   3
   4 -18 -10 115.516 152.035   5
   4 -18 -10 155.014 106.208   8
  -4 -18 -10 37.6109 151.976   8
  -4 -18 -10 392.059 152.798   5
   4  18  10-21.4665 150.109   3
   4  18  10 58.8989 243.572   2
  -4 -18  10 183.784 151.072   7
   4  18 -10 50.8341 204.644   1
   4  18 -10 147.751 204.565   4
  -4  18  10-265.688 249.180   2
  -4 -18  11-66.0967 117.850   6
  -4  18  11-29.6558 217.870   3
   4 -18 -11 18.7668 126.463   5
   4 -18 -11 156.655 97.3194   8
  -4 -18 -11 78.7620 163.576   8
  -4 -18 -11 114.597 143.681   5
   4  18  11 21.3226 134.804   3
   4  18  11-59.8299 235.258   2
  -4 -18  11 16.5986 128.995   7
   4  18 -11 201.308 194.609   4
  -4  18  11 33.7434 243.044   2
   4  18 -11 78.7065 201.471   1
  -4 -18  12 83.2348 110.203   6
   4  18 -12 27.0075 205.299   1
  -4  18  12 175.139 207.747   3
   4 -18 -12 348.601 138.293   5
   4 -18 -12 121.777 108.061   8
  -4 -18 -12 40.2252 178.742   8
  -4 -18 -12 275.804 144.422   5
   4  18  12 21.5023 132.950   3
  -4 -18  12 49.4766 134.641   7
   4  18  12 60.5809 228.355   2
   4  18 -12 179.584 201.994   4
  -4  18  12 68.1963 230.119   2
  -4 -18  13 201.772 125.373   6
  -4  18  13 203.655 233.979   3
   4 -18 -13 89.9063 132.300   5
   4  18 -13 27.4005 207.652   1
   4 -18 -13 307.596 109.378   8
  -4 -18 -13 275.494 183.367   8
  -4 -18 -13 243.954 142.354   5
   4  18  13 107.084 167.443   3
  -4 -18  13 247.899 150.680   7
   4  18  13 495.343 246.194   2
   4  18 -13 341.319 195.649   4
  -4  18  13 345.277 247.404   2
  -4 -18  14 204.448 126.103   6
  -4  18  14 405.671 235.919   3
   4 -18 -14 174.169 148.092   5
   4 -18 -14 411.075 117.079   8
  -4 -18 -14 412.562 184.701   8
  -4 -18 -14 461.301 163.857   5
   4  18 -14 56.1679 207.189   1
   4  18  14 106.669 141.375   3
  -4 -18  14 180.345 125.578   7
   4  18  14 378.604 255.320   2
   4  18 -14 510.169 241.337   4
  -4  18  14 209.773 257.695   2
  -4 -18  15 17.2353 111.228   6
  -4  18  15 317.260 215.649   3
   4 -18 -15 189.285 132.240   5
  -4 -18 -15 137.890 206.285   8
  -4 -18 -15 107.482 142.883   5
   4  18 -15 57.4383 218.682   1
   4  18  15 106.520 154.335   3
  -4 -18  15 32.8338 126.713   7
   4  18  15 64.9082 253.922   2
   4  18 -15 245.949 209.637   4
  -4 -18  16 279.036 126.803   6
  -4 -18 -16 88.7549 151.149   5
   4  18 -16-29.0686 228.860   1
  -4 -18  16 162.968 142.231   7
   4  18  16 21.2956 143.162   3
   4  18 -16-363.097 211.695   4
  -4 -18  17 17.6303 113.185   6
   4  18 -17 142.614 213.486   4
  -5 -18  -6-127.151 128.448   5
   5  18   6-27.0815 197.475   2
   5  18   6 21.8247 138.701   3
  -5 -18  -7 226.118 162.919   8
  -5 -18  -7 205.483 130.881   5
   5  18   7 153.162 161.370   3
   5  18   7-81.1086 209.676   2
   5  18  -8 88.0246 189.634   1
  -5 -18  -8 197.101 164.934   8
  -5 -18  -8 229.073 146.556   5
   5  18   8-86.6332 145.086   3
   5  18   8 406.592 232.222   2
   5  18  -8 237.775 184.241   4
  -5 -18   9-88.1520 126.916   6
   5  18  -9 23.0311 184.607   1
  -5 -18  -9 41.4046 173.274   8
  -5 -18  -9 216.209 150.271   5
  -5 -18   9-55.2942 147.743   7
   5  18   9 21.4948 164.331   3
   5  18   9-272.876 232.403   2
   5  18  -9-67.2100 191.353   4
  -5 -18  10-52.7795 121.719   6
  -5  18  10-118.006 228.839   3
   5 -18 -10-201.906 147.274   5
   5  18 -10 23.5961 172.047   1
  -5 -18 -10-105.740 174.003   8
  -5 -18 -10-40.4906 136.928   5
  -5 -18  10 18.2010 145.627   7
   5  18  10-129.717 150.759   3
   5  18  10 386.608 230.566   2
   5  18 -10-22.8907 175.168   4
  -5 -18  11 228.130 123.053   6
  -5  18  11-297.385 243.845   3
   5 -18 -11-137.404 146.561   5
   5  18 -11 24.5741 169.157   1
  -5 -18 -11 223.460 192.145   8
  -5 -18 -11 41.4663 142.800   5
  -5 -18  11 89.7677 131.586   7
   5  18  11 107.558 143.537   3
   5  18  11-141.039 216.586   2
  -5  18  11 195.781 223.487   2
   5  18 -11 71.1772 186.038   4
  -5 -18  12-124.265 133.773   6
  -5  18  12-118.649 225.142   3
   5 -18 -12 95.7635 130.496   5
  -5 -18 -12-45.8892 193.728   8
  -5 -18 -12-106.983 145.132   5
   5  18 -12 25.5080 195.690   1
  -5 -18  12 88.8005 133.833   7
   5  18  12 21.6917 135.399   3
   5  18  12 57.5773 205.551   2
   5  18 -12 98.3736 200.899   4
  -5  18  12 197.939 223.763   2
  -5 -18  13 318.657 126.567   6
  -5  18  13 29.7677 218.651   3
   5 -18 -13 299.247 134.069   5
   5 -18 -13 146.442 101.224   8
  -5 -18 -13 243.693 210.925   8
  -5 -18 -13 21.9277 143.386   5
  -5 -18  13-35.5292 144.347   7
   5  18 -13 52.8269 202.985   1
   5  18  13 86.7261 140.430   3
   5  18  13 88.8933 234.555   2
   5  18 -13 51.0033 201.477   4
  -5  18  13-133.612 235.502   2
  -5 -18  14 17.6544 102.296   6
  -5  18  14 627.743 259.157   3
   5 -18 -14-251.906 131.552   5
   5 -18 -14 123.623 88.2865   8
  -5 -18 -14 25.1206 207.420   8
  -5 -18 -14-22.5039 147.476   5
  -5 -18  14 140.248 136.848   7
   5  18  14 173.617 144.972   3
   5  18 -14 53.7181 204.912   1
   5  18 -14 442.616 208.993   4
  -5  18  14 33.8148 185.072   2
  -5 -18  15-124.282 120.462   6
  -5 -18 -15 46.1777 157.337   5
  -5 -18  15 34.6359 131.480   7
   5  18  15 131.715 137.055   3
   5  18 -15 27.6985 216.221   1
   5  18 -15 133.211 207.976   4
  -5 -18  16 125.053 127.036   6
  -5 -18  16 17.3167 106.352   7
  -6 -18  -7-273.160 175.426   8
  -6 -18  -7 41.1992 142.970   5
   6  18   7-68.5754 144.930   3
   6  18   7-49.9547 186.022   2
  -6 -18  -8 154.801 178.714   8
  -6 -18  -8 209.899 144.119   5
  -6 -18   8 63.1107 167.924   7
   6  18   8 22.8489 144.481   3
   6  18  -8 191.265 152.856   4
   6  18   8 403.307 202.170   2
   6  18  -8 39.8342 150.595   1
  -6 -18   8-56.8487 135.377   6
  -6 -18  -9 22.6329 186.627   8
  -6 -18  -9 21.4341 144.765   5
  -6 -18   9-61.9914 164.585   7
   6  18   9 273.483 153.219   3
   6  18  -9-159.540 155.168   4
   6  18  -9-20.9170 146.319   1
  -6 -18   9-132.432 127.788   6
  -6 -18 -10 264.074 205.623   8
  -6 -18  10 40.6034 156.302   7
   6  18  10 160.044 143.473   3
   6  18 -10-207.897 158.371   4
   6  18 -10 21.8943 141.665   1
  -6 -18  10-57.2985 129.557   6
   6  18 -11 22.4590 166.194   1
  -6 -18 -11 229.973 213.279   8
  -6 -18  11 139.647 146.522   7
   6  18  11-45.8452 140.090   3
   6  18 -11 151.760 174.398   4
  -6 -18  11-152.847 135.395   6
   6  18 -12-234.268 178.453   1
  -6 -18 -12 290.624 227.566   8
  -6 -18  12 19.6024 151.439   7
   6  18  12 69.2436 146.350   3
   6  18 -12-22.5942 183.418   4
  -6 -18  12-38.1400 130.510   6
  -6 -18  13-152.377 133.264   6
   6  18 -13 48.7630 174.835   1
  -6 -18 -13 246.417 219.487   8
  -6 -18  13-38.5065 138.084   7
   6  18 -13-23.1467 177.618   4
  -6 -18  14 75.9447 124.434   6
   6  18 -14-25.3350 203.457   1
  -6 -18 -14-88.1574 244.429   8
  -6 -18  14 307.489 160.137   7
   6  18 -14 480.828 205.269   4
  -6 -18  15 359.467 152.409   6
   6  18 -15-74.8670 197.279   4
   7  18  -7 16.9793 118.269   1
   7  18  -8-89.2307 127.119   1
  -7 -18   8 23.5609 177.694   7
   7  18  -8-16.8745 132.815   4
  -7 -18   8-60.9122 134.149   6
  -7 -18  -9-25.5866 202.378   8
  -7 -18   9 115.384 170.146   7
   7  18  -9 131.308 152.161   1
   7  18  -9 158.854 147.277   4
  -7 -18   9 61.4439 134.774   6
  -7 -18 -10-54.6927 228.257   8
  -7 -18  10 67.8164 169.183   7
   7  18 -10 59.0552 137.777   1
   7  18 -10-295.538 142.806   4
  -7 -18  10 61.4534 134.603   6
  -7 -18  11 22.5882 163.797   7
   7  18 -11 144.341 153.696   1
   7  18 -11 135.361 148.447   4
  -7 -18  11 20.4842 145.696   6
  -7 -18  12-22.0763 154.530   7
   7  18 -12 20.2225 157.987   4
   7  18 -12-194.296 161.023   1
  -7 -18  12 20.4606 140.799   6
  -7 -18  13 345.085 176.918   7
   7  18 -13 145.441 152.959   4
   7  18 -13 66.3477 182.937   1
  -7 -18  13 224.596 144.573   6
   7  18 -14 390.992 175.948   4
  -7 -18  14-20.4062 127.107   6
   8  18  -7 107.095 105.678   1
   8  18  -7-71.8781 113.020   4
   8  18  -8 64.0960 127.416   1
  -8 -18   8 351.097 206.941   7
   8  18  -8 149.411 124.560   4
  -8 -18   8 282.093 153.107   6
   8  18  -9-117.433 128.305   1
  -8 -18   9 79.4277 194.379   7
   8  18  -9-15.5449 115.912   4
  -8 -18   9 43.3382 154.135   6
   8  18 -10 52.7715 135.987   1
  -8 -18  10-103.486 200.623   7
   8  18 -10-80.9047 127.681   4
  -8 -18  10-21.8556 151.625   6
   8  18 -11 18.4501 135.439   1
  -8 -18  11 50.5291 181.854   7
   8  18 -11-84.9546 135.311   4
  -8 -18  11 109.229 148.847   6
   8  18 -12 19.3038 142.852   1
  -8 -18  12-172.532 191.782   7
   8  18 -12 142.656 136.874   4
  -8 -18  12 21.8554 154.197   6
   8  18 -13 56.1518 139.624   4
  -8 -18  13-131.188 149.095   6
   9  18  -7 28.4555 108.206   1
   9  18  -7 25.3228 98.7287   4
  -9 -18   7 114.998 156.149   6
   9  18  -8 103.005 116.822   1
  -9 -18   8 150.707 215.638   7
   9  18  -8 13.2400 105.625   4
  -9 -18   8 161.146 151.028   6
   9  18  -9-169.550 114.932   1
  -9 -18   9-29.8791 195.258   7
   9  18  -9 235.242 113.453   4
  -9 -18   9 69.1636 149.948   6
   9  18 -10 112.597 120.059   1
  -9 -18  10 29.3880 220.087   7
   9  18 -10 28.8727 118.103   4
  -9 -18  10 507.465 178.907   6
   9  18 -11 16.8057 108.458   1
  -9 -18  11 230.197 206.420   7
   9  18 -11 60.2587 119.022   4
  -9 -18  11-23.0719 166.238   6
  10  18  -7-22.5365 89.0689   4
 -10 -18   7 96.5895 158.826   6
  10  18  -7 149.828 106.748   1
  10  18  -8 98.1339 107.611   1
  10  18  -8-118.169 96.2974   4
 -10 -18   8 72.6153 182.429   6
 -10 -18   9 190.168 215.606   7
  10  18  -9 185.548 103.520   4
 -10 -18   9 485.397 192.143   6
  10  18 -10-25.9439 104.164   4
 -10 -18  10-73.0637 161.550   6
  11  18  -7 99.6353 88.0053   4
 -11 -18   7 249.387 183.502   6
  11  18  -8 20.8667 79.0094   4
 -11 -18   8 175.542 167.183   6
   0  19   2 64.4340 236.715   2
   0  19   3-26.9719 199.537   3
   0 -19  -3 50.6951 129.241   5
   0 -19  -3-49.6297 103.917   8
   0  19   3-132.632 240.596   2
   0  19   4-169.273 253.263   2
   0  19   4-26.7385 195.547   3
   0 -19  -4 50.5108 118.303   5
   0 -19  -4 50.2456 101.075   8
   0  19   5 185.453 199.227   3
   0 -19  -5-67.7818 121.518   5
   0 -19  -5 25.3650 107.987   8
   0  19   6 70.5888 290.117   2
   0  19   6 26.2117 220.696   3
   0 -19  -6 118.374 134.272   5
   0 -19  -6-38.4081 112.167   8
   0  19   7 357.964 291.438   2
   0  19   7 388.991 220.175   3
   0 -19  -7 404.795 153.843   5
   0 -19  -7 504.794 141.894   8
   0  19   8 36.1659 294.996   2
   0 -19  -8-84.0890 126.472   5
   0  19   8 51.3039 193.332   3
   0 -19  -8-170.410 116.639   8
   0  19   9 218.945 256.372   2
   0 -19  -9 134.224 128.920   5
   0  19   9-50.6126 180.096   3
   0 -19  -9-13.2936 117.258   8
   0  19  10 183.767 270.844   2
   0 -19 -10 16.7854 118.936   5
   0  19  10-49.9880 174.836   3
   0 -19 -10-80.9493 120.732   8
   0  19  11 184.436 294.929   2
   0 -19 -11 134.829 121.871   5
   0  19  11 50.2579 168.529   3
   0 -19 -11 13.6897 111.048   8
   0 -19 -12-152.933 124.506   5
   0 -19 -12 69.6112 113.301   8
   0  19  12 124.342 174.830   3
   0  19  13-186.925 273.338   2
   0 -19 -13 137.282 124.333   5
   0 -19 -13 112.500 122.449   8
   0  19  13 393.951 174.553   3
   0 -19 -14-51.9893 122.272   5
   0  19  14 171.059 161.250   3
  -1  19   2-318.804 217.166   3
   1 -19  -2-134.313 141.421   5
   1 -19  -2 24.0100 93.6211   8
  -1  19   2-219.783 234.334   2
   1  19   3-202.077 262.890   2
  -1  19   3-57.6328 229.476   3
   1 -19  -3 75.3926 136.217   5
   1 -19  -3-12.1299 95.3384   8
  -1  19   3 257.827 237.479   2
   1  19   4-34.5145 262.288   2
  -1  19   4-28.5879 203.696   3
   1 -19  -4 37.0574 135.575   5
  -1 -19  -4 157.209 117.871   5
   1 -19  -4 171.556 111.481   8
   1  19   4 75.1038 185.621   3
  -1 -19  -4 12.8842 104.735   8
  -1  19   4 33.1467 247.359   2
   1  19   5 349.139 275.619   2
  -1  19   5 368.027 231.650   3
   1 -19  -5-36.4798 139.600   5
  -1 -19  -5 127.246 121.485   5
   1 -19  -5 37.1069 100.377   8
   1  19   5-99.0419 187.747   3
  -1 -19  -5 52.2096 112.613   8
  -1  19   5 575.587 269.076   2
   1  19   6 176.151 298.849   2
  -1  19   6 420.336 243.166   3
   1 -19  -6 520.567 180.573   5
  -1 -19  -6 527.695 165.293   5
   1 -19  -6 513.238 144.993   8
   1  19   6 514.448 225.972   3
  -1 -19  -6 772.017 167.352   8
  -1  19   6 551.673 288.825   2
  -1  19   7 140.228 275.491   2
   1  19   7-106.394 292.387   2
  -1  19   7 110.852 208.825   3
   1 -19  -7-106.246 133.433   5
  -1 -19  -7-112.906 119.752   5
   1 -19  -7 101.234 106.842   8
  -1 -19  -7 107.973 119.768   8
   1  19   7-194.258 188.241   3
  -1  19   8 71.2042 265.645   2
   1  19   8 427.405 282.071   2
  -1  19   8 191.702 207.067   3
   1 -19  -8 491.250 148.818   5
  -1 -19  -8 212.171 129.152   5
   1 -19  -8 140.422 114.801   8
  -1 -19  -8 109.695 116.680   8
   1  19   8 244.474 178.719   3
  -1  19   9 180.448 260.321   2
   1  19   9-107.298 299.818   2
  -1  19   9 27.0657 191.635   3
   1 -19  -9 278.663 133.759   5
   1 -19  -9 77.2986 105.639   8
  -1 -19  -9 33.0646 119.265   5
  -1 -19  -9 181.787 130.018   8
   1  19   9-24.2290 171.719   3
  -1  19  10 328.953 268.332   2
   1  19  10-71.8489 267.764   2
  -1  19  10-80.1607 188.501   3
   1 -19 -10-138.350 131.351   5
   1 -19 -10 78.1420 104.834   8
  -1 -19 -10-16.7452 129.455   5
  -1 -19 -10-112.923 115.407   8
   1  19  10-24.0504 175.923   3
  -1  19  11 370.084 266.987   2
   1  19  11 324.994 280.516   2
   1 -19 -11 206.094 129.731   5
  -1  19  11 237.571 193.109   3
   1 -19 -11 105.525 115.354   8
  -1 -19 -11 50.9110 117.533   5
  -1 -19 -11 14.4811 117.464   8
   1  19  11 23.9396 163.376   3
  -1  19  12 411.288 263.622   2
   1  19  12 72.6280 274.634   2
   1 -19 -12 153.786 124.710   5
  -1  19  12 469.464 204.915   3
   1 -19 -12 120.435 122.553   8
  -1 -19 -12 68.6858 128.670   5
  -1 -19 -12 29.7497 134.737   8
   1  19  12 119.194 160.464   3
  -1 -19  12 187.196 127.086   7
  -1  19  13 113.240 278.200   2
   1  19  13-146.255 283.513   2
   1 -19 -13 153.399 127.164   5
  -1  19  13 128.642 176.177   3
   1 -19 -13-67.5816 109.545   8
  -1 -19 -13 156.917 130.557   5
  -1 -19 -13 30.6502 131.399   8
   1  19  13 237.481 170.354   3
  -1 -19  13-119.736 123.758   7
   1 -19 -14 187.926 137.376   5
  -1 -19 -14 35.4333 130.014   5
   1  19  14-47.2194 164.077   3
  -2  19   1 29.8119 238.969   3
   2 -19  -1-45.4652 159.014   5
  -2  19   2 358.255 257.085   3
   2 -19  -2 88.2855 156.629   5
  -2  19   3-29.7747 242.470   3
   2 -19  -3 128.259 161.088   5
  -2  19   3-157.106 218.811   2
  -2  19   4 593.397 263.383   3
   2  19   4 1056.67 327.972   2
   2 -19  -4 685.353 209.172   5
  -2  19   4 610.875 272.854   2
  -2  19   5 884.422 284.699   3
   2  19   5 410.351 291.767   2
   2 -19  -5 484.686 198.144   5
   2 -19  -5 546.460 152.658   8
  -2 -19  -5 419.505 155.691   5
  -2 -19  -5 95.6975 138.080   8
   2  19   5 376.246 206.325   3
  -2  19   6 29.2313 211.829   3
   2  19   6 308.664 266.501   2
   2 -19  -6 491.809 167.625   5
   2 -19  -6 318.051 114.437   8
  -2 -19  -6 110.626 130.165   5
  -2 -19  -6 208.972 129.448   8
   2  19   6 46.8612 178.967   3
  -2  19   6 67.3399 240.197   2
  -2  19   7 578.695 233.746   3
   2  19   7 515.382 267.272   2
   2 -19  -7 365.159 160.930   5
   2 -19  -7 308.812 113.977   8
  -2 -19  -7 208.984 129.845   5
  -2 -19  -7 542.353 136.215   8
   2  19   7-23.5970 178.923   3
  -2  19   7 240.039 260.296   2
  -2  19   8 400.385 223.136   3
   2 -19  -8 432.444 144.895   5
   2  19   8 309.969 258.921   2
   2 -19  -8 212.230 116.083   8
  -2 -19  -8 147.405 127.788   5
  -2 -19  -8 351.067 134.059   8
   2  19   8-70.5752 164.665   3
  -2  19   8 278.957 269.646   2
  -2  19   9-28.2775 200.904   3
   2 -19  -9 165.902 136.274   5
   2  19   9 241.623 285.038   2
   2 -19  -9 12.6231 105.324   8
  -2 -19  -9 133.061 126.374   5
  -2 -19  -9 180.358 125.714   8
   2  19   9 46.9053 160.606   3
  -2  19   9 106.176 254.236   2
  -2  19  10 287.123 263.617   2
  -2  19  10 307.308 216.486   3
   2 -19 -10 416.111 142.369   5
   2  19  10 553.944 272.508   2
   2 -19 -10 306.193 119.591   8
  -2 -19 -10 135.628 142.595   5
  -2 -19 -10 231.816 145.713   8
   2  19  10 256.397 184.936   3
  -2  19  11 36.3929 267.173   2
  -2  19  11 248.443 213.309   3
   2 -19 -11 35.6154 132.295   5
   2 -19 -11-51.4705 96.0073   8
   2  19  11 139.076 265.833   2
  -2 -19 -11 17.3180 129.624   5
  -2 -19 -11 250.088 135.460   8
   2  19  11-92.6662 162.077   3
   2  19 -11-219.468 215.633   1
   2  19 -11 26.7937 195.209   4
  -2  19  12 258.095 267.824   2
   2  19 -12 27.6490 199.092   1
  -2  19  12 709.308 222.307   3
   2 -19 -12 528.479 151.777   5
   2 -19 -12 299.021 125.145   8
   2  19  12 35.0539 284.160   2
  -2 -19 -12 274.276 149.819   8
  -2 -19 -12 53.4621 130.244   5
   2  19  12 116.567 168.321   3
  -2 -19  12 50.0938 129.112   7
   2  19 -12 108.550 197.859   4
  -2  19  13 26.9618 195.020   3
   2 -19 -13 138.665 126.735   5
   2 -19 -13 13.1215 100.741   8
  -2 -19 -13 434.098 169.346   8
  -2 -19 -13 110.223 137.242   5
   2  19  13 211.798 287.205   2
   2  19  13 23.1864 163.293   3
  -2 -19  13 201.183 129.607   7
   2  19 -13-110.105 195.080   4
   2  19 -13 361.264 214.061   1
  -2 -19 -14 113.487 141.824   5
   2  19 -14 223.084 214.317   1
   2  19  14 184.239 181.681   3
  -2 -19  14 302.097 145.250   7
  -2 -19  15 50.4689 130.675   7
  -3  19   3 484.649 263.930   3
   3 -19  -3 405.681 193.866   5
  -3  19   4-91.0611 254.550   3
   3 -19  -4 206.524 177.398   5
  -3  19   5-60.7426 231.368   3
   3 -19  -5 22.1337 165.588   5
   3  19   5 98.5504 256.427   2
  -3  19   6 30.3114 258.451   3
   3 -19  -6 362.498 192.209   5
   3  19   6 688.765 277.640   2
  -3 -19  -6 299.183 155.214   8
  -3 -19  -6 450.191 151.072   5
   3  19   6 298.092 178.492   3
  -3  19   6 783.464 264.982   2
  -3  19   7 603.290 263.661   3
   3 -19  -7 412.684 159.962   5
   3 -19  -7 194.225 101.129   8
   3  19   7 65.5288 230.084   2
  -3 -19  -7 153.404 136.863   8
  -3 -19  -7 82.9207 128.450   5
   3  19   7 69.2158 161.349   3
  -3  19   7-33.2849 255.278   2
  -3  19   8 270.037 235.847   3
   3 -19  -8 400.109 157.961   5
   3 -19  -8 294.083 111.410   8
   3  19   8 196.594 240.748   2
  -3 -19  -8 205.192 146.676   8
  -3 -19  -8 325.624 141.109   5
   3  19   8 114.684 157.448   3
  -3  19   8 169.467 254.444   2
  -3  19   9 178.594 219.296   3
   3 -19  -9 233.291 164.281   5
   3 -19  -9 185.564 108.309   8
  -3 -19  -9 211.655 146.460   8
  -3 -19  -9 191.978 141.019   5
   3  19   9 393.377 268.004   2
   3  19   9 250.377 170.748   3
  -3  19   9 620.664 248.140   2
  -3  19  10-29.0069 211.277   3
   3 -19 -10 18.9609 129.189   5
   3 -19 -10-50.0276 102.804   8
  -3 -19 -10 134.655 150.544   8
  -3 -19 -10-126.153 124.425   5
   3  19  10 197.093 270.822   2
   3  19  10 45.1686 146.845   3
  -3  19  10-34.9829 266.479   2
  -3 -19  11 84.5578 123.399   6
  -3  19  11 114.781 221.433   3
   3 -19 -11 500.616 148.226   5
   3 -19 -11 265.021 123.263   8
  -3 -19 -11 341.103 148.629   8
  -3 -19 -11 372.139 141.797   5
   3  19  11 560.410 257.784   2
   3  19  11 68.2224 166.567   3
   3  19 -11 82.5573 226.245   1
  -3 -19  11 223.271 142.908   7
   3  19 -11 26.7940 199.203   4
  -3  19  11 106.423 266.390   2
  -3 -19  12 137.107 117.297   6
  -3  19  12 28.4004 202.782   3
   3 -19 -12-127.300 132.983   5
   3 -19 -12 12.7467 103.487   8
  -3 -19 -12 70.9153 144.379   8
  -3 -19 -12 115.271 134.930   5
   3  19  12-200.119 249.489   2
   3  19  12-248.261 166.940   3
  -3 -19  12 17.0875 129.238   7
   3  19 -12 194.462 219.044   1
   3  19 -12-27.2703 200.177   4
  -3 -19  13 138.613 117.359   6
   3 -19 -13 211.307 127.004   5
  -3 -19 -13 162.229 166.257   8
  -3 -19 -13 97.9246 138.954   5
   3  19  13 370.393 280.560   2
   3  19  13 493.618 183.507   3
  -3 -19  13 67.9683 141.332   7
   3  19 -13 367.037 236.393   1
   3  19 -13-193.501 191.038   4
   3  19 -14-28.4146 212.565   1
  -3 -19  14 35.1343 116.477   6
  -3 -19 -14 20.1957 154.962   5
   3  19  14-22.2963 157.922   3
  -3 -19  14 68.0596 137.722   7
   3  19 -14-28.1588 211.431   4
  -3 -19  15 17.7592 117.698   6
   3  19 -15 256.809 225.269   4
   4  19   6 245.571 250.073   2
  -4  19   7 301.856 247.228   3
   4 -19  -7 442.107 183.691   5
  -4 -19  -7 864.639 180.496   8
  -4 -19  -7 681.244 176.091   5
   4  19   7 489.014 261.249   2
   4  19   7 336.259 191.696   3
  -4  19   8 241.615 232.977   3
   4 -19  -8 21.3095 149.121   5
  -4 -19  -8 137.585 150.908   8
  -4 -19  -8 73.9957 132.366   5
   4  19   8 30.6622 240.597   2
   4  19   8 90.1699 153.607   3
  -4  19   9 211.190 245.081   3
   4 -19  -9 225.956 167.080   5
  -4 -19  -9 160.587 140.443   8
  -4 -19  -9 18.8744 132.614   5
   4  19   9 368.310 251.632   2
   4  19   9 134.121 155.139   3
  -4  19   9-100.158 236.422   2
  -4  19  10 267.192 216.400   3
   4 -19 -10 59.7226 146.931   5
  -4 -19 -10 92.6719 156.262   8
  -4 -19 -10-58.3316 141.320   5
   4  19  10 30.7853 227.860   2
   4  19  10 22.4945 145.063   3
   4  19 -10 77.0997 206.159   1
  -4  19  10 67.6767 235.787   2
  -4 -19  11 223.227 122.662   6
  -4  19  11 29.5167 215.022   3
   4 -19 -11 19.3339 132.368   5
   4 -19 -11 12.4401 93.4764   8
  -4 -19 -11 94.2076 163.236   8
  -4 -19 -11 120.083 144.680   5
   4  19  11-217.046 261.058   2
   4  19  11-111.618 149.404   3
  -4 -19  11-53.9047 140.303   7
   4  19 -11 53.0393 198.406   1
  -4  19  11-308.541 247.769   2
   4  19 -11 158.090 187.398   4
  -4 -19  12 208.096 115.541   6
  -4  19  12 29.3389 222.194   3
   4 -19 -12 131.881 138.260   5
  -4 -19 -12 196.622 170.704   8
  -4 -19 -12-265.831 153.408   5
   4  19  12 378.211 240.368   2
   4  19  12 133.146 148.245   3
  -4 -19  12 18.0070 146.650   7
   4  19 -12 27.2513 210.124   1
   4  19 -12-80.2788 203.448   4
  -4 -19  13 263.347 135.477   6
  -4 -19 -13 63.1882 138.189   5
   4  19  13-22.3776 151.538   3
  -4 -19  13 249.659 139.473   7
   4  19 -13 81.9166 204.327   4
   4  19 -13-165.427 211.577   1
  -4 -19  14 88.7103 123.632   6
  -4 -19  14 335.595 141.217   7
   4  19 -14 167.158 216.202   4
   5  19   7 169.534 219.288   2
  -5 -19  -8-18.8225 155.279   8
  -5 -19  -8 279.879 143.802   5
   5  19   8 454.662 223.612   2
   5  19   8-45.4724 153.654   3
  -5 -19  -9-97.9706 160.059   8
  -5 -19  -9-61.2237 140.279   5
   5  19   9 228.059 206.823   2
   5  19   9 45.0972 152.250   3
   5  19 -10-23.7670 175.370   1
  -5 -19 -10-19.9457 162.179   8
  -5 -19 -10-125.909 141.349   5
   5  19  10 344.362 206.759   2
   5  19  10 67.9856 138.716   3
   5  19 -10 398.993 195.525   4
  -5 -19  11 88.9017 112.788   6
  -5  19  11 357.370 231.174   3
   5 -19 -11 40.4187 151.638   5
   5  19 -11-24.6982 176.746   1
  -5 -19 -11 188.220 176.977   8
  -5 -19 -11-85.8327 158.563   5
  -5 -19  11 136.126 151.743   7
   5  19  11 145.999 210.510   2
   5  19  11 67.5499 147.600   3
   5  19 -11-25.3805 194.388   4
  -5 -19  12-17.9696 122.394   6
   5  19 -12-537.665 202.853   1
  -5 -19 -12-22.0450 185.923   8
  -5 -19 -12 44.2274 144.215   5
  -5 -19  12-38.3164 147.913   7
   5  19  12-148.174 229.214   2
   5  19  12 45.3489 140.459   3
   5  19 -12-51.8106 201.823   4
  -5 -19  13-36.1215 123.863   6
   5  19 -13 26.4607 198.824   1
  -5 -19 -13-203.524 161.662   5
  -5 -19  13 38.2842 151.647   7
   5  19  13-181.095 157.166   3
   5  19 -13 158.583 204.346   4
  -5 -19  14-54.4819 114.904   6
   5  19 -14-295.860 219.147   4
   6  19   8-130.988 198.566   2
  -6 -19  -9-21.7751 179.391   8
   6  19   9 263.901 191.851   2
   6  19   9 23.8892 149.609   3
  -6 -19 -10 178.175 191.957   8
  -6 -19  10 87.7896 165.524   7
   6  19  10-143.604 170.330   3
   6  19  10 240.658 208.119   2
   6  19 -10 67.3752 170.601   4
   6  19 -10-110.166 156.826   1
  -6 -19  10 95.9153 126.132   6
  -6 -19  11-267.463 139.903   6
  -6 -19 -11 117.890 189.743   8
  -6 -19  11 129.236 154.603   7
   6  19  11-95.8912 164.238   3
   6  19  11-164.182 205.583   2
   6  19 -11 92.9679 164.089   4
   6  19 -11-22.9899 160.276   1
  -6 -19  12-134.970 134.152   6
   6  19 -12-140.887 174.703   1
  -6 -19  12-359.544 160.618   7
   6  19 -12 120.301 168.572   4
  -6 -19  13 153.568 132.560   6
   6  19 -13 149.462 193.383   4
   7  19  -9 18.8769 137.526   1
  -7 -19 -10-250.322 221.571   8
  -7 -19  10-48.6693 174.521   7
   7  19 -10-59.3786 145.653   1
   7  19 -10-199.646 162.390   4
  -7 -19  10-20.4981 133.634   6
  -7 -19  11 95.2827 187.273   7
   7  19 -11 20.6978 149.673   1
   7  19 -11 145.513 162.901   4
  -7 -19  11-81.8429 149.710   6
   7  19 -12 173.190 162.782   4
  -7 -19  12 41.2620 142.779   6
   8  19  -9-17.2091 119.171   1
   8  19  -9-100.289 129.909   4
   8  19 -10 72.0853 132.305   1
  -8 -19  10 221.739 190.538   7
   8  19 -10-52.3670 133.464   4
  -8 -19  10-87.1776 152.435   6
   9  19  -9-44.5417 115.210   4
  -9 -19   9 322.234 175.034   6
   0  20   4 163.484 192.368   3
   0 -20  -4 195.247 144.111   5
   0 -20  -4 249.954 113.404   8
   0  20   4 239.976 239.434   2
   0  20   5-53.9427 204.735   3
   0 -20  -5 35.3771 128.363   5
   0 -20  -5-106.374 102.406   8
   0  20   6 641.769 289.773   2
   0 -20  -6 299.318 151.631   5
   0  20   6 240.313 207.567   3
   0 -20  -6 254.996 122.462   8
   0  20   7-216.817 272.301   2
   0 -20  -7-106.099 138.034   5
   0 -20  -7-40.5099 102.504   8
   0  20   8 438.973 298.652   2
   0 -20  -8 317.014 140.467   5
   0  20   8 286.750 211.963   3
   0 -20  -8 231.710 123.009   8
   0  20   9-74.0072 287.858   2
   0 -20  -9 105.484 131.045   5
   0  20   9-77.2276 182.319   3
   0 -20  -9-68.6787 120.955   8
   0  20  10 37.3277 266.548   2
   0 -20 -10-140.950 123.283   5
   0 -20 -10 138.878 124.920   8
   0  20  10-178.291 194.751   3
   0 -20 -11 17.7177 124.790   5
   0  20  11-230.344 191.678   3
  -1  20   3-259.154 219.115   3
   1 -20  -3-98.9025 144.359   5
  -1  20   3 98.5600 219.340   2
  -1  20   4-28.5372 212.683   3
   1 -20  -4-97.2492 137.188   5
   1 -20  -4-12.8326 107.427   8
  -1  20   4 235.282 233.068   2
   1  20   5 141.528 277.128   2
  -1  20   5 508.780 226.354   3
   1 -20  -5 248.396 156.255   5
   1 -20  -5 194.158 115.937   8
  -1 -20  -5 250.387 134.895   5
  -1 -20  -5 272.681 127.903   8
   1  20   5 176.929 195.208   3
  -1  20   5 171.521 243.143   2
   1  20   6 358.078 271.834   2
  -1  20   6-27.9562 218.273   3
   1 -20  -6 56.4294 144.901   5
   1 -20  -6 52.2202 106.438   8
  -1 -20  -6-67.4713 124.398   5
  -1 -20  -6 13.8001 116.633   8
   1  20   6 75.1826 174.591   3
  -1  20   6 105.233 257.531   2
   1  20   7 902.805 308.188   2
  -1  20   7 506.385 238.442   3
   1 -20  -7 334.665 165.532   5
   1 -20  -7 513.858 141.714   8
  -1 -20  -7 357.886 159.623   5
  -1 -20  -7 614.460 152.689   8
   1  20   7 397.705 204.152   3
  -1  20   7 570.093 286.547   2
   1  20   8-363.558 296.478   2
  -1  20   8 444.757 212.333   3
   1 -20  -8 92.0725 137.632   5
   1 -20  -8 93.1293 116.314   8
  -1 -20  -8-120.681 129.926   5
  -1 -20  -8 212.199 123.210   8
   1  20   8 75.0541 185.722   3
  -1  20   8 325.286 253.252   2
  -1  20   9-219.895 281.837   2
   1  20   9 475.253 302.950   2
  -1  20   9 82.3222 197.690   3
   1 -20  -9 255.297 133.224   5
   1 -20  -9 93.9388 109.327   8
  -1 -20  -9 104.583 137.911   5
  -1 -20  -9 71.6220 118.279   8
   1  20   9 148.983 175.476   3
  -1  20  10 111.339 242.755   2
   1  20  10-293.808 283.954   2
   1 -20 -10 90.2699 136.029   5
  -1  20  10-54.1732 199.153   3
  -1 -20 -10 105.597 128.200   5
  -1 -20 -10 230.895 125.171   8
   1  20  10-123.542 168.733   3
  -1 -20 -11-17.7964 136.665   5
   1  20  11 123.002 163.171   3
  -2  20   2-244.019 245.961   3
   2 -20  -2-45.3695 152.193   5
  -2  20   3 30.4063 231.698   3
   2 -20  -3-66.0014 160.987   5
  -2  20   4 362.520 237.365   3
   2 -20  -4 363.248 181.402   5
  -2  20   4 328.564 260.415   2
  -2  20   5 209.794 227.988   3
   2 -20  -5-20.7977 154.001   5
  -2  20   5 234.480 227.709   2
   2  20   6 738.306 279.957   2
  -2  20   6 711.970 248.003   3
   2 -20  -6 547.273 181.309   5
   2 -20  -6 434.524 138.668   8
  -2 -20  -6 229.589 136.390   8
  -2 -20  -6 250.548 157.981   5
   2  20   6 386.791 175.401   3
  -2  20   6 921.684 274.079   2
   2  20   7 352.119 278.362   2
  -2  20   7 205.148 220.139   3
   2 -20  -7 197.861 146.067   5
   2 -20  -7 38.6496 104.873   8
  -2 -20  -7 319.803 132.221   8
  -2 -20  -7-16.9967 122.523   5
   2  20   7-121.706 164.090   3
  -2  20   7 453.225 258.651   2
   2  20   8 423.399 299.719   2
  -2  20   8 636.848 252.720   3
   2 -20  -8 942.482 191.064   5
   2 -20  -8 740.140 153.387   8
  -2 -20  -8 606.480 166.314   8
  -2 -20  -8 484.277 175.118   5
   2  20   8-24.2625 194.646   3
  -2  20   8 531.287 284.769   2
   2  20   9 176.881 281.815   2
  -2  20   9 57.1678 207.144   3
   2 -20  -9 19.1984 133.002   5
   2 -20  -9 183.192 115.559   8
  -2 -20  -9 317.901 127.483   8
  -2 -20  -9 70.1460 135.737   5
   2  20   9 24.1151 177.967   3
  -2  20   9 287.500 264.888   2
  -2  20  10 112.872 203.190   3
   2  20  10-106.558 260.786   2
   2 -20 -10 18.6311 135.299   5
  -2 -20 -10 137.326 130.452   8
  -2 -20 -10-17.8812 135.848   5
   2  20  10-23.9580 172.544   3
  -2 -20 -11 146.943 149.581   5
   2  20  11-48.2003 179.996   3
  -3  20   4 277.287 238.375   3
   3 -20  -4 193.036 187.441   5
  -3  20   5 582.463 269.571   3
   3 -20  -5 810.809 220.723   5
  -3  20   6 182.818 234.219   3
   3 -20  -6 133.934 166.309   5
  -3  20   7 604.189 251.428   3
   3 -20  -7 495.526 178.643   5
   3  20   7 472.141 271.114   2
  -3 -20  -7 386.671 166.460   8
  -3 -20  -7 265.190 152.066   5
   3  20   7 23.7987 181.243   3
  -3  20   8 149.528 222.563   3
   3 -20  -8 208.451 156.135   5
   3  20   8 33.7249 266.164   2
  -3 -20  -8 174.427 135.745   8
  -3 -20  -8 305.645 143.416   5
   3  20   8-118.019 157.645   3
  -3  20   8 171.999 240.807   2
  -3  20   9 354.883 236.270   3
   3 -20  -9 283.222 160.717   5
   3  20   9 337.572 296.817   2
  -3 -20  -9 162.617 132.682   8
  -3 -20  -9 74.1089 148.067   5
   3  20   9-23.7530 169.667   3
   3  20  10 33.8600 272.264   2
  -3 -20 -10 114.881 146.020   8
  -3 -20 -10-57.2936 139.645   5
   3  20  10-117.754 161.883   3
  -3 -20 -11 38.8656 142.740   5
   3  20  11 23.3532 165.463   3
  -3 -20  13 272.399 128.718   6
  -3 -20  13-111.646 141.847   7
   3  20 -13-200.349 212.569   4
  -4  20   8 666.959 256.274   3
   4 -20  -8 421.114 172.336   5
  -4 -20  -8 426.870 166.846   8
   4  20   8 253.832 254.121   2
  -4 -20  -8 270.794 162.463   5
   4  20   8 23.2347 170.959   3
  -4 -20  -9-17.2281 138.566   8
   4  20   9 348.768 266.157   2
  -4 -20  -9-79.5468 139.698   5
   4  20   9-93.4213 176.018   3
  -4 -20 -10-17.8078 147.891   8
  -4 -20 -10 121.613 152.655   5
   4  20  10 510.810 256.503   2
   4  20  10 92.6044 160.819   3
  -4 -20 -11 104.177 133.302   5
   4  20  11 23.2997 160.584   3
  -5 -20  -9 281.444 171.041   8
  -5 -20  -9 128.189 151.735   5
   5  20   9-29.4365 234.731   2
   5  20   9 94.2930 154.928   3
  -5 -20 -10-175.446 159.338   8
  -5 -20 -10-65.3652 140.241   5
   5  20  10 29.7443 178.110   2
   5  20  10-93.5471 151.185   3
   6  20  10-175.105 165.932   3
   0  21   5 493.220 290.150   2
   0 -21  -6 73.9959 139.906   5
   0  21   6 135.277 187.598   3
   0 -21  -6-55.8971 109.079   8
   0  21   6-107.207 259.265   2
   0 -21  -7 55.3284 146.089   5
   0  21   7 26.7251 192.503   3
  -1  21   4 169.962 238.336   2
  -1  21   5 57.1501 199.513   3
   1 -21  -5 218.443 145.928   5
   1 -21  -5 13.5271 107.287   8
  -1  21   5 173.291 253.835   2
   1  21   6 825.932 288.185   2
  -1  21   6 84.7855 218.111   3
   1 -21  -6 336.408 166.962   5
   1 -21  -6 299.109 130.890   8
   1  21   6 357.396 205.052   3
  -1  21   7 27.9174 191.081   3
   1 -21  -7 97.7957 144.158   5
  -1 -21  -7 14.4351 114.620   8
  -1 -21  -7-18.0315 136.900   5
   1  21   7-25.3560 182.535   3
  -1 -21  -8 54.6145 160.751   5
   1  21   8 178.636 181.526   3
  -2  21   4-30.0552 216.381   3
   2 -21  -4 67.3633 165.524   5
  -2  21   5-29.7351 233.743   3
   2 -21  -5 415.002 176.753   5
  -2  21   5 577.659 256.234   2
  -2  21   6-88.1859 213.306   3
   2 -21  -6 85.0647 157.351   5
   2  21   7 285.740 319.074   2
   2  21   7 349.868 200.516   3
   2  21   8 496.967 213.927   3
  -3  21   5-122.511 237.228   3
   3 -21  -5-95.4783 178.042   5
   3  21   8 145.009 162.683   3
   0   0   0    0.00    0.00   0

TITL GKME_11 in P4/mnc
REM P4/mnc (#128 in standard setting)
CELL 0.68890  19.378492  19.378492  32.523080  90.0000  90.0000  90.0000
ZERR   16.00   0.001041   0.001041   0.002286   0.0000   0.0000   0.0000
LATT  1
SYMM -x,-y, z
SYMM -y, x, z
SYMM  y,-x, z
SYMM -x+1/2, y+1/2,-z+1/2
SYMM  x+1/2,-y+1/2,-z+1/2
SYMM  y+1/2, x+1/2,-z+1/2
SYMM -y+1/2,-x+1/2,-z+1/2
SFAC C H O Hf
UNIT 704.00 576.00 128.00 16.00
TREF
HKLF 4
END
;
_shelx_hkl_checksum              84555
_shelx_shelxl_version_number     2014/7
_olex2_submission_special_instructions 'No special instructions were received'
_oxdiff_exptl_absorpt_empirical_details
;
Empirical correction (ABSPACK) includes:
- Absorption correction using spherical harmonics
- Frame scaling
;
_oxdiff_exptl_absorpt_empirical_full_max 2.812
_oxdiff_exptl_absorpt_empirical_full_min 0.391
loop_
_space_group_symop_operation_xyz
'x, y, z'
'-x, -y, z'
'-y, x, z'
'y, -x, z'
'-x+1/2, y+1/2, -z+1/2'
'x+1/2, -y+1/2, -z+1/2'
'y+1/2, x+1/2, -z+1/2'
'-y+1/2, -x+1/2, -z+1/2'
'-x, -y, -z'
'x, y, -z'
'y, -x, -z'
'-y, x, -z'
'x-1/2, -y-1/2, z-1/2'
'-x-1/2, y-1/2, z-1/2'
'-y-1/2, -x-1/2, z-1/2'
'y-1/2, x-1/2, z-1/2'
loop_
_atom_site_label
_atom_site_type_symbol
_atom_site_fract_x
_atom_site_fract_y
_atom_site_fract_z
_atom_site_U_iso_or_equiv
_atom_site_adp_type
_atom_site_occupancy
_atom_site_site_symmetry_order
_atom_site_calc_flag
_atom_site_refinement_flags_posn
_atom_site_refinement_flags_adp
_atom_site_refinement_flags_occupancy
Hf1 Hf -0.04202(7) 0.12174(6) 0.0000 0.0575(6) Uani 1 2 d DS TU P
Hf2 Hf 0.0000 0.0000 0.07538(4) 0.0492(6) Uani 1 4 d DS TU P
O1 O -0.0282(7) 0.0895(6) 0.1115(4) 0.061(4) Uiso 1 1 d D U .
O4 O -0.0804(8) 0.0380(7) 0.0373(4) 0.075(4) Uiso 1 1 d . U .
O13 O -0.0556(8) 0.1734(8) 0.0593(4) 0.091(5) Uiso 1 1 d D U .
O19 O -0.1451(11) 0.1632(11) 0.0000 0.080(6) Uiso 1 2 d S TU P
O20 O 0.0164(12) 0.2180(12) 0.0000 0.086(7) Uiso 1 2 d S TU P
C3 C -0.0706(4) 0.3111(7) 0.1918(4) 0.073(6) Uiso 1 1 d D U .
C4 C -0.0879(7) 0.3253(7) 0.1497(6) 0.110(9) Uiso 1 1 d D U .
H4 H -0.1032 0.3689 0.1421 0.132 Uiso 1 1 calc R . .
C5 C -0.0816(8) 0.2735(9) 0.1207(4) 0.100(8) Uiso 1 1 d D U .
H5 H -0.0929 0.2831 0.0935 0.120 Uiso 1 1 calc R . .
C6 C -0.0589(5) 0.2071(8) 0.1308(5) 0.070(6) Uiso 1 1 d D U .
C7 C -0.0418(7) 0.1931(7) 0.1728(5) 0.081(7) Uiso 1 1 d D U .
H7 H -0.0266 0.1495 0.1806 0.097 Uiso 1 1 calc R . .
C8 C -0.0480(7) 0.2452(9) 0.2020(4) 0.099(8) Uiso 1 1 d D U .
H8 H -0.0366 0.2356 0.2292 0.118 Uiso 1 1 calc R . .
C9 C -0.0767(5) 0.3637(6) 0.2216(3) 0.061(5) Uiso 1 1 d D U .
C16 C -0.0245(7) 0.4129(7) 0.2219(5) 0.068(6) Uiso 1 1 d DG U .
C15 C -0.0248(18) 0.4718(18) 0.2507(13) 0.067(8) Uiso 1 2 d DG U .
C10 C -0.1292(8) 0.3696(7) 0.2502(5) 0.065(8) Uiso 1 2 d DG U .
C11 C -0.1835(4) 0.3165(4) 0.2500 0.083(10) Uiso 1 2 d DS TU P
C12 C -0.0528(7) 0.1548(7) 0.1008(4) 0.094(8) Uiso 1 1 d D U .
C17 C 0.0309(7) 0.4164(9) 0.1975(5) 0.141(12) Uiso 1 1 d D U .
H H 0.0667 0.3875 0.2084 0.211 Uiso 1 1 calc GR . .
HA H 0.0469 0.4632 0.1963 0.211 Uiso 1 1 calc GR . .
HB H 0.0188 0.4009 0.1704 0.211 Uiso 1 1 calc GR . .
loop_
_atom_site_aniso_label
_atom_site_aniso_U_11
_atom_site_aniso_U_22
_atom_site_aniso_U_33
_atom_site_aniso_U_23
_atom_site_aniso_U_13
_atom_site_aniso_U_12
Hf1 0.0761(10) 0.0574(9) 0.0390(10) 0.000 0.000 0.0082(8)
Hf2 0.0563(8) 0.0563(8) 0.0351(12) 0.000 0.000 0.000
loop_
_atom_type_symbol
_atom_type_description
_atom_type_scat_dispersion_real
_atom_type_scat_dispersion_imag
_atom_type_scat_source
C C 0.0030 0.0010 'International Tables Vol C Tables 4.2.6.8 and 6.1.1.4'
H H 0.0000 0.0000 'International Tables Vol C Tables 4.2.6.8 and 6.1.1.4'
Hf Hf -0.2930 6.1080 'International Tables Vol C Tables 4.2.6.8 and 6.1.1.4'
O O 0.0110 0.0060 'International Tables Vol C Tables 4.2.6.8 and 6.1.1.4'
loop_
_geom_angle_atom_site_label_1
_geom_angle_atom_site_label_2
_geom_angle_atom_site_label_3
_geom_angle
_geom_angle_site_symmetry_1
_geom_angle_site_symmetry_3
Hf1 Hf1 Hf1 90.0 11 3
Hf2 Hf1 Hf1 59.705(12) . 11
Hf2 Hf1 Hf2 88.97(4) 9 .
O4 Hf1 Hf1 88.9(4) . 11
O4 Hf1 Hf2 88.6(4) 11 .
O4 Hf1 Hf2 88.1(4) 10 .
O4 Hf1 Hf2 88.1(4) . 9
O4 Hf1 O4 68.4(8) . 10
O4 Hf1 O4 106.8(8) 11 .
O4 Hf1 O4 69.3(7) 4 .
O4 Hf1 O13 139.7(6) 11 .
O4 Hf1 O13 75.9(5) 4 .
O4 Hf1 O13 78.9(5) . .
O4 Hf1 O13 142.9(6) 10 .
O4 Hf1 O19 144.8(4) 4 .
O4 Hf1 O20 145.2(4) . .
O4 Hf1 O20 86.8(6) 4 .
O13 Hf1 Hf1 108.0(4) . 11
O13 Hf1 Hf1 111.0(4) . 3
O13 Hf1 Hf2 162.5(4) 10 .
O13 Hf1 Hf2 73.7(4) . .
O13 Hf1 O13 123.6(8) . 10
O19 Hf1 Hf1 175.9(6) . 11
O19 Hf1 Hf1 85.9(6) . 3
O19 Hf1 Hf2 117.9(4) . .
O19 Hf1 O4 87.7(6) . .
O19 Hf1 O13 73.6(5) . .
O19 Hf1 O20 99.4(8) . .
O20 Hf1 Hf1 84.7(6) . 11
O20 Hf1 Hf1 174.7(6) . 3
O20 Hf1 Hf2 117.1(4) . .
O20 Hf1 O13 70.8(5) . .
Hf1 Hf2 Hf1 91.03(4) . 9
Hf1 Hf2 Hf1 60.59(2) . 3
O1 Hf2 Hf1 111.3(3) 2 3
O1 Hf2 Hf1 168.3(3) . 9
O1 Hf2 Hf1 77.4(3) . .
O1 Hf2 Hf1 111.3(3) 3 .
O1 Hf2 Hf1 113.4(3) . 3
O1 Hf2 Hf1 168.3(3) 2 .
O1 Hf2 Hf1 77.4(3) 3 3
O1 Hf2 O1 72.9(3) 3 .
O1 Hf2 O1 114.3(7) 2 .
O4 Hf2 Hf1 90.3(4) 3 .
O4 Hf2 Hf1 89.8(4) 2 .
O4 Hf2 O1 141.3(6) . 2
O4 Hf2 O1 81.6(5) . .
O4 Hf2 O1 79.4(5) 4 .
O4 Hf2 O1 141.3(6) 2 .
O4 Hf2 O1 144.8(6) 3 .
O4 Hf2 O4 108.6(8) 2 .
O4 Hf2 O4 70.1(4) 4 .
C12 O1 Hf2 132.6(10) . .
Hf1 O4 Hf1 111.0(6) 3 .
Hf2 O4 Hf1 109.6(7) . .
Hf2 O4 Hf1 110.9(6) . 3
C12 O13 Hf1 136.8(11) . .
C8 C3 C4 118.4(6) . .
C8 C3 C9 121.8(14) . .
C9 C3 C4 119.8(14) . .
C3 C4 H4 120.2 . .
C5 C4 C3 119.5(12) . .
C5 C4 H4 120.2 . .
C4 C5 H5 118.9 . .
C4 C5 C6 122.1(12) . .
C6 C5 H5 118.9 . .
C5 C6 C7 118.2(6) . .
C5 C6 C12 121.4(14) . .
C12 C6 C7 120.4(14) . .
C6 C7 H7 120.2 . .
C8 C7 C6 119.6(12) . .
C8 C7 H7 120.2 . .
C3 C8 H8 118.9 . .
C7 C8 C3 122.1(12) . .
C7 C8 H8 118.9 . .
C16 C9 C3 115.9(3) . .
C16 C9 C10 118.3 . .
C10 C9 C3 125.7(3) . .
C9 C16 C15 121.4(7) . 7_455
C15 C16 C9 122.2 . .
C17 C16 C9 128.0(2) . .
C17 C16 C15 110.4(7) . 7_455
C17 C16 C15 109.8(2) . .
C9 C10 C11 117.7(2) . .
O1 C12 O13 119.1(13) . .
O1 C12 C6 120.4(13) . .
O13 C12 C6 118.8(13) . .
C16 C17 H 109.5 . .
C16 C17 HA 109.5 . .
C16 C17 HB 109.5 . .
H C17 HA 109.5 . .
H C17 HB 109.5 . .
HA C17 HB 109.5 . .
loop_
_geom_bond_atom_site_label_1
_geom_bond_atom_site_label_2
_geom_bond_distance
_geom_bond_site_symmetry_2
Hf1 Hf1 3.5296(17) 3
Hf1 Hf2 3.4984(14) .
Hf1 O4 2.126(15) 4
Hf1 O4 2.158(15) .
Hf1 O13 2.187(12) .
Hf1 O19 2.15(2) .
Hf1 O20 2.18(2) .
Hf2 O1 2.165(11) .
Hf2 O4 2.122(14) .
O1 C12 1.397(8) .
O13 C12 1.399(8) .
C3 C4 1.436(19) .
C3 C8 1.39(2) .
C3 C9 1.412(6) .
C4 H4 0.9300 .
C4 C5 1.385(9) .
C5 H5 0.9300 .
C5 C6 1.40(2) .
C6 C7 1.431(19) .
C6 C12 1.412(6) .
C7 H7 0.9300 .
C7 C8 1.389(9) .
C8 H8 0.9300 .
C9 C16 1.3900 .
C16 C17 1.336(4) .
C15 C16 1.50(2) 7_455
C15 C15 1.45(2) 8
C10 C9 1.391(11) 7_455
C10 C11 1.471(4) .
C17 H 0.9600 .
C17 HA 0.9600 .
C17 HB 0.9600 .
loop_
_geom_torsion_atom_site_label_1
_geom_torsion_atom_site_label_2
_geom_torsion_atom_site_label_3
_geom_torsion_atom_site_label_4
_geom_torsion
_geom_torsion_site_symmetry_4
Hf1 O13 C12 O1 9(2) .
Hf1 O13 C12 C6 174.2(10) .
Hf2 O1 C12 O13 -7(2) .
Hf2 O1 C12 C6 -171.9(7) .
C3 C4 C5 C6 0.1(4) .
C3 C9 C16 C15 176(2) 7_455
C3 C9 C16 C15 176(2) .
C3 C9 C16 C17 0(3) .
C3 C9 C10 C9 -177.2(15) 7_455
C3 C9 C10 C11 2.0(19) .
C4 C3 C8 C7 -0.1(3) .
C4 C3 C9 C16 -77.3(12) .
C4 C3 C9 C10 103.4(19) .
C4 C5 C6 C7 0.1(3) .
C4 C5 C6 C12 180.0(2) .
C5 C6 C7 C8 -0.1(4) .
C5 C6 C12 O1 178.2(11) .
C5 C6 C12 O13 13.5(13) .
C6 C7 C8 C3 0.1(4) .
C7 C6 C12 O1 -1.9(11) .
C7 C6 C12 O13 -166.6(13) .
C8 C3 C4 C5 -0.1(3) .
C8 C3 C9 C16 102.8(12) .
C8 C3 C9 C10 -76.6(19) .
C9 C3 C4 C5 179.8(12) .
C9 C3 C8 C7 180.0(2) .
C16 C9 C10 C11 -179.0(4) .
C10 C9 C16 C15 -4(3) 7_455
C10 C9 C16 C15 -2.0 .
C10 C9 C16 C17 179.12(14) .
C12 C6 C7 C8 179.9(12) .
