#------------------------------------------------------------------------------
#$Date: 2019-11-25 22:30:06 +0200 (Mon, 25 Nov 2019) $
#$Revision: 241967 $
#$URL: file:///home/coder/svn-repositories/cod/cif/4/13/18/4131843.cif $
#------------------------------------------------------------------------------
#
# This file is available in the Crystallography Open Database (COD),
# http://www.crystallography.net/
#
# All data on this site have been placed in the public domain by the
# contributors.
#
data_4131843
loop_
_publ_author_name
'Yan, Yong'
'O'Connor, Alice E'
'Kanthasamy, Gopikkaa'
'Atkinson, George'
'Allan, David R.'
'Blake, Alexander J.'
'Schr\"oder, Martin'
_publ_section_title
;
 Unusual and Tunable Negative Linear Compressibility in the Metal-Organic
 Framework MFM-133(M) (M = Zr, Hf).
;
_journal_issue                   11
_journal_name_full               'Journal of the American Chemical Society'
_journal_page_first              3952
_journal_page_last               3958
_journal_paper_doi               10.1021/jacs.7b11747
_journal_volume                  140
_journal_year                    2018
_chemical_formula_moiety         'C88 H72 Hf6 O32'
_chemical_formula_sum            'C88 H72 Hf6 O32'
_chemical_formula_weight         2708.36
_space_group_crystal_system      tetragonal
_space_group_IT_number           128
_space_group_name_Hall           '-P 4 2n'
_space_group_name_H-M_alt        'P 4/m n c'
_atom_sites_solution_hydrogens   geom
_audit_creation_date             2017-02-05
_audit_creation_method
;
Olex2 1.2
(compiled 2015.09.30 svn.r3233 for OlexSys, GUI svn.r5103)
;
_cell_angle_alpha                90
_cell_angle_beta                 90
_cell_angle_gamma                90
_cell_formula_units_Z            2
_cell_length_a                   18.9396(11)
_cell_length_b                   18.9396(11)
_cell_length_c                   32.817(2)
_cell_measurement_reflns_used    3453
_cell_measurement_temperature    293(2)
_cell_measurement_theta_max      13.6900
_cell_measurement_theta_min      1.9530
_cell_volume                     11771.7(12)
_computing_cell_refinement       'CrysAlisPro 1.171.38.41 (Rigaku OD, 2015)'
_computing_data_collection       'CrysAlisPro 1.171.38.41 (Rigaku OD, 2015)'
_computing_data_reduction        'CrysAlisPro 1.171.38.41 (Rigaku OD, 2015)'
_computing_molecular_graphics    'Olex2 (Dolomanov et al., 2009)'
_computing_publication_material  'Olex2 (Dolomanov et al., 2009)'
_computing_structure_refinement  'ShelXL (Sheldrick, 2015)'
_diffrn_ambient_temperature      293(2)
_diffrn_detector                 'CCD plate'
_diffrn_detector_area_resol_mean 16.1592
_diffrn_detector_type            Eos
_diffrn_measured_fraction_theta_full 0.934
_diffrn_measured_fraction_theta_max 0.934
_diffrn_measurement_details
;
List of Runs (angles in degrees, time in seconds):

  # Type    Start    End  Width  t~exp~   \w     \q     \k     \f   Frames
--------------------------------------------------------------------------
  1  \w      4.00  64.00   1.00   90.00    --   26.49   0.00 150.00   60
  2  \w     -5.00  44.00   1.00   90.00    --   26.49 -53.00  17.00   49
  3  \w    -49.00 -17.00   1.00   90.00    --   26.49 134.00 123.00   32
  4  \w    -30.00   6.00   1.00   90.00    --   26.49  39.00 -12.00   36
  5  \w    -25.00  13.00   1.00   90.00    --   26.49  13.00  -3.00   38
  6  \w      8.00  69.00   1.00   90.00    --   26.49 -97.00-143.00   61
  7  \w    -28.00 -15.00   1.00   90.00    --   26.49  97.00 -35.00   13
  8  \w    -57.00   1.00   1.00   90.00    --  -28.05  53.00 -17.00   58
  9  \w     -8.00  15.00   1.00   90.00    --  -28.05 -81.00  29.00   23
 10  \w      3.00  26.00   1.00   90.00    --  -28.05 -97.00  35.00   23
 11  \w    -21.00  13.00   1.00   90.00    --  -28.05 -53.00  17.00   34
 12  \w     -5.00  27.00   1.00   90.00    --  -28.05 -97.00-143.00   32
 13  \w    -20.00   8.00   1.00   90.00    --   26.49  81.00 151.00   28
 14  \w     -7.00  52.00   1.00   90.00    --   26.49 -37.00-180.00   59
 15  \w    -29.00 -15.00   1.00   90.00    --   26.49  97.00 -35.00   14
 16  \w     17.00  70.00   1.00   90.00    --   26.49-114.00  44.00   53
 17  \w    -52.00   6.00   1.00   90.00    --  -28.05  39.00 167.00   58
 18  \w    -25.00  29.00   1.00   90.00    --  -28.05 -39.00  12.00   54
 19  \w    -28.00  20.00   1.00   90.00    --  -28.05 -39.00-167.00   48
;
_diffrn_measurement_device       'four-circle diffractometer'
_diffrn_measurement_device_type  'SuperNova, Single source at offset, Eos'
_diffrn_measurement_method       '\w scans'
_diffrn_orient_matrix_type
'CrysAlisPro convention (1999,Acta A55,543-557)'
_diffrn_orient_matrix_UB_11      -0.0011940000
_diffrn_orient_matrix_UB_12      0.0326913000
_diffrn_orient_matrix_UB_13      0.0104659000
_diffrn_orient_matrix_UB_21      -0.0356868000
_diffrn_orient_matrix_UB_22      -0.0064441000
_diffrn_orient_matrix_UB_23      0.0054529000
_diffrn_orient_matrix_UB_31      0.0113870000
_diffrn_orient_matrix_UB_32      -0.0170448000
_diffrn_orient_matrix_UB_33      0.0181053000
_diffrn_radiation_monochromator  mirror
_diffrn_radiation_probe          x-ray
_diffrn_radiation_type           MoK\a
_diffrn_radiation_wavelength     0.71073
_diffrn_reflns_av_R_equivalents  0.4311
_diffrn_reflns_av_unetI/netI     0.1320
_diffrn_reflns_Laue_measured_fraction_full 0.934
_diffrn_reflns_Laue_measured_fraction_max 0.934
_diffrn_reflns_limit_h_max       12
_diffrn_reflns_limit_h_min       -12
_diffrn_reflns_limit_k_max       9
_diffrn_reflns_limit_k_min       -9
_diffrn_reflns_limit_l_max       21
_diffrn_reflns_limit_l_min       -21
_diffrn_reflns_number            22259
_diffrn_reflns_point_group_measured_fraction_full 0.934
_diffrn_reflns_point_group_measured_fraction_max 0.934
_diffrn_reflns_theta_full        13.729
_diffrn_reflns_theta_max         13.729
_diffrn_reflns_theta_min         1.963
_diffrn_source                   'micro-focus sealed X-ray tube'
_diffrn_source_type              'SuperNova (Mo) X-ray Source'
_exptl_absorpt_coefficient_mu    2.666
_exptl_absorpt_correction_T_max  0.840
_exptl_absorpt_correction_T_min  0.806
_exptl_absorpt_correction_type   gaussian
_exptl_absorpt_process_details
;
CrysAlisPro 1.171.38.41 (Rigaku Oxford Diffraction, 2015)
Numerical absorption correction based on gaussian integration over
			a multifaceted crystal model
Empirical absorption correction using spherical harmonics,
 implemented in SCALE3 ABSPACK scaling algorithm.
;
_exptl_crystal_density_diffrn    0.764
_exptl_crystal_F_000             2568
_exptl_crystal_size_max          0.124
_exptl_crystal_size_mid          0.092
_exptl_crystal_size_min          0.052
_refine_diff_density_max         2.851
_refine_diff_density_min         -2.621
_refine_diff_density_rms         0.383
_refine_ls_extinction_coef       0.0004(3)
_refine_ls_extinction_expression Fc^*^=kFc[1+0.001xFc^2^\l^3^/sin(2\q)]^-1/4^
_refine_ls_extinction_method     'SHELXL-2014/7 (Sheldrick 2014'
_refine_ls_goodness_of_fit_ref   1.906
_refine_ls_hydrogen_treatment    constr
_refine_ls_matrix_type           full
_refine_ls_number_parameters     77
_refine_ls_number_reflns         897
_refine_ls_number_restraints     108
_refine_ls_restrained_S_all      14.126
_refine_ls_R_factor_all          0.2039
_refine_ls_R_factor_gt           0.1637
_refine_ls_shift/su_max          0.354
_refine_ls_shift/su_mean         0.019
_refine_ls_structure_factor_coef Fsqd
_refine_ls_weighting_details
'w=1/[\s^2^(Fo^2^)+(0.2000P)^2^] where P=(Fo^2^+2Fc^2^)/3'
_refine_ls_weighting_scheme      calc
_refine_ls_wR_factor_gt          0.4166
_refine_ls_wR_factor_ref         0.4608
_reflns_Friedel_coverage         0.000
_reflns_number_gt                697
_reflns_number_total             897
_reflns_threshold_expression     'I > 2\s(I)'
_cod_data_source_file            HfMOF_All.cif
_cod_data_source_block           hfmof_29.2kbar
_cod_original_cell_volume        11771.7(16)
_cod_database_code               4131843
_chemical_oxdiff_formula         'C88 H72 Hf6 O32'
_chemical_oxdiff_usercomment     'HFMOF at 29.2 kbar'
_shelx_space_group_comment
;
The symmetry employed for this shelxl refinement is uniquely defined
by the following loop, which should always be used as a source of
symmetry information in preference to the above space-group names.
They are only intended as comments.
;
_reflns_odcompleteness_completeness 15.66
_reflns_odcompleteness_iscentric 1
_reflns_odcompleteness_theta     26.32
_olex2_refinement_description
;
1. Fixed Uiso
 At 1.2 times of:
  All C(H) groups
 At 1.5 times of:
  All C(H,H,H) groups
2. Restrained distances
 O13-C12
 1.41 with sigma of 0.01
 C12-O1
 1.41 with sigma of 0.01
 C6-C12 = C9-C3
 1.41 with sigma of 0.02
 C6-C12 = C9-C3
 1.41 with sigma of 0.01
 C9-C3 = C6-C12
 1.41 with sigma of 0.01
 Hf1-O13 = Hf2-O1
 2.11 with sigma of 0.02
 O1-C12 = O13-C12
 1.41 with sigma of 0.02
 C9-C15 = C9-C10
 1.41 with sigma of 0.02
 C10-C11 = C16-C17
 1.45 with sigma of 0.005
 C4-C5 = C7-C8
 1.39 with sigma of 0.01
 C6-C12 \\sim C9-C3
 with sigma of 0.01
 C9-C3 \\sim C6-C12
 with sigma of 0.01
 C11-C10 \\sim C16-C15 \\sim C17-C15
 with sigma of 0.01
 C9-C17 \\sim C15-C17 \\sim C9-C11 \\sim C11-C9D
 with sigma of 0.005
 C3-C7 \\sim C8-C6 \\sim C7-C5 \\sim C6-C4 \\sim C5-C3 \\sim C4-C8
 with sigma of 0.01
3. Restrained planarity
 C12, C6, C5, C4, C3, C9, C8, C7
 with sigma of 0.01
 C9, C3, C8, C7, C6, C12, C5, C4
 with sigma of 0.01
 C9, C3, C8, C4
 with sigma of 0.01
 C17, C15, C16, C10, C9, C11
 with sigma of 0.01
4. Rigid bond restraints
 C6, Hf2, Hf1, C8, C3, C5, C4, C7, C9, C10, C11, C12, C15, C16, C17, O1, O4,
 O13, O19, O20
 with sigma for 1-2 distances of 0.01 and sigma for 1-3 distances of 0.01
5. Uiso/Uaniso restraints and constraints
C6 \\sim Hf2 \\sim Hf1 \\sim C8 \\sim C3 \\sim C5 \\sim C4 \\sim C7 \\sim C9
\\sim C10 \\sim C11 \\sim C12 \\sim C15 \\sim C16 \\sim C17 \\sim O1 \\sim O4
\\sim O13 \\sim O19 \\sim O20: within 1.7A with sigma of 0.04 and sigma for
terminal atoms of 0.08
6. Same fragment restrains
{C16, C15, C15D, C9D, C10, C9} sigma for 1-2: 0.01, 1-3: 0.04
as
{C9, C16, C15, C15D, C9D, C10}
7. Others
 Fixed Sof: C16(0.5) C15(0.5) C15D(0.00001) C9D(0.00001) C10(0.5) C11(0.5)
 H11A(0.5) H11B(0.5) H11C(0.5)
 Fixed Uiso: C15D(0.05) C9D(0.05)
8.a Aromatic/amide H refined with riding coordinates:
 C4(H4), C5(H5), C7(H7), C8(H8)
8.b Fitted hexagon refined as free rotating group:
 C9(C16,C15,C15D,C9D,C10)
8.c Idealised Me refined as rotating group:
 C11(H11A,H11B,H11C), C17(H,HA,HB)
;
_shelx_res_file
;
    hfmof@29.0kbar.res created by SHELXL-2014/7

TITL HFMOF@29 in P4/mnc
REM P4/mnc (#128 in standard setting)
CELL 0.71073 18.939617 18.939617 32.816862 90 90 90
ZERR 2 0.001093 0.001093 0.00235 0 0 0
LATT 1
SYMM -X,-Y,+Z
SYMM -Y,+X,+Z
SYMM +Y,-X,+Z
SYMM 0.5-X,0.5+Y,0.5-Z
SYMM 0.5+X,0.5-Y,0.5-Z
SYMM 0.5+Y,0.5+X,0.5-Z
SYMM 0.5-Y,0.5-X,0.5-Z
SFAC C H Hf O
UNIT 176 136 12 64
DFIX 1.41 0.01 O13 C12
DFIX 1.41 0.01 C12 O1
DFIX 1.41 C6 C12 C9 C3
DFIX 1.41 0.01 C6 C12 C9 C3
DFIX 1.41 0.01 C9 C3 C6 C12
DFIX 2.11 Hf1 O13 Hf2 O1
DFIX 1.41 O1 C12 O13 C12
DFIX 1.41 C9 C15 C9 C10
DFIX 1.45 0.005 C10 C11 C16 C17
DFIX 1.39 0.01 C4 C5 C7 C8
SADI 0.01 C6 C12 C9 C3
SADI 0.01 C9 C3 C6 C12
SADI 0.01 C11 C10 C16 C15 C17 C15
SADI 0.005 C9 C17 C15 C17 C9 C11 C11 C9D
SADI 0.01 C3 C7 C8 C6 C7 C5 C6 C4 C5 C3 C4 C8
FLAT 0.01 C12 C6 C5 C4 C3 C9 C8 C7
FLAT 0.01 C9 C3 C8 C7 C6 C12 C5 C4
FLAT 0.01 C9 C3 C8 C4
FLAT 0.01 C17 C15 C16 C10 C9 C11
DELU C6 Hf2 Hf1 C8 C3 C5 C4 C7 C9 C10 C11 C12 C15 C16 C17 O1 O4 O13 O19 O20
SIMU 0.04 0.08 1.7 C6 Hf2 Hf1 C8 C3 C5 C4 C7 C9 C10 C11 C12 C15 C16 C17 O1 =
 O4 O13 O19 O20

L.S. 6
PLAN  9
MPLA 6 C3 C4 C5 C6 C7 C8
MPLA 4 C9 C10 C15 C16
BIND Hf1 Hf2
CONN 1 0 C17
FREE C17 C15D
FREE C17 C15
BIND C16 C17
BOND
MORE -1
BOND $H
CONF
fmap 2
acta 52
OMIT -4 52
REM <olex2.extras>
REM <HklSrc "%.\\HFMOF@29.0kbar.hkl">
REM </olex2.extras>

WGHT    0.200000
EXTI    0.000441
FVAR       0.11986
HF1   3   -0.044637    0.123233    0.000000    10.50000    0.05368    0.03986 =
         0.01365    0.00000    0.00000    0.00696
HF2   3    0.000000    0.000000    0.073710    10.25000    0.04220    0.04220 =
         0.00863    0.00000    0.00000    0.00000
O1    4   -0.026899    0.090854    0.108101    11.00000    0.03272
O4    4   -0.080103    0.031638    0.037332    11.00000    0.09261
O13   4   -0.065888    0.169639    0.058154    11.00000    0.03732
O19   4   -0.146716    0.159025    0.000000    10.50000    0.06140
O20   4    0.015135    0.222417    0.000000    10.50000    0.05347
C3    1   -0.069418    0.314682    0.193550    11.00000    0.05468
C4    1   -0.090978    0.331097    0.152022    11.00000    0.10206
SPEC 0.3
AFIX  43
H4    2   -0.107050    0.376149    0.145617    11.00000   -1.20000
AFIX   0
C5    1   -0.087576    0.279524    0.121929    11.00000    0.10280
AFIX  43
H5    2   -0.101559    0.291003    0.095583    11.00000   -1.20000
AFIX   0
C6    1   -0.063396    0.209685    0.130074    11.00000    0.06973
C7    1   -0.041847    0.193269    0.171595    11.00000    0.09248
AFIX  43
H7    2   -0.025793    0.148213    0.178005    11.00000   -1.20000
AFIX   0
C8    1   -0.045235    0.244854    0.201678    11.00000    0.08388
AFIX  43
H8    2   -0.031230    0.233379    0.228020    11.00000   -1.20000
AFIX  66
SAME 0.01 0.04 C16 C15 C15D C9D C10 C9
C9    1   -0.076267    0.373012    0.220038    11.00000    0.03309
PART -2
C16   1   -0.025400    0.425708    0.222742    10.50000   -0.00021
PART 0
C15   1   -0.025918    0.470935    0.251332    10.50000    0.00220
C15D  1   -0.077383    0.466223    0.285474    10.00001   10.05000
C9D   1   -0.128250    0.413528    0.282771    10.00001   10.05000
PART -1
C10   1   -0.127693    0.366922    0.250053    10.50000    0.07135
AFIX   0
C11   1   -0.176641    0.315218    0.247655    10.50000    0.13876
AFIX 137
H11A  2   -0.157753    0.272457    0.258964    10.50000   -1.50000
H11B  2   -0.189018    0.307531    0.219636    10.50000   -1.50000
H11C  2   -0.217939    0.328919    0.262660    10.50000   -1.50000
AFIX   0
PART 0
C12   1   -0.059401    0.156325    0.100168    11.00000    0.03914
PART -2
C17   1    0.025133    0.432709    0.195757    11.00000    0.17842
PART 0
AFIX 137
H     2    0.051605    0.389578    0.194110    11.00000   -1.50000
HA    2    0.055891    0.470523    0.203778    11.00000   -1.50000
HB    2    0.004915    0.443153    0.169618    11.00000   -1.50000
AFIX   0
HKLF 4

REM  HFMOF@29 in P4/mnc
REM R1 =  0.1637 for     697 Fo > 4sig(Fo)  and  0.2039 for all     897 data
REM     77 parameters refined using    108 restraints

END

WGHT      0.2000      0.0000

REM Highest difference peak  2.851,  deepest hole -2.621,  1-sigma level  0.383
Q1    1   0.0073  0.0114  0.0627  11.00000  0.05    2.43
Q2    1   0.0000  0.0000  0.1925  10.25000  0.05    2.01
Q3    1  -0.1156  0.0693  0.0460  11.00000  0.05    1.81
Q4    1   0.0952  0.2168 -0.0836  11.00000  0.05    1.48
Q5    1   0.0435  0.4081  0.1908  11.00000  0.05    1.47
Q6    1  -0.0242  0.2862  0.3106  11.00000  0.05    1.43
Q7    1   0.0036  0.2857  0.3093  11.00000  0.05    1.43
Q8    1  -0.0737  0.1661  0.0759  11.00000  0.05    1.22
Q9    1   0.2113  0.4602  0.1733  11.00000  0.05    1.15
;
_shelx_res_checksum              53351
_shelx_hkl_file
;
   0   0  -3 0.67897 25.8969   9
   0   0  -3-18.1562 59.7331  10
   0   0  -4 323.835 163.138  10
   0   0   5-52.3687 100.517  16
   0   0  -5-31.8714 125.807   9
   0   0   6 14.3090 100.087  16
   0   0  -6-33.2646 161.022   9
   0   0   7-58.5952 154.395  16
   0   0   8 297.446 142.865  16
   0   0   9 17.2391 132.565  16
   0   0  10 1997.98 528.619  16
   0   0  11-83.6034 68.6939  16
   0   0  12 3307.49 801.224  16
   0   1  -2 3.64961 14.9035  13
   1   0  -2-8.39120 21.4677   9
   1   0   2 4.56951 27.2133   6
   1   0  -2 2.65591 16.5679  18
  -1   0   2 0.69435 18.3190  17
   0  -1   2 2.22833 15.9237  16
  -1   0   2-18.9523 20.2448   2
   1   0  -2 4.61275 23.7681  11
   1   0  -2-0.47974 14.8264   1
   0   1  -2 29.7826 28.4156   3
   0   1  -3 9257.69 475.975  18
   0  -1   3 9490.77 600.455  16
   0  -1   3 10612.4 618.811   2
   0  -1   3 10553.3 573.985  17
   1   0  -3 3417.40 315.005  18
   1   0  -3 2846.57 317.362  11
  -1   0   3 5718.79 428.103  17
   0  -1   3 8589.56 497.829   6
   0   1  -4-1.31156 47.6157   7
   1   0  -4-5.14608 19.7543  11
   1   0   4-0.46484 11.4904   6
   1   0  -4 42.1118 80.4307   9
   1   0   4-12.3861 56.8980  16
   0  -1   4-2.98300 23.0980   2
   0   1  -4-9.98529 26.7538  15
   1   0  -4 1.63878 21.0365  18
   0   1  -4-5.55255 25.2451  11
   0  -1   4-3.34842 30.2947  17
  -1   0   4 2.81010 18.5067  17
   0  -1   4 14.9739 26.0966   6
   0   1  -4-3.30711 15.8772  18
   0  -1   4-0.09980 34.1092  16
   1   0   5 103.108 63.3029  16
   1   0   5-12.2361 98.7963   6
   0   1  -5 570.301 219.015  15
   0  -1   5 1233.74 217.438  17
   0   1  -5 1214.12 287.178  10
   1   0  -5 186.386 101.781  11
   0   1  -5 601.413 229.895   7
   0   1  -5 1005.58 219.218  11
   0  -1   5 1129.11 223.986   2
   0   1  -5 957.885 171.875  18
   0  -1   5 928.490 240.067  16
   0  -1   5 535.983 170.129   6
   1   0  -5 51.3932 41.4619   9
  -1   0   5 675.272 175.465  17
   0   1  -6 6.54082 31.2094  11
   0  -1   6-11.0371 25.8683   2
   1   0   6-41.0031 166.256   6
   0  -1   6 30.4664 49.5279   6
   0   1  -6 9.83658 33.1203  18
   1   0  -6-50.8361 163.571   9
   0  -1   6 4.66722 34.6865  16
  -1   0   6-16.7792 49.5860  17
   0   1  -6 48.3650 132.070   9
   0   1  -6-1.08700 46.0164  10
   1   0   6-19.1878 117.626  16
   1   0  -6 9.78002 48.6562  11
   0  -1   6 5.53207 17.0940  17
  -1   0   7 6.28005 122.681  16
   0   1  -7 534.518 216.831   9
   0   1  -7 354.067 177.587  10
   0   1  -7 504.109 176.116  11
   0  -1   7 734.361 187.654  17
   0  -1   7 596.798 230.355  16
   0   1  -7 401.413 129.645  18
  -1   0   7 318.565 118.547  17
   0  -1   7 678.051 201.214   2
   0  -1   7 85.0557 81.3519   6
   1   0   7 59.9543 77.9396  16
   1   0  -7-29.8692 149.831   9
   0  -1   8 55.7086 74.1432  16
   0   1  -8-4.44675 32.3057   9
   0  -1   8-25.3127 57.0779   2
  -1   0   8-78.2910 187.235  16
   0  -1   8 25.9954 49.9514  17
   0  -1   8 26.9326 122.402   6
   0   1  -8 1.27840 43.2726  11
   0   1  -8-2.73028 10.3708  18
   0   1  -8-32.3440 86.4786  10
   1   0   8 12.3288 61.0519  16
   0  -1   9 2920.31 428.614  17
   0  -1   9 3213.09 491.884   2
   0   1  -9 1592.09 435.951   9
  -1   0   9 294.964 140.328  16
   0   1  -9 983.174 330.657  10
   0  -1   9 2239.47 512.220  16
   0   1  -9 1295.80 298.725  11
   0  -1   9-12.0261 150.628   6
   1   0   9 820.473 319.995  16
   1   0  -9-39.6634 305.633   9
   0   1 -10 99.5398 164.156   9
   0   1 -10 6.95460 68.8836  11
   0  -1  10 9.04174 10.2385  17
   0  -1  10 62.5163 87.0031   2
   1   0  10 69.5818 151.626  16
   0  -1  10 26.5170 75.2505  16
   0   1 -10-46.8145 18.8633  10
  -1   0  10-57.0085 204.638  16
   0  -1  10-116.505 284.905   6
   1   0  11 2233.73 619.807  16
   0   1 -11 1093.51 313.730  11
   0   1 -11 962.906 379.647  10
   0  -1  11 5717.16 735.740   2
  -1   0  11 1464.86 481.102  16
   0  -1  11 5091.90 616.669  17
   0   1 -11 1670.39 502.967   9
   0  -1  11 4466.50 795.304  16
   0   1 -12-5.19362 60.7063  11
   1   0  12-8.60892 131.937  16
  -1   0  12 237.755 386.310  16
   0  -1  12-22.0543 42.8654   2
   0   1 -12-20.6812 87.1858  10
   0  -1  12 28.4382 187.438  16
   0   1 -12-101.669 82.2821   9
   0   1 -13 1038.01 450.193   9
   1   0  13 2204.97 679.342  16
   0  -1  13 4793.66 733.375   2
   0   1 -13 230.768 133.962  10
   0  -1  13 3706.33 786.040  16
   0  -1  14 307.884 283.356   2
   0  -1  14 569.637 438.330  16
   0   1 -14-361.786 426.839  10
   0   1 -14-9.02441 63.0606   9
   0  -1  15 5270.80 835.955   2
   0  -1  15 3874.60 914.537  16
   0  -1  16 724.292 332.515   2
   0  -1  16 917.851 494.418  16
   0  -1  17 3164.43 827.128  16
   0  -1  17 3796.58 754.952   2
   0  -1  18 98.8227 219.459  16
   0  -1  18 270.672 264.695   2
   0  -1  19 1189.38 621.965  16
   0  -1  19 1068.80 463.592   2
   0  -1  20 290.812 463.783  16
  -1  -1   1-5.63948 33.6810   2
   1   1  -1-3.37287 21.4845   1
   1  -1   1 0.97617 11.9977   8
   1  -1   1 0.22100 9.43470   6
  -1   1  -1 8.57984 5.33380   3
  -1   1  -1-0.27831 14.3603  12
  -1   1  -2 12660.7 575.125  12
  -1  -1   2 11557.2 739.746  17
  -1   1  -2 13395.9 638.859   3
   1   1  -2 9351.69 620.679   1
   1   1  -2 14102.2 706.406  13
   1  -1   2 15143.3 665.682   6
   1  -1   2 13835.4 680.154  16
   1  -1   2 11979.3 482.448   8
  -1  -1   2 13705.8 786.054   2
   1   1  -2 11993.9 641.252  18
  -1  -1   2 12301.4 580.266  16
   1  -1   3 1.77523 29.2123  16
   1  -1   3 11.6645 33.2144   6
  -1  -1   3-3.01174 5.43012  16
   1  -1   3 9.28681 22.3702  14
  -1  -1   3-4.18760 9.30252   2
   1   1  -3-7.43427 26.7237  18
   1  -1   3 11.1118 35.0954   8
  -1  -1   3 11.1239 40.0911  17
  -1   1  -3 10.7244 15.2095   4
  -1   1  -3 3.37784 21.4817  19
   1   1  -3 15.3044 20.5431   1
   1   1  -4 965.999 215.881  11
  -1  -1   4 787.464 189.752  16
   1   1  -4 884.103 182.962  18
   1  -1   4 812.216 203.537  16
   1  -1   4 1112.88 180.340   2
  -1  -1   4 1006.49 223.077   2
   1  -1   4 759.833 155.459   8
  -1   1  -4 449.612 131.765   4
  -1  -1   4 204.470 86.4279   6
  -1  -1   4 1115.01 230.370  17
   1  -1   4 759.209 190.508   6
  -1  -1   4 987.931 143.766   5
  -1   1  -4 681.470 144.032  19
   1   1  -4 1007.72 182.933   1
   1   1  -4 367.867 137.460  15
   1  -1   4 853.565 154.914  14
  -1   1  -4 975.434 167.727  11
   1   1  -4 437.907 145.733   7
  -1   1  -5 0.84166 12.5629  18
  -1  -1   5 3.65819 8.65758   5
  -1   1  -5 7.94954 67.9128  15
  -1  -1   5-6.23857 35.3904  16
   1   1  -5 10.9282 18.5577  18
   1   1  -5-11.4974 12.0582  11
   1   1  -5 4.86168 66.5285  10
  -1  -1   5-7.06380 36.9952   6
   1  -1   5 2.60109 33.4714  16
   1  -1   5 0.74778 16.9332   8
   1  -1   5 1.44221 4.78407   2
  -1   1  -5-2.92255 28.3246  10
  -1   1  -5 21.6963 50.1262   7
  -1  -1   5-3.82834 8.53260   2
   1  -1   5 9.49093 28.9152  14
   1  -1   5-5.43579 34.6354   6
  -1   1  -5 17.6703 29.6564  11
  -1  -1   5 2.60667 25.7162  17
   1  -1   5-5.93387 15.4790  17
   1   1  -5-10.5526 33.3289   1
   1  -1   6 299.566 151.904   6
  -1  -1   6 9.73474 48.4931   6
   1  -1   6 345.453 101.103  17
   1  -1   6 400.828 177.293  16
  -1   1  -6 555.660 209.728   9
  -1   1  -6 285.301 106.952  11
   1   1  -6 400.113 170.257  10
   1  -1   6 494.642 144.156   2
  -1  -1   6 560.991 178.516  17
   1   1  -6 385.955 130.393  18
   1   1  -6 366.486 123.580   1
  -1   1  -6 268.233 184.540  15
   1  -1   6 224.060 111.852   8
  -1  -1   6 347.112 154.736  16
   1   1  -6 488.133 237.315   9
  -1   1  -6 277.628 209.625   7
   1   1  -6 379.506 161.861  11
  -1   1  -6 426.397 191.618  10
  -1  -1   6 442.454 164.119   2
   1  -1   6 43.7474 28.0775  14
  -1   1  -6 178.170 66.5737  18
  -1  -1   7 15.6734 50.9211   2
  -1   1  -7-62.8497 220.452   7
  -1   1  -7-64.9412 187.195  15
   1  -1   7 11.3870 66.7658  16
   1   1  -7 7.15228 14.7422  18
   1  -1   7-10.9598 83.0064   6
   1  -1   7 6.37396 25.6650  17
  -1   1  -7-5.04634 17.8602  11
  -1   1  -7 22.2989 74.4007  10
   1   1  -7 3.89977 16.9824   1
   1   1  -7 9.76771 79.2376   9
  -1  -1   7-32.8730 135.844   6
   1   1  -7 74.6334 106.730  10
   1   1  -7 3.10982 39.2130  11
  -1  -1   7-1.42520 56.0437  17
  -1   1  -7 51.5920 134.460   9
   1  -1   7 4.64043 16.8549   2
   1  -1   7-1.66335 41.5616   8
  -1  -1   7-10.0221 10.6940  16
   1   1  -8 418.089 179.020  11
  -1  -1   8 864.101 239.229  17
  -1   1  -8 467.856 213.416   9
   1   1  -8 290.257 159.350  10
   1   1  -8 606.432 272.268   9
   1   1  -8 406.472 125.751   1
  -1   1  -8 176.503 93.5957  11
   1  -1   8 314.703 187.699   6
   1  -1   8 90.5743 89.3376   8
  -1   1  -8 272.519 159.972  10
   1  -1   8 549.068 220.612  16
  -1  -1   8 506.089 220.275  16
   1   1  -8 483.249 174.676  18
   1  -1   8 428.482 126.803  17
   1  -1   8 809.227 224.274   2
  -1  -1   8 755.533 233.009   2
   1   1  -9-39.0854 89.5082   1
   1  -1   9 11.9204 51.2926   2
  -1   1  -9-25.7124 110.536  10
  -1  -1   9-29.1714 88.4840  17
   1  -1   9-27.5938 84.9416   6
  -1   1  -9 27.9652 113.759   9
   1  -1   9-0.54556 62.3461  16
  -1  -1   9-8.33392 62.4770   2
   1   1  -9 4.86001 97.0733   9
  -1  -1   9 38.4154 72.1287  16
  -1   1  -9-9.49074 18.5289  11
   1   1  -9 46.8310 96.2097  11
   1   1  -9-27.7037 63.1130  10
   1   1  -9-16.6546 51.2742  18
   1  -1  10 1813.20 375.384   2
  -1   1 -10 427.812 247.578  10
  -1   1 -10 721.822 327.522   9
   1   1 -10 816.224 272.674  11
   1  -1  10 569.948 321.166   6
   1   1 -10 668.952 266.408   9
  -1  -1  10 1810.16 403.568   2
   1   1 -10 346.505 247.463  10
  -1  -1  10 1780.38 376.157  17
   1   1 -10 718.809 228.962  18
   1  -1  10 1498.65 448.366  16
  -1  -1  10 1170.84 394.117  16
  -1   1 -10 234.147 95.1999  11
  -1  -1  11 52.7548 101.406   2
   1   1 -11 142.087 196.650  10
   1   1 -11 2.09871 24.4904  11
  -1  -1  11-7.28287 53.9254  17
   1  -1  11 9.31678 52.3620   2
  -1   1 -11 107.140 167.377  10
  -1  -1  11 19.8968 64.7596  16
   1  -1  11-83.3202 197.443   6
   1   1 -11 26.7622 179.598   9
   1  -1  11 83.6584 119.615  16
  -1   1 -11-40.6449 75.1739   9
   1  -1  12 3869.81 608.911   2
  -1  -1  12 4130.18 631.106  17
  -1  -1  12 3992.21 663.043   2
   1  -1  12 3128.89 729.614  16
  -1   1 -12 666.461 332.252   9
   1  -1  12 297.177 212.614   6
   1   1 -12 1106.49 408.718   9
   1   1 -12 447.987 245.279  10
  -1  -1  12 2556.40 639.344  16
   1   1 -12 908.841 284.484  11
  -1   1 -12 356.145 233.512  10
   1   1 -13 197.701 181.645  11
  -1   1 -13-71.3078 110.778   9
  -1  -1  13 52.0171 176.661   2
  -1   1 -13-199.536 329.479  10
   1  -1  13 40.8619 148.165  16
   1  -1  13 25.5066 93.9989   2
   1   1 -13 395.427 321.023   9
   1   1 -13-138.115 250.507  10
  -1  -1  13 89.4345 116.836  17
  -1  -1  13 369.798 332.773  16
   1   1 -14 648.731 395.223   9
  -1   1 -14-219.902 471.390  10
   1  -1  14 3733.32 648.399   2
   1   1 -14-241.941 447.286  10
  -1  -1  14 2353.61 646.700  16
   1  -1  14 3014.23 733.463  16
  -1  -1  14 3307.35 652.211   2
  -1  -1  14 3241.70 575.282  17
  -1   1 -14 82.6579 219.574   9
   1  -1  15 131.471 263.151  16
  -1  -1  15 534.435 345.415   2
   1  -1  15 61.0251 118.984   2
  -1  -1  15 633.462 515.782  16
   1   1 -15 306.123 216.674   9
  -1  -1  16 2656.91 617.297   2
  -1  -1  16 1990.94 690.625  16
   1  -1  16 2243.29 690.136  16
   1  -1  16 2906.07 619.058   2
  -1  -1  17 855.490 453.747  16
  -1  -1  17 915.165 400.295   2
   1  -1  17 91.0286 138.205   2
   1  -1  17 95.0451 181.671  16
  -1  -1  18 1371.77 494.768   2
  -1  -1  18 923.146 498.079  16
   1  -1  18 1225.01 443.233   2
   1  -1  18 982.721 525.145  16
   1  -1  19 170.448 261.244   2
  -1  -1  19 191.623 208.486   2
   1  -1  19 236.333 416.182  16
  -1  -1  19 689.584 546.474  16
   1  -1  20 504.498 471.394  16
  -1  -1  20 488.405 478.466  16
  -2   0   0 9426.71 565.640  19
  -2   0   0 8599.94 482.538  17
  -2   0   0 9129.99 559.947   4
   2   0   0 9587.68 512.687   8
   2   0   0 9384.36 455.105  18
  -2   0   0 9162.43 579.518   5
   2   0   0 9982.71 635.395   1
   2   0   0 9116.01 580.804  14
   2   0  -1-2.73376 16.8769   8
  -2   0  -1-14.0096 32.4651   4
   2   0   1 0.24897 11.5547   6
   2   0  -1-1.91749 9.02964  18
  -2   0  -1-7.27714 33.8183   5
  -2   0   1 0.29366 14.7373  17
   2   0  -1 1.32833 18.7294  11
  -2   0  -1-12.4890 28.6205  19
   2   0   1 0.59862 18.7240   1
  -2   0   1-1.57450 15.8034  19
   2   0  -1-1.47317 14.4084  14
  -2   0   1-1.60528 18.5050   4
   2   0   1 0.72799 11.8398   8
  -2   0   1-2.52163 8.25649   5
  -2   0   1 1.29233 13.4363   2
   2   0  -1 2.44736 16.4988   1
   2   0   1 0.80090 24.8962  14
  -2   0  -1-1.80098 16.7872  15
   2   0  -2 2684.43 312.145  11
  -2   0   2 3122.77 296.266   5
   2   0   2 2121.60 320.026   8
   2   0   2 1934.90 292.419   6
   2   0  -2 3430.52 364.298   1
   2   0  -2 795.199 179.811   9
   2   0  -2 2611.35 236.487   8
   2   0   2 1608.81 309.757   1
  -2   0   2 3278.00 280.646  19
   2   0  -2 3669.75 312.332  14
  -2   0   2 2683.57 291.470   2
   2   0   2 1531.42 222.863  16
   2   0   2 2418.14 362.171  14
   0   2  -2 1415.29 277.614   3
  -2   0  -2 1407.94 293.860   4
  -2   0   2 2900.81 337.212  17
   2   0  -2 2813.61 296.231  18
   2   0  -3 0.54162 27.2143   1
   2   0   3 7.40456 27.4708   6
   2   0  -3 6.30572 20.8466  14
  -2   0  -3-29.6223 106.001   7
   2   0   3 4.18162 38.9071   8
   0  -2   3 9.44515 32.8542   6
  -2   0   3-1.78766 8.84104  19
   2   0  -3 8.80399 27.5390  18
  -2   0  -3-29.9254 97.0485  15
  -2   0   3-5.57431 15.0712  17
  -2   0   3 4.11931 8.53825   2
   0   2  -3 14.4152 35.4632  13
   2   0   3-10.3156 34.3801  14
   0   2  -3 5.86810 21.2444   3
   2   0  -3-23.1345 33.3679  11
   0  -2   3-15.2016 73.8834  16
   0   2  -3-0.14925 2.21413  12
   2   0   3-4.00033 19.5505  16
   2   0  -3 10.4133 43.4879   9
  -2   0   4 1076.37 233.960  17
   2   0  -4 675.584 176.508  18
   2   0  -4 763.749 183.495   1
   2   0  -4 757.109 134.756  14
  -2   0   4 857.611 199.245   2
   2   0  -4 229.035 134.009   9
   0   2  -4 1108.79 234.350  18
   0  -2   4 1281.63 279.173  16
   2   0   4 195.030 116.066  14
   2   0   4 420.230 165.178  16
   0  -2   4 1036.15 292.101   2
   2   0   4 236.508 126.086   8
   0   2  -4 1334.98 302.655  13
   0   2  -4 1396.61 271.120   3
   2   0   4 447.407 184.865   6
   2   0  -4 494.194 164.616  11
   0   2  -4 1215.96 202.325  12
   0  -2   4 1432.05 247.590   6
   0  -2   4 1007.58 264.013  17
   0  -2   5 7.05709 21.1924   8
   2   0  -5 9.42938 32.8520  18
   0  -2   5 13.9326 29.8789  17
   0   2  -5-3.67738 7.42216   3
   0  -2   5-2.24554 13.1386   2
   0  -2   5-5.26123 38.4321   6
   2   0  -5 1.83716 43.4263  11
   0   2  -5-13.9167 46.8287  18
  -2   0   5 4.11121 42.2614  17
   2   0  -5 3.26566 71.9167   9
   0   2  -5-0.55242 40.1856  12
   0  -2   5-0.48474 18.8755  16
   2   0   5-20.4721 65.1719   6
  -2   0   5-11.6127 39.9968   2
   2   0   5 12.7568 65.3902  16
   2   0  -6 141.440 114.299  11
   0  -2   6 572.716 101.279   8
  -2   0   6 433.116 171.821  17
   0  -2   6 560.201 182.197   6
  -2   0   6 315.225 130.646   2
   2   0  -6-13.4106 89.0761   9
   2   0  -6 203.228 112.289  18
   0  -2   6 765.472 211.597  17
   2   0   6 114.582 116.175   6
   0   2  -6 534.625 160.175  18
   0  -2   6 734.668 231.549   2
   2   0   6 177.793 117.996  16
   0  -2   6 613.313 218.366  16
   0   2  -7 23.3206 146.438   7
   0  -2   7 7.45867 69.8851   6
  -2   0   7-99.4374 154.381  16
   0   2  -7-8.53573 42.5365  11
   2   0  -7-87.5381 204.141   9
   2   0   7 1.05875 22.5429  16
   2   0   7-1.19756 120.682   6
   0  -2   7 8.88916 20.3183   8
   0  -2   7-23.3523 39.2993  17
   0  -2   7-26.0508 24.2095  16
   2   0  -7-24.2229 25.5788  11
   0   2  -7 18.9049 12.4166  18
   0   2  -7 5.28147 21.2289   1
  -2   0   7-52.3800 94.0089   2
   0  -2   7-6.34719 49.7534   2
   0   2  -7 31.0349 137.525  15
  -2   0   7 19.7624 52.1266  17
   0   2  -8 3.48255 26.1113   1
   0  -2   8 55.6427 93.4108   2
   0  -2   8 12.5675 36.4303  17
   0  -2   8-3.13800 1.57999   8
   0   2  -8-48.6331 70.8815   7
   0   2  -8 15.3584 45.5569  15
   0   2  -8-2.12641 39.8996  18
   0  -2   8 11.3277 50.9278   6
   0   2  -8 36.8610 91.9829  11
   2   0   8-49.2251 236.433   6
   2   0   8-39.6434 36.2315  16
   2   0  -8-74.6472 280.364   9
  -2   0   8-8.42441 56.4006  17
   0  -2   8-25.2858 71.0816  16
   2   0  -8-6.47697 55.3618  11
   0   2  -8-22.3676 93.6980  10
  -2   0   8-69.8541 150.033  16
   0   2  -9 435.895 406.932   9
   2   0   9-195.968 322.435   6
   0   2  -9 32.9709 173.051  15
   0  -2   9-6.71090 67.6945   8
   0   2  -9 50.1363 120.329  18
   2   0   9-45.3554 105.661  16
   0  -2   9 95.5537 174.696  16
   0   2  -9 0.10546 188.847   7
   0  -2   9 88.5732 147.806  17
   0   2  -9 270.508 309.488  10
   0  -2   9 91.8018 161.207   6
  -2   0   9-89.5865 209.709  16
  -2   0   9 3.37376 84.4469  17
   0   2  -9 27.6686 159.042  11
   0   2  -9 19.1433 50.2291   1
   0  -2   9 73.8146 146.227   2
  -2   0  10 516.839 198.591  16
   2   0  10 1440.02 490.244  16
  -2   0  10 1811.16 409.129   2
   0   2 -10 2609.35 629.154  10
  -2   0  10 2459.74 474.597  17
   2   0 -10-221.467 442.561   9
   0   2 -10 3273.62 517.638  11
   0  -2  10 1687.37 438.443   6
   0  -2  10 3303.22 628.717  16
   0  -2  10 2248.45 325.446   8
   0   2 -10 3545.45 758.590   9
   0   2 -10 2567.79 409.535  18
   0  -2  10 4547.57 660.012   2
   0  -2  10 4243.65 551.800  17
   0   2 -10 2807.96 311.283   1
  -2   0  11-54.4259 125.946  16
   0  -2  11 3.57239 38.5624   6
   0  -2  11-52.7466 68.0611  17
   2   0  11-19.1639 55.5909  16
   0   2 -11 3.85729 44.3166   1
   0  -2  11 44.3741 94.7467   2
   0   2 -11 51.4438 148.695  10
   0   2 -11 37.6436 15.5391  11
   0   2 -11 83.3417 190.612   9
   0   2 -11-11.0020 12.3820  18
   0  -2  11 11.6925 43.5184   8
   0  -2  11 71.8405 133.078  16
  -2   0  11-114.994 172.474   2
   0  -2  12 1982.09 548.573  16
   0   2 -12 1229.52 333.177  11
   2   0  12 1026.99 450.363  16
   0  -2  12 2352.13 511.031   2
   0   2 -12 1167.83 288.615  18
   0   2 -12 1871.06 552.300   9
   0  -2  12 630.204 284.577   6
   0   2 -12 977.522 409.016  10
  -2   0  12 1177.74 319.482   2
   0  -2  12 2513.97 462.479  17
   0  -2  12 1112.86 266.103   8
   0   2 -12 1105.91 218.424   1
   0   2 -13 29.0650 71.2519   1
   0  -2  13 31.8906 77.5946   8
   0   2 -13 46.3895 155.926  10
   2   0  13 89.0857 200.134  16
   0  -2  13 45.0481 143.842  16
   0  -2  13 100.536 132.368   2
   0  -2  13 144.492 149.809   6
   0   2 -13-79.3877 70.2622   9
   0   2 -13 33.2493 117.492  11
   0  -2  13-29.6300 46.2769  17
   0   2 -13 0.12421 63.4141  18
   2   0  14 1111.48 518.095  16
   0  -2  14 1373.18 520.075  16
   0   2 -14 685.079 371.311   9
   0  -2  14 651.389 209.275   8
   0   2 -14 618.801 302.396  10
   0  -2  14-318.347 402.584   6
   0   2 -14 523.891 161.224   1
   0  -2  14 2126.87 507.964   2
   0   2 -14 634.506 260.523  11
   0  -2  14 2128.55 432.308  17
   0  -2  15 24.0476 137.614  16
   0   2 -15-140.827 111.337  11
   0  -2  15-129.692 162.635   8
   0  -2  15-533.401 494.088   6
   0  -2  15 90.8945 114.098  17
   0  -2  15 91.6826 130.796   2
   0   2 -15 114.729 103.376   1
   0   2 -15 97.0217 218.806  10
   0   2 -15 318.726 326.266   9
   0  -2  16 20.2351 169.994   8
   0  -2  16 760.909 251.325  17
   0   2 -16 72.6388 104.528  10
   0   2 -16 166.690 226.537   9
   0   2 -16 119.832 91.2568  11
   0   2 -16 113.826 50.7871   1
   0  -2  16 874.434 431.400  16
   0  -2  16 1088.05 383.441   2
   0  -2  17 220.330 213.358  16
   0  -2  17-69.0510 127.066   2
   0   2 -17-30.9873 79.2724   1
   0   2 -17-60.0312 162.788   9
   0   2 -17-22.8235 246.675  10
   0  -2  17-125.170 198.812   8
   0   2 -17 45.8471 45.2258  11
   0   2 -18-91.8147 298.364  10
   0  -2  18-96.5754 189.876   8
   0   2 -18 25.5544 232.606   9
   0   2 -18-9.71285 72.3469   1
   0  -2  18 375.950 298.474  16
   0  -2  18 295.855 231.035   2
   0   2 -19-291.633 415.741   9
   0  -2  19 133.254 88.6594  16
   0  -2  19-43.7257 128.320   2
   0   2 -19-14.8378 19.5101   1
   0  -2  19-110.608 252.665   8
   0  -2  20-116.775 245.232   2
   0  -2  20 20.1768 137.311   8
   0  -2  20 56.6444 357.380  16
   0   2 -20-1.37198 51.3690   1
   0  -2  21-75.4991 190.513   2
   0  -2  21-7.00728 172.260  16
   0  -2  21-154.811 246.089   8
   2  -1   0 221.860 81.0306  14
  -2   1   0 114.617 58.1465  12
   2   1   0 88.6346 82.2816   1
   2  -1   0 213.556 79.0279   8
  -2   1   0 260.454 84.5474  19
   2  -1  -1 1174.02 179.516   8
  -2   1  -1 4010.72 343.223   4
  -2   1  -1 4130.84 354.491  12
  -2   1  -1 2946.19 323.924   3
   2  -1   1 4222.23 360.352  14
   2   1  -1 3083.01 359.739  13
   2   1  -1 1506.32 238.281   8
  -2   1   1 2772.88 279.905  19
  -2  -1   1 1753.03 335.950   5
  -2   1  -1 4244.56 352.996  19
   2   1  -1 3606.30 417.231  18
   2  -1   1 3758.02 322.490   1
   2   1  -1 3234.62 477.305   1
  -2   1  -1 3751.02 303.551   5
   2  -1   1 4837.63 408.854   6
   2  -1   1 3941.53 338.826   8
   2   1  -1 519.632 178.011  14
  -2  -1   1 2522.01 401.638  17
  -2   1  -2 38.4501 41.2909   4
  -2   1  -2 33.2678 29.4786   5
   2   1  -2 13.9604 12.9227  14
   2  -1   2 67.1561 51.9922  14
   2   1  -2 46.0666 50.2240  18
   2  -1   2 46.9552 44.9241  16
  -2  -1   2 41.1946 56.1496   2
  -2   1  -2 51.9440 57.7381   3
   2   1  -2 21.7900 3.40532   1
   2  -1   2 46.3641 38.9248   1
  -2  -1   2 31.8191 40.5724  19
   1   2  -2 31.1889 50.1391  13
  -2  -1   2 28.6897 48.4816   4
   2   1  -2 45.4381 53.5774  13
  -1   2  -2 18.7304 28.0280  12
   2  -1   2 61.0210 51.8586   6
  -2  -1   2 48.2496 59.1459  17
  -2   1  -2 36.0587 37.2374  19
  -1   2  -2 26.9844 39.4528   3
  -2  -1   2 44.3677 37.1969   5
  -2   1  -2 23.5698 40.2421  12
   2  -1   2 34.4179 34.9580   8
   1   2  -3 1696.26 344.298  13
   1  -2   3 1603.74 275.989   6
  -1   2  -3 1895.46 319.998   3
  -2  -1   3 1595.53 220.005   4
  -2   1  -3 1857.26 281.343   4
  -1   2  -3 972.175 268.607  13
  -2   1  -3 1818.84 269.183  19
   2  -1   3 2024.17 303.148  16
   2  -1   3 2105.08 315.121   6
  -2  -1   3 1877.80 334.706  17
   2   1  -3 1966.99 326.771   1
   2  -1   3 2014.58 278.157  14
   2  -1   3 1852.74 268.523   8
  -1   2  -3 1707.67 256.742  12
  -2  -1   3 1752.55 233.866  16
  -2  -1   3 1684.82 273.937   5
   1   2  -3 1458.12 256.879   3
  -2  -1   3 2130.15 234.256  19
  -2   1  -3 1768.36 244.831   5
  -1  -2   3 1068.44 238.462  16
  -2  -1   3 1950.12 331.896   2
   1  -2   3 1183.23 273.947  16
  -1  -2   3 949.439 297.492   2
   1  -2   3 1164.03 174.056   8
   2   1  -3 1831.58 297.460  18
   2  -1   4 41.4319 60.3961   6
   2  -1   4 16.3338 19.9263   8
  -2   1  -4 50.6931 57.5231  19
  -1  -2   4 48.7625 80.4228  17
   1  -2   4 62.7457 72.9250  16
  -2  -1   4 25.4351 33.7442   5
  -1   2  -4 44.7565 75.2642  13
  -2  -1   4 55.2265 68.3981   2
  -2  -1   4 56.0573 80.7078  17
   1  -2   4 46.8296 42.7185   8
   1   2  -4 40.4107 34.7257  12
  -1  -2   4 43.5353 57.9906   2
  -1  -2   4 20.2043 28.2728  16
  -1   2  -4 15.9174 7.12554  12
   2   1  -4 18.7218 18.2203  11
   1  -2   4 48.4780 54.9927   6
  -2   1  -4 26.2558 47.2384   5
   1  -2   4 32.0234 23.8265  14
   1   2  -4 18.3552 54.3780  18
   2  -1   4 56.3052 56.9020  16
   2   1  -4 30.4308 45.5028  18
   2  -1   4 46.5553 49.0465  14
  -2  -1   4 30.1788 21.5104   4
   1   2  -4 78.1317 84.2647  13
  -1   2  -4 52.6141 59.0625   3
  -1   2  -4 49.2021 31.8553  19
  -2   1  -4 41.8880 39.9915   4
   2   1  -4 66.5449 49.4600   1
   2   1  -4 47.2383 40.0883  14
  -2  -1   4 50.0870 29.0774  19
  -2  -1   4 34.8539 35.0537  16
  -1  -2   4 45.8146 40.2261   6
   1   2  -4 46.7302 42.4719   3
   1  -2   4 6.69296 76.0053   2
   1   2  -4 21.3529 59.8794   1
  -2  -1   5 89.4782 35.7607  19
  -2   1  -5 255.830 139.173   9
  -1   2  -5 161.709 59.4571  19
  -2  -1   5 197.109 104.717  17
  -1  -2   5 197.965 89.0147   6
  -2  -1   5 168.339 99.8294   2
  -2  -1   5 180.791 85.6816   5
  -1  -2   5 190.547 106.171  16
  -2   1  -5 48.1530 38.4004   4
   2  -1   5 197.367 73.2440   2
   1   2  -5 145.128 90.9592  18
  -1  -2   5 227.150 149.319   2
  -2   1  -5 55.3677 40.9343  11
   1  -2   5 187.744 81.9777  17
  -2  -1   5 154.733 99.7266  16
  -1   2  -5 206.583 76.7660   4
  -1  -2   5 189.863 133.788  17
  -2   1  -5 166.062 170.734   7
  -1   2  -5 191.621 115.232  12
   2   1  -5 152.936 96.9630  10
   1  -2   5 225.212 120.797   6
   2   1  -5 163.390 91.1514  18
   1   2  -5 118.366 93.0897   1
   1  -2   5 174.281 108.510  16
  -2   1  -5 87.6807 56.7907  19
   1   2  -5 197.674 109.059   3
   2  -1   5 173.223 103.055  14
  -1   2  -5 155.231 120.667  13
   2  -1   5 148.542 116.338  16
   2   1  -5 181.695 100.734  11
  -1   2  -5 213.933 129.392   3
   2  -1   5 186.015 110.138   6
  -1   2  -5 165.134 67.2370  18
   1   2  -5 184.691 70.7585  12
  -2   1  -5 195.092 117.612  10
  -2   1  -5 216.042 156.334  15
   1  -2   5 189.822 65.6049  14
   2   1  -5 226.736 186.275   9
   1  -2   5 168.171 102.065   2
   2   1  -5 145.479 81.2519   1
   1  -2   5 170.605 70.4948   8
   2   1  -5 148.611 61.8834  14
   2  -1   5 156.074 100.997   8
   2  -1   6 35.5076 71.8676  16
  -2   1  -6 53.1233 83.1452  10
  -2   1  -6 31.3596 46.0927   7
   2   1  -6 39.2987 57.6435   9
  -1  -2   6 44.0684 60.7832  17
  -2   1  -6 4.52712 10.8329  11
   1  -2   6 84.7493 97.9750  16
  -1   2  -6 63.6186 38.2358  19
  -2   1  -6 60.0827 56.1048   9
  -1  -2   6 41.2501 57.5495  16
   1  -2   6 106.050 67.6567  17
   2   1  -6 72.0556 68.6422   1
   2  -1   6 46.6085 71.3851   6
   2   1  -6 54.0678 63.7792  18
   2  -1   6 60.6534 75.9374   8
  -1   2  -6 45.4420 34.0855  18
   1  -2   6 97.2134 78.5345   2
   1   2  -6 26.9333 25.4218   1
  -1  -2   6 64.8379 62.0188   2
   2   1  -6 43.0782 98.9527  10
  -1  -2   6 40.2323 28.5622   6
  -2  -1   6 58.7833 40.8917   5
   2  -1   6 67.3910 42.5845   2
  -2  -1   6 62.9478 69.9008  16
   2  -1   6 26.4741 7.19950  14
   2   1  -6 91.9064 92.1711  11
  -2   1  -6-53.3390 72.5288  15
   2   1  -6 58.2036 38.8850  14
   1  -2   6 43.9315 35.5431   8
  -2  -1   6 26.8098 47.7648  17
   1  -2   6 86.1796 49.0245  14
  -1  -2   6 64.5566 37.1567   5
   1   2  -6 46.7181 49.6497  18
  -1   2  -6 59.9595 42.0930   4
   1  -2   6 107.102 91.2411   6
  -2  -1   6 51.5669 49.0556   2
   1  -2   7 404.415 131.144  17
   1   2  -7 395.129 196.568  15
  -2   1  -7 42.2068 29.0107  11
   2  -1   7 158.909 120.584  14
  -1  -2   7 374.369 167.354  16
   1  -2   7 362.845 121.406   8
   2  -1   7 339.485 125.276   2
   1  -2   7 432.449 202.877  16
   1   2  -7 407.306 182.396  11
   1   2  -7 303.254 131.648   1
   2  -1   7 218.027 136.726   6
  -2  -1   7 302.475 159.024  16
   1   2  -7 288.004 167.834   7
  -1   2  -7 53.9698 42.1121   4
  -1  -2   7 178.025 97.6503   6
  -1  -2   7 420.546 180.207   2
  -2   1  -7 167.930 141.070  10
   2   1  -7 364.303 151.007  18
   2   1  -7 234.352 135.954   9
  -2  -1   7 301.717 98.3807   5
  -1   2  -7 338.251 107.707  18
  -1   2  -7 369.487 161.995  11
   2   1  -7 346.598 141.528   1
   2   1  -7 208.175 140.821  10
   1  -2   7 393.176 179.220   6
   1  -2   7 431.183 123.685  14
  -1   2  -7 346.362 100.541  19
   2   1  -7 298.357 76.8021  14
  -2   1  -7 191.947 197.770  15
  -2   1  -7 208.194 143.974   7
  -1  -2   7 430.246 180.059  17
  -2  -1   7 326.353 152.567   2
   1   2  -7 354.849 138.930  18
   2  -1   7 289.289 162.513  16
   1  -2   7 371.652 164.820   2
  -2   1  -7 255.805 142.907   9
  -1  -2   7 344.632 101.348   5
   2   1  -7 355.586 167.236  11
   2  -1   7 278.630 144.134   8
  -2  -1   7 472.052 193.545  17
   1   2  -8 33.1584 99.4436  11
  -1   2  -8 7.90615 59.8601  11
   2   1  -8 11.0037 15.6198  14
   2  -1   8 6.75158 10.7689   6
   1  -2   8 15.8346 22.5663   2
   1  -2   8 56.7615 78.5516  16
   1   2  -8-7.08552 81.5519  10
   2  -1   8 2.86126 33.0278   2
   1   2  -8-23.5185 88.4674  15
   2   1  -8 18.6669 56.8557   1
   1  -2   8 17.2356 31.2870  17
  -2  -1   8 28.0848 50.4947   2
  -2   1  -8 45.0993 50.0860  10
   1  -2   8 4.20464 9.70508   8
   2   1  -8-26.2648 76.9451  10
  -1  -2   8 26.3302 27.2023   2
   1   2  -8 15.9364 32.3533   1
   2   1  -8-21.3008 75.1564  11
  -1   2  -8 104.729 135.623  10
   1  -2   8 8.19240 48.1264  14
   2  -1   8 6.21778 35.0245  16
   2   1  -8-7.30362 7.57232  18
  -1  -2   8 11.0792 37.3928  17
  -2   1  -8-103.139 246.578   7
  -2  -1   8 33.3660 62.4692  17
  -1   2  -8-3.80976 87.5986  15
   1   2  -8-2.48627 19.7782  18
  -1   2  -8 12.2924 8.61527  19
  -2   1  -8-153.426 238.446  15
  -2  -1   8 15.9651 47.2068  16
   2   1  -8-93.4038 112.827   9
  -2   1  -8-22.3595 86.9537   9
  -1   2  -8 18.9558 43.3438  18
   1  -2   8 28.7322 88.3453   6
  -1   2  -8 27.9707 121.321   7
  -1  -2   8-0.00854 31.6610   5
   1   2  -8-9.37677 116.423   7
  -1  -2   8 36.3089 25.6340  16
   2  -1   8-23.7543 39.5760   8
  -1  -2   8 33.7954 45.5870   6
   1  -2   9-15.6161 18.2466   8
   2   1  -9 25.2997 30.2584  11
  -1   2  -9 195.253 258.872   9
  -1   2  -9 36.2081 93.0280  11
   1  -2   9-22.7147 65.1445  14
   2   1  -9-10.8519 85.6404   9
  -1   2  -9-78.5183 164.889  15
   2  -1   9-14.5984 42.0093  16
   2  -1   9 16.4214 27.7648   2
  -1   2  -9 11.6025 22.1302  19
  -2   1  -9 93.0650 106.297   9
  -1   2  -9 72.3414 173.820   7
   2   1  -9 47.3714 70.7443  18
  -1  -2   9-21.0050 81.4819  17
   2  -1   9-18.0054 40.5757   8
  -1   2  -9 107.708 189.164  10
  -1   2  -9 15.8480 53.4389  18
   1  -2   9 5.68536 27.3300  17
   1   2  -9 16.8863 54.7777  18
  -1  -2   9 18.1576 44.0329   2
  -2  -1   9 59.6357 67.3560  17
  -1  -2   9 23.7386 78.2468   6
   1   2  -9 24.8948 63.6681  11
   1   2  -9 219.807 290.234   9
   2  -1   9-12.1274 54.7986   6
  -1  -2   9 28.2624 59.2953  16
   1   2  -9-97.2838 135.457  10
   1  -2   9 7.43306 78.2584   6
   2   1  -9 3.18981 55.0408   1
  -2   1  -9 47.9932 122.430  10
   2   1  -9-13.7002 11.5392  10
   1   2  -9 9.87516 31.2718   1
   1  -2   9 26.2999 57.4323  16
   1  -2   9 7.96164 43.8547   2
  -1  -2   9 11.2383 29.1337   8
   2   1  -9-6.22936 25.3074  14
  -2  -1   9 29.0759 102.756   2
  -1  -2   9 7.91430 24.0306   5
  -2  -1   9 12.0222 81.7979  16
  -2  -1  10 44.7475 135.816  16
  -1  -2  10-5.01160 50.9788  17
   1   2 -10 54.3102 73.4636   1
   2   1 -10 28.1307 40.6276   1
  -1  -2  10 106.811 124.667  16
   1  -2  10 60.7410 110.759  16
  -1   2 -10-328.396 257.010  15
   1  -2  10-23.7975 53.9388   6
   2  -1  10 14.4093 49.3980   8
  -2   1 -10 43.8993 121.609   9
  -1  -2  10 131.937 149.688   2
  -1   2 -10 198.484 234.876  10
   1  -2  10 19.7928 1.48914   8
   1   2 -10 76.4620 75.6365  18
  -1  -2  10-17.9458 41.4869   8
   1   2 -10 126.843 119.966  11
   2   1 -10 56.3051 112.135  11
   2   1 -10-41.2151 39.3522  10
  -1   2 -10 68.7971 99.9424  11
   1   2 -10 181.820 204.964  10
   2  -1  10 48.8623 49.5213   2
   2   1 -10-110.757 205.595   9
  -1   2 -10 33.4583 31.4718  18
  -2  -1  10 62.0201 86.7680   2
   1   2 -10 128.360 254.844   9
  -1  -2  10 55.7769 39.5655   5
  -1  -2  10 20.2398 77.7193   6
   2  -1  10 89.8522 124.900  16
   1  -2  10 75.2276 106.111   2
  -2  -1  10 32.4651 19.9071  17
   2  -1  10 22.1586 126.683   6
   1  -2  10 24.7426 48.1587  17
  -1   2 -10 159.506 224.718   9
  -1   2 -10 44.1148 110.228   7
  -2   1 -10 35.0538 143.190  10
   2   1 -10-15.8784 54.5948  18
  -2  -1  11 1218.88 368.794   2
  -2   1 -11 241.253 166.605   9
   1   2 -11 1327.19 472.951   9
  -1   2 -11 928.120 256.221  11
  -1  -2  11 1696.97 442.720   2
  -1   2 -11 1210.48 393.526   9
   1   2 -11 1048.01 381.039  10
  -1  -2  11 1578.11 385.809  17
   1  -2  11 1475.18 313.548  17
  -1   2 -11 599.273 117.104   1
  -1   2 -11 1093.45 392.317  10
   1   2 -11 1285.90 365.537  11
  -1  -2  11 1373.85 442.296  16
   2  -1  11 1206.74 441.675  16
   1   2 -11 1059.88 234.595   1
  -2  -1  11 1648.98 404.709  17
   1  -2  11 869.497 367.636   6
   1   2 -11 1053.54 292.944  18
   2  -1  11 1397.34 317.234   2
  -2   1 -11 126.955 117.420  10
  -1   2 -11 630.550 191.821  18
   2  -1  11 703.695 332.538   6
   2  -1  11 229.331 47.1850   8
  -1  -2  11 1356.52 191.118   5
   2   1 -11 250.116 205.204  10
   2   1 -11 580.906 228.327  18
   2   1 -11 486.158 227.940  11
   2   1 -11 420.292 314.681   9
   1  -2  11 904.762 242.302   8
   2   1 -11 578.704 204.670   1
  -2  -1  11 908.166 348.396  16
   1  -2  11 1680.84 391.595   2
  -1  -2  11 94.1087 166.048   6
   1  -2  11 1524.96 460.367  16
   1   2 -12 55.8375 87.5810  11
   1  -2  12 15.2771 83.9034   2
   1  -2  12 5.60164 87.6634  16
   1   2 -12 57.1959 58.3166  10
  -1   2 -12 49.1862 93.6424  10
  -2  -1  12 48.8895 212.778   2
   1   2 -12-68.0721 72.5486   9
   1  -2  12-80.3418 86.1048   8
  -2  -1  12 102.822 277.384  16
  -1  -2  12 12.6420 109.794   2
  -1  -2  12-50.7587 114.617   6
   2   1 -12 123.225 209.663  11
   2  -1  12 124.034 194.284  16
   1  -2  12 11.1058 78.5775   6
   2  -1  12-297.957 195.457   8
   2   1 -12 188.262 420.552   9
   2   1 -12 93.1495 297.015  10
   1   2 -12 1.02827 4.10027  18
  -2  -1  12 113.568 192.230  17
   2  -1  12 20.0012 41.9125   6
  -1  -2  12-22.5083 76.3594  17
   2   1 -12-21.5499 43.0044   1
  -2   1 -12-56.5909 123.438   9
  -1   2 -12 128.249 216.807   9
  -1   2 -12 56.7024 96.4053  11
   2   1 -12 27.7263 110.505  18
  -1  -2  12 10.1214 53.7637  16
   1  -2  12 8.42252 21.1291  17
  -2   1 -12-151.090 263.658  10
   2  -1  12-10.7635 44.0580   2
   1   2 -12-11.3035 35.1846   1
   1   2 -13 829.632 278.527  18
   1  -2  13 775.741 353.056   6
  -2  -1  13 925.171 350.327  16
   2   1 -13 356.770 150.277   1
  -1   2 -13 471.900 193.081  11
  -1   2 -13 641.533 381.404  10
   2   1 -13 333.538 281.225   9
  -1  -2  13 1769.40 487.291   2
   1   2 -13 533.942 330.913  10
   1  -2  13 1490.46 323.650  17
  -1  -2  13 1633.47 494.433  16
   1   2 -13 646.781 193.368   1
  -2   1 -13-158.428 326.765  10
  -2  -1  13 1723.94 443.842  17
   1   2 -13 1064.23 312.791  11
   2   1 -13 430.638 235.746  11
   2  -1  13 396.343 135.011   6
   2  -1  13 1231.45 473.511  16
   2   1 -13 6.15621 326.350  10
  -2   1 -13-56.5412 267.380   9
   2  -1  13 1385.04 362.187   2
  -2  -1  13 1446.63 426.898   2
   2  -1  13 37.5940 221.574   8
  -1  -2  13-306.217 386.251   6
   1   2 -13 1007.35 497.562   9
   1  -2  13 956.318 296.834   8
   1  -2  13 1647.61 517.756  16
   1  -2  13 2030.28 443.823   2
  -1   2 -13 1078.78 415.100   9
  -1  -2  13 1674.75 423.484  17
   1  -2  14-35.1894 89.3908   8
  -1  -2  14 165.145 209.852  16
  -1  -2  14 98.0395 121.756  17
  -1   2 -14-45.3406 79.5819   9
   2   1 -14-263.680 506.778  10
   2  -1  14-27.5464 77.7355   2
  -2   1 -14-571.553 331.980   9
   1   2 -14 246.328 307.536  10
   1  -2  14-26.1495 151.731   6
   2   1 -14-25.1484 88.2482   1
   2   1 -14 179.790 218.333  11
   1  -2  14-49.0748 147.244   2
   1  -2  14 0.77760 130.767  16
  -1  -2  14 23.5271 109.675   2
  -2  -1  14 6.56795 147.752   2
  -2  -1  14 117.070 152.376  17
   2   1 -14 119.194 283.545   9
  -2  -1  14 183.718 285.289  16
  -1   2 -14 67.0938 119.019  11
   1   2 -14 76.7535 113.988   1
  -2   1 -14-251.156 429.465  10
  -1   2 -14 247.034 285.698  10
   1   2 -14 233.240 193.354  11
   1   2 -14 655.913 377.340   9
   1   2 -14 139.402 144.402  18
   2  -1  14 88.7638 211.217  16
   1  -2  15-12.0096 179.348   6
   1   2 -15 232.332 188.452  11
  -1  -2  15 841.607 316.292  17
   2  -1  15 847.269 301.908   2
   2   1 -15-52.9969 148.391   1
  -2  -1  15 848.099 365.187   2
  -1  -2  15 633.559 318.598  16
  -1   2 -15 224.132 131.044  11
  -2  -1  15 414.292 285.332  16
   2   1 -15 26.5684 38.2527  11
   1   2 -15 332.327 301.300   9
   2   1 -15 96.7710 97.2149   9
   1   2 -15 273.653 150.275   1
  -1  -2  15 1021.87 366.468   2
  -1   2 -15 282.429 229.388  10
   1   2 -15 253.179 170.749  18
   2  -1  15 623.974 376.995  16
  -1   2 -15 164.621 206.832   9
   1  -2  15 686.404 392.535  16
   1  -2  15 1081.22 350.923   2
   1   2 -15 291.900 287.736  10
   1  -2  15 515.367 213.282   8
  -2  -1  15 706.864 281.075  17
   2  -1  16 32.9292 72.7992   2
   1  -2  16 47.2023 73.7673   8
  -1  -2  16 360.034 248.713  16
  -1   2 -16-203.638 217.019   9
   2   1 -16-473.732 516.153   9
   1   2 -16 88.5164 189.802  10
   1   2 -16 391.574 249.570  11
   1  -2  16-518.010 461.934   6
  -2  -1  16 459.004 376.860  16
  -1   2 -16 4.42562 160.963  10
  -1  -2  16 3.99115 70.0241   2
   1  -2  16 14.7594 42.1878   2
   1  -2  16 92.0875 220.806  16
   2  -1  16 134.776 96.6628  16
   1   2 -16 106.519 94.7335   1
   1   2 -16 118.941 206.730   9
  -2  -1  16 274.947 262.340   2
  -1  -2  16 208.361 156.347  17
   2   1 -17-896.970 760.527   9
   1  -2  17 183.582 187.986   8
   1   2 -17 69.9809 132.315  11
  -1  -2  17 134.481 49.4155  17
   1   2 -17 114.532 191.329  10
  -1  -2  17 157.555 162.214   2
  -1   2 -17 5.36269 213.308  10
   1   2 -17 104.472 115.132   1
   2  -1  17 166.435 137.868   2
  -2  -1  17 175.141 115.208   2
  -2  -1  17 284.291 341.583  16
  -1  -2  17 210.069 292.725  16
   2  -1  17 46.4574 146.943  16
   1  -2  17 185.257 259.445  16
   1  -2  17 219.520 214.148   2
  -1   2 -17 139.081 232.544   9
   1   2 -17-25.4958 81.1781   9
   1   2 -18 88.9354 121.783   1
   1   2 -18 235.748 321.859   9
   2  -1  18 136.050 292.499  16
  -2  -1  18-8.88804 155.145   2
   1  -2  18 89.8217 157.743   8
  -2  -1  18-35.1208 66.3033  16
   1  -2  18 143.554 229.304  16
   1  -2  18 48.1510 85.2875   2
  -1  -2  18-151.033 267.407  17
   1   2 -18-344.304 508.908  10
  -1  -2  18-137.959 208.039   2
  -1   2 -18 44.3780 274.502   9
   1   2 -18-87.7601 117.290  11
   2  -1  18 34.1121 107.140   2
  -1   2 -18-331.660 422.715  10
  -1  -2  18-16.1319 102.837  16
  -1  -2  19-61.7454 116.584   2
   2  -1  19 119.035 315.661  16
   1   2 -19 88.9196 115.522   1
   2  -1  19 76.7117 244.062   2
   1  -2  19 139.106 172.770   8
   1  -2  19-69.2762 165.741   2
   1  -2  19-516.551 363.579  16
  -1   2 -19-413.369 460.755   9
   1   2 -19 4.93011 133.531   9
   1   2 -19-679.767 678.505  10
  -2  -1  19 210.285 237.984   2
  -1   2 -19-646.214 673.801  10
  -1  -2  19 178.537 270.347  16
  -2  -1  19 322.427 300.964  16
   1   2 -20-23.2882 104.270   1
   1  -2  20 48.5823 59.9268   2
   2  -1  20-201.724 228.058  16
   1  -2  20 204.069 353.234  16
  -2  -1  20 267.889 423.656  16
  -1  -2  20 270.451 360.399  16
   1  -2  20 72.8293 16.5773   8
  -1  -2  20-73.2857 143.125   2
   1  -2  21 38.7498 156.553   2
   1  -2  21 102.710 173.295   8
  -1  -2  21-29.2371 172.238  16
   1  -2  21 350.127 385.652  16
  -1  -2  21 37.2085 58.9148   2
  -2   2  -1-2.34831 36.2999  12
   2  -2   1-3.29838 43.5776   8
   2  -2   2 563.601 173.034   6
  -2   2  -2 520.926 128.480  19
   2  -2   2 398.838 112.327  14
   2   2  -2 452.645 195.342  13
  -2   2  -2 474.827 177.861   3
   2   2  -2 56.5018 79.7580   1
   2  -2   2 504.658 137.828   8
  -2   2  -2 605.340 168.225  12
  -2   2  -3 8.03334 16.1574  19
   2   2  -3-21.2139 39.6685   1
   2   2  -3-0.09980 11.1892   3
  -2  -2   3 3.48295 37.9977  17
   2  -2   3 4.70264 11.7059   8
  -2   2  -3 10.4634 39.8954  12
  -2  -2   3 38.5027 84.5467   2
  -2   2  -3 14.9627 44.0122  13
  -2   2  -3 12.6667 54.1646   3
   2   2  -3-0.67342 46.3282  13
   2  -2   3-18.8842 61.5273  16
   2  -2   3-8.74513 31.8350  14
   2  -2   3-2.61839 32.1169   6
   2   2  -3 3.63552 16.3326  18
   2   2  -4 118.125 82.2717  13
   2  -2   4 112.783 61.1062   8
  -2  -2   4 130.295 98.4629  17
   2   2  -4 90.3485 91.2112  18
  -2   2  -4 137.041 71.4567   4
  -2   2  -4 111.993 77.7603   3
  -2   2  -4 118.482 62.1192  19
  -2   2  -4 108.658 65.7507  12
   2  -2   4 93.7707 82.5337  16
  -2  -2   4 70.9757 65.3651  16
   2  -2   4 115.117 53.0045  14
  -2   2  -4 107.883 47.5354   5
   2   2  -4 145.940 80.1224   3
   2   2  -4 55.4076 70.0202   1
   2  -2   4 90.9059 64.1287   6
  -2  -2   4 105.343 97.2481   2
  -2   2  -4 74.2194 65.8204  13
   2  -2   5 22.6113 55.2685  16
   2   2  -5 1.23735 15.1941  12
  -2   2  -5-1.07094 73.2143  13
  -2  -2   5 22.4463 30.6759   6
   2  -2   5 14.5089 34.7521   8
  -2  -2   5-42.1176 73.4079   2
  -2  -2   5-24.9288 11.2670  17
  -2   2  -5 9.76713 45.8831  12
   2   2  -5 2.11052 4.49660   3
   2   2  -5-4.43213 36.5418  18
   2  -2   5-4.55054 30.5348   6
  -2   2  -5 4.48756 13.7777  19
  -2  -2   5-3.79872 27.6891  16
   2   2  -5 10.6909 27.3001   1
   2  -2   5 14.7148 32.5074  14
   2  -2   5-22.6799 73.6045   2
  -2   2  -5 13.4727 65.9237   3
  -2   2  -5-22.9939 39.7635   4
  -2  -2   5 1.70177 23.6066   5
  -2   2  -5-3.78282 26.0795   5
   2  -2   6 4706.66 540.629   2
   2   2  -6 3597.16 510.995   1
   2   2  -6 4320.37 552.544   7
  -2   2  -6 4344.33 418.625  19
  -2  -2   6 4539.82 640.123   2
  -2  -2   6 3166.69 433.651   5
  -2  -2   6 4318.87 632.787  17
   2  -2   6 4104.77 439.489   8
   2   2  -6 4535.86 555.645  18
  -2   2  -6 4643.50 449.602  11
  -2   2  -6 3137.43 331.875   5
  -2   2  -6 3697.37 462.145   4
   2  -2   6 4789.14 461.175  14
   2  -2   6 4575.17 615.918  16
  -2   2  -6 4135.61 301.130  18
  -2  -2   6 1778.58 265.580   6
  -2  -2   6 4203.06 524.790  16
   2   2  -6 4049.99 526.654  15
   2  -2   6 4994.86 614.406   6
   2  -2   6 4992.18 374.033  17
   2   2  -7-17.4513 37.0613  11
  -2  -2   7 12.1496 50.5034  17
   2  -2   7 7.30703 96.3657  16
   2  -2   7-8.74174 56.7309   6
  -2  -2   7 62.7097 71.3304   6
   2  -2   7-13.8791 14.9290  17
   2  -2   7 0.49685 58.6830  14
  -2   2  -7-2.06751 27.3037  19
  -2  -2   7-51.2169 66.3448  16
   2   2  -7-33.4042 71.7823  15
   2   2  -7 14.4457 38.8527  18
   2   2  -7-94.5845 158.973   7
  -2   2  -7-1.24112 12.3032  18
   2  -2   7-5.79587 20.6982   8
  -2  -2   7-40.1141 48.4855   2
   2  -2   7 10.9692 38.2636   2
   2   2  -7-8.49777 28.1086   1
  -2  -2   7 9.53386 20.5374   5
  -2   2  -7-2.16028 28.2139  11
  -2   2  -7-6.88118 58.7721   4
  -2   2  -8 248.513 90.0565  18
  -2   2  -8 479.667 311.109  15
  -2   2  -8 557.891 261.617  10
  -2   2  -8 349.279 135.269  19
   2  -2   8 561.440 192.383   2
   2   2  -8 407.917 176.033  18
   2  -2   8 510.243 136.095  17
   2   2  -8 417.542 235.883  10
  -2  -2   8 21.5420 63.9480   6
   2  -2   8 448.547 206.511  16
   2   2  -8 507.395 208.013  11
  -2   2  -8 474.360 172.105  11
  -2   2  -8 455.464 318.425   7
  -2  -2   8 310.714 142.838  16
  -2  -2   8 531.412 229.013   2
  -2  -2   8 498.800 152.848   5
   2  -2   8 454.413 165.831   8
   2   2  -8 422.029 164.363   1
   2  -2   8 338.850 167.321   6
  -2  -2   8 645.542 249.375  17
   2  -2   8 397.390 160.357  14
   2   2  -9-38.8775 53.1980  18
   2  -2   9-7.38610 43.3988   2
   2  -2   9 68.2660 120.441   6
  -2  -2   9-18.6602 54.1409   5
  -2   2  -9 18.2500 113.574  10
   2   2  -9-18.4817 82.5610  11
  -2   2  -9 143.822 200.325   9
   2   2  -9 54.5041 94.0497  10
  -2   2  -9 16.4941 66.6932  11
   2  -2   9-4.36528 64.4522   8
  -2  -2   9 11.1614 86.1219   6
   2  -2   9 7.91344 105.380  16
  -2  -2   9 16.4373 85.7602  16
   2   2  -9 37.6973 38.5628   1
  -2   2  -9-37.9759 148.324   7
  -2   2  -9 14.1006 16.2317  18
  -2   2  -9 3.54522 20.5897  19
   2  -2   9 0.61360 34.1308  17
  -2   2  -9 27.6633 129.236  15
   2  -2   9 15.1454 36.1919  14
   2   2  -9 86.7581 160.888   9
  -2  -2   9 61.6975 80.8324   2
  -2  -2   9 31.6328 60.0731  17
  -2   2 -10 207.320 170.979  15
   2  -2  10 376.038 130.583  17
   2  -2  10 349.493 213.986  16
   2   2 -10 436.167 193.911   1
  -2   2 -10 234.281 102.442  19
  -2  -2  10 371.571 205.144  16
   2   2 -10 410.852 196.826  18
   2  -2  10 169.766 149.519  14
  -2  -2  10 584.795 245.009  17
  -2  -2  10 571.544 240.482   2
  -2  -2  10-127.034 198.945   6
   2   2 -10 425.644 263.924  10
  -2   2 -10 193.954 115.459   7
   2  -2  10 332.442 159.133   6
  -2   2 -10 383.737 213.817  10
  -2   2 -10 329.514 142.407  11
  -2  -2  10 510.487 146.648   5
   2   2 -10 633.955 411.660   9
  -2   2 -10 705.050 327.676   9
   2  -2  10 402.659 170.864   8
   2   2 -10 467.187 232.876  11
   2  -2  10 586.996 223.073   2
   2   2 -11-23.1547 61.6998  18
   2  -2  11 18.3773 60.8632   8
   2  -2  11-3.76763 32.5977  17
  -2  -2  11 49.3794 104.253  16
  -2   2 -11-19.5063 49.1493  11
  -2   2 -11 218.701 284.569  10
  -2  -2  11-0.31006 22.3013   5
   2   2 -11-67.8059 174.316   9
  -2   2 -11 29.9219 29.3904   9
   2  -2  11 70.4455 98.4914   2
   2   2 -11 12.0295 50.5029  11
   2   2 -11 96.9012 166.830  10
   2  -2  11 48.7097 134.862  16
  -2   2 -11-203.947 359.954   7
  -2  -2  11 42.9929 66.2306  17
   2   2 -11 19.3810 58.0394   1
  -2   2 -11-54.9536 108.969  19
   2  -2  11 50.8396 77.4929   6
  -2  -2  11 35.0006 123.524   2
  -2   2 -11-256.473 374.515  15
  -2  -2  12 730.804 184.854   5
   2   2 -12 552.777 205.870   1
   2   2 -12 602.849 345.360   9
   2  -2  12 661.766 236.303   8
   2   2 -12 522.162 227.849  18
  -2  -2  12 721.961 311.665   2
   2   2 -12 632.682 293.068  11
   2  -2  12 630.919 310.435  16
   2  -2  12 1029.03 291.732   2
   2   2 -12 301.947 262.783  10
  -2   2 -12 340.985 214.460   9
  -2  -2  12 674.593 305.133  16
  -2  -2  12 882.601 321.402  17
  -2   2 -12 315.935 206.123  10
  -2   2 -12 177.670 101.738  11
   2  -2  12 524.492 283.311   6
   2   2 -13-148.284 221.941  10
  -2  -2  13 36.7210 117.159  17
  -2  -2  13 39.2244 104.408   2
  -2   2 -13-51.5119 62.8987   9
   2   2 -13-16.2503 82.7706   9
   2  -2  13 41.8240 69.4410  16
   2  -2  13-30.3687 84.0569   2
   2   2 -13-6.52673 38.4215   1
  -2   2 -13-35.8028 93.1711  11
   2  -2  13 16.2114 7.56528   6
  -2  -2  13-85.6316 128.031  16
  -2  -2  13-6.61360 32.0310   5
  -2   2 -13-156.499 171.789  10
   2  -2  13 10.0055 39.4555   8
   2   2 -13 14.2446 87.2582  18
   2   2 -13-93.8986 115.349  11
   2  -2  14 411.360 211.182   8
   2   2 -14 210.321 167.806  11
  -2   2 -14 10.7680 172.742   9
  -2  -2  14 319.324 112.058   5
   2   2 -14-187.272 311.999   9
   2   2 -14 119.112 103.137  18
   2   2 -14 153.026 171.095  10
  -2  -2  14 51.6620 136.908  16
  -2  -2  14 307.645 197.959   2
   2  -2  14 529.403 325.316  16
  -2   2 -14 256.952 259.621  10
   2  -2  14 566.373 389.843   6
   2   2 -14 32.9321 81.5508   1
   2  -2  14 507.001 218.112   2
  -2  -2  14 272.242 167.840  17
  -2  -2  15 15.5482 140.185  16
   2  -2  15-116.068 116.732   8
   2   2 -15-68.9569 59.0582   1
   2  -2  15 42.8331 195.688   6
   2   2 -15 135.330 251.493   9
  -2   2 -15 117.045 279.640   9
   2  -2  15 56.3393 147.063  16
   2   2 -15 46.3717 155.559  11
  -2  -2  15-64.3137 108.698   5
  -2   2 -15-106.211 220.125  10
  -2  -2  15 13.8233 54.1804   2
   2  -2  15-64.2666 121.848   2
  -2  -2  15 23.2469 102.962  17
   2   2 -15-0.43174 90.2126  18
   2   2 -15-44.1904 165.647  10
   2   2 -16-90.2187 214.121  10
  -2  -2  16-6.49443 102.033   2
   2   2 -16-45.2646 47.3690   1
   2  -2  16-84.7457 164.978  16
  -2   2 -16 33.0504 100.956   9
   2   2 -16 56.3288 116.320  18
  -2   2 -16-228.710 279.908  10
   2  -2  16 6.73507 73.1294   2
  -2  -2  16 14.4528 67.5226  17
   2  -2  16-40.5257 133.418   6
   2  -2  16 130.837 161.458   8
   2   2 -16 91.4166 100.976  11
  -2  -2  16-86.6840 108.460  16
   2   2 -16-95.4348 210.143   9
   2   2 -17 10.5079 115.079  11
   2  -2  17-56.9478 193.473  16
   2  -2  17-757.047 440.799   6
  -2  -2  17 31.4916 130.646   2
  -2  -2  17 17.0588 84.4075  17
   2   2 -17 16.8081 41.3604   1
  -2   2 -17-103.735 215.165  10
   2   2 -17-203.914 398.383  10
  -2  -2  17-65.8064 224.726  16
   2  -2  17-115.093 115.948   2
   2  -2  17 181.857 181.152   8
   2   2 -17-287.550 307.600   9
  -2   2 -17 259.417 308.499   9
  -2  -2  18 251.684 277.013   2
  -2   2 -18 33.0835 9.01281   9
   2  -2  18-889.770 690.140   6
   2  -2  18 208.365 232.604  16
  -2  -2  18 571.595 388.983  16
  -2  -2  18 225.550 99.8577  17
   2   2 -18-370.734 513.899  10
   2   2 -18 125.943 139.675   1
   2  -2  18 340.172 208.564   2
  -2   2 -18-324.628 493.726  10
   2  -2  18 145.937 119.021   8
   2   2 -18-114.186 114.838   9
   2   2 -18 182.171 263.395  11
   2   2 -19-190.587 333.437   9
  -2  -2  19 114.680 220.330  16
   2   2 -19-813.246 901.791  10
   2  -2  19-33.8239 125.617   2
  -2  -2  19-314.341 328.302  17
   2   2 -19 1.76581 36.5852   1
  -2   2 -19-583.277 726.925  10
   2  -2  19 51.9243 102.536  16
  -2  -2  19-33.3749 164.112   2
   2   2 -19 41.9598 86.8654  11
  -2   2 -19-445.847 510.209   9
   2  -2  19-18.9996 116.812   8
   2   2 -20-828.991 531.715   9
   2  -2  20 556.961 376.739   8
   2   2 -20 144.207 118.845   1
  -2  -2  20 735.839 385.903   2
  -2  -2  20 674.679 358.266  16
   2  -2  20 793.495 486.448  16
   2  -2  20 791.172 376.348   2
  -2   2 -20-981.019 817.900   9
   2  -2  21-8.31789 95.3508  16
   2  -2  21-37.9948 151.712   2
  -2  -2  21-28.0544 195.450  16
   2  -2  21 1.76100 64.5015   8
   2   2 -21 40.1935 88.1738   1
  -2  -2  21 155.604 199.971   2
  -3   0   0 0.27253 23.8947   2
  -3   0   0 4.78602 34.6741  12
   3   0   0 13.5032 23.6730   1
   3   0   0 9.67935 46.1925   8
  -3   0   0 24.0484 58.7653  19
  -3   0   0 5.73466 34.0494  17
   3   0   0 0.41703 19.9955  14
   3   0   0-5.62045 23.9437  18
   3   0   0-6.67927 25.8820  11
  -3   0   0 1.73524 31.2548   5
  -3   0   0-15.3763 7.13137   4
   3   0   0 7.40137 33.4542   6
   3   0  -1 1338.48 224.676  11
   3   0  -1 1355.31 285.583   1
  -3   0   1 913.110 150.142  12
  -3   0   1 1386.62 248.568  19
  -3   0  -1 992.782 193.889  17
  -3   0  -1 1002.71 258.137   5
  -3   0   1 1119.99 227.684  17
  -3   0  -1 865.613 233.872  19
   3   0  -1 1480.16 186.152   6
  -3   0  -1 906.640 252.267   4
   3   0   1 1190.37 269.100  14
  -3   0   1 1174.45 238.952   5
   3   0  -1 1368.00 255.244  14
  -3   0   1 1264.28 240.878   4
   3   0  -1 1171.23 208.122  18
   3   0  -1 1286.31 212.453   8
   3   0   1 1337.98 195.580  18
   3   0   1 1196.68 218.217   6
   3   0   1 1165.17 240.001   8
   3   0   1 1323.87 296.405   1
  -3   0   1 1241.69 212.864   2
   3   0   2 8.52321 35.4931   8
  -3   0   2-1.58655 13.4357   2
  -3   0  -2 10.3637 10.5276   4
  -3   0  -2-15.1123 59.4867  19
   3   0  -2 6.75824 4.75580   8
   3   0  -2-3.15240 26.4719  18
  -3   0  -2-5.81867 17.0340  17
   3   0   2 9.38312 52.1046  14
   3   0   2 3.30130 30.2699  16
   3   0  -2 12.4883 45.7912  11
   3   0   2-20.4313 31.0015   1
   3   0  -2-8.83732 16.3741  14
  -3   0   2 6.96153 35.4144  19
   3   0   2 16.3001 27.3836   6
  -3   0   2 18.0417 37.7765   4
   3   0  -2 4.81011 20.2716   1
  -3   0  -2 17.1889 62.6355   5
   3   0  -2-15.7715 21.4716   9
   3   0   2-12.8133 33.7293  18
  -3   0  -2-41.7294 77.3857  15
  -3   0   2-8.49173 3.01850  17
  -3   0   2 12.3636 29.3484   5
  -3   0  -2 30.5347 83.6479   7
  -3   0   3 14.3792 43.0830  17
  -3   0  -3-11.4260 64.6702   7
   3   0  -3 21.0295 48.7534  14
  -3   0  -3-25.1211 81.8086  15
  -3   0   3 14.9604 12.7324   5
   3   0  -3 5.92289 21.9751  11
   0   3  -3 2.38778 45.0335   3
   3   0  -3 13.5206 12.5572   1
   3   0   3 11.7238 53.3666  14
   3   0   3-22.1253 68.6198   6
   3   0   3 9.66016 78.6195   1
   3   0  -3 16.7342 11.4099  18
  -3   0   3 13.2586 27.1898  19
   3   0  -3 27.1399 33.6419   8
   3   0  -3-18.6347 66.1287   9
  -3   0  -3-7.74447 16.1687   4
   3   0   3 7.77795 33.7930  16
   3   0   3 5.45273 67.4277   8
  -3   0   3 17.5280 34.4550   2
   3   0  -4-2.34620 19.1177  14
  -3   0  -4-44.4181 155.912   7
  -3   0   4-4.66120 16.0837  17
   0  -3   4-11.5893 39.7266   6
   3   0   4-9.25541 4.36034   6
   3   0  -4-2.85810 49.1691  11
  -3   0   4 11.6130 38.3418   2
   3   0  -4 15.3977 59.7017   9
   3   0   4-24.3377 58.7806   8
  -3   0   4-11.2505 35.4479   5
   0   3  -4-5.50813 62.2188  13
   3   0   4-9.33168 44.1634  14
  -3   0  -4-216.429 165.674  15
   3   0  -4 7.83247 27.9970  18
   0   3  -4-4.50839 33.3301  12
   0   3  -4-6.33909 40.6969   3
   3   0   4 0.19645 7.09336  16
   3   0  -4 9.38673 41.1497   1
  -3   0   4 7.48090 12.1751  19
  -3   0   5 146.705 107.364  17
   0   3  -5 192.337 93.3114  12
   3   0   5 98.2859 93.5356  16
   0  -3   5 158.173 98.6270   6
   0  -3   5 41.5120 50.7678  16
   3   0  -5 18.0631 42.6246   9
   0   3  -5 175.964 121.894  13
   3   0   5 43.2962 80.4524   8
   0   3  -5 195.968 108.345   3
   0  -3   5-22.2559 154.812   2
   3   0  -5 75.1655 80.2370  11
   3   0  -5 87.3040 84.4779  18
   3   0  -5 136.284 75.8461  14
   3   0   5 115.341 104.145   6
   3   0  -5 82.0816 62.0848   1
  -3   0   5 125.254 90.1328   2
   3   0   5 46.3355 80.0536  14
   0  -3   6-10.1749 48.7648  16
   0   3  -6-4.03960 41.1537  12
  -3   0   6-28.9877 54.8644   2
  -3   0   6-9.45062 28.3006  17
   3   0  -6-6.10856 31.2299   1
   0  -3   6-12.7266 37.1435  17
   3   0  -6 1.37524 24.9637  14
   0  -3   6-58.3539 127.678   2
   3   0   6-5.64676 65.7220  16
   0  -3   6 3.70465 33.7088   6
   0   3  -6 18.3825 64.2448   3
   0   3  -6-15.0962 26.5225  13
   3   0  -6-74.2587 183.057   9
   3   0  -6 11.1608 58.7678  11
   3   0   6 42.4741 87.1549   6
   0   3  -6-12.9533 24.8053  18
   3   0  -6 8.75925 43.7337  18
   3   0   6-20.5886 102.926   8
   3   0   7 1202.66 358.112  16
   0   3  -7 2957.51 397.051  12
   3   0  -7 1171.63 199.981  14
   3   0   7 462.912 164.454   8
   0   3  -7 3156.61 500.926   3
   0   3  -7 2311.55 495.132  13
   0  -3   7 2869.94 452.999   6
  -3   0   7 2160.06 431.611  17
   3   0  -7 1029.40 269.040   1
   0  -3   7 2925.44 509.183  17
   0  -3   7 2727.84 502.006  16
   0   3  -7 2844.26 426.382  18
   3   0  -7 6.30456 244.390   9
   3   0  -7 830.284 264.796  11
   0  -3   7 2440.09 535.824   2
   0  -3   7 1301.63 174.142   8
  -3   0   7 1960.58 383.837   2
   3   0   7 985.614 350.687   6
   3   0  -7 1171.58 300.054  18
   0  -3   8-4.66585 28.6234   6
   3   0  -8 10.0794 76.2758  11
   0   3  -8-10.5855 53.6937  18
  -3   0   8 10.3222 74.6776   2
   0   3  -8 68.4197 96.0320   3
   3   0   8 39.7199 108.645  16
   3   0  -8-8.21522 102.717   1
   0  -3   8 29.3859 32.7264  17
  -3   0   8 18.5675 40.4835  17
   0  -3   8-6.26377 22.2976   8
   0  -3   8 19.8726 38.8084   2
   3   0  -8-1.51403 50.2401  18
   0  -3   8 38.8457 101.761  16
   3   0   8 10.2649 80.8132   6
   0   3  -8-3.98172 45.0173  12
  -3   0   8-93.6196 191.187  16
   0  -3   9 278.191 155.247  16
   0  -3   9 325.793 218.051   2
  -3   0   9-58.2363 175.731  16
  -3   0   9 230.855 159.411  17
   0  -3   9 252.669 74.0043   8
   3   0   9-14.8301 116.203   6
  -3   0   9 93.2568 33.2045   2
   3   0  -9-284.787 454.213   9
   0  -3   9 330.298 155.357  17
   0   3  -9 273.650 134.936  18
   3   0   9 102.312 136.536  16
   3   0  -9 23.8151 115.108   1
   0  -3   9 268.462 164.924   6
   3   0  -9 24.3041 68.1056  11
   0   3  -9 38.4983 51.0321   1
   0   3  -9 447.360 213.803  11
   3   0  10 52.2760 145.641  16
   0  -3  10 22.9287 36.9650   8
   0   3 -10 12.4512 71.4750   1
   0   3 -10-0.78896 48.8219  11
   0  -3  10 12.9419 126.864   6
  -3   0  10-62.9685 207.812  16
   0  -3  10 21.2127 65.3870   2
  -3   0  10-43.8999 90.7464   2
   0   3 -10 40.5580 66.8034  18
   3   0  10-134.424 341.309   6
   0   3 -10 191.641 277.190   7
   3   0 -10-13.1137 33.2853  11
   0  -3  10-18.7535 23.8172  16
  -3   0  10-59.8211 96.4708  17
   0   3 -10 46.1205 154.931  15
   0  -3  10 12.2491 64.9856  17
  -3   0  11 37.7742 55.1169  16
   0  -3  11 15.2669 48.0651  16
   0  -3  11-39.5925 67.4928  17
   0  -3  11 12.4995 24.6023   6
   0  -3  11-8.27622 31.2549   8
   0   3 -11 12.0585 29.1805  18
   0   3 -11 50.8963 94.1333  15
   3   0  11-276.481 390.756   6
  -3   0  11-53.1090 152.516  17
   0   3 -11 233.933 260.731  10
   0   3 -11-72.9091 105.151  11
   0   3 -11-35.0919 135.433   7
  -3   0  11-59.5632 143.774   2
   3   0  11 22.1127 170.892  16
   0   3 -11 2.99290 43.6114   1
   0  -3  11 44.8796 123.210   2
   0  -3  12 12.0605 69.5751  17
   0   3 -12-58.4478 187.599   7
   0   3 -12-1.17930 15.0715  19
   0  -3  12 39.0793 113.552   2
   0   3 -12-32.9418 63.5866  15
   0   3 -12-88.8202 105.989  11
   0   3 -12-93.7662 113.509  10
  -3   0  12-25.7552 143.654   2
   0   3 -12-13.3620 32.0500  18
   0   3 -12 1.35451 37.2641   1
   0  -3  12-2.82938 26.0847   8
   0  -3  12-45.8007 90.2736  16
   3   0  12 80.8682 177.875  16
   0  -3  12 29.2440 103.779   6
   0   3 -13-288.767 502.986   7
   0   3 -13 363.602 178.914  18
   0  -3  13 388.809 258.588   6
   0  -3  13 673.880 316.793   2
  -3   0  13 297.202 161.354   2
   0   3 -13 495.159 324.999  10
   3   0  13 339.391 283.209  16
   0   3 -13-266.355 462.824  15
   0  -3  13 561.498 139.522   8
   0   3 -13 679.039 236.730  11
   0   3 -13 689.693 388.231   9
   0   3 -13 423.783 94.1753  19
   0  -3  13 598.243 224.961  17
   0  -3  13 507.391 249.805  16
   0   3 -13 249.601 116.292   1
   0   3 -14 0.35204 43.2473  18
   0  -3  14-108.875 100.656  17
   0   3 -14 6.60779 20.1801  19
   0  -3  14 352.638 161.248   8
   0   3 -14-47.4946 68.6686   1
   0   3 -14-53.1374 166.953  10
   0   3 -14 26.2407 34.8707  11
   0  -3  14 154.503 223.521   2
   3   0  14-115.844 36.3825  16
   0  -3  14 216.768 316.052  16
   0   3 -14 97.7698 164.361   9
   0  -3  15 96.2886 174.530   6
   0  -3  15 197.923 196.566  16
   0  -3  15 320.163 134.972   8
   3   0  15 357.095 317.677  16
   0   3 -15 31.2439 60.1232   1
   0  -3  15 322.148 191.522  17
   0   3 -15 112.428 123.910  11
   0   3 -15 63.9094 170.052  10
   0   3 -15 178.858 159.859  18
   0   3 -15 60.4869 92.9121   9
   0   3 -15 20.0965 27.3242  19
   0  -3  15 378.411 207.013   2
   0  -3  16 146.749 270.374   6
   0   3 -16 19.5964 69.4590  10
   0   3 -16 31.9641 41.9805   1
   0   3 -16-95.9656 116.861  11
   0  -3  16 22.1962 37.1161   8
   0   3 -16-23.0010 68.0779  18
   0  -3  16-90.4266 195.869  16
   0   3 -16 28.7815 2.91156  19
   0   3 -16 27.4845 217.322   9
   0  -3  16 8.62088 148.299   2
   0  -3  16-42.6617 81.4750  17
   0  -3  16-23.9168 36.6492   5
   0   3 -17 78.6557 68.9894   1
   0  -3  17 235.904 264.507   2
   0  -3  17 91.7506 14.5355  17
   0  -3  17 146.096 67.2193   5
   0  -3  17 184.115 231.192  16
   0  -3  17-274.905 367.485   6
   0   3 -17-25.1637 22.3324  10
   0   3 -17 214.580 205.143  11
   0  -3  17 64.1438 23.7969   8
   0   3 -17 52.3700 68.0633  19
   0   3 -17 45.2920 98.4434  18
   0   3 -17 314.229 321.418   9
   0   3 -18 175.712 102.787   1
   0  -3  18 130.093 125.014   8
   0   3 -18 177.132 194.768  10
   0  -3  18 23.0685 87.1784  16
   0  -3  18 151.289 167.215  17
   0  -3  18 28.4801 127.183   2
   0   3 -18 59.2400 8.08228  11
   0  -3  18 117.076 67.9942   5
   0   3 -18 87.2287 242.900   9
   0  -3  19 956.247 438.618   2
   0   3 -19 145.559 244.379   9
   0  -3  19 720.759 258.387  17
   0   3 -19-69.9029 225.980  10
   0   3 -19 217.786 212.352  11
   0  -3  19 820.285 278.394   8
   0  -3  19 563.529 344.587  16
   0   3 -20 159.045 195.415  11
   0  -3  20 223.412 206.550  16
   0   3 -20-170.336 357.365   9
   0  -3  20 53.0351 98.7447   8
   0   3 -20-83.2022 261.505  10
   0  -3  20 60.5879 180.714   2
   0  -3  21 729.225 414.237  16
   0  -3  21 1015.39 473.963   2
   0   3 -21-116.375 335.128   9
   0   3 -21-235.865 429.390  10
  -3   1   0 548.938 148.588  12
   3  -1   0 803.731 184.703   8
  -3  -1   0 219.643 135.473  17
  -3   1   0 102.036 47.8849  17
   3   1   0 401.021 165.329   8
   3  -1   0 899.322 201.829  14
  -3   1   0 808.354 185.633  19
   3  -1   0 763.221 173.658   6
  -3  -1   0 130.859 61.9464   4
   3   1   0 648.473 198.573  18
   3   1   0 409.586 185.116  14
  -3   1   0 759.924 176.545   4
   3  -1   0 823.225 204.456   1
   3   1   0 561.478 236.904   1
  -3   1   0 687.912 163.860   5
   3   1   1 156.204 89.4766   8
   3   1  -1 256.879 137.458  14
  -3   1  -1 547.766 161.213  19
   3   1  -1 441.617 195.968   1
  -3   1  -1 510.534 146.493   5
   3   1  -1 401.458 139.850   8
   3  -1  -1 374.524 138.572   1
   3   1  -1 418.395 135.764  13
  -3  -1   1 215.004 118.403   4
   3   1   1 98.5713 90.3250  14
   3  -1   1 673.125 166.932   6
  -3   1  -1 474.741 139.558  12
  -3   1   1 515.946 145.142  19
  -3  -1   1 325.427 155.480  17
  -3  -1   1 386.824 156.636   2
   3  -1   1 561.273 163.547   1
   3  -1  -1 438.780 145.834  14
  -3   1  -1 282.991 113.610   3
  -3   1  -1 521.108 157.176   4
  -3  -1   1 283.527 142.922  19
   3   1   1 201.972 148.996   1
   3  -1   1 520.003 159.518  14
  -3  -1   1 321.665 144.285   5
   3  -1  -1 394.643 128.944   8
   3  -1   1 448.950 143.835   8
   3   1  -1 532.140 179.949  18
   3   1  -2 293.605 159.884   1
  -3  -1   2 199.641 107.354   2
  -3   1  -2 207.224 106.950  19
  -3   1  -2 187.490 101.049   4
  -3  -1   2 181.834 98.1161  19
   3  -1   2 237.138 118.862   6
   3   1  -2 82.7664 83.0270  14
   3   1  -2 254.904 108.615  13
   3  -1   2 209.668 95.8855   8
  -3  -1   2 146.910 106.273   5
   3   1  -2 143.563 67.0346   8
   3   1  -2 205.748 107.396  18
  -3   1   2 7.16982 52.7308  17
  -3   1  -2 178.942 94.5553   3
   3  -1  -2 86.0163 51.6780   1
   3  -1   2 187.501 87.1886  16
  -3   1  -2 200.366 96.9581  12
  -3   1  -2 224.045 100.692   5
  -3  -1   2 177.539 106.043   4
   3  -1   2 227.514 106.613   1
   3  -1   2 227.436 114.821  14
  -3   1   2 136.677 75.8658  19
   3  -1  -2 46.3725 12.3225   8
   3  -1  -2 148.319 78.3710  14
  -3  -1   2 212.110 130.747  17
  -3  -1   3 40.0837 36.3201   4
  -3  -1   3 75.4311 86.4798   2
   3  -1   3 65.2753 48.2790   1
   1   3  -3 14.6559 88.4232  13
  -3   1  -3 55.3467 47.7746   4
   3  -1   3 103.168 84.1636   6
   3  -1  -3 23.6370 34.5461  14
  -1   3  -3 30.6439 37.6095   3
   3   1  -3 49.5836 58.4604  14
   3   1  -3 58.5813 60.1353  18
   3  -1   3 85.8408 73.3230   8
  -3  -1   3 76.5702 61.9902  19
   3  -1   3 77.1246 81.4114  14
   3   1  -3 77.9517 48.4095   8
   3   1  -3 88.6169 88.0524   1
  -3   1  -3 36.5274 50.7629   5
  -3  -1   3 66.2803 55.0193  17
  -3   1  -3 75.2393 77.9978  19
  -3  -1   3 64.3328 51.3933  16
  -1   3  -3 36.7273 34.7876  12
   3  -1   3 65.6434 51.8730  16
  -3  -1   3 44.8195 47.9311   5
  -1   3  -4 108.304 107.840  13
   3   1  -4 328.249 149.150  18
  -3   1  -4 225.246 132.826  19
   3   1  -4 240.745 111.560  14
   3  -1   4 366.240 145.832  14
  -1   3  -4 314.456 126.247  12
   1  -3   4 204.147 119.915   6
  -3  -1   4 374.354 118.953  19
   1   3  -4 250.784 136.435   3
  -3  -1   4 252.129 101.579  16
   3   1  -4 369.714 156.192  11
   3  -1   4 323.382 132.951   1
   3  -1   4 331.995 131.116  16
  -3   1  -4 308.423 152.539   4
  -3   1  -4 352.883 143.871  10
   3  -1   4 344.193 140.986   6
   1   3  -4 283.680 165.336  13
   3  -1   4 399.218 152.395   8
   3   1  -4 307.012 148.189   1
  -3   1  -4 234.794 129.966   5
  -3  -1   4 330.857 158.791  17
  -3  -1   4 363.601 153.839   2
  -1   3  -4 365.265 166.413   3
   3   1  -4 310.338 90.1721   8
   3   1  -4 353.588 136.314  10
  -3  -1   4 317.494 134.447   5
  -3  -1   4 346.678 116.640   4
   3  -1   5 169.623 101.006   1
  -3  -1   5 437.431 125.678   4
   3   1  -5 232.382 70.4849   8
  -3  -1   5 487.585 195.335   2
  -3  -1   5 493.059 126.102  19
  -3   1  -5 255.547 142.444   4
   1   3  -5 539.480 184.014   3
   1  -3   5 279.460 163.722  16
  -3   1  -5 511.009 147.262   9
   3   1  -5 489.646 173.692  18
   1  -3   5 463.906 169.929   6
  -3  -1   5 392.171 138.338  16
  -1   3  -5 591.085 227.171   3
   3  -1   5 460.107 176.169  16
  -3   1  -5 311.069 143.966  19
   3   1  -5 421.448 136.271  14
   1  -3   5 152.992 59.9877   8
   3   1  -5 429.699 185.314  10
   1   3  -5 376.060 116.453  12
   3  -1   5 582.428 208.172   6
   3  -1   5 416.432 166.168   8
  -3   1  -5 360.758 159.187  10
  -3   1  -5 139.023 95.4493   5
  -3   1  -5 534.960 273.258   7
  -1  -3   5 259.050 122.736  16
   1   3  -5 434.550 170.705  18
   3   1  -5 736.815 301.475   9
   3  -1   5 529.136 197.374  14
   1   3  -5 476.434 207.472  13
  -3   1  -5 565.998 264.428  15
  -3  -1   5 502.097 166.601   5
   3   1  -5 471.613 178.271   1
  -1   3  -5 433.841 224.095  13
  -1  -3   5 304.668 124.846   6
  -3  -1   5 512.499 210.216  17
  -1   3  -5 473.799 162.620  12
  -1  -3   5 144.100 131.232   2
  -1  -3   5 206.379 157.467  17
   3   1  -5 488.463 199.463  11
  -3   1  -6 682.574 220.620  10
  -1  -3   6 1079.41 356.116  17
  -3   1  -6 587.620 194.423  19
   3   1  -6 1264.37 320.542  11
   3  -1   6 1406.47 351.904  16
   1  -3   6 402.380 196.885   2
   1  -3   6 886.367 271.392  17
  -3   1  -6 1189.02 433.383   7
   1  -3   6 898.814 178.621   8
   1   3  -6 1530.61 395.363  13
   3   1  -6 1343.90 371.972   9
  -3  -1   6 1292.21 318.831   2
  -1  -3   6 1182.91 249.219   6
   3   1  -6 1231.73 294.310  18
   1   3  -6 1291.17 299.598   3
   3  -1   6 1223.33 178.390   2
  -1  -3   6 1030.87 292.853  16
  -1   3  -6 1432.07 343.383   3
   1   3  -6 1248.18 327.342  18
  -3   1  -6 332.806 150.519   4
   3  -1   6 1198.42 331.884   6
   3  -1   6 1186.33 320.776  14
  -1   3  -6 1122.88 334.519  13
  -1   3  -6 1023.78 246.633  18
  -1  -3   6 882.673 344.574   2
   1  -3   6 1190.63 331.135  16
   3   1  -6 1217.11 296.583   1
  -3  -1   6 1321.20 259.245   5
  -3  -1   6 875.017 229.853  16
   3   1  -6 761.297 252.021  10
   1  -3   6 1426.41 317.198   6
   3   1  -6 1087.34 200.401  14
  -1   3  -6 1374.42 285.672  12
  -3   1  -6 1233.85 410.485  15
  -3   1  -6 880.664 218.346   9
   1   3  -6 1262.69 225.064  12
  -3  -1   6 1366.16 333.585  17
   3  -1   6 1026.58 277.658   8
  -3  -1   6 709.782 145.408  19
  -3  -1   6 1153.03 181.897   4
  -3   1  -7 297.900 212.538  15
   1   3  -7 551.438 198.756   3
   3  -1   7 378.188 164.605  16
  -3  -1   7 494.678 222.217  17
  -3  -1   7 412.088 193.644   2
   1  -3   7 369.805 111.881   8
   3   1  -7 390.606 169.464   1
   3  -1   7 314.129 184.099  14
  -1   3  -7 472.674 198.323   3
  -1   3  -7 457.958 121.347   4
   1   3  -7 416.928 177.743  18
  -1  -3   7 335.915 140.093   6
   1  -3   7 500.179 197.387  17
  -1   3  -7 403.408 159.260  12
   3   1  -7 323.951 248.928   9
   3  -1   7 274.194 152.672   8
   3   1  -7 176.923 113.344  10
   1   3  -7 402.115 128.437  12
   3   1  -7 436.100 211.150  11
   1  -3   7 424.245 177.113   6
  -1  -3   7 378.748 205.825   2
  -3   1  -7 215.897 120.446  10
   1  -3   7 302.666 186.955   2
  -1   3  -7 402.332 144.529  18
  -3  -1   7 403.508 139.823   5
  -3   1  -7 129.958 57.5205   9
   1   3  -7 25.7059 63.8030   1
   3  -1   7 388.689 113.969   2
  -1   3  -7 350.692 193.773  13
   1  -3   7 514.206 226.517  16
  -1  -3   7 381.795 192.745  16
  -3   1  -7 298.973 242.463   7
  -1   3  -7 266.601 78.1121  19
   3   1  -7 361.954 162.904  18
  -1  -3   7 471.491 224.936  17
   1  -3   7 427.333 111.966  14
   3   1  -7 398.970 118.158  14
   1   3  -7 431.392 221.620  13
   3  -1   7 366.333 195.318   6
  -3  -1   7 339.636 171.250  16
   1  -3   8 1853.93 409.005   6
  -3  -1   8 1588.82 379.303   2
  -1   3  -8 1702.99 404.914   3
   1  -3   8 1965.34 461.797  16
  -3   1  -8 601.682 242.824  15
  -3   1  -8 487.595 210.909   9
  -1  -3   8 1648.13 462.183   2
   3  -1   8 1591.20 423.913  16
   1  -3   8 2129.50 258.106  14
  -3   1  -8 608.062 236.081  10
   1  -3   8 1554.58 240.079   8
   3  -1   8 1045.75 302.137   8
  -1  -3   8 2061.58 476.505  17
  -1   3  -8 1787.70 283.941   4
   3   1  -8 519.184 225.114  10
   3   1  -8 1562.19 384.482  11
   3  -1   8 1336.11 396.784   6
  -1   3  -8 1890.95 319.734  18
   3   1  -8 1455.68 334.704   1
  -3  -1   8 2087.85 448.401  17
  -1  -3   8 1413.69 322.310   6
   1   3  -8 2114.66 418.023   3
   3  -1   8 806.625 295.661  14
  -3  -1   8 1638.25 283.641   5
   3   1  -8 1460.08 223.463  14
   1  -3   8 1825.91 456.590   2
   1  -3   8 2263.68 388.762  17
   3   1  -8 1483.89 346.830  18
  -1   3  -8 1495.19 190.739  19
  -1  -3   8 1853.41 423.154  16
   1   3  -8 528.769 201.595   1
   1   3  -8 1850.12 383.397  18
   3  -1   8 1578.25 265.156   2
  -3  -1   8 1211.52 339.009  16
  -1   3  -8 1594.87 427.312  13
  -1   3  -8 1932.75 373.441  12
  -3   1  -8 606.938 284.776   7
   1   3  -8 1840.20 304.473  12
   3   1  -8 1100.91 397.460   9
   3   1  -9 225.987 83.9488  14
   1  -3   9 253.370 147.716   2
   3  -1   9 137.423 63.6178   6
  -1   3  -9 338.877 130.495  18
  -1  -3   9 130.610 123.646   6
   3   1  -9 3.71325 57.1408  10
   3  -1   9 260.706 184.333  16
   1   3  -9 311.168 151.053  12
   1  -3   9 302.420 103.308  14
  -1  -3   9 223.280 187.717  16
   3   1  -9 58.9778 12.0706   9
  -3  -1   9 298.559 156.385  17
  -3   1  -9 14.9415 73.2528  10
   1  -3   9 260.742 103.979   8
   1   3  -9 96.9718 78.1829   1
  -1   3  -9 279.883 80.9755  19
   3   1  -9 183.320 103.836   1
   3   1  -9 189.374 146.707  18
   1  -3   9 236.116 138.523   6
  -1  -3   9 349.935 222.264   2
  -3  -1   9 191.342 79.2350   5
  -3   1  -9 57.6516 84.5668   9
   1  -3   9 323.985 135.500  17
   3  -1   9 170.963 139.177   8
  -3  -1   9 177.181 110.642   2
   1   3  -9 502.931 253.310  11
   3  -1   9 235.012 95.2096   2
   1  -3   9 316.826 204.319  16
  -3  -1   9 161.088 118.873  16
  -1  -3   9 246.346 150.078  17
   1   3  -9 432.000 278.447  15
   1   3  -9 295.932 151.879  18
   3   1  -9 234.171 175.710  11
  -1   3  -9 542.616 207.304  11
  -1   3  -9 152.325 95.1275   4
   3  -1  10 89.6192 92.5143   8
   1   3 -10 163.455 120.176  11
   3   1 -10 112.032 59.3888  10
   1  -3  10 143.594 134.590   6
  -1   3 -10 138.381 173.726  15
   1   3 -10 117.298 101.600   1
  -1   3 -10 239.471 78.8636  19
   1  -3  10 166.121 85.8337  17
   3  -1  10 110.724 75.4536   2
   1   3 -10 109.413 151.363   7
  -1   3 -10 203.419 304.151   7
  -1   3 -10 113.174 94.1611  18
   1  -3  10 180.557 187.205  16
   3   1 -10 8.98724 46.0309  18
  -1  -3  10 229.953 186.145  16
  -3  -1  10 193.513 158.983  17
   3   1 -10 86.4285 101.243   1
   3  -1  10 116.908 160.967  16
  -1   3 -10 276.290 131.367  11
  -3   1 -10 73.0257 63.6942  10
  -3  -1  10 109.519 128.755  16
  -1  -3  10 171.551 121.021  17
   3   1 -10 81.3054 42.5860  14
   1  -3  10 122.643 105.499   2
   3   1 -10 143.927 158.088   9
   3  -1  10 93.8619 103.341   6
  -1  -3  10 143.707 46.1031   8
   3   1 -10 130.334 93.1813  11
  -3   1 -10 74.0894 49.5725   9
   1   3 -10 189.736 137.664  18
   1   3 -10 130.924 171.651  15
  -1  -3  10 238.673 157.077   2
  -1  -3  10 140.294 118.857   6
   1  -3  10 214.317 108.779  14
  -3  -1  10 205.542 175.908   2
   1  -3  10 185.608 86.5431   8
   3   1 -11-18.4304 37.5851  14
   3  -1  11 6.68949 53.5556   2
  -3  -1  11 74.2310 115.732   2
   1  -3  11 59.8565 101.969   6
   1   3 -11 38.2525 80.5297  18
  -3  -1  11 4.00872 46.4675  16
  -1   3 -11 19.3546 29.7540  11
  -1   3 -11 169.382 210.911  10
   1  -3  11 100.511 62.5804  17
  -1   3 -11 23.0116 115.265  15
   1   3 -11 22.7466 80.2111   1
  -3  -1  11 103.176 125.574  17
  -3   1 -11-76.7181 178.393   9
   1  -3  11 115.598 170.968   2
   3   1 -11-12.4779 89.8601  11
  -1  -3  11-21.4653 56.8997   6
   3   1 -11 52.0020 94.5545  18
   3  -1  11 41.4045 92.4800   8
  -1  -3  11 28.3737 18.1816   8
   3   1 -11-146.370 260.557  10
   1   3 -11 61.3445 156.242   7
   3  -1  11-7.63699 14.0655   6
   1   3 -11 115.124 111.422  15
  -3   1 -11-102.566 159.224  10
  -1  -3  11 46.8781 80.0417  16
  -1  -3  11 28.1541 60.7425  17
   1  -3  11 14.0368 12.7149  14
  -1   3 -11 60.9457 30.5058  19
  -1   3 -11 27.0395 24.5318  18
   1  -3  11 21.0557 35.5074   8
   1  -3  11 142.259 193.307  16
  -1  -3  11 40.3835 43.3222   2
   3  -1  11 11.8460 35.3801  16
  -1  -3  11 7.43995 13.8114   5
   1   3 -11 285.021 279.764  10
   1   3 -11 33.4113 124.560  11
  -1   3 -11 24.8045 180.595   7
   3   1 -11 57.1379 71.6067   1
   3   1 -11 5.35776 120.217   9
  -1   3 -12 90.1158 71.9278  18
   3  -1  12 77.0283 141.735   6
  -1   3 -12 68.0729 87.2024  11
  -1  -3  12 36.8170 47.2309   8
  -1   3 -12 84.2578 67.8435  19
   1   3 -12 557.145 420.776   9
  -3  -1  12 57.6229 82.4268  16
   3   1 -12-7.76805 49.7372  18
   1   3 -12 50.0783 70.1835   1
  -1   3 -12 119.986 267.088   7
  -1  -3  12 46.4639 74.5708   2
  -1   3 -12 262.116 326.142   9
   3   1 -12-48.0618 174.829  10
   1  -3  12 45.8267 51.5847   8
   1   3 -12-246.783 350.309  15
   3  -1  12 100.168 157.315  16
  -1  -3  12 54.9634 70.8249  16
  -1  -3  12 102.938 134.660  17
   1   3 -12 22.7727 52.8804  11
  -3   1 -12-612.162 307.380   9
  -3   1 -12-216.096 278.883  10
  -1   3 -12 150.441 284.116  15
   3  -1  12 56.7260 133.944   8
   1   3 -12-5.19369 67.1766  10
  -3  -1  12 78.9315 105.805  17
  -1   3 -12 78.7513 161.858  10
   1  -3  12 38.3282 78.4179  16
   1  -3  12 123.768 158.919   6
   1   3 -12-393.454 490.450   7
  -3  -1  12 39.8746 97.4137   2
  -1  -3  12 48.6807 61.2611   5
   1   3 -12 149.803 146.088  18
   3   1 -12-27.7596 57.0423   1
   3   1 -12-31.4872 93.8620  11
   3   1 -12-22.1054 35.8381  14
   3  -1  12-1.95657 83.2737   2
   1  -3  12 105.672 96.8528  17
   3   1 -12-52.4175 196.963   9
   1  -3  12 30.9948 34.5185   2
  -1  -3  12 71.1643 124.123   6
  -3  -1  13 58.0042 138.946  16
   1   3 -13 259.101 327.912   9
   3   1 -13 7.88329 54.5898  18
  -1   3 -13-777.575 453.259  15
  -1  -3  13-0.81308 30.3279  17
  -1   3 -13-97.0947 89.5679  19
  -1  -3  13-61.8438 84.7827   6
  -1  -3  13-27.6998 71.4367  16
   3   1 -13 7.44214 16.0193  14
   3  -1  13-60.2420 104.711  16
  -1   3 -13 41.6963 173.550  10
  -1   3 -13-772.515 454.530   7
   1   3 -13 141.543 157.429  11
   3  -1  13-29.7254 78.7931   2
   1  -3  13-65.4576 202.172  16
   1   3 -13-48.7606 99.9630   1
   1  -3  13-122.713 89.9055  17
   1  -3  13 1.43552 78.7754   2
  -3   1 -13-349.907 444.677  10
   3  -1  13-42.6654 102.562   8
   1  -3  13-18.8580 58.7264   8
  -3  -1  13-29.3136 51.9693  17
   1  -3  13-191.473 225.984   6
   3   1 -13 26.3389 187.921   9
  -1  -3  13-84.5224 143.186   2
  -1   3 -13-83.9023 114.486  11
   1   3 -13 137.197 182.769  10
  -1   3 -13 185.871 321.741   9
   1   3 -13-55.2506 105.960  18
  -1   3 -13-24.6726 48.8148  18
  -3  -1  13 90.0077 146.642   2
  -1  -3  13-45.4239 74.0659   5
   3   1 -13-13.3251 82.7177  11
   3   1 -13-279.138 460.152  10
  -1  -3  13 17.4551 25.6769   8
   3  -1  13-17.5546 131.250   6
   3   1 -13-28.3554 84.0139   1
  -3  -1  14 283.514 251.927  16
  -1   3 -14 44.6296 50.7982   1
   1  -3  14 506.678 200.615  17
  -3  -1  14 308.505 229.775   2
   1  -3  14 299.770 140.135   8
   3  -1  14 199.057 106.643   2
  -1   3 -14 357.715 335.153  10
  -1   3 -14 340.709 342.905   9
   3  -1  14-226.929 323.244   6
   1   3 -14 388.421 360.039   9
  -1  -3  14 415.552 416.935   6
   3  -1  14 112.254 67.6828   8
   1   3 -14 149.546 88.6334   1
  -3  -1  14 238.964 169.465  17
   1   3 -14 146.139 191.049  10
  -1  -3  14 383.130 315.668   2
  -1   3 -14 274.747 170.566  11
   1  -3  14 283.957 302.817   6
   1   3 -14 269.012 188.628  18
   1  -3  14 87.3100 166.825  16
   3  -1  14 248.162 264.304  16
   3   1 -14 36.3735 104.103   9
  -1  -3  14 320.098 139.375   5
   3   1 -14-20.8306 67.3232  11
   3   1 -14 71.4086 59.3969   1
  -1   3 -14 213.050 130.496  18
  -1  -3  14 463.394 257.866  17
  -1  -3  14 435.097 122.165   8
  -1  -3  14 222.138 202.822  16
   1  -3  14 317.785 246.546   2
  -1   3 -14 15.3551 96.3998  19
   1   3 -14 186.755 137.065  11
   1   3 -15 248.438 323.950  10
   1  -3  15 471.368 160.148   8
   3   1 -15-143.164 347.635   9
  -1  -3  15 321.927 115.628   5
   3  -1  15-843.399 449.110   6
  -1   3 -15 213.619 173.228  11
   3  -1  15 257.619 111.705   2
   1  -3  15 401.370 233.926  16
   3   1 -15 43.8823 75.7076   1
  -3  -1  15 409.750 249.413  17
   3  -1  15 266.938 251.539  16
  -3  -1  15 102.165 167.820  16
  -1   3 -15 134.742 91.4933  19
   1  -3  15 450.014 244.473   2
  -1   3 -15 128.473 78.2814   1
   3   1 -15 97.6374 141.810  11
   1  -3  15 426.382 185.828  17
  -1  -3  15 382.354 214.619  17
  -1  -3  15 360.999 122.558   8
  -1   3 -15 156.111 111.079  18
   1   3 -15 113.195 169.950  18
   1   3 -15 263.541 155.149  11
  -1   3 -15 141.958 191.770  10
  -1   3 -15 177.180 111.974   9
   1   3 -15 177.224 109.277   1
  -3  -1  15 487.501 289.884   2
  -1  -3  15 117.391 132.623   6
  -1  -3  15 240.112 196.184  16
   1  -3  15 156.665 164.328   6
   1   3 -15 377.265 333.075   9
   3  -1  15 157.255 178.074   8
  -1  -3  15 347.757 225.082   2
   1   3 -16 68.2478 88.5484   1
   1   3 -16-229.152 173.581  11
  -3  -1  16 82.2041 161.758   2
   3  -1  16 102.323 137.128  16
  -1   3 -16 51.7713 133.948  10
   3  -1  16-221.081 201.268   8
  -1   3 -16 133.699 105.703  19
   3   1 -16 126.658 132.903   1
  -1  -3  16-196.466 333.593   6
   3   1 -16-679.292 629.451   9
  -1   3 -16 112.831 145.438  11
  -3  -1  16 29.9624 222.965  16
   1   3 -16-71.9752 147.184   9
   1   3 -16-11.2789 103.521  10
  -1   3 -16-21.6572 39.0767   1
   1  -3  16-13.0423 71.0583   8
  -1   3 -16-147.812 129.701   9
   1   3 -16-13.2034 98.2145  18
   1  -3  16 18.4505 53.6266  17
   1  -3  16 45.0500 131.158  16
   1  -3  16-24.6193 99.1711   6
  -1  -3  16 73.1096 186.428   2
  -3  -1  16-133.607 207.051  17
  -1  -3  16-32.7655 53.3731   5
   1  -3  16 12.9552 57.6987   2
  -1  -3  16 86.8411 70.4605   8
  -1  -3  16 72.0797 129.273  17
   3  -1  16 51.7308 67.6796   2
  -1  -3  16 90.9145 215.516  16
   3  -1  17 272.366 186.369   2
  -1   3 -17 102.816 78.2248  19
  -1   3 -17 134.009 233.922  10
  -1  -3  17 316.958 128.352   5
  -1  -3  17 320.030 281.698   2
  -1   3 -17 37.1532 78.3593   1
  -3  -1  17 337.982 220.996   2
  -1   3 -17 251.192 250.396   9
   3  -1  17 18.3784 74.8955   8
  -1   3 -17 151.555 198.840  11
  -3  -1  17 292.144 304.920  16
  -1  -3  17 454.846 243.161  17
   1   3 -17 114.923 52.1968   1
   3   1 -17-871.127 761.288   9
   1   3 -17-134.048 290.733  10
   1  -3  17 394.402 196.218   8
  -1  -3  17-368.438 530.216   6
   1  -3  17 447.266 380.194   6
   1   3 -17 137.460 204.132  18
   1  -3  17 244.244 145.087  17
  -1  -3  17 338.080 156.123   8
   1   3 -17 322.851 250.858  11
  -1  -3  17 382.786 323.548  16
   3   1 -17 70.6674 156.322   1
   1   3 -17 124.029 275.545   9
  -3  -1  17-93.2036 257.433  17
   3  -1  17 259.085 401.927  16
   1  -3  17 485.940 298.978   2
   1  -3  17 306.070 186.615  16
   1  -3  18 1022.33 449.330   2
   1  -3  18 678.690 401.377  16
  -1  -3  18 538.003 177.943   8
  -1   3 -18-12.6085 43.5800  19
   3  -1  18 803.619 354.743   2
   1   3 -18 288.183 332.714   9
   1   3 -18 257.926 148.016  11
  -3  -1  18 601.222 413.699  16
  -1  -3  18 774.572 182.561   5
  -1   3 -18 146.462 104.052   1
   1   3 -18 102.197 180.679  18
  -3  -1  18 744.630 402.220   2
  -1  -3  18 368.969 323.515  16
   1   3 -18 310.314 321.950  10
  -1   3 -18 435.344 336.291   9
   1  -3  18 416.937 122.346  17
  -1   3 -18 220.944 188.003  11
  -1   3 -18 450.711 409.139  10
   3  -1  18 714.894 453.569  16
   1   3 -18 174.320 112.381   1
   1  -3  18 96.3772 59.7234   6
   3  -1  18 169.282 80.8288   8
  -1  -3  18 914.418 354.157  17
  -1  -3  18 596.132 305.067   2
   1  -3  18 615.338 274.379   8
   3  -1  19 226.869 238.261  16
   1   3 -19 208.567 268.945  10
   1  -3  19 173.156 294.683   2
  -1   3 -19 144.486 276.860   9
  -1  -3  19 202.725 134.439   5
   3  -1  19 164.359 197.479   2
   3  -1  19 33.8268 91.3792   8
  -1  -3  19 73.9593 85.4608  16
  -1   3 -19 208.572 361.097  10
   1   3 -19 10.4124 47.4415   1
   1  -3  19-461.857 532.309   6
  -3  -1  19 289.763 290.813  16
  -1  -3  19 291.672 310.293   2
  -1  -3  19 210.827 184.513  17
   1   3 -19 51.2342 187.792   9
   1   3 -19 112.778 153.451  11
  -1  -3  19 120.536 110.440   8
  -3  -1  19 247.094 219.501   2
   1  -3  19 153.696 173.101   8
  -1   3 -19 230.527 202.857  11
   1  -3  19 85.0761 323.108  16
   1  -3  20 1443.72 603.924  16
  -1   3 -20-15.0088 171.921   9
   1  -3  20 1068.10 364.948   8
  -3  -1  20 828.733 542.928  16
   1   3 -20 684.680 594.941  10
  -1   3 -20 96.0125 136.722  10
  -1  -3  20 1184.27 380.198  17
   1  -3  20 1188.80 467.357   2
   1   3 -20 1023.07 671.178   9
  -3  -1  20 1240.88 532.996   2
   1   3 -20 973.850 473.406  11
  -1  -3  20 1626.21 643.348  16
   3  -1  20 1128.51 667.528  16
  -1  -3  20 1435.56 633.924   2
  -1  -3  21 0.78215 253.091   2
   1   3 -21-33.9105 120.723   9
   1  -3  21-7.26545 24.5079   8
   3  -1  21 354.000 523.894  16
   1   3 -21-446.321 502.803  10
  -1   3 -21-8.14922 159.364   9
   1  -3  21 14.7170 128.516  16
  -1  -3  21-285.786 383.890  17
   1   3 -21-64.1334 140.048  11
  -1  -3  21-92.8797 198.333  16
   1  -3  21 27.6516 203.890   2
  -1   3 -21-504.420 574.278  10
   3  -2   0 5.48262 45.2012  14
   3  -2   0 36.8964 6.09573   8
  -3   2   0 24.3030 28.9926  19
   3  -2   1 58.2098 53.1842   8
   3  -2   1 42.1427 57.6281  14
   3   2  -1 9.62798 19.2763   1
  -3   2  -1 45.2369 25.9279  12
   3  -2   1 24.3741 39.3162   6
  -3   2  -1 54.0372 45.7803  19
   3   2  -2 673.207 236.362  13
   3  -2   2 890.101 232.735   6
  -3   2  -2 950.088 223.346  12
   3  -2   2 881.900 209.044  14
  -3  -2   2 304.846 161.503   2
   3  -2   2 564.249 143.831   1
   3   2  -2 655.486 234.418  18
   3  -2   2 840.367 197.204   8
   3   2  -2 519.342 238.552   1
  -3   2  -2 539.047 201.946   3
  -3  -2   2 228.043 160.149  17
  -3   2  -2 913.374 198.861  19
   3   2  -3 216.375 119.375  13
   3  -2   3 132.072 45.9101  16
   2  -3   3 85.9229 50.8749   6
  -3   2  -3 279.943 119.381   4
   3  -2   3 280.947 114.365  14
  -3  -2   3 216.189 141.996   2
   3  -2   3 259.744 111.589   8
  -2   3  -3 194.166 112.602  12
   3   2  -3 267.318 153.775  18
  -3   2  -3 301.315 118.879  19
  -3   2  -3 319.323 136.425  12
   3  -2   3 300.511 109.311   1
  -3  -2   3 164.052 143.445  17
   2  -3   3 46.9342 50.0993   8
   2   3  -3 122.765 101.097  13
  -2   3  -3 197.124 137.120   3
   3   2  -3 126.883 83.5379   8
  -3   2  -3 287.782 143.401   3
   3  -2   3 321.924 143.254   6
  -3   2  -3 259.692 97.7473   5
   3   2  -3 232.572 166.592   1
  -3  -2   4-4.83672 76.9503  17
   3   2  -4 103.448 118.603   1
   3   2  -4 97.0294 94.0816  18
   3  -2   4 100.113 75.9122   6
   3  -2   4 92.1460 65.5883  16
   2  -3   4 28.6986 43.4419   8
  -3   2  -4 15.5851 44.1625  13
  -2  -3   4-40.8274 117.271  17
  -3   2  -4 89.4443 62.5777   5
   2   3  -4 52.8046 71.2497  13
   3   2  -4 63.3384 45.4282   3
  -3  -2   4 55.6592 85.6132   2
   3   2  -4 85.3641 64.4327  13
  -3   2  -4 92.7230 76.3612   4
   2  -3   4 66.7756 53.9703   6
  -3  -2   4 24.3730 31.0392  16
  -3  -2   4 54.0217 76.6284  19
  -2   3  -4 80.1916 63.6501  12
  -3  -2   4 21.6091 21.6230   5
   3  -2   4 64.4999 50.8728   1
  -3   2  -4 55.1781 53.2886  19
   3  -2   4 81.0022 62.8039  14
  -3   2  -4 73.1084 70.5035   3
   3   2  -4 55.6625 44.5261   8
   2   3  -4 23.8883 16.5539   3
  -2   3  -4 80.2247 87.7845   3
  -3   2  -4 76.3560 79.8194  12
   3  -2   4 91.0725 68.1876   8
   2   3  -4-1.51800 92.8397  18
  -2  -3   4-7.83940 145.557   2
   3   2  -5 1171.23 304.153  18
   2   3  -5 1057.66 319.002  18
  -2  -3   5 576.483 269.526   2
   3   2  -5 1082.52 201.646   3
   3  -2   5 1404.93 222.062   1
  -2   3  -5 1155.40 312.415   3
  -3   2  -5 1034.60 278.982   3
  -3   2  -5 1058.26 262.979   4
  -3  -2   5 1118.35 211.126  19
  -3   2  -5 919.178 256.437  12
  -3   2  -5 1262.62 259.954  19
  -2  -3   5 654.053 163.214   6
   2   3  -5 1165.87 343.534  13
  -3   2  -5 665.440 230.440  13
   2  -3   5 876.757 201.831   8
   3  -2   5 1096.10 246.857   8
  -2  -3   5 557.501 186.840  16
   2   3  -5 120.452 117.909   1
   2  -3   5 736.385 177.017  14
  -3  -2   5 433.267 143.458   4
   3   2  -5 1164.49 153.767   8
  -2   3  -5 1040.14 250.908  12
  -3  -2   5 920.294 307.158  17
  -3  -2   5 753.170 249.715   5
  -3   2  -5 1162.36 232.546   5
   3  -2   5 1409.12 318.904   6
  -2   3  -5 843.851 175.117  19
   3  -2   5 1218.27 262.898  14
  -3  -2   5 1132.66 337.304   2
  -2   3  -5 532.717 232.171  13
   3  -2   5 1313.55 324.326  16
   2   3  -5 970.304 248.371   3
   2  -3   5 1098.32 282.596   6
   3   2  -5 1038.69 315.632   1
  -3  -2   5 1008.63 235.608  16
   2  -3   5 712.398 252.780  16
  -2  -3   5 574.153 248.244  17
   3  -2   6 338.341 132.996   2
  -2   3  -6 695.846 173.179   4
   2   3  -6 524.879 128.674  12
   3   2  -6 645.648 234.872  18
  -3  -2   6 549.397 183.393  16
  -2   3  -6 659.856 234.819   3
  -2  -3   6 451.940 209.836  17
  -3   2  -6 526.952 171.952   5
   3  -2   6 737.142 220.221  14
   3  -2   6 600.471 149.194   1
  -2  -3   6 560.029 285.276   2
  -3   2  -6 521.332 199.173   4
  -2   3  -6 367.034 122.757  18
  -2  -3   6 450.482 202.348  16
  -3  -2   6 433.498 179.317   5
  -3   2  -6 586.265 188.705  19
  -2   3  -6 458.248 202.992  13
  -3  -2   6 636.506 261.272  17
  -2   3  -6 584.121 149.417  19
  -3   2  -6 467.033 198.624  13
  -3   2  -6 697.819 138.574  11
   2  -3   6 373.385 156.212  17
  -3  -2   6 656.091 261.249   2
   2   3  -6 209.075 131.793   1
   2   3  -6 605.619 246.686  13
   2  -3   6 515.702 154.089   8
   2   3  -6 782.049 276.101  18
   2  -3   6 721.330 234.737   6
   3   2  -6 53.2450 59.7186  14
   3   2  -6 932.991 320.066  11
   3  -2   6 768.569 257.475   6
   2  -3   6 657.856 169.972  14
   3  -2   6 657.351 236.145  16
  -3  -2   6 677.320 142.497  19
   2   3  -6 755.284 227.882   3
  -2  -3   6 545.258 162.763   6
   3  -2   6 661.163 203.335   8
   2  -3   6 510.910 221.714  16
  -2   3  -6 654.666 209.216  12
   3   2  -6 596.969 235.175   1
  -3  -2   6 405.329 135.604   4
  -2   3  -7 5115.95 457.798  18
  -2  -3   7 5015.57 801.097   2
  -3  -2   7 4315.11 410.400   4
   2   3  -7 5694.42 788.833  13
  -2   3  -7 5756.51 360.233   5
   3  -2   7 5421.72 603.591   8
   3  -2   7 6042.65 593.358   2
  -3  -2   7 5622.56 787.324  17
   2   3  -7 2445.14 510.597   1
   3   2  -7 6329.28 811.298  11
   2  -3   7 6032.74 722.286   6
  -2   3  -7 6144.44 561.422   4
   2  -3   7 6032.49 592.248  17
  -2   3  -7 5134.04 696.627   3
   2  -3   7 5717.84 512.262  14
   3   2  -7 5618.84 690.856  18
   3  -2   7 6116.68 650.578  14
  -3  -2   7 6031.77 792.574   2
   2   3  -7 5439.32 608.590   3
   3  -2   7 5972.25 751.554   6
   2  -3   7 4955.18 474.475   8
  -2  -3   7 5026.47 756.370  17
  -3   2  -7 4184.89 515.482  19
  -3   2  -7 3693.68 590.701   4
  -3  -2   7 4949.77 357.597  19
  -2  -3   7 4941.12 650.660  16
  -2  -3   7 4176.53 466.020   6
   2   3  -7 4808.86 409.872  12
  -2   3  -7 5141.57 615.178  12
   2  -3   7 5229.37 741.598  16
  -3   2  -7 4301.37 387.406  11
  -3  -2   7 5076.65 600.696  16
  -2   3  -7 3784.61 650.248  13
  -3   2  -7 1967.96 347.795   5
   3   2  -7 5470.27 703.861   1
   2   3  -7 5593.30 708.442  18
  -2   3  -7 4588.15 422.101  19
   2  -3   7 2042.51 490.906   2
  -3  -2   7 4653.24 564.961   5
   3  -2   7 5624.67 745.964  16
   2   3  -8 5.20145 50.6225  18
   3  -2   8 46.1105 14.2094   2
   2  -3   8 27.9084 121.015   2
  -2  -3   8-7.28292 58.1793   6
  -2  -3   8-0.94270 8.41998  16
   2  -3   8 23.4038 46.8490   8
   2  -3   8 64.1702 120.581   6
   3  -2   8-25.1129 103.204  16
   2  -3   8 28.0940 33.2749  17
  -2  -3   8 12.2957 37.1209   2
  -3  -2   8-37.0402 66.8299  19
   2   3  -8 33.0966 60.2561   1
   3   2  -8 23.2469 73.9016  11
  -3  -2   8 56.7969 112.380   2
   2   3  -8 58.4434 86.5541   3
  -3  -2   8 15.5889 29.5399   4
   3  -2   8 55.3253 93.9073   8
  -3   2  -8 15.9363 39.8474  11
  -3   2  -8 49.6483 136.885  10
  -2  -3   8 24.4665 78.6293  17
   2  -3   8 45.2483 100.429  16
  -3  -2   8 24.7510 34.4349  17
  -3  -2   8 13.9098 21.3743   5
  -2   3  -8 64.6369 103.796  12
  -3   2  -8 36.0359 77.0240   4
   3   2  -8 14.4152 24.0336   1
   3   2  -8 5.44481 32.0523  18
  -3   2  -8 15.2064 18.1125  19
   2   3  -8 7.59119 1.64872  12
  -2   3  -8 1.96417 38.9519  19
   2  -3   8 35.2866 44.5697  14
   3  -2   8 8.85488 32.3391  14
  -2   3  -8 84.2398 139.304   3
  -2   3  -8 35.8676 46.9005  18
  -3   2  -8 136.460 268.140   7
  -2   3  -8 45.3436 107.180  13
  -3  -2   8 0.69091 47.9610  16
  -3   2  -8-31.5120 154.609  15
  -2   3  -8-29.9454 59.0447   4
   3  -2   8 5.85264 77.9983   6
   3   2  -8 33.4974 41.2796  14
   3   2  -8-4.19672 19.3532  10
  -3  -2   9 920.509 158.111   4
   2   3  -9 570.466 244.352   1
  -3   2  -9 923.630 445.177   7
   3   2  -9 755.984 349.786  10
  -2   3  -9 1066.49 253.168  11
   2   3  -9 937.974 286.424  18
   3   2  -9 206.881 92.5004  14
  -2  -3   9 826.485 283.166  16
  -3   2  -9 677.379 262.221  10
  -2   3  -9 610.750 228.505   4
  -3  -2   9 969.716 247.097   5
  -3  -2   9 1000.33 345.530  17
  -2   3  -9 877.281 191.596  19
  -2   3  -9 774.452 182.690  18
  -2  -3   9 936.255 351.689  17
  -3   2  -9 433.368 146.344  11
   2  -3   9 1109.71 246.320  14
   3   2  -9 827.441 277.907   1
  -3   2  -9 598.844 336.572  15
  -3  -2   9 796.116 271.790  16
   2  -3   9 860.645 274.443   2
  -2  -3   9 977.180 363.944   2
   2   3  -9 934.836 344.928   7
  -3   2  -9 1048.06 359.925   9
   2  -3   9 1059.61 362.128  16
   2   3  -9 1124.30 401.827  11
   2   3  -9 722.676 299.346  15
  -3  -2   9 873.359 315.035   2
   3  -2   9 810.999 248.907   8
   2   3  -9 830.304 200.656  12
   3  -2   9 953.400 335.491   6
  -2  -3   9 455.862 172.837   6
   3  -2   9 1124.03 266.964   2
   3   2  -9 867.578 317.000  11
   2  -3   9 937.011 327.442   6
  -3   2  -9 490.245 189.371  19
   3   2  -9 917.956 314.764  18
   2  -3   9 1119.10 237.178  17
  -2  -3   9 396.399 166.668   5
   3  -2   9 729.913 261.086  14
   2  -3   9 943.356 230.642   8
   3   2  -9 1507.64 551.578   9
   3  -2   9 863.289 323.973  16
   3   2 -10 475.858 224.210  18
   3   2 -10 595.343 387.236   9
  -3  -2  10 409.376 152.280   5
   3   2 -10 417.158 199.579   1
  -3  -2  10 703.731 301.919  17
  -2   3 -10 719.357 206.675  11
  -3   2 -10 248.693 251.198  15
   2   3 -10 411.918 194.636   1
  -2   3 -10 918.268 465.549  15
   2   3 -10 253.449 126.820   7
   3   2 -10 249.940 155.712  10
  -3  -2  10 548.844 268.686   2
  -2  -3  10 522.918 242.068  16
   3  -2  10 591.960 233.458   8
  -2  -3  10 350.009 164.784   5
   3  -2  10 773.379 237.793   2
  -3   2 -10 246.140 155.517  19
  -2   3 -10 608.210 149.012  19
   2   3 -10 601.658 253.464  18
  -3  -2  10 510.239 112.616   4
   2  -3  10 640.762 180.146   8
   3   2 -10 493.495 232.071  11
  -2   3 -10 478.509 149.495  18
   3  -2  10 413.186 206.880  14
   2  -3  10 691.858 194.816  17
   2  -3  10 635.547 271.605   6
   2  -3  10 698.536 206.286  14
   2   3 -10 253.899 204.526  15
  -2  -3  10 713.311 297.768  17
  -3   2 -10 402.379 352.606   7
   3  -2  10 464.072 244.532   6
  -3  -2  10 429.021 202.671  16
   3   2 -10 161.864 81.0209  14
  -3   2 -10 372.678 235.261  10
   2  -3  10 652.459 278.933   2
  -3   2 -10 153.897 87.2320  11
   3  -2  10 547.619 255.740  16
  -2  -3  10 507.099 258.830   2
   2  -3  10 576.152 278.702  16
  -2  -3  10 135.307 132.112   6
   2   3 -10 607.367 271.822  11
  -2   3 -10 101.590 97.3492   4
  -3   2 -10 413.318 169.488   9
   2  -3  11 313.540 258.459  16
   3  -2  11 48.8114 51.8619   6
   3   2 -11 25.6187 92.3378  11
  -3   2 -11 27.0228 53.3434  11
   2   3 -11 175.602 127.323  18
  -2   3 -11 250.137 348.784  10
   3  -2  11 68.1839 92.6075  14
  -2   3 -11 141.438 152.376  11
   2  -3  11 50.6354 75.9013  14
   3   2 -11 29.1759 58.7502  18
   2  -3  11 174.756 104.383  17
   3   2 -11 180.518 127.924   1
   2   3 -11 103.642 80.3026  11
  -2   3 -11 10.1276 17.4359  18
  -3   2 -11 105.739 129.034  10
  -2   3 -11 86.8258 73.6626  19
   3   2 -11 100.847 235.267  10
  -3  -2  11 92.7052 107.650  17
  -3  -2  11 115.707 154.398  16
  -3   2 -11-24.0396 119.681  15
   2   3 -11 59.6163 97.1147   1
  -3   2 -11-110.008 141.125   9
  -2  -3  11 266.615 221.125   2
  -2   3 -11 335.470 390.475  15
   3  -2  11 38.4644 120.449  16
   3  -2  11 125.870 110.638   8
  -2  -3  11 39.3953 74.4603   6
   2  -3  11 186.048 145.549   6
  -3   2 -11 55.2953 106.193  19
   2   3 -11 457.482 407.216  10
   3  -2  11 95.1804 63.9862   2
   3   2 -11 326.321 308.047   9
   2  -3  11 209.288 177.547   2
   2  -3  11 124.067 114.429   8
  -3   2 -11-143.090 289.813   7
  -3  -2  11 160.563 151.933   2
   3   2 -11 25.7690 38.9333  14
  -2  -3  11 44.6342 98.8232  16
  -2   3 -11 364.570 476.013   7
  -2  -3  11 125.253 119.698   5
  -3  -2  11 85.9559 74.9932   5
  -2  -3  11 145.201 190.074  17
   2   3 -12 114.658 142.009  10
  -2  -3  12 7.09072 50.5959  16
   3   2 -12 17.5821 95.0352  18
  -3  -2  12 75.0407 62.6227  17
  -2   3 -12 218.190 272.897   7
   3  -2  12 86.1546 91.6829   8
  -3  -2  12 70.1021 70.9771   2
   2   3 -12 31.3608 62.9699   1
  -3   2 -12-198.758 354.475  15
   2  -3  12 180.908 150.440  14
   3   2 -12 135.899 135.798  11
  -3   2 -12 18.2784 56.2596  19
  -2  -3  12 83.2520 69.3133   5
   2  -3  12 58.3967 50.9168  17
  -2  -3  12 100.878 129.868  17
   2  -3  12 144.105 179.852   6
   3   2 -12 31.1577 148.707  10
   3  -2  12 148.744 172.593   6
  -3   2 -12-176.659 413.890   7
  -3   2 -12 109.098 86.3219   9
   2  -3  12 96.2870 19.8728   8
  -2   3 -12 123.535 114.840  11
   3   2 -12 75.0754 65.9406  14
   2  -3  12-7.68330 130.945   2
   2   3 -12 99.4518 132.643  18
   3   2 -12 76.0772 83.2312   9
   2   3 -12 318.920 373.427   9
  -3   2 -12 71.4223 161.327  10
  -2   3 -12 77.8773 62.0794  18
  -2   3 -12 190.240 103.456  19
  -2   3 -12 106.179 205.308  15
   3  -2  12 153.937 112.407   2
  -2   3 -12 222.137 265.530  10
  -2  -3  12 125.514 160.482   2
  -3  -2  12 50.9612 55.5619  16
  -2   3 -12 322.832 337.029   9
  -3  -2  12 55.4863 60.5172   5
   2  -3  12 57.1467 46.7692  16
   3  -2  12 193.697 171.581  16
   3   2 -12 140.982 154.821   1
  -2  -3  12 95.2633 140.876   6
   2   3 -12 170.137 183.972  11
   2   3 -13 37.5981 141.241  11
   3   2 -13-100.343 82.9018  10
  -3   2 -13-468.426 282.868  19
  -3  -2  13-67.6243 147.556  17
   2   3 -13 66.5917 166.242   1
   3  -2  13-15.1757 267.211   6
   2   3 -13 9.86150 117.520  10
   2   3 -13 154.259 291.418   9
   3   2 -13 366.648 295.821   9
  -2   3 -13 178.936 219.766  19
  -2  -3  13 43.3405 180.541   2
   3   2 -13 119.757 161.847  18
   2   3 -13 84.7533 151.884  18
  -3  -2  13 61.5654 42.1456   2
  -2  -3  13-77.2343 35.7260  16
   3  -2  13-94.3382 137.900   8
   2  -3  13 246.303 661.311   6
  -2   3 -13 171.018 353.576  11
  -3  -2  13 26.3865 38.2092   5
   3   2 -13 140.529 142.643   1
  -2  -3  13-38.6093 44.1371   5
   3  -2  13-71.2808 121.895  16
  -3   2 -13-201.383 242.403  10
   2  -3  13 4.03048 271.017   8
  -2  -3  13-20.8408 224.317   6
   2  -3  13 24.9776 448.272   2
  -3   2 -13-84.8826 27.4352   9
  -2   3 -13 50.0472 213.579  18
   2  -3  13 11.8279 473.636  16
  -2   3 -13-111.521 616.267   7
   3  -2  13 39.0895 110.579   2
   3   2 -13 54.5526 51.2572  14
  -2  -3  13 148.998 229.984  17
  -2   3 -13 83.4534 605.446  15
  -2   3 -13 452.394 548.658  10
  -3  -2  13 89.2575 108.829  16
   3   2 -13 43.6746 64.2662  11
  -2   3 -14 211.700 278.512   9
   2   3 -14 124.241 230.885  10
  -3  -2  14 57.2481 75.2223  17
   2  -3  14-52.6017 120.095   8
   2  -3  14-84.7771 168.266   2
   3  -2  14-82.8594 26.2361  16
   2   3 -14 77.8815 145.662  11
  -2   3 -14-50.0098 83.5946  11
  -3  -2  14-49.1080 118.939  16
   2  -3  14-291.500 288.357  16
   3   2 -14 29.4667 122.274   1
   3  -2  14-130.629 123.243   6
   3   2 -14 10.6323 29.4242  14
   2   3 -14 279.962 324.255   9
   2  -3  14 72.1991 169.268   6
  -3   2 -14 28.1953 227.157   9
  -2   3 -14 21.1086 78.7481  19
  -2  -3  14 2.67278 145.441  17
   2   3 -14-87.3710 137.248   1
  -2  -3  14 58.1328 47.5503   8
  -2  -3  14 75.5878 144.289   2
   2  -3  14-22.8145 77.3438  17
   3   2 -14 24.3665 54.1817  18
  -2  -3  14-192.809 285.742   6
  -3   2 -14-25.3016 69.0136  10
  -2  -3  14 33.6791 24.3602  16
   3   2 -14-14.8520 38.9801  10
  -2   3 -14-613.669 430.264  15
   3  -2  14 21.0031 54.2394   8
   2   3 -14-17.3852 76.2683  18
  -3  -2  14 98.7574 112.265   2
   3   2 -14 59.3331 103.545  11
  -2   3 -14-35.5887 82.7961  18
   3   2 -14 229.541 176.074   9
  -2   3 -14 7.05039 175.305  10
  -2  -3  14 94.3892 80.1610   5
  -3  -2  14-1.72741 24.2728   5
   3  -2  14 48.8247 59.6370   2
  -3  -2  15 29.9967 156.666   2
   3  -2  15 27.8877 38.0162   8
   2   3 -15-163.916 272.185   9
   3   2 -15 253.817 283.144   9
   3   2 -15 23.5400 29.1097  14
  -3   2 -15-50.0759 86.3163   9
   2  -3  15 69.0347 76.3815  17
  -3  -2  15 125.532 191.550  16
  -2  -3  15-382.799 449.567   6
  -2  -3  15 111.476 177.333  16
   2   3 -15 94.3744 248.520  10
   3   2 -15-74.7112 137.730  10
   2  -3  15 4.02120 16.2317  16
  -2   3 -15 134.465 107.939  11
  -2  -3  15 44.1560 67.4235   5
   2   3 -15-67.8484 83.0377   1
  -2   3 -15 67.7886 219.512  10
   3   2 -15 47.7683 34.9515  18
  -2   3 -15 22.1318 17.3556  19
  -2   3 -15 75.2537 224.651   9
  -3  -2  15 85.1534 89.5088   5
  -2  -3  15 59.6376 206.024   2
  -2  -3  15 21.4950 23.6748  17
   3   2 -15 29.8485 75.0969   1
  -3  -2  15 28.2297 114.026  17
   2  -3  15 21.4267 10.8160   8
   3  -2  15 3.24361 85.0397   6
   3   2 -15 172.737 213.377  11
   2  -3  15-130.558 152.907   2
   2  -3  15 25.6238 106.212   6
   2   3 -15 21.9798 78.2501  18
   2   3 -15 97.4323 116.573  11
  -3   2 -15 103.109 218.717  10
   3  -2  15 39.6367 100.097   2
   3  -2  15-112.572 98.5815  16
  -2  -3  15-10.9352 30.4034   8
  -3   2 -16 345.116 319.038   9
   2   3 -16 16.1217 89.0978  11
  -3  -2  16 543.231 324.717  16
   3   2 -16 306.028 168.614  11
  -3  -2  16 806.239 341.440  17
  -2  -3  16 772.345 381.350   2
  -2   3 -16 261.354 167.786  11
   2  -3  16 361.818 99.6952  17
  -2  -3  16 544.902 322.306  16
  -2   3 -16 256.709 191.014  10
  -2  -3  16 846.928 335.298  17
   2  -3  16 844.693 326.747   2
  -3  -2  16 678.933 358.025   2
   3   2 -16 229.549 152.737   1
   3  -2  16 989.706 351.336   2
   3  -2  16 423.557 356.458   6
   2   3 -16 320.511 137.465  10
   2  -3  16 689.399 252.238   8
  -2  -3  16 721.088 206.664   5
   2   3 -16 211.874 136.201   1
   3  -2  16 654.619 388.297  16
  -2  -3  16 432.987 124.029   8
   3   2 -16 216.267 233.814  18
   3   2 -16 57.8930 44.8375  14
   2   3 -16 168.333 217.812  18
   2  -3  16 240.606 197.584   6
  -2   3 -16 172.144 91.4431  19
   3   2 -16 20.1717 92.5316   9
   2  -3  16 814.664 434.746  16
   2   3 -16 328.121 274.152   9
   3  -2  16 472.296 279.624   8
  -3  -2  16 585.956 195.393   5
   3   2 -16 20.5184 186.395  10
  -2   3 -16 260.478 157.187   9
  -3   2 -16-103.393 262.695  10
   2  -3  17 685.419 432.852  16
   2   3 -17 252.087 213.297  18
  -3   2 -17-84.3095 317.246  10
   3   2 -17 164.974 206.415  18
  -2   3 -17 61.2276 66.9443  11
  -2  -3  17 827.756 363.463  17
  -3  -2  17 778.230 325.190   2
   3   2 -17 216.393 246.227  11
   2  -3  17 622.622 230.416   8
   2   3 -17 298.452 270.570   9
  -2  -3  17 519.300 221.673  16
   3  -2  17 557.661 293.821   8
   2  -3  17 445.861 284.502   6
  -2  -3  17 725.823 203.936   5
   2  -3  17 902.529 383.873   2
  -2   3 -17 107.963 80.5561   9
  -3  -2  17 553.830 175.573   5
   3  -2  17 930.610 343.864   2
  -3  -2  17 678.597 318.153  17
   2   3 -17 337.418 223.874   1
   3  -2  17 389.372 294.612   6
  -3   2 -17-137.623 227.844   9
  -2   3 -17 77.2203 80.3573  10
   2   3 -17 388.249 222.132  11
   3  -2  17 372.570 324.634  16
   3   2 -17-137.154 342.758  10
   3   2 -17 46.3240 32.4578  14
  -2   3 -17 4.31221 100.183  19
   3   2 -17 299.236 192.381   1
   3   2 -17 32.4747 132.533   9
  -2  -3  17 752.441 362.222   2
   2   3 -17 176.542 269.132  10
  -3  -2  17 566.195 329.902  16
  -2  -3  17 426.625 133.941   8
   3  -2  18 249.889 269.377   8
  -2  -3  18 166.956 109.038   8
  -2  -3  18 71.4477 70.3326   5
  -2   3 -18-106.923 124.700  11
   2   3 -18 248.329 298.285  10
   2   3 -18 69.6427 156.923  18
   2  -3  18 100.123 106.540   8
   2   3 -18 259.369 330.952   9
  -2  -3  18 276.030 253.966  17
   3   2 -18-132.946 194.651   9
  -2  -3  18 138.551 82.6128   2
  -3   2 -18-289.701 465.271  10
  -3  -2  18 90.4344 69.3211   5
   3   2 -18 35.9169 121.460  11
  -3  -2  18 58.9992 52.9644   2
   2   3 -18 46.4918 112.191   1
  -3  -2  18-3.05649 78.2259  16
   3  -2  18-165.722 434.251   6
   3  -2  18 132.111 160.657   2
  -3   2 -18-270.871 504.024   9
   2  -3  18 167.589 122.322   2
   3  -2  18 336.681 384.489  16
  -2   3 -18 29.4435 246.823  10
  -2   3 -18 9.93348 277.995   9
   2   3 -18 163.556 234.874  11
   3   2 -18 200.846 175.876   1
  -2   3 -18 103.744 77.6888  19
   2  -3  18 12.7124 66.1695   6
  -3  -2  18 247.277 166.431  17
   2  -3  18 395.107 323.788  16
  -2  -3  18 103.336 191.629  16
   3   2 -19 232.664 185.889   9
  -3  -2  19 2177.88 671.888   2
  -2   3 -19 476.050 272.079   9
   3   2 -19 401.507 297.226  11
   3  -2  19 2386.11 615.370   2
  -3  -2  19 1803.44 629.919  16
  -2  -3  19 1959.77 344.340   5
   2   3 -19 664.245 370.276  11
   2   3 -19 560.249 262.702   1
  -3  -2  19 2094.34 608.549  17
   2  -3  19 2090.33 702.144  16
   3  -2  19 1432.44 514.233   8
  -3   2 -19-565.952 699.091   9
   2   3 -19 375.691 324.632  18
  -2   3 -19 184.150 308.925  10
  -2  -3  19 2362.08 606.722  17
   3  -2  19 2352.76 880.100  16
   3  -2  19 304.758 286.349   6
  -2  -3  19 1653.96 631.140  16
   2   3 -19 331.403 379.666  10
   2   3 -19 1063.45 571.830   9
   2  -3  19 2535.97 670.937   2
  -2   3 -19 208.977 166.972  19
  -3  -2  19 1910.82 365.834   5
   2  -3  19 1952.81 478.843   8
   3   2 -19 281.785 185.201   1
   2  -3  19 584.167 479.707   6
  -2  -3  19 2809.03 795.490   2
  -3  -2  20 55.9272 37.7792   5
   2  -3  20 116.140 148.148   8
   2   3 -20 233.112 346.141  10
   2  -3  20 153.738 151.322   2
   2   3 -20 216.077 226.532  11
  -3  -2  20-100.887 231.531  17
  -2  -3  20 149.723 197.427   2
   2   3 -20-92.8922 192.747   9
   3   2 -20 2.70169 123.740   1
   2   3 -20 30.3282 130.180   1
  -3  -2  20 277.484 283.830   2
  -3  -2  20 126.522 271.590  16
   3  -2  20 200.477 264.740   8
  -2   3 -20-167.222 322.384  10
   2  -3  20 366.039 411.350  16
  -2  -3  20 233.863 220.177  17
  -2  -3  20 158.223 254.974  16
   3  -2  20 87.7682 73.2775   2
   3  -2  20 352.804 424.358  16
  -2   3 -20-73.6825 81.3096   9
  -2   3 -21-217.086 482.659  10
   2   3 -21-158.015 525.519  10
   3  -3   2-20.1403 69.0523   8
  -3   3  -2 34.5351 40.8951  12
   3  -3   2-15.0541 90.1120   6
   3   3  -3-26.5564 61.9318  13
   3  -3   3 34.6078 49.2787   6
   3  -3   3-11.8255 56.4046  14
   3  -3   3-6.85831 2.25025   8
  -3   3  -3-11.2410 52.1203  12
  -3   3  -3-11.9640 30.5574  19
  -3   3  -3-34.5050 71.8989   3
   3  -3   4 1812.05 322.014   8
  -3  -3   4 636.541 306.740  17
  -3  -3   4 786.693 327.162   2
  -3   3  -4 2421.67 409.398  12
   3   3  -4 2179.96 488.988  13
   3  -3   4 2196.79 412.945   6
  -3   3  -4 2226.64 329.928  19
   3  -3   4 1764.86 307.099  14
   3   3  -4 769.120 325.495   1
   3   3  -4 2118.45 495.919  18
  -3   3  -4 2155.67 447.820   3
   3   3  -5 21.4453 49.2338  18
  -3  -3   5-17.9192 60.7763   2
   3   3  -5-11.9566 34.3159  13
  -3   3  -5-6.68100 28.6231   4
  -3   3  -5 0.03571 72.5242  13
   3  -3   5-27.3481 46.4947  14
  -3   3  -5 16.7143 71.3624  12
   3  -3   5-5.67045 26.9974   8
   3   3  -5 18.1627 68.9529   1
   3  -3   5 0.73562 21.7880   6
  -3  -3   5 5.98629 26.6975   6
   3   3  -5 3.54062 53.9845   3
  -3  -3   5-8.67162 59.6422  17
  -3   3  -5 11.1988 44.7108   3
   3  -3   5-67.1543 128.929  16
  -3   3  -5-2.44473 41.7874  19
  -3   3  -6 1730.73 406.112   3
   3  -3   6 1679.14 217.702   1
  -3   3  -6 967.416 310.858  13
   3  -3   6 1927.24 330.021  14
  -3  -3   6 1355.81 447.234   2
  -3  -3   6 1270.67 210.969   6
   3   3  -6 1778.79 434.840  13
  -3   3  -6 1919.31 335.192   4
  -3  -3   6 1162.13 308.300  16
   3  -3   6 1714.76 428.534  16
   3   3  -6 1842.97 437.028  18
   3  -3   6 2001.17 428.884   6
  -3   3  -6 1627.05 287.092  19
  -3  -3   6 1205.39 390.819  17
   3   3  -6 1789.76 331.605   3
  -3   3  -6 1738.72 369.747  12
   3   3  -6 1151.15 382.618   1
  -3   3  -6 1754.04 251.223   5
   3  -3   6 1432.97 280.837   8
   3   3  -7 23.7531 94.8901  13
   3   3  -7-9.54685 20.3893   3
  -3  -3   7 11.1313 35.2396   6
  -3   3  -7-15.7989 25.1565  18
   3  -3   7-13.4660 25.6003  14
  -3   3  -7 48.8916 114.105  13
  -3   3  -7 24.5406 33.8836   5
  -3   3  -7-10.5853 33.5569  19
  -3   3  -7-15.8195 49.9312   4
  -3   3  -7-57.4667 87.1752  12
  -3  -3   7 39.0315 127.783   2
   3   3  -7-9.98744 31.9350  18
   3  -3   7 16.4675 20.2349  17
  -3   3  -7 92.5744 88.7285   3
   3  -3   7-9.12374 24.6276   8
  -3  -3   7 65.5911 111.338  17
   3  -3   7 8.36016 29.1629   1
   3  -3   7 32.4085 44.3580  16
   3   3  -7 5.68324 24.5783  12
  -3  -3   7-8.82340 63.2894  16
   3  -3   7-34.2510 103.917   6
  -3  -3   7 23.6813 31.1666  19
   3   3  -7 57.3466 147.321   1
   3  -3   8 7593.52 706.258  14
   3  -3   8 6099.50 620.599   8
   3   3  -8 7011.66 855.051  18
   3   3  -8 5928.81 422.277  12
  -3   3  -8 4271.45 660.682  13
  -3   3  -8 5853.69 577.555  19
  -3  -3   8 6691.21 972.422   2
  -3   3  -8 5048.21 680.200  12
   3   3  -8 6471.63 776.221   7
   3  -3   8 7116.94 920.427  16
  -3   3  -8 6161.52 415.944  18
   3   3  -8 6708.83 676.287   3
  -3  -3   8 5655.34 712.001  16
   3  -3   8 7860.38 523.077  17
   3   3  -8 4665.37 756.210   1
  -3  -3   8 6485.47 922.199  17
  -3  -3   8 6452.03 411.475  19
   3  -3   8 6888.72 848.090   6
   3   3  -8 6360.14 765.360  15
  -3   3  -8 5305.44 759.760   3
  -3  -3   8 2130.11 326.633   6
  -3   3  -8 5916.02 717.673   4
  -3   3  -8 5520.88 533.538   5
   3  -3   8 2684.97 540.417   2
  -3  -3   8 2838.64 513.275   5
  -3   3  -9 52.6187 114.599  13
  -3  -3   9 51.0704 121.508  17
  -3   3  -9 3.60354 8.89531  18
   3   3  -9 1.04800 27.1723  12
   3   3  -9-14.0673 17.1202  18
   3   3  -9-64.3164 105.819  11
  -3   3  -9 36.8327 131.013  12
   3  -3   9-13.9182 107.942  16
  -3   3  -9-22.3512 87.9320   4
   3   3  -9-15.4860 76.3484   3
   3   3  -9 45.0391 65.0570   1
  -3  -3   9-6.54432 11.6387  19
   3  -3   9 39.8269 22.7923  14
   3   3  -9-69.5428 168.858   7
   3  -3   9-5.09618 57.0154   6
  -3  -3   9 27.0976 19.1456   5
  -3  -3   9 16.3473 53.0775  16
   3  -3   9-25.1094 58.7362   8
   3   3  -9-88.4332 158.676  15
  -3  -3   9 17.9937 79.0191   2
   3  -3   9 33.5406 45.5326   2
  -3   3  -9 58.3989 122.096   3
  -3   3  -9-18.9185 32.2265  19
  -3  -3   9 29.6523 80.7443   6
   3  -3   9-17.7740 45.9261  17
  -3   3  -9 58.3399 73.9217  11
  -3  -3  10 252.874 185.656   2
  -3  -3  10 281.152 178.162  16
  -3   3 -10 287.455 120.544  11
   3   3 -10 387.515 201.316  18
  -3  -3  10-11.5349 60.5876   6
  -3  -3  10 266.080 155.766   5
   3   3 -10 192.482 153.699   1
   3  -3  10 347.312 115.772  17
   3   3 -10 633.654 293.252  11
  -3   3 -10 154.547 74.0592   4
   3  -3  10 365.414 180.449   6
   3  -3  10 251.312 141.525   8
  -3   3 -10 433.705 354.073  15
   3  -3  10 402.512 186.434  14
   3  -3  10 344.349 225.598  16
  -3  -3  10 341.432 206.702  17
   3  -3  10 350.733 173.652   2
  -3   3 -10 247.560 108.715  19
   3   3 -10 423.743 145.031  12
  -3   3 -10 253.865 90.2792  18
   3  -3  11 180.018 197.690   2
  -3   3 -11 57.6830 133.321  15
  -3  -3  11 87.4322 123.772   6
  -3   3 -11 17.3723 96.8789  11
  -3  -3  11 41.5017 94.9795   5
   3  -3  11-91.9925 174.921   6
   3  -3  11-93.8081 102.665  14
  -3   3 -11 29.0288 41.6571  18
  -3  -3  11-23.5725 48.4935  17
   3   3 -11-46.0334 63.2581  10
  -3  -3  11 60.0538 121.079  16
   3  -3  11-57.1980 73.0821   8
  -3   3 -11 4.83344 29.0882  19
  -3   3 -11 5.53123 164.713   7
  -3  -3  11 58.3635 68.8634   2
   3  -3  11 23.6909 66.7923  17
   3   3 -11-36.0374 41.2666  18
   3  -3  11 117.326 125.577  16
   3   3 -11 30.1965 81.7084  11
  -3   3 -11 3.28700 120.122  10
   3   3 -11 91.1043 84.3312   1
   3  -3  12 165.055 79.7278  17
   3  -3  12 105.185 84.1735   8
  -3   3 -12 188.322 111.169  19
  -3  -3  12 318.049 218.321  17
   3  -3  12 184.170 253.851   6
  -3   3 -12 142.732 285.987   7
  -3  -3  12 218.767 156.622   5
  -3   3 -12 520.403 469.621   9
   3   3 -12 0.77377 146.126   9
  -3   3 -12 204.476 209.435  10
   3  -3  12 224.072 70.8120   2
   3  -3  12 360.343 233.348  16
   3   3 -12 215.478 147.650  18
  -3   3 -12 125.685 151.636  15
  -3  -3  12-187.874 252.252   6
   3   3 -12 185.584 204.922  10
  -3   3 -12 151.186 84.9501  11
  -3  -3  12 302.174 141.365   2
   3  -3  12 227.269 184.944  14
   3   3 -12 36.1858 81.2633   1
  -3  -3  12 222.484 181.637  16
   3   3 -12 149.279 132.645  11
   3   3 -13 351.156 339.427   9
  -3  -3  13-19.9658 181.717  17
  -3   3 -13 2478.42 790.472   9
  -3   3 -13 1738.53 829.968  15
  -3  -3  13 179.508 201.375  16
   3   3 -13 89.8681 162.070  10
  -3   3 -13 1435.43 885.416   7
   3   3 -13-83.6932 119.942   1
   3  -3  13 601.229 257.162  17
  -3   3 -13 862.659 657.012  10
   3   3 -13 78.9444 177.770  11
  -3   3 -13 765.716 274.068  19
  -3   3 -13 1049.21 301.138  11
   3   3 -13 11.2200 32.0614  18
   3  -3  13 2541.76 724.176  16
  -3  -3  13 8.31189 100.795   5
  -3  -3  13 83.8950 206.028   2
   3   3 -14 332.082 282.885  11
  -3  -3  14 211.286 123.159   5
  -3   3 -14-62.9357 171.904  15
   3  -3  14 180.142 132.379   8
  -3   3 -14 151.436 117.372  10
  -3   3 -14 208.588 231.925   9
   3   3 -14 191.003 252.035  10
  -3   3 -14 269.785 165.772  11
   3   3 -14 341.471 324.236   9
  -3  -3  14 139.070 108.025   2
   3  -3  14 409.001 248.402   2
  -3   3 -14 180.402 110.177  19
   3   3 -14 17.9557 35.5849   1
   3  -3  14 347.464 241.703   6
  -3  -3  14 237.513 244.045  17
   3   3 -14 262.972 183.531  18
   3  -3  14 346.844 197.350  16
  -3  -3  14 201.080 186.239  16
  -3   3 -14-649.152 451.871   7
   3   3 -15-6.64771 105.111  11
  -3   3 -15-27.1459 47.3597  19
   3   3 -15-110.347 137.270  10
   3   3 -15-32.2213 103.363  18
  -3  -3  15-82.1514 160.390  16
  -3  -3  15-52.7523 133.770   2
  -3   3 -15 26.9905 52.4273  11
  -3   3 -15 206.475 232.185   9
   3  -3  15-119.927 144.106   6
   3   3 -15-86.6448 127.146   1
  -3  -3  15-10.4286 31.3560   5
  -3  -3  15-21.6907 69.2939  17
   3  -3  15-91.0164 244.607  16
   3  -3  15-71.9247 131.760   8
  -3   3 -15-688.954 483.835  15
   3  -3  15-0.21318 89.5449   2
  -3   3 -15 163.415 246.155  10
   3   3 -15 4.41393 84.0071   9
  -3   3 -16 1.94564 50.3948  11
  -3  -3  16 401.727 259.213  17
  -3   3 -16 66.4992 111.628   9
   3  -3  16 226.187 227.067   6
   3  -3  16 316.779 183.931   8
   3   3 -16 85.2297 15.2419   9
  -3  -3  16 292.682 139.304   5
   3   3 -16 262.630 238.717  18
   3   3 -16 54.5667 76.6803   1
   3  -3  16 362.649 205.603   2
   3   3 -16 110.993 100.202  11
   3  -3  16 258.398 190.992  16
  -3   3 -16 124.526 104.750  19
  -3  -3  16 46.2127 70.9758  16
  -3  -3  16 345.019 236.661   2
  -3   3 -16 106.007 70.3077  10
   3   3 -16 32.2322 203.699  10
  -3   3 -17 72.3330 257.686   9
  -3  -3  17 61.7269 155.544   2
   3   3 -17 69.5516 138.399  11
   3  -3  17-86.5694 140.169  16
  -3   3 -17 43.6825 52.9375  19
   3   3 -17 277.731 345.305  10
   3   3 -17 26.9374 243.597   9
  -3   3 -17-22.4550 72.1474  10
  -3  -3  17 110.211 133.023   5
  -3  -3  17-8.11502 16.1319   8
   3   3 -17 114.501 84.8024   1
   3   3 -17-67.3941 108.776  18
  -3  -3  17 20.8569 81.0086  17
   3  -3  17 38.3490 80.1442   2
  -3  -3  17-39.3624 89.7445  16
   3  -3  17-8.65229 99.6681   8
   3  -3  17 9.21867 172.616   6
   3   3 -18 547.010 250.381   1
   3  -3  18 1873.16 485.798   8
  -3  -3  18 1900.90 390.151   5
   3  -3  18 2275.64 727.777  16
  -3   3 -18 419.284 425.488   9
   3   3 -18 1092.99 438.697  11
  -3  -3  18 2085.36 600.447  17
   3   3 -18 689.904 400.390  18
   3  -3  18 813.605 573.986   6
  -3   3 -18 493.169 411.429  10
   3  -3  18 2140.02 595.819   2
   3   3 -18 910.603 556.700   9
   3   3 -18 491.522 477.620  10
  -3   3 -18 208.208 152.505  19
  -3  -3  18 1826.23 577.984  16
  -3  -3  18 2017.75 624.952   2
   3  -3  19-69.1501 154.827   8
   3  -3  19-122.575 265.964   6
  -3  -3  19-143.080 212.867  17
   3   3 -19-0.29810 74.8126  18
  -3  -3  19-2.21667 113.259   2
  -3   3 -19-89.1352 239.413   9
   3   3 -19 76.6166 90.3874   1
  -3   3 -19-11.4052 253.983  10
   3   3 -19 161.712 344.221   9
   3   3 -19-181.726 414.139  10
  -3  -3  19-30.5605 77.2421   5
   3   3 -19-20.8787 17.1629  11
  -3  -3  19 41.0017 39.9281  16
  -3   3 -19-188.691 180.610  19
   3  -3  19 40.9970 197.754   2
   3  -3  19 82.0771 135.317  16
   3   3 -20-14.4847 173.667  10
  -3   3 -20 316.596 181.159  19
   3  -3  20 1003.20 504.663   6
  -3   3 -20 317.651 177.748  10
  -3  -3  20 3533.36 875.466   2
   3   3 -20 1150.89 469.880  11
   3  -3  20 4362.61 935.096   2
  -3  -3  20 3878.48 828.070  17
   3  -3  20 2896.62 663.081   8
   3   3 -20 576.990 336.057  18
   3  -3  20 3646.66 974.183  16
  -3  -3  20 2137.20 781.964  16
  -3   3 -20 443.821 370.196   9
  -3  -3  20 2844.85 483.864   5
   3   3 -20 690.708 324.455   1
   4   0   0 576.065 157.299  18
  -4   0   0 573.559 155.299   2
   4   0   0 639.506 159.182  11
   4   0   0 471.911 140.480   6
   4   0   0 519.818 175.798   8
  -4   0   0 368.011 138.662  17
  -4   0   0 388.642 129.801  12
  -4   0   0 379.255 165.682  19
   4   0   0 543.151 205.288   1
  -4   0   0 433.223 177.225   4
   4   0   0 478.179 190.598  14
  -4   0   0 486.259 193.138   5
  -4   0   1 19.4509 30.6110  12
   4   0  -1-6.23810 11.7108   6
   4   0  -1-5.84462 39.7832   8
  -4   0   1-0.98711 51.2764   5
   4   0   1-8.94609 32.7758  18
   4   0   1 16.1143 45.4738   1
   4   0  -1-30.1288 50.5735  18
  -4   0  -1 4.16223 31.4570   5
   4   0  -1-25.8089 68.2392   1
   4   0   1 6.50388 34.4191   8
   4   0  -1-3.53995 30.9382  11
   4   0  -1-2.71516 37.0702   9
  -4   0   1-4.37200 19.8221  19
  -4   0   1 21.1803 20.9553  17
  -4   0  -1 14.5965 64.5171  19
   4   0   1-15.0566 57.7717  14
  -4   0   1 10.5527 11.9699   2
   4   0  -1 17.3652 29.6819  14
   4   0   1 13.1693 22.6182   6
  -4   0   1-14.2460 37.1162   4
  -4   0  -1 7.70022 23.5818   2
  -4   0  -1-19.8464 50.7011  17
  -4   0  -1 11.6878 19.1531   4
  -4   0  -2 34.6972 76.3188   7
   4   0   2 27.4986 47.3537   8
   4   0  -2 23.0639 29.4725   1
  -4   0   2 23.3776 49.0998  17
  -4   0  -2-5.06510 61.7398   4
   4   0  -2 28.9108 17.4341   6
   4   0   2 25.6613 64.9886  14
  -4   0  -2 9.28599 34.4504  17
   4   0  -2 45.2934 56.1095   9
  -4   0   2 45.7969 64.6520   4
   4   0  -2 34.7296 42.8961  18
   4   0  -2 37.0149 44.2489   8
   4   0   2 35.9794 69.2503   6
  -4   0   2 12.4142 6.26555  19
  -4   0  -2 23.9137 88.3267  15
  -4   0  -2 47.3927 67.0861   5
  -4   0   2 31.2524 34.6040   5
   4   0  -2 34.3534 42.4603  14
  -4   0   2 31.0605 37.2282   2
  -4   0  -2 12.8640 33.2535  19
   4   0   2 34.2811 41.8019  16
   4   0   2 59.1047 48.3608  18
  -4   0   2-6.19995 35.1028  12
   4   0  -2 36.0316 74.2708  11
   4   0   2 22.2124 59.2400   1
  -4   0   3 15.9996 34.5719   5
   4   0  -3 20.8538 43.0706   8
  -4   0  -3-61.4057 95.8949  15
   4   0  -3 25.3499 59.1173  11
  -4   0  -3 23.6648 51.1513   4
  -4   0  -3 11.0348 9.94049  17
  -4   0   3 13.3441 35.8753   2
  -4   0   3 2.02996 8.04251   4
  -4   0   3-13.2383 29.0256  17
  -4   0  -3-55.2403 98.3083   5
  -4   0  -3 72.7841 128.600   7
   4   0   3-22.8519 43.8360  18
   4   0   3-3.45384 37.5004   8
   4   0  -3-24.5096 40.9954  14
  -4   0   3-4.20607 25.4492  19
   4   0   3-14.1830 55.9777   1
   4   0   3-7.86971 20.0894   6
  -4   0  -3-30.6680 41.1803  19
   4   0  -3 7.08504 33.4938   1
   4   0   3-14.9570 72.5077  14
   4   0   3 3.74359 35.6936  16
   4   0  -3 12.0533 29.3100  18
   4   0  -3-61.2295 72.0255   9
   4   0  -4 2146.05 334.326  14
  -4   0   4 2047.67 301.514   4
  -4   0   4 1986.46 354.753   2
   4   0   4 1105.90 359.870   1
  -4   0  -4 802.347 305.803  15
   4   0  -4 254.470 113.107   9
   4   0  -4 1441.76 249.867   8
   4   0  -4 1480.21 325.862  11
   4   0  -4 1934.88 356.279  18
   4   0   4 1564.60 369.518   6
   4   0   4 1889.52 456.201  14
  -4   0   4 2083.18 399.176  17
   4   0  -4 2270.83 427.437   1
   4   0   4 1497.23 310.978  16
  -4   0   4 2103.03 358.390   5
  -4   0  -4 800.570 310.262   7
   4   0   4 1603.91 387.423   8
  -4   0  -4 523.327 246.964   4
  -4   0   4 2292.41 331.221  19
   4   0   5 17.0967 40.6298  14
  -4   0   5-5.65523 32.1846   5
   4   0  -5-5.27309 17.9669  14
   0   4  -5-9.39485 111.008  13
  -4   0   5-0.14141 34.9639   2
   0  -4   5-41.8860 97.2204   6
   4   0  -5 6.12574 50.7381  18
  -4   0   5 4.70623 27.5076  19
   4   0  -5-103.447 213.491   9
   4   0  -5-34.0039 72.4492   1
   0   4  -5-5.17647 16.6564   3
   4   0   5-54.8853 76.7905   6
  -4   0   5-25.7861 70.1950  17
   4   0   5 6.50941 58.4107   8
   0   4  -5-28.2922 87.6288  12
   4   0  -5 27.6840 70.7870  11
   4   0   5 1.21829 22.3677  16
   4   0  -6 354.635 179.027  11
   4   0   6 559.978 251.360   8
   4   0  -6 614.307 177.835  14
   0  -4   6 472.210 173.737   6
  -4   0   6 661.377 189.023   5
   4   0  -6 501.120 213.075   1
  -4   0   6 728.344 255.374  17
  -4   0   6 661.190 227.557   2
   0   4  -6 527.395 271.225  13
   0   4  -6 796.345 279.282   3
   4   0   6 482.970 225.822   6
   4   0  -6 474.571 188.217  18
   4   0   6 393.928 189.053  16
   4   0   6 437.522 223.103  14
   4   0  -6-104.250 280.364   9
   0   4  -6 740.938 207.317  12
   0  -4   7-12.9501 83.0173   6
   0   4  -7 55.3285 69.6147   3
   4   0  -7 59.6380 95.6328  11
   0  -4   7-55.3237 290.323   2
   4   0   7 9.62671 75.5069  16
   4   0  -7-43.0721 92.0317   1
   4   0  -7-1.59975 18.1731  18
   0   4  -7-3.21615 39.6688  18
   0  -4   7 23.6493 105.517  17
  -4   0   7 51.5000 81.9898  17
  -4   0   7-67.5041 141.480  16
   0   4  -7 8.59475 44.2549  12
  -4   0   7 29.8875 44.7144   2
   4   0  -7 20.3487 56.6776  14
   4   0   7 36.3654 122.785   8
   0   4  -7-36.2084 60.6477  13
   4   0   7-21.7280 20.4368   6
   0  -4   7-57.4465 137.985  16
   0   4  -8 7043.08 837.087   3
   4   0  -8-17.0486 372.421   9
   0   4  -8 6358.29 935.115  13
  -4   0   8 6106.64 791.728  17
   4   0   8 3151.43 665.065   6
   4   0  -8 1777.24 438.019  11
   4   0   8 2992.73 628.317   8
   0   4  -8 6385.32 770.732  18
   0  -4   8 3268.61 753.029   2
   0  -4   8 5920.72 720.615   6
   4   0   8 3465.48 691.356  16
   0   4  -8 6331.26 638.414  12
  -4   0   8 804.816 250.965  16
   0  -4   8 5617.67 821.459  16
   4   0  -8 3641.47 422.993  14
  -4   0   8 5001.17 678.372   2
   4   0  -8 3304.56 541.550   1
   0  -4   8 4697.37 768.322  17
   4   0  -8 2740.23 503.501  18
   4   0   9-103.748 214.097   8
   0   4  -9 3.58436 41.5329  12
   4   0  -9-8.60696 28.5284  11
   0  -4   9 16.5681 47.5392   6
   4   0  -9 37.5654 54.0772  18
   0   4  -9 41.1018 97.9359   3
   0   4  -9-13.5890 61.1139  18
  -4   0   9-41.5121 145.428  16
   0  -4   9 20.0313 33.3415   2
   4   0  -9-23.8343 57.2975   1
   0   4  -9 7.81315 8.44532   4
  -4   0   9-10.3526 58.0302   2
   4   0   9 3.59517 120.563  16
   0   4  -9-47.0190 22.0808  13
   4   0   9 52.2411 160.485   6
   4   0  -9-34.8632 63.2040  14
  -4   0   9 29.9703 75.2338  17
   0  -4   9 28.1322 93.8851  17
   0  -4   9 60.7176 44.0149  16
   0  -4  10 138.551 126.087   6
   0   4 -10 145.598 189.684  13
   0   4 -10 97.9305 65.6982  12
   0   4 -10 203.203 131.951  18
  -4   0  10 130.021 122.337   2
   4   0  10 46.8626 134.830  16
   0   4 -10 112.209 111.247   3
  -4   0  10 152.931 111.752  17
   4   0  10-48.8231 193.370   8
   4   0 -10 16.3139 61.4391  11
   0  -4  10 166.068 60.3513  14
   4   0  10-16.2638 158.464   6
   0  -4  10 44.8107 16.7905   8
   4   0 -10 30.0546 45.2297   1
   0  -4  10 229.388 236.451   2
  -4   0  10-26.5358 114.524  16
   0  -4  10 68.0077 53.3113  16
   4   0 -10 69.3675 57.2577  14
   0  -4  10 208.260 180.039  17
   0  -4  11 15.7319 31.1647  14
   4   0  11 44.3451 44.8246  16
   0   4 -11-19.1158 59.5400  18
  -4   0  11-34.1693 104.978   2
   0   4 -11 48.3933 133.227   3
   0   4 -11 160.408 173.741  11
   4   0  11-105.439 305.274   8
   4   0 -11 15.3579 114.475  11
   4   0 -11-26.7652 95.8215   1
   0   4 -11-10.0327 92.0889  12
   0   4 -11-33.1664 58.8317  13
   0  -4  11-82.1454 104.631   6
   0  -4  11-62.8921 131.016  16
   0  -4  11-13.7398 66.1863   2
   0  -4  11-10.2792 31.1098   8
  -4   0  11-124.295 168.107  16
  -4   0  11-56.9064 106.337  17
   0  -4  11-70.8613 102.596  17
   4   0  11-202.569 294.248   6
   0   4 -12 147.590 146.136  12
   0  -4  12 66.0952 112.468  17
   0  -4  12-66.2342 79.1359   6
   0   4 -12 69.0920 201.804  15
   4   0  12 14.9800 179.390  16
   0   4 -12 197.955 215.820   3
  -4   0  12-17.9047 65.5454   2
   0   4 -12-21.3014 11.8588  18
   4   0 -12-88.8958 131.776   1
   0  -4  12-3.32482 19.5647   8
   0   4 -12-80.8890 128.475  11
   0   4 -12 53.0616 261.943   7
   0  -4  12 28.5450 118.011  16
  -4   0  12-73.2161 129.047  17
   0  -4  12-6.41510 136.643   2
   4   0  12-143.616 224.806   8
  -4   0  12 139.705 239.443  16
   4   0  12-273.423 464.138   6
   4   0  13-87.2111 89.0960  16
  -4   0  13-92.3277 185.931  17
   4   0  13-120.335 323.050   8
   0  -4  13 950.481 207.415   8
   0   4 -13 837.770 544.202  15
   0   4 -13 904.486 347.431   1
   0  -4  13 1573.61 579.457   2
   0   4 -13 1095.26 679.628   7
  -4   0  13 147.914 191.721   2
   0   4 -14-143.805 263.251  15
   0  -4  14 18.4082 103.967  16
   0   4 -14 159.053 134.517  18
   0  -4  14 106.093 118.930  17
   4   0  14 4.69208 143.813  16
   0  -4  14 224.116 225.451   6
   0  -4  14 36.4527 64.1984   2
   0   4 -14 37.3375 124.875  10
  -4   0  14 171.365 181.874   2
   4   0  14-22.4755 275.676   8
   0   4 -14-98.1349 303.867   7
   0   4 -14 390.761 256.052  11
   0   4 -14 22.2589 22.0782   1
   0  -4  14 77.3004 35.1833   8
   0  -4  15 29.4044 30.1667   8
   0   4 -15-11.6707 44.0091   1
   0   4 -15 60.9436 109.703  11
   0   4 -15 27.0963 64.6284  18
   0  -4  15 83.9834 105.363  16
   0  -4  15 4.57803 84.6144  17
   0   4 -15 110.267 280.744  10
   4   0  15-10.8691 134.586  16
   0  -4  15 162.542 191.692   2
   0   4 -15-158.037 476.162   7
   0   4 -15 472.091 440.446   9
   0   4 -15-194.897 443.460  15
   0  -4  15 63.7335 188.416   6
   0  -4  16-53.2663 66.3301  17
   0   4 -16 139.848 260.544  10
   0   4 -16 108.099 130.941   1
   0  -4  16 30.8491 51.2927   8
   4   0  16 29.5679 58.8300  16
   0   4 -16 0.03263 79.3408  18
   0  -4  16 33.9439 125.541   2
   0   4 -16 110.635 159.324  11
   0  -4  16 144.819 198.997   6
   0  -4  16 147.545 174.746  16
   0   4 -17 176.319 362.144   9
   0  -4  17 163.742 275.298  16
   0   4 -17-37.6399 122.770  10
   0   4 -17-4.64014 6.33074  19
   0   4 -17 96.2319 131.906  18
   0   4 -17 160.529 160.097   1
   0  -4  17 146.762 144.438  17
   0  -4  17 31.3167 43.7516   8
   0   4 -17 171.387 155.533  11
   0  -4  17 108.978 159.024   6
   0  -4  17 29.1127 29.5765   2
   0  -4  18 1388.20 574.052   2
   0  -4  18 1595.94 475.307  17
   0   4 -18 1282.89 642.607  10
   0  -4  18 1332.80 270.762   8
   0  -4  18 1571.74 598.123  16
   0   4 -18 1738.74 715.270   9
   0   4 -18 956.927 393.659  11
   0  -4  18 464.656 384.686   6
   0   4 -18 656.063 290.485  18
   0   4 -19 735.171 521.058   9
   0   4 -19 383.436 237.875  18
   0   4 -19 834.119 568.168  10
   0  -4  19 383.465 148.262   8
   0  -4  19 643.681 309.713  17
   0  -4  19 357.279 324.103  16
   0  -4  19 390.752 319.287   2
   0  -4  19-123.135 263.350   6
   0   4 -19 370.248 291.812  11
   0  -4  20 2290.01 739.803   2
   0   4 -20 662.175 362.145  11
   0  -4  20 2176.95 535.172  17
   0   4 -20 886.273 509.602   9
   0   4 -20 394.197 392.664  10
   0  -4  20 2040.82 696.639  16
   0  -4  20 102.391 350.509   6
   0   4 -20 545.507 274.945  18
  -4   1   0 2368.93 366.493   4
   4   1   0 1918.91 372.584   8
  -4   1   0 1851.17 290.883  12
   4  -1   0 2458.16 354.134   8
  -4  -1   0 1033.14 315.015   4
  -4  -1   0 1223.72 354.331   5
  -4   1   0 2613.30 375.474   5
   4  -1   0 2890.10 427.106   1
   4  -1   0 1019.65 197.680  18
   4  -1   0 2721.96 397.203  14
  -4   1   0 2811.95 395.966  19
  -4   1   0 1692.32 215.094   2
  -4  -1   0 816.926 264.650   2
  -4   1   0 795.170 188.679  17
   4  -1   0 2836.43 360.153   6
  -4  -1   0 1345.21 341.677  17
   4   1   0 1696.55 429.573  14
   4   1   0 386.020 142.021   6
   4   1   0 2610.29 417.804  18
   4   1   0 2540.11 532.572   1
  -4   1  -1 146.330 117.439  19
   4   1   1 64.3305 19.3341  18
   4   1  -1 86.5293 60.4711  13
   4   1  -1 114.150 93.3052  18
   4   1  -1 114.977 90.2864   8
   4  -1   1 213.973 129.381   6
   4  -1  -1 114.067 92.2372  14
  -4   1  -1 157.670 107.618   4
  -4  -1  -1 6.49505 48.5322  17
   4   1  -1 170.813 142.350   1
   4   1   1 25.6634 61.8231   6
  -4   1   1 44.5034 60.5539  17
  -4   1   1 105.280 73.8735   5
  -4  -1   1 59.0155 56.8090   4
  -4  -1   1 88.6427 105.904   5
   4   1  -1 111.748 107.633  14
  -4   1  -1 115.022 69.4895  12
  -4   1   1 184.193 101.709  19
  -4  -1  -1-37.1655 127.298   4
  -4  -1   1 105.930 95.5188  17
  -4   1  -1 111.728 77.3758   5
   4  -1   1 92.8658 82.9115  14
   4  -1  -1 35.5251 35.2314  18
  -4   1   1 104.140 65.2351   4
  -4   1  -1 50.8890 52.0245  17
  -4  -1   1 119.279 103.987   2
   4  -1  -1 76.0323 55.2214   6
  -4   1  -1 61.0262 24.3643   3
   4  -1   1 150.323 106.941   1
   4  -1   1 72.8621 52.5363  18
   4  -1  -1 117.923 74.3583   8
  -4   1  -1 106.334 48.1412   2
  -4  -1   1 38.8921 48.1581  19
   4   1   1 101.232 137.396   1
   4   1   1 95.0341 75.3390  14
   4  -1   1 131.549 114.410   8
  -4   1   1 22.2042 22.8219  12
   4   1  -1 23.9031 15.3651   6
   4  -1  -1 62.8654 72.3621   1
   4   1   1 58.6539 63.4953   8
   4  -1   2 277.936 125.979   6
  -4   1  -2 259.095 133.069  12
  -4   1  -2 199.302 106.375   3
   4   1  -2 232.382 109.132  13
  -4   1  -2 241.973 126.264   5
  -4   1   2 152.725 79.2455   5
  -4  -1   2 162.650 108.774  19
  -4   1  -2 74.2693 45.9724  17
   4  -1   2 158.320 85.7153  16
  -4  -1   2 148.551 110.263   4
   4   1  -2 218.578 138.872   1
   4   1   2 158.607 182.665   1
  -4   1   2 209.591 102.941  19
  -4  -1   2 245.352 147.378   2
   4  -1   2 178.511 115.333   8
  -4   1  -2 270.425 135.582  19
  -4   1   2 76.1108 76.0687  17
   4  -1  -2 170.212 96.8833  14
  -4  -1   2 78.8192 70.8120   5
   4   1   2 111.141 122.135  14
   4  -1  -2 145.798 87.3282   8
   4   1   2-9.51027 82.2506   6
   4  -1   2 143.426 61.1032  18
   4   1  -2 222.021 102.469   8
  -4   1  -2 182.749 124.355   4
   4  -1  -2 141.782 106.268   1
  -4  -1   2 231.712 151.704  17
   4  -1   2 199.504 113.920   1
   4   1  -2 207.866 141.181  18
   4  -1   2 199.936 117.796  14
   4   1   2 90.5217 82.2979   8
   4   1  -2 156.172 133.585  14
  -4   1   3 440.886 151.261  19
  -4   1  -3 480.813 197.336   4
   4  -1  -3 334.577 155.744   1
  -4   1  -3 456.181 178.779  19
   4   1  -3 472.740 198.669   1
  -4  -1   3 474.346 173.081  19
   4   1  -3 702.497 248.090  11
   4  -1   3 632.636 210.798   1
   4   1  -3 480.105 146.577   8
   4   1   3 108.529 101.269   8
  -4  -1   3 425.752 185.409   5
   4   1  -3 467.391 176.117  18
   4   1   3 36.8857 75.8262   6
  -4  -1   3 466.129 109.178  16
   4  -1   3 592.676 203.242  14
  -4  -1   3 416.644 193.916  17
   4   1  -3 455.560 186.935  14
  -4   1   3 212.845 115.961  17
   4  -1   3 615.052 192.716  16
  -4   1  -3 496.080 184.553   5
   4  -1   3 513.102 177.865   8
  -4  -1   3 445.806 173.521   4
   4  -1   3 580.043 190.276   6
   4  -1  -3 410.285 154.774  14
  -4   1  -3 463.071 167.348   3
  -4  -1   3 504.935 190.004   2
   4  -1  -3 106.475 43.4785   8
  -4   1  -4 113.713 106.607   5
   4  -1   4 101.332 93.4702   1
   4   1  -4 48.5533 65.4103  14
   4  -1   4 65.9597 72.5589  16
  -4  -1   4 53.0556 13.5339   2
  -4   1   4 10.3599 33.8624  17
   4   1  -4 102.145 92.4592  11
   4   1  -4 28.5800 41.5497   1
  -1   4  -4 21.4918 32.6669   3
  -4  -1   4 78.9326 50.6901  16
   4   1  -4 85.8436 59.8513   8
  -4  -1   4 38.4525 79.9793   5
  -4   1   4-2.05842 65.7089  19
  -4   1  -4 76.3986 64.1528  10
   4  -1  -4 38.8492 29.2821   1
   4   1  -4 162.708 126.088  10
  -4   1  -4 47.7060 46.2194   9
   4   1  -4 92.2213 87.1037  18
   4   1   4-64.7976 180.812   6
  -4   1  -4 28.2520 64.8142   4
  -4  -1   4 67.6199 53.8734   4
   4  -1  -4 63.8883 46.6375  14
  -4  -1   4 117.256 86.7563  17
  -4  -1   4 52.8786 47.0380  19
   4  -1   4 97.9226 72.4246   6
  -4   1  -4 109.670 112.604  19
   4  -1   4 94.7871 86.3224  14
   4   1   4-9.03789 118.410   8
   4  -1   4 85.7676 67.2789   8
  -1   4  -5 1223.64 410.802  13
  -4   1  -5 2143.19 483.123   4
   4   1   5 50.1526 165.631   6
   1   4  -5 2464.93 585.243  13
   4   1  -5 3584.66 566.824   1
   4   1  -5 3281.01 494.724  18
  -4  -1   5 3386.19 532.421   2
   1  -4   5 1211.01 318.264   6
   4  -1   5 3470.44 510.426  16
  -4   1  -5 1854.53 326.392  10
  -4  -1   5 3351.05 422.628   4
   4  -1  -5 1054.41 270.212   1
  -4   1  -5 1810.04 394.092  19
  -4   1   5 1426.75 335.603  17
  -4  -1   5 3295.82 482.219   5
  -4   1  -5 1695.45 264.613   9
  -4  -1   5 2739.80 344.509  16
   4   1  -5 2678.81 300.849   8
   4  -1   5 3997.23 597.870  14
   4  -1   5 2738.62 482.444   1
   4   1  -5 3750.05 577.725  11
   1   4  -5 2710.48 511.150   3
  -4   1  -5 3337.07 721.385   7
  -4   1  -5 1672.06 395.426   5
  -4  -1   5 3417.81 402.360  19
  -1   4  -5 2672.45 426.564  12
  -1   4  -5 3042.14 557.917   3
   4  -1   5 3266.26 509.135   8
   4   1  -5 2010.12 407.207  10
  -4   1  -5 3128.47 678.829  15
  -4  -1   5 3005.79 540.312  17
   4  -1   5 3687.12 561.362   6
   4   1  -5 2624.96 409.610  14
   4   1  -5 3806.46 651.202   9
  -4   1  -6 943.260 376.321  15
  -4   1  -6 450.869 143.714   9
   1   4  -6 927.910 367.437  13
   4   1  -6 500.006 199.399  10
   4  -1   6 1039.80 320.922  14
  -4  -1   6 985.338 256.594   5
   1   4  -6 537.329 166.001  12
   1  -4   6 772.821 257.749   6
   4  -1   6 826.700 269.550   8
  -4  -1   6 983.519 286.444   2
   4   1  -6 1058.81 311.292   1
   4  -1   6 266.188 175.495   1
  -4   1  -6 529.336 218.039  19
   4  -1   6 1053.48 319.632  16
  -4  -1   6 979.985 219.813   4
  -1   4  -6 1102.93 331.857   3
   4   1  -6 963.863 282.349  18
   4   1  -6 359.131 94.3542   8
  -1  -4   6 532.535 193.747   6
   4   1  -6 902.960 233.181  14
  -1   4  -6 1011.30 259.041  12
  -4  -1   6 1046.80 318.198  17
   1   4  -6 1112.53 312.428   3
  -1   4  -6 796.476 342.696  13
  -4   1   6 315.034 140.673  17
  -4   1  -6 868.427 408.708   7
  -4  -1   6 729.073 209.912  16
  -4  -1   6 1024.69 210.380  19
  -4   1  -6 468.363 175.384  10
  -4   1  -6 342.452 168.248   4
   4   1  -6 895.655 353.495   9
   4  -1   6 1108.23 335.184   6
   4   1  -6 1140.50 332.402  11
  -4  -1   7 2120.70 379.995   5
   4  -1   7 2005.07 477.437  14
  -1   4  -7 2117.91 381.970  12
  -1  -4   7 603.786 303.066   2
  -1   4  -7 1339.17 328.245  18
   4   1  -7 1867.56 315.357  14
   4   1  -7 1793.16 396.609  18
  -1  -4   7 1357.67 387.037  16
   4  -1   7 2030.85 478.190   6
   4   1  -7 1920.94 420.074   1
  -1   4  -7 1723.72 484.623  13
   1   4  -7 1994.53 478.633  18
  -4   1  -7 1444.88 489.377  15
   4   1  -7 686.940 296.164  10
   4  -1   7 1868.94 222.192   2
  -1  -4   7 1628.84 344.332   6
  -4   1  -7 505.146 168.471   9
  -1  -4   7 895.181 367.735  17
   1  -4   7 1911.13 416.246   6
   1   4  -7 2226.48 552.468  13
  -4   1  -7 746.459 278.155  19
   1   4  -7 2251.04 453.293   3
   4  -1   7 1701.41 411.409   8
  -4  -1   7 1495.60 250.486  19
   4   1  -7 1588.81 489.384   9
  -4  -1   7 2418.88 503.701  17
   1   4  -7 1950.90 317.784  12
  -1   4  -7 2463.19 508.478   3
  -4   1  -7 610.126 223.008  10
  -4  -1   7 1340.17 304.033  16
   1  -4   7 730.563 281.560  17
   4  -1   7 2126.08 465.263  16
  -4   1  -7 1309.86 519.103   7
   4   1  -7 2036.32 473.870  11
   1  -4   7 1286.14 393.869  16
  -4  -1   7 1966.06 441.441   2
  -4  -1   7 1978.21 292.482   4
   1   4  -8 106.154 105.555   3
  -4  -1   8 52.7220 82.2595  16
  -1   4  -8 8.56810 89.1463  13
  -1  -4   8 139.870 117.330   6
   4  -1   8 83.0872 34.9331   2
   1  -4   8 34.3396 36.9492   8
   4   1  -8 97.1076 190.040  10
   1   4  -8 151.527 92.7317  12
   4   1  -8 127.283 111.974   1
  -1  -4   8 45.0955 75.0996  17
  -4   1  -8-8.66448 105.272  15
   1  -4   8 193.953 177.262  17
  -1   4  -8 87.0751 106.761  18
  -1  -4   8 135.469 120.422  16
   1  -4   8-123.328 301.728   2
  -1   4  -8 107.344 89.4644  12
  -4  -1   8 115.367 110.907   5
   4   1  -8 77.9884 61.3449  14
  -4   1  -8-14.5112 65.9596  10
  -4   1  -8-52.9156 117.446  19
   1   4  -8 136.154 144.363  13
   4  -1   8 43.3809 44.7485   8
   1   4  -8 153.371 144.598  18
  -1   4  -8 90.4043 31.2858   4
   4   1  -8 72.1299 108.810  11
  -4  -1   8 98.3383 35.8461   2
   4   1  -8-16.5875 168.632   9
  -4  -1   8 185.008 149.246  17
   4   1  -8 38.1342 17.1511  18
   4  -1   8 121.906 91.1378  14
   4  -1   8 213.343 192.188   6
   4  -1   8 115.436 154.233  16
  -4   1  -8 92.4523 56.8775   7
   1  -4   8 126.493 111.114   6
  -1   4  -8 148.337 127.125   3
  -4   1  -8 30.2785 105.221   9
  -1  -4   8 69.6833 98.4426   2
   1  -4   8 86.5208 112.505  16
   1   4  -9 1025.93 302.456   3
   1  -4   9 1052.12 195.780  14
  -1   4  -9 1062.20 282.599  18
   4   1  -9 239.114 187.744  10
   1  -4   9 858.483 186.115   8
   4   1  -9 850.114 299.398   1
  -1  -4   9 907.739 272.598   6
   4  -1   9 735.620 343.483  14
  -1  -4   9 762.761 354.542   2
   1  -4   9 1197.20 362.352   6
  -1   4  -9 1018.80 378.233  13
   1   4  -9 983.979 242.587  12
  -1   4  -9 1086.30 356.054   3
  -1  -4   9 1081.42 353.079  16
   4   1  -9 778.979 308.107  11
   4   1  -9 795.938 193.408  14
   1   4  -9 920.413 365.501  13
   4  -1   9 803.933 310.630   8
   4   1  -9 392.182 256.324   9
  -1   4  -9 1393.18 234.630   4
   1  -4   9 814.317 390.745   2
   1   4  -9 1200.17 353.630  18
   1  -4   9 1036.08 373.116  16
  -1  -4   9 1056.22 398.183  17
  -4   1  -9 241.570 130.774  10
   4  -1   9 827.503 186.689   2
  -4  -1   9 941.981 245.639   5
  -4   1  -9 1.45329 339.392   7
  -1   4  -9 993.552 271.444  12
  -4  -1   9 940.152 299.116   2
  -4   1  -9 5.07638 134.392   9
  -4   1  -9 42.3488 247.539  15
  -4  -1   9 697.681 255.651  16
   1  -4   9 1121.36 334.962  17
  -4  -1   9 1184.70 380.447  17
   4   1  -9 788.747 296.773  18
   4  -1   9 829.387 304.245  16
   4  -1   9 912.200 350.951   6
   1  -4  10 588.271 144.979   8
   1   4 -10 646.683 205.296  12
  -1   4 -10 579.769 294.822  13
  -4  -1  10 623.486 281.147  17
  -1  -4  10 536.438 267.682  16
  -4  -1  10 402.853 209.845  16
   1  -4  10 836.462 273.572  17
  -1   4 -10 751.411 188.561   4
  -1  -4  10 501.701 230.569   6
   1   4 -10 661.918 271.191   3
   4   1 -10 459.997 206.749   1
   4  -1  10 466.451 238.174   8
   4   1 -10 415.773 239.451  11
   1  -4  10 633.159 314.498  16
   4   1 -10 8.38293 67.8918  10
  -4   1 -10 11.6046 41.3243  10
  -4  -1  10 569.459 188.503   5
  -1   4 -10 641.659 272.306   3
   1  -4  10 712.243 163.607  14
  -4  -1  10 636.175 252.999   2
  -1  -4  10 538.110 316.788   2
  -1   4 -10 772.221 228.493  18
   1  -4  10 527.284 274.193   2
   4  -1  10 574.537 295.012   6
   4   1 -10 402.210 213.349  18
  -1   4 -10 627.745 236.048  12
  -1  -4  10 582.382 292.624  17
   4  -1  10 511.610 149.611   2
   4   1 -10 238.872 237.875   9
   4  -1  10 626.490 312.313  16
   1   4 -10 656.781 252.297  18
   4   1 -10 463.893 150.349  14
   1  -4  10 647.014 250.719   6
   1   4 -10 632.917 318.029  13
   4  -1  11 152.583 209.536  16
   1   4 -11 123.157 149.701   3
  -1   4 -11 72.6326 130.271  13
  -4   1 -11-218.678 298.383  10
  -1   4 -11 12.2308 35.1642  19
  -1  -4  11 113.590 176.031   2
   1  -4  11 181.704 204.164   2
  -1  -4  11 126.974 116.729  17
   1   4 -11 108.474 124.883  18
   4   1 -11 45.4800 112.200  11
   1  -4  11-7.33585 24.3972  16
  -4  -1  11-28.2088 49.8410   2
   4   1 -11 47.4281 59.0163  14
  -4  -1  11 36.8909 54.1387   5
   4  -1  11 90.7095 75.2693   2
   1  -4  11 200.962 140.130  17
  -4  -1  11 87.5136 118.219  16
   4   1 -11 84.9613 91.4005  18
   4   1 -11-5.60686 52.3478   1
  -1  -4  11 8.86286 53.0331   6
   1  -4  11 87.4064 58.3748   8
   1  -4  11 89.4347 65.2201  14
   4   1 -11 1.61984 153.810   9
  -1   4 -11 146.474 179.762   3
  -4  -1  11 73.4971 64.3765  17
   1   4 -11 83.2450 135.705  11
   4  -1  11-28.5933 168.644   6
  -1   4 -11-15.7207 75.3946   4
   1  -4  11 30.4682 108.505   6
  -1  -4  11 92.1587 137.152  16
   1   4 -11 23.1385 13.6833   1
  -1   4 -11 80.9547 71.7146  18
   1   4 -11 61.5741 146.818  13
   4   1 -11-269.019 336.222  10
   1   4 -11 56.9508 49.0140  12
  -1   4 -11 83.8430 98.8293  11
   4  -1  11 22.8809 171.745   8
  -1   4 -11 100.829 95.5347  12
  -4  -1  12 132.770 148.168   2
   4   1 -12 88.2399 64.3301  14
   1   4 -12 348.059 222.331  18
   1   4 -12 242.228 353.032  15
   1  -4  12 206.994 169.649   6
  -4  -1  12 124.052 152.028  16
   1  -4  12 105.140 60.4907  14
  -1   4 -12 202.428 187.807   3
   4  -1  12-71.4137 138.679  16
  -1   4 -12 279.824 260.642  13
  -4  -1  12 193.095 187.012  17
  -1   4 -12 262.194 142.241  11
   1   4 -12 17.0691 21.2537   1
   1   4 -12 384.042 427.500   7
   4   1 -12 37.7813 101.075   9
   4   1 -12 0.40649 57.9003  18
   4  -1  12 47.7453 54.6445   2
  -1  -4  12 280.031 218.343  17
  -1  -4  12 272.429 222.555  16
   1  -4  12 47.5248 72.3463   2
  -1   4 -12 20.8542 42.4717  19
   4   1 -12 88.5971 96.1784   1
   1  -4  12 39.4574 10.8361   8
   4  -1  12 60.4301 162.024   6
  -1  -4  12-20.5667 54.0588   8
  -4  -1  12 70.3776 33.3456   5
   1   4 -12 249.052 156.637  12
  -4   1 -12-272.878 366.261  10
  -1  -4  12 414.366 334.342   2
   4  -1  12 72.7278 45.6797   8
   1  -4  12 120.353 76.6424  17
  -1   4 -12 57.3506 42.4265  18
   4   1 -12 13.4499 47.2068  11
  -1   4 -12 222.032 269.137  15
   1   4 -12 311.684 256.843   3
  -1  -4  12 403.034 238.863   6
  -1   4 -12 205.572 186.457  12
   1  -4  12 74.1874 119.508  16
   1   4 -12 414.134 263.966  11
  -1  -4  13 1222.28 453.218   6
  -1  -4  13 730.849 361.470  17
   4   1 -13-29.5532 27.8175  14
   4   1 -13 217.013 229.916   9
  -4  -1  13-128.770 142.212   5
   4  -1  13 156.175 200.398   6
  -4  -1  13 161.177 170.541  17
   4   1 -13 90.3988 109.214   1
  -1   4 -13 1711.38 911.394  15
  -1   4 -13 2031.58 1108.61   7
   1   4 -13 1007.49 404.314  18
   4  -1  13 43.4965 50.7296   2
   4   1 -13-97.5081 165.171  11
  -1  -4  13 171.825 206.200   2
   4   1 -13-23.5646 82.5633  18
  -1  -4  13 641.811 382.625  16
   4  -1  13-93.5875 148.740  16
   1   4 -13 1850.69 895.390   7
  -4  -1  13 189.192 237.864  16
   4  -1  13 148.289 163.770   8
   1   4 -13 1820.56 911.220  15
  -4  -1  13-0.08475 45.6545   2
   4   1 -14 222.573 96.6219  14
   1  -4  14 466.448 287.928   6
   1   4 -14 395.739 272.654  18
  -1   4 -14 868.225 335.709  11
  -1   4 -14 461.121 325.754   7
  -4  -1  14 504.186 299.614  16
  -4  -1  14 439.917 144.927   5
   1   4 -14 160.358 100.090   1
   4  -1  14 704.274 365.911  16
   1  -4  14 927.956 290.645  17
   4  -1  14 510.264 373.690   6
  -4  -1  14 483.357 268.656   2
   1   4 -14 537.924 360.560  10
  -1  -4  14 842.895 414.450   2
   1  -4  14 851.468 192.567   8
   1   4 -14 796.484 332.965  11
  -1  -4  14 561.825 114.221   8
  -1  -4  14 1010.82 378.082  17
  -1   4 -14 472.915 112.476  19
   4   1 -14 150.490 129.289  11
   1  -4  14 985.043 400.090   2
   1  -4  14 987.246 358.518  16
   4  -1  14 379.799 251.508   8
   4   1 -14 184.888 149.551   1
   4   1 -14 306.526 187.180  18
   4   1 -14 218.114 190.743   9
  -4  -1  14 727.479 302.510  17
  -1   4 -14 503.828 349.468  10
  -1  -4  14 767.027 317.648  16
   1   4 -14 230.255 142.430  15
   1   4 -14 133.239 211.918   7
   4  -1  14 598.828 204.879   2
  -1   4 -14 599.382 474.158  15
  -1   4 -14 653.398 221.901  18
  -1  -4  14 373.528 302.119   6
   1   4 -15 4.50133 7.92886   1
  -4  -1  15 103.285 143.554  16
  -1  -4  15 229.900 253.405   2
  -4  -1  15 142.200 124.046  17
   4   1 -15-7.37192 98.6216   1
   1   4 -15 44.3212 93.3275  18
   4   1 -15 9.32925 31.9259  14
   4  -1  15 79.6609 81.2037   2
  -4  -1  15 151.905 169.374   2
   1  -4  15 158.769 183.615  16
  -1   4 -15 148.167 145.423  11
  -1   4 -15 204.859 263.201   7
   4   1 -15-441.882 476.393   9
   4   1 -15-42.9838 77.7258  11
  -1   4 -15-113.122 268.685  15
  -1  -4  15 143.295 137.611  17
   4  -1  15-61.0318 145.145   8
  -1   4 -15 697.081 488.083   9
   4  -1  15-382.788 302.565   6
  -1  -4  15 190.510 197.326  16
  -1   4 -15 129.758 258.996  10
   1   4 -15 148.815 228.040  10
  -1  -4  15 100.709 57.7658   8
   1  -4  15 54.7262 79.2487   2
   4  -1  15 289.187 261.567  16
  -1   4 -15 88.9780 50.6935  19
   1   4 -15 295.667 391.061   9
   1  -4  15 119.208 89.2894   8
   1  -4  15 41.1274 182.846   6
  -1   4 -15 75.2047 94.3289  18
   1   4 -15-85.3411 160.033  11
   1  -4  15 206.420 159.232  17
  -1  -4  15 60.1830 128.801   6
  -1   4 -16 14.5667 383.005   7
   4   1 -16 104.428 117.702   1
  -1   4 -16-195.727 506.448  15
  -1  -4  16 893.497 409.791   2
   4   1 -16 101.293 177.961  11
   4   1 -16 145.207 84.3401  14
   1  -4  16 681.383 195.426   8
   1  -4  16 805.506 380.802   2
  -1   4 -16 439.277 115.502  19
   1  -4  16 699.587 272.437  17
  -1   4 -16 564.057 404.951  10
   1   4 -16 764.109 483.144  10
   1   4 -16 1128.81 665.875   9
   4  -1  16 241.700 205.304   8
   1   4 -16 706.585 330.131  11
  -4  -1  16 669.082 309.934  17
  -1   4 -16 1077.22 531.889   9
   1   4 -16 256.639 251.394  18
  -1  -4  16 652.100 136.686   8
  -4  -1  16 450.409 273.053  16
  -1  -4  16 852.874 364.075  17
   1  -4  16 486.200 296.096   6
   4  -1  16 717.236 435.029  16
  -1  -4  16 1108.62 451.515  16
   1  -4  16 928.782 413.539  16
  -1   4 -16 301.519 155.851  18
   4  -1  16-79.4896 405.964   6
   4  -1  16 555.410 232.904   2
  -1   4 -16 409.172 201.788  11
  -4  -1  16 566.823 324.288   2
  -1  -4  16 48.6737 73.7470   6
   1   4 -16 207.747 140.597   1
   1  -4  17 535.914 205.532   8
  -1  -4  17 370.440 104.553   8
  -1  -4  17 0.06781 147.710   6
   4  -1  17 427.942 222.312   2
   1   4 -17 34.9400 56.9799   1
  -1   4 -17 366.280 260.120  11
   1   4 -17 126.724 41.1612  11
  -1  -4  17 494.437 231.553  17
   4  -1  17 310.687 272.760   8
  -1  -4  17 434.907 331.192   2
  -1   4 -17 420.884 457.639  10
  -4  -1  17 193.343 67.0984  17
   1  -4  17 736.474 390.794   2
  -1   4 -17 283.287 109.742  19
   1  -4  17 218.727 252.816   6
   1   4 -17 237.375 240.559  10
  -1   4 -17 840.352 534.677   9
   4   1 -17 54.5286 61.4939   1
  -1   4 -17 277.346 203.220  18
  -4  -1  17 329.382 290.241   2
   4  -1  17 386.413 323.058  16
   1  -4  17 634.754 310.274  17
   1   4 -17 297.511 218.370  18
  -1  -4  17 408.395 334.166  16
  -4  -1  17 216.115 275.992  16
   1  -4  17 725.466 496.315  16
   1   4 -17 479.233 465.387   9
  -4  -1  18 614.551 352.068   2
  -1   4 -18 356.259 235.670  18
  -4  -1  18 117.878 202.566  17
  -1  -4  18 998.555 344.932  17
   1  -4  18 971.454 284.981   8
   1   4 -18 1180.86 713.383   9
  -1   4 -18 971.556 608.883   9
   1  -4  18 917.161 343.779  17
  -1  -4  18 955.913 192.832   8
   4  -1  18 932.225 391.998   2
   1  -4  18 44.8528 46.9188   6
  -1   4 -18 639.962 346.294  11
  -1  -4  18 9.94085 155.229   6
   1  -4  18 977.880 491.429   2
   1   4 -18 909.556 555.473  10
   4  -1  18 343.852 210.262   8
   1   4 -18 677.069 291.904  18
   1   4 -18 774.756 360.988  11
   4   1 -18 101.534 154.948   1
   1  -4  18 1307.55 563.025  16
  -1  -4  18 696.265 396.114   2
  -1   4 -18 212.766 434.232  10
  -1  -4  18 1104.62 471.897  16
   4  -1  18 402.414 419.825  16
  -4  -1  18 619.670 400.187  16
   1   4 -18 282.374 163.275   1
   1   4 -19 1434.66 745.583   9
  -1  -4  19 2745.97 803.191   2
  -1   4 -19 1061.72 402.178  11
  -1  -4  19-190.866 376.652   6
   4  -1  19 1226.77 506.610  16
   4  -1  19 1817.03 549.204   2
   1  -4  19 2168.20 407.746   8
  -1  -4  19 2630.72 635.318  17
  -4  -1  19 2171.66 683.014   2
  -4  -1  19 1382.89 682.856  16
   1   4 -19 1055.94 380.627  18
   1  -4  19 2339.01 542.580  17
  -1   4 -19 1358.46 571.495   9
   1  -4  19 2409.03 750.134   2
   1  -4  19 984.759 520.148   6
  -1   4 -19 1037.62 516.665  10
   1  -4  19 2227.35 734.487  16
  -1  -4  19 2205.09 755.456  16
   1   4 -19 760.590 456.614  10
   4  -1  19 661.143 244.697   8
   1   4 -19 951.981 431.052  11
   1  -4  20 499.577 447.805  16
   1   4 -20 439.046 327.462  10
   1   4 -20 176.704 228.126   9
  -1   4 -20-244.956 284.111  10
  -1   4 -20 194.162 328.309   9
  -1  -4  20 374.782 307.810  17
   1  -4  20 390.699 228.046   8
  -1  -4  20-751.904 748.439   6
   1  -4  20 328.640 352.076   2
   1  -4  20 91.6815 286.156   6
  -1  -4  20 257.560 337.384   2
   4  -1  20 193.513 334.784  16
  -4  -1  20 505.095 523.768  16
   4  -1  20 13.6408 41.1955   8
   1   4 -20 737.985 383.023  11
   1  -4  20 192.690 183.772  17
  -1   4 -20 168.357 205.482  11
  -4  -1  20 287.881 319.074   2
  -1  -4  20 246.696 51.7013  16
   1   4 -20 161.586 199.727  18
  -4   2   0 297.614 134.538  19
   4  -2   0 158.424 71.8695   1
   4  -2   0 78.8899 48.5107   6
   4   2   0 142.718 129.777   1
  -4   2   0 90.2868 39.5879  12
   4  -2   0 206.661 119.645   8
   4  -2   0 216.333 114.193  14
  -4   2   1 1395.16 276.139  19
  -4  -2   1 195.599 151.298  17
  -4   2  -1 1643.65 305.934  19
   4   2  -1 1313.85 422.477   1
  -4   2  -1 1369.10 254.872   5
   4  -2   1 1395.09 289.910  14
   4  -2   1 1294.83 279.475   1
   4  -2   1 1439.99 284.502   8
   4  -2   1 1419.54 298.558   6
   4   2  -1 509.586 216.531   8
   4   2  -1 1336.08 346.390  18
  -4   2  -1 1294.66 282.016  12
   4  -2  -1 982.293 242.038  14
   4  -2  -1 650.817 195.162   8
   4   2  -2 264.643 131.841   8
  -4   2  -2 457.851 173.106  12
   4   2  -2 381.603 186.332  13
  -4   2  -2 299.047 154.347   3
   4  -2   2 488.052 177.182   1
   4  -2   2 577.736 200.562   8
  -4  -2   2 214.854 144.427   2
   4   2  -2 418.000 246.175   1
  -4   2  -2 429.077 152.534   5
  -4   2  -2 540.801 193.670  19
   4   2  -2 495.595 218.955  18
  -4  -2   2 186.005 190.447  17
   4  -2   2 598.437 206.809   6
   4  -2  -2 145.650 75.9590  14
   4  -2   2 555.200 200.625  14
  -4   2  -2 493.547 176.548   4
   4  -2   3 2016.17 331.431   1
   4   2  -3 2172.00 400.318  13
  -4  -2   3 1441.94 396.119   2
  -4  -2   3 1021.34 341.096  17
  -4  -2   3 885.848 256.185  19
   4   2  -3 1754.40 473.537   1
   4   2  -3 1414.35 285.259   8
   4   2  -3 1952.50 424.618  18
  -4   2  -3 1834.68 352.371  12
  -4   2  -3 2022.90 323.949   5
  -4  -2   3 914.043 312.785   5
  -4   2  -3 1698.56 354.943   3
  -4   2  -3 2128.23 364.241   4
   4  -2   3 2282.45 394.776   6
   4  -2   3 1890.19 350.109  14
   4   2  -3 433.557 220.044  14
  -4   2  -3 1919.19 341.343  19
   4  -2   3 1989.58 345.103   8
   4  -2   4 1590.78 353.041  16
  -4   2  -4 1573.62 340.880  12
   4  -2   4 1847.79 315.776   1
   4  -2   4 1491.04 317.961   8
  -4  -2   4 571.277 216.012   4
   4   2  -4 1549.98 430.007   1
  -4  -2   4 946.420 261.295  19
  -4  -2   4 967.289 313.424   5
  -2   4  -4 1206.35 372.424   3
  -4   2  -4 1697.17 361.823   4
  -4  -2   4 863.235 193.219  16
   4   2  -4 1676.79 271.737   8
  -4   2  -4 1574.72 299.253   5
  -4  -2   4 1484.72 406.041   2
   4  -2   4 1861.10 381.947   6
  -4   2  -4 1675.78 331.604  19
   4   2  -4 657.841 147.882   3
   2  -4   4 364.301 159.052   6
  -4  -2   4 1104.07 351.761  17
   4  -2   4 1842.77 359.360  14
   4   2  -4 547.064 242.430  14
  -4   2  -4 1334.09 331.221   3
   4   2  -4 1841.69 374.650  13
   4   2  -4 1690.50 397.146  18
  -2   4  -4 1196.13 297.931  12
  -4   2  -5 43.8128 61.0140   5
   4   2  -5 36.3506 33.1809   3
  -4  -2   5 37.5752 74.6532  19
   4  -2   5 29.5329 76.6021   8
  -4  -2   5 25.7189 30.8869   4
   4   2  -5 5.62562 26.0894  18
  -4  -2   5-11.8598 50.4852  16
  -4  -2   5 21.6017 52.3477   5
   4   2  -5 3.54480 61.4473   1
   4   2  -5-1.66702 40.1193  14
  -4  -2   5 6.99198 37.7971   2
   4   2  -5 20.7365 44.1072   8
   4  -2   5 12.7082 38.9356  14
  -2   4  -5 18.6650 10.1399   3
  -4   2  -5 27.3860 71.1050  19
  -4   2  -5 28.6739 47.0569   3
  -2   4  -5 15.7097 18.9716  12
   4  -2   5 23.8779 76.0697  16
   4  -2   5 35.3667 61.1010   1
  -4   2  -5-17.2928 25.5631  13
   2   4  -5 55.8197 108.632  13
  -4   2  -5-1.19265 29.3779  12
  -4   2  -5 27.0155 71.6363   4
  -4  -2   5 70.8036 98.7581  17
   2  -4   5-12.5742 68.0618   6
   4  -2   5-44.6378 114.394   6
   2   4  -6 3215.40 641.298  18
  -4   2  -6 2648.64 427.044  13
  -2   4  -6 4039.45 547.393  12
   2  -4   6 2965.32 531.461   6
   4  -2   6 5166.68 639.282  14
  -4  -2   6 3391.48 574.863   5
  -2  -4   6 777.917 367.580  17
   2  -4   6 1409.45 259.333   8
  -4   2  -6 3705.14 530.621  19
   4  -2   6 4776.43 555.043   1
  -4   2  -6 3628.95 590.250   4
  -4  -2   6 4312.42 683.370   2
   4  -2   6 4977.12 677.219   6
  -4   2  -6 3417.01 515.405   5
  -2   4  -6 1877.79 529.782  13
   4   2  -6 4208.19 406.778   3
   4   2  -6 4319.50 637.043  18
  -2  -4   6 1412.63 304.487   6
  -2  -4   6 791.972 296.285   2
   2   4  -6 3702.24 567.634   3
  -4  -2   6 3913.77 474.757  16
   4  -2   6 5047.65 690.681  16
  -4  -2   6 2756.68 434.049   4
   4  -2   6 4526.73 583.508   8
   2   4  -6 4256.87 761.666  13
   4   2  -6 4165.40 679.677   1
   4   2  -6 1541.61 365.176  14
   4   2  -6 5130.67 767.443  11
  -4  -2   6 3934.37 675.957  17
  -2   4  -6 4161.20 673.446   3
   4   2  -6 4034.75 335.292   8
  -4  -2   6 4214.72 455.710  19
  -4  -2   7 377.980 157.703  16
  -2   4  -7 358.743 206.164   3
   2  -4   7 211.695 95.9807  14
   2  -4   7 208.043 99.5538  16
  -4  -2   7 493.055 251.543   2
  -2   4  -7 399.590 170.657  12
  -2  -4   7 267.957 259.848  17
  -2   4  -7 319.422 200.344  13
   4  -2   7 435.786 197.638   8
  -4   2  -7 319.368 173.320   4
   4   2  -7 482.708 244.047  11
   2   4  -7 468.139 242.788  18
   4   2  -7 423.965 214.125   1
   4   2  -7 500.264 270.827  10
  -4  -2   7 269.305 150.292   5
   4  -2   7 234.471 85.6744   2
   2   4  -7 472.985 202.783   3
   2  -4   7 215.603 104.464   8
  -4  -2   7 414.119 137.215  19
  -4   2  -7 281.587 159.402   5
   4   2  -7 507.097 235.986  18
  -4   2  -7 334.705 166.122  19
   2  -4   7 354.882 195.985   6
   4  -2   7 525.423 240.236   6
  -2  -4   7 268.373 139.626   6
  -4  -2   7 552.328 279.330  17
   4  -2   7 439.239 211.071  16
   4   2  -7 103.856 92.6226  14
   4  -2   7 267.474 141.819   1
  -4  -2   7 359.118 141.188   4
   4   2  -7 236.238 77.3321   8
  -2  -4   7 192.321 83.2903  16
   2   4  -7 169.830 73.0828  12
   2   4  -7 496.677 286.612  13
  -2  -4   7 127.874 169.228   2
   4  -2   7 539.438 223.634  14
  -4   2  -7 133.771 59.0411  11
  -2   4  -8 2097.55 517.470  13
  -4   2  -8 1699.63 378.738  19
  -2  -4   8 1817.66 446.585  16
   4  -2   8 3058.49 592.094  16
   2   4  -8 2399.44 342.615  12
  -2   4  -8 2731.67 476.464  12
   4   2  -8 3270.37 653.874  11
  -2  -4   8 1879.59 582.474   2
  -4  -2   8 2494.74 365.531   4
  -2   4  -8 2109.47 384.698  18
  -4  -2   8 2154.04 289.286  19
   4   2  -8 2550.26 523.341   1
  -4  -2   8 2831.87 580.129   2
  -2   4  -8 1452.26 239.384  19
   2   4  -8 2965.16 659.826  13
   4   2  -8 2389.66 563.038  10
  -4   2  -8 2263.57 463.462  10
   4   2  -8 1033.53 276.647  14
   2  -4   8 2090.28 328.720   8
   2  -4   8 2297.90 456.868  17
  -4   2  -8 1248.79 367.507   4
   4  -2   8 3180.92 565.764  14
  -2  -4   8 1662.01 511.224  17
   4  -2   8 2902.24 507.709   8
   4   2  -8 2729.09 520.661  18
  -2  -4   8 1953.97 362.485   6
   4  -2   8 2952.31 587.190   6
   2  -4   8 2378.58 501.047   6
  -4  -2   8 2544.49 473.024   5
   2  -4   8 2314.64 562.367  16
  -2   4  -8 2831.04 567.137   3
  -4  -2   8 2452.48 431.719  16
  -4   2  -8 2599.14 712.682  15
  -4   2  -8 2602.77 735.442   7
  -4  -2   8 2844.14 589.536  17
   2   4  -8 2575.46 553.427  18
   2   4  -8 2757.79 496.381   3
   2  -4   8 2361.49 342.529  14
   4  -2   8 3238.73 423.896   2
  -2   4  -8 2900.81 389.909   4
  -4   2  -8 3241.00 533.957   9
  -2   4  -9 358.941 182.896  12
  -2   4  -9 354.955 211.855  13
   4  -2   9 370.860 209.182   6
   2   4  -9 469.332 277.499  13
  -4   2  -9 171.234 137.383  19
   2  -4   9 260.050 151.948  16
   4   2  -9 283.440 176.046   1
  -2   4  -9 270.684 182.682   3
  -2  -4   9 279.052 188.422  16
   4   2  -9 517.906 319.697  11
   4   2  -9 690.529 468.432   9
   2   4  -9 325.610 120.520  12
   4  -2   9 425.330 203.611   8
   4   2  -9 362.722 239.146  10
  -4   2  -9 419.248 213.876   9
  -4   2  -9 424.823 235.747  10
   2   4  -9 297.196 182.534  18
   2   4  -9 293.429 176.345   3
   4  -2   9 434.323 237.734  16
   2  -4   9 377.613 165.463  17
  -4  -2   9 312.044 170.354   5
  -4   2  -9 80.9528 105.878   4
  -2   4  -9 375.405 141.221  18
  -2  -4   9 400.256 274.013   2
   2  -4   9 363.086 138.243  14
  -2  -4   9 327.018 209.784  17
  -4  -2   9 344.671 206.377   2
  -2  -4   9 238.551 153.792   6
  -4  -2   9 185.870 107.546  16
   4  -2   9 379.618 192.301  14
   2   4  -9 68.5232 111.207   1
   4  -2   9 465.754 160.561   2
  -2   4  -9 428.033 155.211   4
   4   2  -9 211.762 160.522  18
  -4  -2   9 118.855 41.2220  19
  -4   2  -9 237.794 277.486   7
  -2   4  -9 235.996 84.3725  19
  -4   2  -9 174.515 170.095  15
  -4  -2   9 269.717 208.980  17
   2  -4   9 280.911 104.754   8
  -4  -2   9 270.786 111.031   4
   4   2  -9 110.001 86.9955  14
   2  -4   9 419.215 214.423   6
   2  -4   9-6.48094 277.988   2
   2  -4  10 680.265 277.362   6
  -2  -4  10 393.679 151.981   6
   2   4 -10 782.602 280.337  18
  -4   2 -10 347.930 200.238  19
   4  -2  10 964.258 244.879   2
  -2   4 -10 741.924 259.271  12
   4   2 -10 737.591 361.528   9
  -2   4 -10 738.945 301.304   3
   4   2 -10 655.529 266.613  18
  -4  -2  10 680.823 163.573   4
   2   4 -10 651.959 188.417  12
   4   2 -10 626.228 289.706  11
   2   4 -10 645.653 339.315  13
  -4  -2  10 641.717 224.147   5
  -2  -4  10 647.162 340.751   2
  -4   2 -10 590.015 243.080   9
  -2   4 -10 782.482 202.716  18
   4  -2  10 596.527 242.102   8
  -4  -2  10 771.500 322.760   2
   2  -4  10 587.254 283.813   2
   2  -4  10 746.275 188.704   8
   2  -4  10 948.401 250.440  17
  -2   4 -10 709.905 215.707   4
  -2  -4  10 689.276 314.098  17
  -4  -2  10 829.833 335.849  17
  -2   4 -10 572.671 228.410  13
  -2   4 -10 695.254 155.105  19
  -4   2 -10 427.722 218.133   7
   2   4 -10 61.1582 102.744   1
   2  -4  10 862.760 205.588  14
   2  -4  10 807.856 329.415  16
  -4   2 -10 470.244 256.954  10
  -4  -2  10 507.749 198.832  16
   4   2 -10 672.917 267.043   1
  -4   2 -10 531.799 355.868  15
   4   2 -10 560.919 367.471  10
   2   4 -10 706.386 259.220   3
   4  -2  10 729.455 313.953   6
  -2  -4  10 710.038 304.091  16
   4  -2  10 621.628 266.017  14
   4   2 -10 250.133 119.394  14
   4  -2  10 599.551 263.601  16
   2  -4  11 2021.31 361.888  17
  -4  -2  11 1323.78 223.358   4
  -2  -4  11 916.041 303.502   6
   4   2 -11 1084.36 358.624   1
  -2   4 -11 1507.38 355.806  11
   4   2 -11 719.611 378.664  10
  -4  -2  11 1298.75 317.721   5
   2   4 -11 2098.23 520.150  11
   4  -2  11 1441.90 477.532   6
   4   2 -11 544.580 180.789  14
   2   4 -11 1414.33 284.156  12
   4   2 -11 1333.04 399.690  11
  -2  -4  11 1674.54 478.360  17
   4  -2  11 1781.63 356.082   2
   4  -2  11 1289.43 368.498   8
  -4  -2  11 1368.46 442.352   2
  -2   4 -11 1281.92 353.592  12
   2  -4  11 1858.23 330.053  14
  -2   4 -11 1262.29 257.977  18
   4   2 -11 1399.42 561.282   9
  -4   2 -11 643.570 289.439  10
  -4  -2  11 1568.81 468.216  17
  -4   2 -11 463.774 219.799  19
  -2  -4  11 1182.46 484.311   2
   2  -4  11 1412.83 487.209   2
   4  -2  11 1184.14 440.883  14
   2   4 -11 1448.42 511.983  15
  -4   2 -11 523.408 180.848   9
  -2   4 -11 1133.62 377.619   3
  -4  -2  11 1107.40 352.988  16
   2  -4  11 1537.12 506.862  16
   4   2 -11 960.435 342.436  18
   2  -4  11 1531.24 450.232   6
  -2   4 -11 1002.05 372.599  13
   2  -4  11 1475.23 277.389   8
   2   4 -11 1518.93 556.626   7
   2   4 -11 1529.27 404.087   3
  -4   2 -11 688.840 382.425   7
   2   4 -11 1568.10 521.862  13
  -2   4 -11 1088.99 287.406   4
   2   4 -11 1443.24 401.479  18
   4  -2  11 1416.00 434.957  16
  -2  -4  11 1476.77 434.535  16
  -4   2 -11 547.801 422.832  15
   2   4 -11 689.677 322.411   1
  -4  -2  12-52.8530 84.0154   5
  -2  -4  12-34.5500 179.675   2
  -2  -4  12-54.2871 261.761   6
  -4   2 -12-49.8303 83.3761  19
   2   4 -12-12.2812 140.556  12
   2   4 -12 175.295 412.301  15
  -4  -2  12 105.942 199.765  17
   4   2 -12-308.712 208.461   9
   2  -4  12-18.0371 384.266  17
   2   4 -12 27.5575 147.936  18
   2  -4  12 43.5928 518.666  16
   4   2 -12-144.259 137.885  10
   4   2 -12 3.36542 158.501  11
   4   2 -12-25.5876 68.1122   1
   2   4 -12-178.606 46.6567   1
   2  -4  12 230.271 655.526   6
  -4   2 -12-119.935 145.955  10
  -4   2 -12-31.9238 86.5194   9
  -2   4 -12 230.899 880.796  15
   4  -2  12-49.2628 53.9405   2
  -4  -2  12 49.3980 110.393  16
   4  -2  12-114.393 120.626  16
   2  -4  12-200.892 286.434  14
   4   2 -12 25.4650 52.5796  14
   4  -2  12-114.951 158.611   8
  -4   2 -12-581.936 408.362   7
  -2  -4  12-146.665 132.793  17
  -4  -2  12-18.7874 20.1806   4
   2   4 -12-99.5515 375.017   7
  -4  -2  12-46.2910 97.7064   2
   2   4 -12-0.71163 220.003   3
   4  -2  12-117.085 100.452  14
  -2  -4  12 59.4090 219.969  16
   4   2 -12-112.551 111.920  18
   2   4 -12-116.433 156.583  11
   4  -2  12-29.0170 158.829   6
   4   2 -13 89.7844 29.4863  14
  -2  -4  13 303.092 319.988   6
   4  -2  13 813.213 366.711  16
  -4  -2  13 710.138 297.426  17
   2   4 -13 828.480 415.406  11
   4   2 -13 356.553 200.391  18
   4  -2  13 858.423 252.273   2
   2   4 -13 526.720 281.688  18
  -4   2 -13 92.4835 86.7245  10
   4   2 -13 388.542 216.342   1
   4  -2  13 647.147 322.854   6
  -2  -4  13 763.425 462.785   2
  -2  -4  13 830.074 393.805  17
   2   4 -13 274.834 348.204   7
   4   2 -13 303.116 183.933  11
   4   2 -13 232.163 252.736   9
   2   4 -13 724.196 324.255   3
  -4   2 -13 2.19979 97.7055   9
   2   4 -13 94.3826 195.672  15
  -2  -4  13 641.904 377.840  16
  -4  -2  13 604.738 303.571  16
   4  -2  13 746.765 337.463   8
  -4   2 -13 35.3925 101.460  19
   2   4 -13 684.902 232.334  12
  -2   4 -13 2203.16 992.479  15
  -4  -2  13 673.705 317.424   2
   2   4 -13 239.523 205.633   1
   4   2 -13 116.771 156.079  10
   2   4 -13 958.091 568.460  10
  -4  -2  13 700.896 221.682   5
  -2  -4  14 49.0932 94.1635  17
   2  -4  14 136.096 228.965   6
   4  -2  14 152.515 186.746  16
   4  -2  14 47.1122 89.1547   8
   4   2 -14-107.299 170.981  11
   2  -4  14-5.19374 6.48197  14
  -4   2 -14-28.7415 87.4410  10
  -2  -4  14 20.8403 78.2753   2
   4   2 -14-39.6083 62.1054  10
  -2   4 -14 20.5709 39.9361  15
   2   4 -14-89.5380 131.056  11
  -2   4 -14-8.30270 34.7316  19
  -2   4 -14-75.0047 186.752  10
  -2  -4  14-63.8316 11.6053   6
   2   4 -14-4.23412 88.7007   1
   2  -4  14 39.4665 36.4893  17
  -2   4 -14 45.2034 64.6964  11
   4   2 -14 4.18216 84.2886   1
   2  -4  14-17.5214 91.7508  16
  -2   4 -14-14.0752 63.5459  18
  -4  -2  14 130.200 154.430   2
   2  -4  14 109.654 89.5915   8
  -4   2 -14-7.94472 40.1512  19
  -4  -2  14 89.5463 115.318   5
   2   4 -14 4.14374 82.3566  18
  -4  -2  14 146.828 121.245  17
   2  -4  14 87.6725 115.071   2
   4  -2  14 86.6993 104.917   2
  -2  -4  14 45.8675 34.3314  16
   2   4 -14 80.9449 143.079  12
   4   2 -14-69.5776 62.0069   9
  -4  -2  14 79.7007 171.776  16
  -2   4 -14-214.028 343.278   7
   2   4 -14 53.6448 194.922  10
   4   2 -14 76.8327 147.920  18
  -4   2 -14 103.256 197.712   9
   4  -2  14 30.2211 172.336   6
   4   2 -14-3.62657 39.7149  14
  -4   2 -15 46.5168 71.0820  19
  -2  -4  15 1117.64 492.043   2
   4   2 -15 460.608 250.648   1
   2  -4  15 1162.46 309.837  17
   4  -2  15 634.109 332.357   8
  -2   4 -15 755.049 183.162  19
   4  -2  15 1203.24 368.046   2
   2   4 -15 980.810 346.317  18
  -2  -4  15 1174.95 413.492  16
  -4  -2  15 1105.70 289.748   5
   4   2 -15 673.578 347.688  11
   2  -4  15 1233.46 288.126   8
  -2  -4  15 132.186 114.448   6
  -4   2 -15 140.491 209.963   9
  -2   4 -15 810.530 385.732  10
   2   4 -15 927.567 478.846  10
   4   2 -15 385.355 257.710   9
  -4  -2  15 1280.45 452.450  17
  -4   2 -15-0.24365 106.039  10
  -4  -2  15 887.691 404.026  16
  -2   4 -15 782.525 268.441  11
  -2  -4  15 1201.46 423.444  17
   2  -4  15 919.556 385.663   6
  -4  -2  15 1038.68 416.034   2
   2   4 -15 1959.93 779.942   9
  -2   4 -15 577.271 200.129  18
   4   2 -15 103.732 113.994  10
  -2   4 -15 1211.90 574.961   9
   2  -4  15 1047.29 464.178  16
   4  -2  15 1054.24 500.508  16
  -2   4 -15 586.389 409.024   7
   4   2 -15 535.499 272.112  18
   2   4 -15 459.961 232.744   1
   2  -4  15 1395.94 494.385   2
  -2   4 -15 723.148 526.455  15
   4  -2  15 626.567 465.745   6
   2   4 -15 1338.87 451.457  11
   4   2 -15 199.342 96.7278  14
   2   4 -16 344.872 460.811  10
   2   4 -16-41.5682 70.1479   1
  -2   4 -16-231.066 502.524   7
   4   2 -16 31.8910 207.279   9
   4   2 -16 49.5774 130.148  11
  -2  -4  16 133.226 192.685  16
   4  -2  16 135.341 214.225  16
  -4   2 -16-112.859 74.3587  19
   2   4 -16 316.875 381.156   9
   2   4 -16 152.603 150.451  11
  -2   4 -16 0.60573 51.7686  11
   2   4 -16 9.00595 120.120  18
   2  -4  16 27.1093 42.0050   8
  -4  -2  16 190.619 216.447   2
  -2   4 -16-41.3133 38.1726  10
   2  -4  16 128.402 198.431  16
  -2  -4  16 33.1601 26.8264  17
  -4   2 -16-135.582 287.389   9
   4  -2  16-76.5115 142.996   6
  -2   4 -16 115.260 328.339   9
  -2   4 -16-160.937 374.269  15
  -2  -4  16 5.76222 119.863   6
   2  -4  16 116.259 62.6210   2
  -4  -2  16 59.3054 37.9228  16
  -4  -2  16 55.8007 102.109   5
   2  -4  16 46.1455 110.910  17
   4   2 -16 56.6129 141.628  18
  -2   4 -16-15.1297 40.4652  18
  -2   4 -16 45.3753 56.0535  19
   4   2 -16 88.4612 79.0111  14
   4   2 -16-175.076 384.490  10
   4   2 -16 20.5707 103.998   1
   2  -4  16-12.0027 123.202   6
  -2  -4  16 7.70912 102.681   2
  -4  -2  16 187.133 208.578  17
   4  -2  16 35.7397 95.5031   2
   4  -2  16-40.0942 77.2977   8
  -4   2 -16-275.845 399.322  10
   4   2 -17 166.536 94.2490  14
  -2   4 -17 1170.90 580.328  10
  -2   4 -17 899.165 471.882   9
  -2  -4  17 1402.79 561.832   2
  -2  -4  17 1628.30 488.784  17
  -2   4 -17 798.580 203.068  19
  -4   2 -17-395.056 498.261   9
  -2  -4  17 479.062 131.312   5
   4   2 -17-498.415 627.552  10
   4   2 -17 379.651 255.535  18
   2   4 -17 633.988 416.821  18
   4   2 -17 277.224 175.200  11
  -4  -2  17 1592.08 503.983  17
   2   4 -17 537.567 326.895   1
  -2   4 -17-1334.41 715.242   7
   4   2 -17 304.341 277.916   9
   2   4 -17 1295.53 717.416   9
  -2  -4  17 1534.35 574.194  16
   2   4 -17 1239.58 592.260  10
   4   2 -17 472.055 258.979   1
  -2  -4  17-22.6327 123.138   6
   2  -4  17 1603.40 373.357   8
  -2   4 -17-1110.58 648.589  15
   2  -4  17 1673.51 616.999   2
  -4  -2  17 1563.67 540.753   2
   2  -4  17 1857.93 648.767  16
  -4   2 -17-324.173 491.746  10
  -4  -2  17 1189.22 459.894  16
   4  -2  17 1767.29 490.160   2
  -2   4 -17 471.011 247.938  11
   4  -2  17 1176.58 461.531   8
   4  -2  17 978.031 604.311   6
  -4  -2  17 1292.92 325.886   5
   2   4 -17 1251.99 463.245  11
   2  -4  17 1443.73 361.574  17
  -2   4 -17 366.622 179.461  18
   2  -4  17 817.593 423.577   6
   4  -2  17 2008.73 728.570  16
   2  -4  18 1406.34 559.585   6
  -2   4 -18 1206.76 634.202  10
  -4  -2  18 2604.72 683.743  17
   4  -2  18 2930.75 909.527  16
   2   4 -18 2146.37 837.828   9
  -4   2 -18-754.185 727.861   9
   4   2 -18 702.662 387.887  11
  -4  -2  18 2317.32 448.565   5
   4  -2  18 1968.31 587.382   8
  -2  -4  18 2676.77 728.384  16
   2  -4  18 2876.79 769.319   2
  -2  -4  18 2860.01 828.118   2
   2   4 -18 2203.08 629.932  11
  -2   4 -18 880.130 353.602  11
   4  -2  18 2960.27 656.940   2
  -2   4 -18 957.725 225.493  19
  -2   4 -18 1864.01 701.919   9
   4   2 -18-735.539 837.462  10
   2  -4  18 2772.85 835.598  16
   2  -4  18 2218.97 471.329   8
   4  -2  18 1378.03 591.543   6
   2  -4  18 2147.64 478.963  17
  -2  -4  18 3019.89 704.726  17
   4   2 -18 489.432 299.133   1
   2   4 -18 1406.39 527.477  18
  -2  -4  18-311.101 475.293   6
  -4   2 -18-549.666 651.700  10
  -2  -4  18 1348.10 335.032   5
   4   2 -18 924.539 590.278   9
  -4  -2  18 1702.39 607.227  16
   2   4 -18 998.116 622.905  10
  -4  -2  18 2383.94 700.937   2
   2   4 -18 747.756 355.715   1
  -2   4 -19 107.742 42.1045  10
  -4  -2  19 969.905 428.353  17
  -2   4 -19 448.414 347.295  11
   2   4 -19 484.772 472.858  10
   4  -2  19-92.9765 456.870   6
   4   2 -19 170.586 204.510   1
   4   2 -19-125.434 182.825   9
   4   2 -19 142.640 279.784  11
  -2  -4  19 1056.49 591.890  17
  -2  -4  19 1160.68 633.917   2
   4  -2  19 891.935 528.772  16
  -2   4 -19 572.267 448.291   9
   2  -4  19 990.693 515.122   2
   2   4 -19 194.716 234.991   1
   2  -4  19 627.463 241.368  17
   2   4 -19 873.826 642.590   9
   2  -4  19 813.983 322.020   8
   4  -2  19 879.087 385.910   2
  -2  -4  19 1219.00 674.963  16
   2   4 -19 557.533 380.898  11
  -4  -2  19 613.490 357.681   2
   2  -4  19 913.719 520.646  16
  -4  -2  19 342.287 228.116  16
   4  -2  19 760.789 470.865   8
  -4  -2  19 732.417 260.281   5
   2   4 -19 284.605 323.409  18
   2  -4  19 561.358 390.119   6
   2  -4  20 2389.21 827.544  16
  -2  -4  20 2784.60 726.883  17
  -2   4 -20 1191.97 607.933   9
   2   4 -20 245.793 279.553  10
   2   4 -20 1116.66 526.135  11
  -4  -2  20 2271.50 728.018   2
  -2   4 -20 462.720 253.431  11
   4   2 -20 505.981 399.119  11
  -2  -4  20 2376.41 770.370   2
  -4  -2  20 2397.09 471.341   5
   4  -2  20 1975.29 673.055   8
   4   2 -20 320.417 253.886   1
   2   4 -20 708.744 424.009  18
   2  -4  20 1752.13 679.080   6
  -4  -2  20 2984.02 755.038  17
   4   2 -20-459.351 571.067   9
   2  -4  20 2821.27 511.092   8
  -4  -2  20 1673.28 564.477  16
   2  -4  20 2864.82 826.219   2
   2   4 -20 1206.47 577.361   9
  -2  -4  20 2180.10 726.991  16
   2  -4  20 1498.82 339.741  17
   4  -2  20 2966.16 955.366  16
   4  -2  20 2937.01 716.468   2
  -2   4 -20 353.648 268.962  10
   4  -2  20 623.664 353.573   6
   4  -3   1-13.9935 90.3662   8
   4  -3   1-7.62923 75.2021  14
  -4   3  -1 14.6345 16.1746  19
  -4   3  -2 1381.64 285.016  19
  -4   3  -2 1244.63 313.490  12
   4   3  -2 536.798 253.724   1
   4  -3   2 942.384 249.669  14
   4  -3   2 897.791 271.261   6
   4  -3   2 1061.12 259.912   8
   3  -4   3-48.1992 164.427   6
   4   3  -3 188.039 141.717  18
   4  -3   3 210.423 133.326   6
  -4   3  -3 264.992 141.932  12
  -3   4  -3 126.350 66.8659  12
   4   3  -3 133.982 146.492   1
   4   3  -3 77.1365 86.9848  13
  -4  -3   3 25.0171 40.3902  17
   4  -3   3 213.217 126.520  14
  -4   3  -3 287.345 152.966  19
   4  -3   3 225.176 119.812   8
  -4   3  -3 137.908 104.404   3
   4   3  -4 367.186 153.890   8
   4   3  -4 1031.85 383.177  18
   4   3  -4 746.867 377.844   1
  -4   3  -4 973.403 281.303  12
  -4   3  -4 879.500 287.199   3
   4   3  -4 1045.73 339.780  13
  -4   3  -4 883.537 196.925   5
   4  -3   4 940.903 248.921  14
   4  -3   4 900.231 244.401   8
   3  -4   4 434.844 201.478   6
  -4  -3   4 329.281 125.832   2
  -3   4  -4 1008.64 286.357  12
   3  -4   4 197.986 52.6248   8
  -4  -3   4 181.049 150.037  17
   4  -3   4 707.797 187.383   1
  -4   3  -4 990.940 240.342   4
  -3   4  -4 561.111 260.506   3
  -4   3  -4 999.186 247.731  19
   4  -3   4 974.253 292.304   6
  -4   3  -5 3790.97 560.091  12
   4   3  -5 3977.80 695.289  18
  -3   4  -5 3638.78 553.087  12
   3  -4   5 1704.84 333.341   8
  -4   3  -5 3627.26 417.793   5
  -4  -3   5 2376.03 615.643   2
   4   3  -5 1351.10 273.921   3
  -4   3  -5 3812.02 493.883  19
   3  -4   5 2574.02 506.341   6
  -3   4  -5 3159.27 612.182   3
   3   4  -5 3748.91 739.379  13
   4   3  -5 2286.78 349.774   8
   4   3  -5 2936.45 662.321   1
   4  -3   5 4417.98 626.710   6
   3  -4   5 1188.43 250.373  14
   4  -3   5 3400.53 494.165   8
  -4  -3   5 2041.94 544.519  17
   4   3  -5 3997.58 653.160  13
   4  -3   5 2213.13 482.495  16
   3   4  -5 2781.96 621.786  18
   4  -3   5 3688.75 424.141   1
  -4   3  -5 3392.18 589.654   3
   4  -3   5 3844.72 522.216  14
  -4   3  -5 3867.37 518.739   4
   4   3  -6 71.3956 138.510  13
   4   3  -6 46.3148 54.7214   3
  -4   3  -6-41.6679 27.8032   3
   3   4  -6 6.61281 49.8798  13
  -3   4  -6 32.0226 81.7036  12
  -4   3  -6-18.9799 45.0267  13
  -4   3  -6 2.57282 81.7651  12
  -3   4  -6-4.75846 45.0595  19
   4  -3   6 24.9819 79.9217   8
   4  -3   6 61.6496 84.0523   1
  -3  -4   6-134.048 262.071   2
  -3  -4   6 9.88186 30.0710   6
  -3  -4   6-40.7111 73.5534  17
  -4  -3   6-80.0111 115.026  16
   4  -3   6 29.0747 118.322  16
   4   3  -6-9.19302 23.8784   8
   4   3  -6 51.0086 97.1045   1
  -4  -3   6-15.8242 56.0479   2
  -4   3  -6 52.7217 73.9438   5
  -3   4  -6-18.2808 103.141  13
  -4  -3   6 19.1989 79.6575  17
   4  -3   6 37.2773 96.5865  14
   3   4  -6-17.0303 78.4636   3
   3   4  -6-13.2890 38.0997  18
  -3   4  -6-24.0453 96.0920   3
  -4   3  -6 35.5714 85.7934  19
  -4  -3   6 1.09681 22.2370  19
   3  -4   6 70.8451 113.410   6
  -4   3  -6 68.2895 111.546   4
   3  -4   6 5.65097 44.0157  14
   4  -3   6 58.4623 124.875   6
   3  -4   6 7.47671 8.24068   8
   4   3  -6-21.6568 44.9583  18
   4   3  -7 3682.81 468.792  15
  -4   3  -7 2041.17 479.281  13
   4   3  -7 5242.68 770.846  13
   4   3  -7 4712.67 523.517   3
  -3  -4   7 2727.51 388.207   6
   4  -3   7 5693.15 768.572   6
  -4   3  -7 3867.28 606.561  12
   3  -4   7 3586.26 493.229   8
  -4   3  -7 4493.30 533.644   5
   3   4  -7 1059.42 407.220   1
  -4  -3   7 4153.66 781.709   2
   4  -3   7 5608.12 514.478   1
  -3  -4   7 2085.00 453.596  16
   4   3  -7 4825.71 756.670  18
  -3   4  -7 4716.51 644.202  12
  -3   4  -7 4773.98 534.713   4
  -4  -3   7 3528.47 530.493  16
  -4   3  -7 4607.92 636.305   4
   4   3  -7 4908.51 358.500   8
  -4   3  -7 4381.46 552.953  19
  -3   4  -7 2172.16 548.116  13
   3  -4   7 4405.62 683.521   6
   4  -3   7 4564.89 584.111   8
  -3  -4   7 2497.21 648.673  17
  -4  -3   7 3878.48 767.768  17
   4   3  -7 3872.17 488.096   7
   3   4  -7 4751.72 799.093  18
   4  -3   7 4673.97 749.912  16
  -3   4  -7 3332.86 416.580  19
  -3  -4   7 2597.30 712.318   2
   3   4  -7 4420.14 603.178   3
   4   3  -7 3673.82 735.440   1
   3  -4   7 3028.11 640.738  16
  -3   4  -7 4884.81 762.962   3
   4  -3   7 5028.55 617.401  14
   3  -4   7 4068.81 507.669  14
  -4   3  -7 3512.54 623.973   3
  -4  -3   7 2059.33 478.544   5
  -4  -3   7 4127.09 469.075  19
   3   4  -7 4676.42 802.982  13
   3  -4   8 1000.83 371.143  16
   4  -3   8 1450.77 432.506  16
   4   3  -8 1388.06 417.188  13
   3   4  -8 1468.58 471.180  13
  -3   4  -8 741.849 277.034  13
  -4   3  -8 958.470 327.289  12
  -4   3  -8 976.429 345.443   3
   3   4  -8 524.465 125.282  12
  -4  -3   8 953.846 296.114  16
  -3   4  -8 957.262 215.760  18
   4  -3   8 1179.50 302.795   8
  -4   3  -8 1122.25 279.979  19
  -4   3  -8 1032.30 311.708   4
  -4   3  -8 985.353 262.800   5
  -4   3  -8 523.503 220.168  13
  -3   4  -8 1141.21 194.778   5
   3  -4   8 1154.02 352.012   6
   3  -4   8 672.158 125.327   1
   3  -4   8 1003.91 258.521   8
  -3   4  -8 1079.40 354.339   3
  -3   4  -8 1115.34 326.681  12
   4   3  -8 1138.60 367.123  18
  -4  -3   8 909.762 376.408  17
   4  -3   8 1308.79 383.183   6
   4  -3   8 1360.23 271.834   1
  -3  -4   8 651.647 322.109   2
   3   4  -8 421.620 270.463   1
  -4  -3   8 707.431 269.956   5
  -4  -3   8 1100.14 413.593   2
  -4   3  -8 1314.99 231.017  11
  -3  -4   8 623.115 257.458  16
   3  -4   8 837.869 238.042  17
  -3  -4   8 661.182 193.779   6
   4   3  -8 737.796 130.683  12
   3   4  -8 1074.56 304.372   3
  -3  -4   8 697.394 292.634  17
   3   4  -8 1279.81 414.566  18
  -4  -3   8 32.7577 73.0369   6
   4   3  -8 1140.55 407.084   1
  -3   4  -8 1086.30 234.922  19
   4   3  -8 1079.29 253.874   3
   3  -4   8 1161.41 269.417  14
   4  -3   8 1337.43 333.305  14
   4   3  -8 884.594 132.252   8
  -4  -3   8 1147.85 222.870  19
  -3   4  -8 1162.00 281.465   4
  -3  -4   9 1716.14 529.741  17
  -3   4  -9 1625.48 473.903  13
   4  -3   9 605.139 203.906   2
   3   4  -9 2171.27 431.918   3
  -3   4  -9 2121.12 457.389  12
   4   3  -9 2003.91 229.750  12
   3   4  -9 1825.06 276.541  12
   4  -3   9 460.948 163.412   1
  -4  -3   9 1349.71 396.679   5
  -3  -4   9 1782.21 594.850   2
   4   3  -9 2432.37 546.201  18
  -4  -3   9 1976.13 432.985  16
  -4   3  -9 1926.32 377.814  19
   4   3  -9 2808.23 646.031  11
   4  -3   9 1594.18 189.781  17
  -3   4  -9 1897.40 308.330  19
   4  -3   9 2393.44 446.791   8
  -4  -3   9 2062.91 271.750  19
   3   4  -9 1110.65 396.879   1
  -4   3  -9 797.493 126.948  18
   4  -3   9 2561.34 571.385   6
  -4  -3   9 2377.21 622.917   2
  -4   3  -9 1411.79 375.586  13
   3  -4   9 2694.88 546.784   6
  -4   3  -9 2095.94 306.425  11
  -3   4  -9 2244.89 420.274   4
  -4  -3   9 2101.08 560.519  17
  -3   4  -9 2356.41 304.151   5
  -3  -4   9 1647.97 227.956  19
  -4   3  -9 1736.67 441.041   4
  -4   3  -9 1554.62 422.309  12
  -3   4  -9 2386.90 321.789  18
  -3  -4   9 1728.70 443.251  16
   3  -4   9 2020.08 533.484  16
  -4   3  -9 1036.83 294.128   5
   4   3  -9 1808.11 488.327   1
   3  -4   9 2128.94 375.784   8
  -4   3  -9 1563.00 455.547   3
  -3  -4   9 1258.48 281.258   6
   4  -3   9 2645.57 484.666  14
  -3   4  -9 1879.23 492.362   3
   3   4  -9 2271.55 558.581  13
   4   3  -9 2214.65 398.109   3
   3   4  -9 2390.34 541.295  18
   3  -4   9 2517.57 406.964  14
   4  -3   9 2691.24 593.320  16
   3  -4   9 2890.19 413.178  17
   3  -4  10 213.763 133.633  14
   3   4 -10 85.2285 60.1889  12
  -3  -4  10 24.6874 41.8551   6
  -4  -3  10 204.119 169.621  17
   3  -4  10 140.269 196.337   6
   3   4 -10 311.391 237.596  13
  -4   3 -10 326.888 210.814  13
  -3  -4  10 180.521 183.470   2
   4   3 -10 76.5766 102.893   1
  -3   4 -10 113.996 101.317  12
  -3   4 -10 225.985 183.933  13
   3  -4  10 191.990 304.980  16
  -3   4 -10 54.2152 38.3989   3
   4   3 -10 156.857 129.415   3
   3  -4  10-289.324 354.292   2
   4   3 -10 235.932 214.581  11
  -4   3 -10 108.936 73.6894  11
  -3   4 -10 105.434 68.8666   5
  -4  -3  10 47.7721 61.9704   5
  -4   3 -10 74.8837 57.7835  10
  -4  -3  10-18.7816 92.4258   4
  -4  -3  10 58.8500 50.2528  19
   4   3 -10 267.641 266.192  10
  -3  -4  10 71.9414 178.341  17
  -4  -3  10 176.928 201.796   2
   4   3 -10 103.488 117.908  18
  -4   3 -10 1.26542 67.5921  19
  -4   3 -10 59.9998 109.010   4
  -3   4 -10 167.754 86.6737  18
  -3   4 -10 121.806 118.893   4
  -3  -4  10 118.148 137.617  16
   4  -3  10 197.253 138.078   8
   4  -3  10 138.788 137.770   2
   3  -4  10 194.142 140.144  17
   3  -4  10 136.835 108.995   8
  -4  -3  10 154.262 120.085  16
   3   4 -10 59.8744 115.048   1
   4  -3  10 38.1883 34.3242  17
   4  -3  10 72.4478 60.1799   6
   4  -3  10-36.5884 201.117  16
  -3   4 -10 103.726 85.8163  19
   3   4 -10 119.024 105.729   3
  -4   3 -10 78.7700 181.418  15
   4   3 -10 104.992 62.5059  12
   3   4 -10 238.985 235.200  15
   3   4 -10 134.491 144.053  18
   4  -3  10 219.492 170.818  14
   4  -3  11 343.082 192.748   6
   3   4 -11 230.044 108.546   3
  -4  -3  11 190.797 136.684   5
   3  -4  11 365.853 229.171   6
  -3   4 -11 230.687 88.4271  18
   4   3 -11 139.617 122.166   1
   3   4 -11 227.006 195.163  18
  -3   4 -11 218.961 170.726   4
  -4   3 -11 161.007 167.740  15
   3   4 -11 182.246 77.3224  12
  -4   3 -11 176.464 104.304  11
  -4   3 -11 154.100 183.073  10
   4  -3  11 251.302 135.690   2
   4  -3  11 273.807 151.407  14
  -4   3 -11-18.6412 160.438   4
   3  -4  11-14.9033 192.505   2
  -3   4 -11 422.421 164.453  11
  -3   4 -11 147.130 171.705  13
   3  -4  11 347.590 248.773  16
  -3  -4  11 218.438 160.125  17
  -4  -3  11 163.223 144.364   2
  -4   3 -11 261.299 146.530  19
   4   3 -11 246.632 202.718  10
  -4  -3  11 74.3274 52.6325   4
  -4  -3  11 274.408 165.890  16
   3  -4  11 302.621 113.262  17
  -3   4 -11 188.527 69.5320  19
  -3  -4  11 153.590 130.922  16
  -4   3 -11 739.949 443.608   9
   4  -3  11 350.697 174.856  16
   3   4 -11 117.754 88.5014   7
   3  -4  11 2.45294 72.6272   8
  -3   4 -11 270.700 186.599  12
   3   4 -11 156.686 147.382  13
   4   3 -11 277.455 246.092  11
   3   4 -11 352.489 304.719  11
   3   4 -11 57.3909 81.9141   1
   3   4 -11 167.570 25.6240  15
  -4  -3  11 159.731 144.319  17
  -4   3 -11 204.833 264.758   7
   4  -3  11 263.768 91.0599   8
  -3   4 -11 266.211 221.506   3
  -3  -4  11 34.3924 67.6485   6
  -3  -4  11 242.699 208.378   2
   4   3 -11 233.101 112.565  18
   3  -4  11 403.034 175.475  14
   4  -3  12 2090.80 497.589   2
   3   4 -12 982.107 209.496  12
  -3  -4  12 1461.06 439.296  16
   4   3 -12 542.922 262.696   1
   4   3 -12 1778.94 708.634   9
   3   4 -12 1716.50 546.209  11
  -4  -3  12 916.019 332.955   5
   4   3 -12 759.750 415.947  10
  -4  -3  12 1748.05 546.424  17
  -4  -3  12 1042.10 387.031  16
   4   3 -12 854.403 339.169  11
   3   4 -12 994.105 344.345  18
   4  -3  12 2449.88 594.287  14
   3   4 -12 1151.25 386.691   3
   4   3 -12 664.750 312.753  18
   3   4 -12 1577.48 540.923   7
  -4  -3  12 1460.47 516.904   2
   3  -4  12 3652.65 830.647   2
  -4  -3  12 655.190 190.248   4
  -4   3 -12 2888.57 1101.41   7
  -3  -4  12 1294.33 557.149   2
   3   4 -12 1402.11 496.258   1
  -4   3 -12 2302.66 916.088  15
   3   4 -12 1230.15 499.646  15
  -3  -4  12 2220.72 642.450  17
   4  -3  12 2012.32 743.862  16
  -4   3 -13 190.303 182.821   9
  -4   3 -13-90.7709 221.005  15
  -3   4 -13 77.6079 52.5629  11
   3  -4  13 121.770 129.103  14
  -3   4 -13 179.226 233.567   3
  -3   4 -13 258.241 230.066  13
   4   3 -13 388.574 441.530   9
  -3   4 -13 191.932 200.099  12
  -4  -3  13 61.5780 100.073   2
   3   4 -13 70.6970 136.098   3
   4  -3  13 410.277 308.207  16
  -4  -3  13 37.9533 56.5011  17
   3  -4  13 76.6119 75.6490   8
   4   3 -13 175.739 178.835  11
   3   4 -13 263.082 289.437  11
  -4   3 -13-7.36938 70.8261  11
   3   4 -13 162.380 273.111  10
  -4   3 -13 121.433 206.562  10
   4   3 -13 179.740 84.9611  10
  -4  -3  13 1.22857 72.4533  16
   3  -4  13 150.001 216.208   2
  -3   4 -13 231.153 291.740  15
   3   4 -13 83.6169 115.661  18
  -3   4 -13 131.001 101.235  18
   4   3 -13 148.210 183.829   1
  -4   3 -13 81.9095 103.666   7
   3   4 -13-52.9141 108.014   1
  -3   4 -13 25.1731 49.1092  19
  -3  -4  13-28.0901 116.953   6
   3  -4  13 143.034 112.920  17
   3  -4  13-61.0106 186.996   6
  -3   4 -13 8.82810 199.282  10
   4  -3  13 189.828 203.355   6
   3   4 -13 119.839 102.678  12
  -3  -4  13-38.7542 69.1258   2
   4  -3  13 45.4979 90.0843   2
   4  -3  13 96.5792 130.010   8
   3  -4  13 73.0966 62.2829  16
  -4   3 -13 32.1723 14.2016  19
  -3   4 -13 246.524 377.996   7
  -3  -4  13 93.0607 120.526  16
   4  -3  13 166.506 186.088  14
  -4  -3  13 45.3832 23.9043   4
  -3  -4  13 90.1949 109.073  17
   4   3 -13 114.628 137.247  18
  -4  -3  13 177.107 169.044   5
   4  -3  14 494.062 405.159   6
   4   3 -14 486.130 250.310  18
  -3  -4  14 180.481 60.4090   5
   3  -4  14 844.220 352.200   6
   3   4 -14 749.732 321.054  18
   3  -4  14 879.342 265.066   8
  -3   4 -14 608.986 187.094  19
   3  -4  14 884.538 364.247   2
   4   3 -14 737.202 382.356   9
  -4   3 -14 93.7735 33.3124  11
   4   3 -14 677.384 304.884  11
  -3   4 -14 595.084 337.635  10
   3   4 -14 486.325 361.118  10
  -4  -3  14 588.735 224.096   5
  -4   3 -14 486.387 344.863  10
  -3   4 -14 617.772 224.130  11
  -4   3 -14-16.5638 323.394  15
   3   4 -14 506.451 262.844   1
  -4  -3  14 465.210 136.315   4
  -3  -4  14 662.052 378.099   2
  -4   3 -14 513.902 299.810   9
   4  -3  14 1093.77 471.396  16
   4   3 -14 481.992 353.011  10
  -4  -3  14 987.486 395.927  17
  -4   3 -14 264.436 176.294  19
   4  -3  14 832.286 315.098   8
   4  -3  14 938.730 350.323   2
   3  -4  14 697.277 216.786  17
  -3  -4  14 647.989 297.606  16
  -3   4 -14 448.691 151.056  18
  -4  -3  14 752.740 348.044   2
  -3  -4  14 661.138 328.965  17
   3  -4  14 715.025 326.844  16
  -4   3 -14 147.401 333.739   7
  -3  -4  14-68.8866 87.0323   6
   3   4 -14 873.557 373.459  11
  -3   4 -14 726.943 484.677   7
  -4  -3  14 677.077 300.401  16
  -3   4 -14 518.257 302.098  15
   4  -3  14 448.406 245.513  14
   3   4 -14 723.776 229.447  12
   3  -4  14 517.058 236.610  14
   4   3 -14 396.866 233.244   1
   4   3 -15 119.855 251.597   9
   4  -3  15 137.202 152.296   2
   3   4 -15 14.6486 125.369   1
  -3  -4  15-86.8402 151.701   6
  -3  -4  15-96.7827 155.683   5
   4   3 -15 100.515 137.339  18
   3   4 -15 220.798 183.271  12
  -3   4 -15 200.143 423.916  15
  -4   3 -15-72.6981 257.251   9
  -4  -3  15 138.604 208.088  17
   3   4 -15 40.8270 87.8400  11
  -3   4 -15 34.9388 71.5024  11
   4  -3  15 26.6362 110.262   8
   4  -3  15-62.0186 226.930  16
  -4   3 -15-290.424 548.643  15
  -3   4 -15 99.5264 255.058  10
  -4  -3  15 98.8863 142.285   5
  -4  -3  15-5.36193 42.9450   4
  -3   4 -15 53.8833 62.6715  19
  -3   4 -15 88.3529 69.9799  18
  -3  -4  15 139.384 227.549   2
   3   4 -15 6.44371 56.7093  18
   3   4 -15 801.648 636.769   9
   3  -4  15 10.2106 142.174   2
  -3  -4  15 188.021 205.399  17
   3  -4  15-10.4705 59.8372  17
   3  -4  15 3.40463 52.5202   8
   4   3 -15-120.398 258.739  10
  -4  -3  15-49.5621 40.8060  16
   4   3 -15-75.2675 131.613  11
   4   3 -15 0.68160 79.8208   1
  -3  -4  15-67.0742 147.960  16
   3  -4  15-139.218 227.076   6
   3   4 -15 33.1761 102.077  10
   3  -4  15-35.5672 174.727  16
  -4   3 -15-238.290 601.179   7
  -4   3 -15 18.8743 45.9756  10
  -3   4 -15 139.813 305.852   7
  -3   4 -15 446.881 471.256   9
  -4  -3  15-36.4347 83.8202   2
   4  -3  15 36.7374 130.538   6
   3  -4  15 42.0271 162.741  14
  -4   3 -15 166.267 144.270  19
  -4   3 -16-190.546 294.753  10
   3   4 -16 52.0176 190.093  10
   3  -4  16 177.982 99.4831   8
   4  -3  16 139.076 165.188   2
   3   4 -16 206.160 210.479   1
  -4  -3  16 327.035 222.898  17
   4   3 -16 14.8217 113.634  18
  -4   3 -16 129.766 142.774  19
   3  -4  16 255.197 233.725   2
  -3  -4  16-316.613 394.141   6
  -3  -4  16 166.223 133.965   5
   3   4 -16 274.223 231.269  11
   4   3 -16 42.3703 72.5784  11
  -3   4 -16 98.5062 62.6036  11
  -3   4 -16-54.7504 196.195  10
  -4  -3  16 75.0270 101.829   5
   3   4 -16 322.021 476.406   9
   3  -4  16 179.008 133.667  17
   4  -3  16 206.037 184.981   6
  -4  -3  16 37.7078 59.3716  16
  -4   3 -16-54.3535 91.9520   9
   3   4 -16 65.4611 153.902  18
   4   3 -16-280.816 327.189   9
  -3   4 -16 71.0639 73.1801  19
   3  -4  16 167.656 154.615  16
   4   3 -16 20.1211 22.8254   1
  -4  -3  16 84.3481 54.4940   4
  -3  -4  16 147.897 100.572  17
  -3   4 -16-778.373 527.013  15
  -3   4 -16 354.134 372.764   9
   3  -4  16 153.999 236.291   6
  -4  -3  16 237.712 223.523   2
  -3  -4  16 190.422 230.721  16
   4  -3  16-79.6430 158.399  16
  -3   4 -16-45.9918 33.8863   7
   4   3 -16-127.122 233.284  10
   4  -3  16 415.058 247.210   8
  -3  -4  16 178.657 252.129   2
  -3   4 -17 18.6222 301.457  15
   3   4 -17 601.994 458.559   9
   3  -4  17 833.935 401.162   2
   4  -3  17 755.954 331.233   8
   4  -3  17 694.055 400.912   6
   3  -4  17 923.038 501.055  16
  -4   3 -17 141.253 123.222  10
   3   4 -17 263.069 215.941   1
  -3  -4  17 316.788 222.892   5
  -3   4 -17 365.363 213.004  11
  -3   4 -17 384.570 228.913  10
  -4  -3  17 803.250 408.978  16
   4   3 -17 646.967 478.917   9
  -3   4 -17 601.442 394.171   9
   3   4 -17 477.909 368.423  10
   3   4 -17 500.559 261.243  18
  -4  -3  17 527.001 144.742   4
   4   3 -17 428.621 415.314  10
  -3  -4  17 931.425 424.427  17
   3  -4  17 795.250 282.559   8
  -4  -3  17 1233.50 461.158  17
   4   3 -17 413.040 322.452  18
  -4   3 -17 82.8517 114.946   9
   4  -3  17 1092.81 411.494   2
   4   3 -17 193.985 180.358   1
  -4  -3  17 1036.77 485.586   2
  -3   4 -17-106.307 605.467   7
   4  -3  17 909.996 481.938  16
  -3  -4  17 963.832 420.408  16
   3  -4  17 808.214 506.401   6
  -3   4 -17 284.286 133.276  19
  -4  -3  17 778.650 275.432   5
   4   3 -17 589.618 359.027  11
  -3  -4  17 766.632 415.900   2
   3  -4  17 488.404 166.923  17
   3   4 -17 791.889 419.853  11
   4   3 -18 793.028 443.783  11
  -3   4 -18 429.847 181.938  19
   3   4 -18 224.390 224.907   1
   3   4 -18 495.433 336.638  11
  -3  -4  18 989.285 507.216   2
   3   4 -18 784.617 402.002  18
  -3   4 -18 281.013 160.355  11
  -3   4 -18 354.098 260.397  10
   3   4 -18 485.314 419.242  10
  -4   3 -18 116.606 180.845   9
   3  -4  18 742.342 450.724   6
   4  -3  18 987.461 366.980   8
   4   3 -18 321.225 234.267   1
   3   4 -18 1247.33 727.738   9
  -3  -4  18 759.625 298.222   5
  -3  -4  18 1149.07 513.290  16
   3  -4  18 1389.85 571.177  16
   4   3 -18 210.729 198.714   9
   4  -3  18 1225.49 486.887   2
  -3  -4  18 1190.31 469.801  17
  -4  -3  18 1086.67 433.764  17
  -4   3 -18 178.163 165.742  19
   4   3 -18-20.5730 320.460  10
   3  -4  18 265.333 165.218  17
   4   3 -18 443.940 309.471  18
   3  -4  18 1132.07 363.571   8
   4  -3  18 1279.92 599.000  16
  -3   4 -18 864.745 456.881   9
   3  -4  18 1189.65 500.833   2
  -4  -3  18 1051.48 453.558   2
  -4  -3  18 939.768 327.110   5
  -4   3 -18 11.7484 228.782  10
   4  -3  18 581.216 491.490   6
  -4  -3  18 567.258 384.852  16
   4  -3  19 2633.20 620.879   8
  -4   3 -19 322.607 211.024  19
  -4  -3  19 2697.47 534.615   5
   4   3 -19 1635.56 592.673  11
  -3   4 -19 982.258 519.672  10
   4   3 -19 1336.64 510.006  18
   3   4 -19 864.412 400.604   1
   3  -4  19 3680.78 877.441   2
   4  -3  19 3604.47 781.906   2
  -4  -3  19 2571.93 803.202   2
  -3   4 -19 494.157 254.681  11
   4   3 -19 984.245 672.816   9
   3   4 -19 1272.01 678.464  10
   4  -3  19 1830.89 756.595   6
   3  -4  19 2565.40 547.822   8
  -4  -3  19 2043.53 757.455  16
  -3   4 -19 831.411 261.918  19
   3   4 -19 1477.54 528.792  18
  -3   4 -19 1405.23 704.181   9
  -4  -3  19 3383.64 799.549  17
   3   4 -19 1783.41 806.720   9
   3  -4  19 3225.95 929.073  16
  -4   3 -19 591.665 382.125  10
   4  -3  19 2754.62 809.080  16
   3   4 -19 1709.20 574.914  11
   4   3 -19 624.973 382.085   1
  -4   3 -19 422.983 388.873   9
   4   3 -19 426.984 368.123  10
  -3  -4  19 3035.73 809.802   2
  -3  -4  19 2016.05 464.590   5
  -3  -4  19 2693.46 694.359  16
   3  -4  19 2303.11 745.574   6
  -3  -4  19 3202.50 703.049  17
   4  -3  20 156.066 135.170   8
   3   4 -20 230.918 381.828  10
   3   4 -20-50.4684 98.8012   9
  -4  -3  20 250.386 173.959   5
   4   3 -20 50.9663 87.7631  18
  -4   3 -20 23.1397 283.192   9
   3   4 -20 53.5833 249.859  11
   4   3 -20-80.2301 137.606  11
  -4   3 -20-153.812 418.432  10
  -4   3 -20 24.2456 133.350  19
   3  -4  20 356.005 293.966  16
   4  -3  20 234.017 282.678  16
  -4  -3  20 146.439 104.866  17
   3  -4  20 265.425 199.024   8
   4  -3  20 131.254 209.154   2
  -3   4 -20-65.5964 125.937  11
  -3  -4  20 214.768 284.448  16
  -4  -3  20 170.852 119.609   2
   3  -4  20 156.723 188.987   2
  -3  -4  20 51.1203 155.974  17
  -3   4 -20-33.1880 178.097   9
   3  -4  20 210.370 348.461   6
   4   3 -20-330.813 458.816   9
   3   4 -20 175.293 231.624   1
  -4  -3  20-69.1291 228.131  16
   3   4 -20 7.51968 64.3830  18
  -3  -4  20 178.273 219.499   2
  -3   4 -20-130.945 164.832  10
   4   3 -20 118.941 174.133   1
   4  -3  20 175.976 259.105   6
   4   3 -20-369.939 594.263  10
   4  -4   3-32.9325 50.4729   6
  -4   4  -3-5.74020 25.6374  12
   4  -4   3-53.7788 145.780   8
   4  -4   4-2.61959 41.2030  14
   4   4  -4-64.4288 193.558  13
  -4   4  -4 58.1863 94.3594  12
  -4  -4   4-69.7269 197.312  17
   4  -4   4 57.6752 121.017   6
   4  -4   4 21.0584 48.6636   8
  -4   4  -4-0.39375 63.9507  19
   4   4  -4-92.3784 247.580  18
  -4   4  -4 16.3981 72.5238   3
  -4   4  -5 27.4615 74.3207   3
   4  -4   5 16.2474 7.06555   8
   4   4  -5-44.9325 86.1509  13
   4  -4   5-28.6520 77.8911   6
  -4  -4   5-163.950 340.985   2
  -4   4  -5 18.3300 27.0182  19
   4   4  -5-25.2334 92.9493  18
  -4  -4   5-40.7839 142.452  17
   4  -4   5-32.4011 73.5000  14
   4   4  -5 3.97203 134.355   1
  -4   4  -5 2.44698 31.7124  12
  -4  -4   6 722.653 369.638  17
  -4   4  -6 2355.56 393.899  19
  -4   4  -6 2671.82 505.905  12
   4   4  -6 1041.14 458.680   1
   4  -4   6 1955.62 392.704   8
  -4   4  -6 2414.21 408.275   4
  -4  -4   6 840.939 383.062   2
   4  -4   6 2371.20 520.800   6
   4   4  -6 2578.76 628.283  18
  -4   4  -6 2312.70 549.350   3
   4  -4   6 2152.78 401.535  14
   4   4  -6 2581.03 597.481  13
   4  -4   7 3.66423 74.7940  14
  -4   4  -7 9.82954 64.9844   3
  -4  -4   7 21.2131 57.2943   6
   4  -4   7 0.41134 25.2854   1
  -4   4  -7 36.8530 36.7898  13
  -4  -4   7-7.99544 155.323   2
  -4   4  -7 22.2093 5.61331  12
  -4  -4   7-7.68788 101.248  17
   4   4  -7 17.8647 88.3442  13
   4  -4   7-107.127 236.462  16
   4   4  -7-41.7535 110.242   1
  -4   4  -7-40.5275 59.5733  19
  -4   4  -7-3.80295 43.3900   4
   4  -4   7 2.00910 26.2129   8
   4  -4   7-33.1464 110.938   6
   4   4  -7 113.426 137.359  18
   4   4  -7-26.4975 42.9052   8
  -4   4  -7 12.6175 22.5771   5
   4   4  -7 3.96322 5.68822   3
   4   4  -8 3661.89 721.858  13
  -4  -4   8 1728.31 551.103  17
   4  -4   8 2706.99 384.300  17
   4  -4   8 2757.89 648.603  16
   4  -4   8 3609.48 659.449   6
  -4   4  -8 1537.20 448.145  13
   4   4  -8 3293.02 684.143  18
   4   4  -8 2103.65 598.638   1
  -4  -4   8 2249.81 659.274   2
  -4   4  -8 2828.82 433.424  19
   4  -4   8 3572.58 370.637   1
   4   4  -8 2596.60 277.383   8
  -4   4  -8 3637.14 431.254   5
  -4  -4   8 1708.31 269.271   6
   4   4  -8 2895.02 483.624   3
  -4   4  -8 3161.72 565.342  12
  -4   4  -8 3594.94 561.930   4
  -4  -4   8 1732.55 410.790  16
   4  -4   8 3344.66 506.243  14
  -4   4  -8 3040.65 633.582   3
   4  -4   8 3033.63 496.158   8
  -4   4  -8 2399.56 308.717  18
   4  -4   9 75.7392 91.9914  14
   4   4  -9 71.2054 193.095   1
   4  -4   9 19.5766 29.9129   8
   4   4  -9-5.96962 71.0975  13
  -4   4  -9-60.8854 111.385  12
  -4  -4   9 75.8908 237.960  17
  -4  -4   9-11.2253 29.0125   6
   4  -4   9 38.8627 67.1610  17
  -4   4  -9-1.42205 112.619  13
  -4   4  -9-5.97423 52.8669   5
   4   4  -9-20.2533 50.1139  18
  -4   4  -9 0.26052 48.7255   4
  -4   4  -9-35.1710 74.9202  19
  -4  -4   9 121.139 185.897   2
   4  -4   9-2.95705 21.2839   1
  -4  -4   9 27.7803 49.8137  19
   4  -4   9 18.0724 46.8562   6
  -4   4  -9-19.6701 21.6705  18
  -4  -4   9 37.8499 58.7443  16
   4   4  -9-6.42316 23.4288   3
   4  -4   9 72.1991 147.334  16
  -4   4  -9 6.11587 17.7993   3
   4   4 -10 1044.11 397.794   1
  -4   4 -10 732.916 302.838  13
   4   4 -10 983.376 181.957  12
   4   4 -10 1694.08 500.279  13
  -4   4 -10 1028.13 327.409  12
  -4   4 -10 1108.99 382.145   3
   4  -4  10 1461.61 437.848   6
  -4   4 -10 1549.97 292.963  11
  -4   4 -10 1334.76 197.811  18
  -4   4 -10 1232.28 272.178  19
  -4   4 -10 1088.82 271.980   5
   4  -4  10 1351.00 324.191   8
   4  -4  10 1672.19 244.821  17
   4  -4  10 1381.50 433.255  16
   4   4 -10 1305.80 328.910   3
  -4   4 -10 1276.81 388.005   4
   4  -4  10 637.592 159.911   1
   4   4 -10 1400.04 434.690  18
   4  -4  10 1467.57 347.762  14
  -4  -4  10 889.874 390.277  17
   4   4 -10 1124.02 337.303   7
   4   4 -10 1112.65 342.059  15
  -4  -4  10 1160.35 435.976   2
  -4  -4  10 1090.51 196.764  19
  -4  -4  10 1093.89 355.725  16
  -4  -4  10 157.037 100.200   6
   4  -4  11 2201.55 465.725   8
   4   4 -11 633.290 199.334  12
  -4   4 -11 4561.90 815.102  12
   4   4 -11 887.549 342.642   3
  -4  -4  11 867.791 547.683   2
   4   4 -11 1349.73 695.601  11
  -4   4 -11 315.984 136.182  18
  -4   4 -11 827.795 262.807  11
   4  -4  11 611.285 185.584  17
   4  -4  11 925.097 552.456  16
  -4   4 -11 1655.58 531.538   4
  -4  -4  11 455.074 147.825  19
  -4  -4  11 1029.23 380.076  16
   4  -4  11 900.080 435.140   6
   4   4 -11 2018.02 678.206   1
   4   4 -11 594.685 366.352  18
  -4   4 -11 4243.86 875.172   3
   4  -4  11 429.489 221.226  14
  -4  -4  12 35.4155 119.003   6
   4  -4  12 109.250 118.081   6
  -4  -4  12 81.3948 78.5882   2
  -4   4 -12 77.7473 38.2712  18
   4   4 -12 146.448 85.1695  12
   4   4 -12 208.218 169.760   3
  -4   4 -12 46.1770 128.632   3
   4   4 -12 98.9145 85.2605  11
  -4   4 -12 20.2054 88.3262  11
   4  -4  12 199.727 228.208  16
   4  -4  12-33.1048 60.5493   2
  -4   4 -12 21.3258 17.3491  19
   4  -4  12 148.920 75.5053  17
   4   4 -12 157.146 161.648  18
  -4  -4  12 173.916 159.285  16
  -4  -4  12 242.442 211.944  17
  -4  -4  12 13.0212 108.427   5
  -4   4 -12-20.8404 74.8560   4
   4  -4  12 27.8950 108.869   8
  -4   4 -12 130.011 139.820  12
   4  -4  12 233.189 189.491  14
  -4   4 -12 6.69131 77.7719  13
   4   4 -12-12.7777 80.6731   1
   4  -4  13-79.5228 158.973   6
  -4  -4  13 36.5703 86.9534  17
  -4   4 -13 106.422 290.769  15
   4   4 -13 17.2511 75.9855   3
  -4  -4  13-95.0335 191.325   6
   4   4 -13-50.7225 39.4613  12
   4   4 -13 52.4379 73.8447  18
  -4   4 -13-8.73518 76.7866  11
  -4   4 -13 91.3701 251.021  10
   4  -4  13-70.0618 93.0708  16
   4   4 -13 266.421 276.792  10
  -4   4 -13 144.491 203.683  13
  -4   4 -13 13.8012 36.7454  19
   4   4 -13 95.0573 181.771   1
  -4  -4  13-143.432 209.482   5
  -4   4 -13 17.2208 23.1939  18
   4  -4  13-20.8545 84.5697  14
  -4  -4  13 271.020 231.143   2
  -4   4 -13 460.521 527.987   7
   4  -4  13 10.4417 52.2123   8
   4  -4  13-41.5794 108.985   2
  -4   4 -13 138.032 231.460   3
   4   4 -13 86.8921 147.739  11
  -4   4 -13-1.91294 113.655  12
  -4  -4  13-12.3776 78.2963  16
  -4   4 -13-166.937 275.918   4
   4  -4  13-6.40198 27.6421  17
   4  -4  14 163.057 195.893   6
   4  -4  14 308.844 184.241   8
  -4  -4  14 127.361 169.588  17
   4   4 -14 155.692 187.970   1
  -4   4 -14 109.987 73.7791  11
  -4   4 -14 335.303 281.713  13
  -4  -4  14 223.010 239.697   2
   4   4 -14 377.979 249.808   3
  -4   4 -14 636.048 382.942   3
  -4  -4  14-332.708 388.061   6
  -4  -4  14 151.921 106.067   5
  -4  -4  14 231.265 205.524  16
   4   4 -14 658.680 516.540   9
  -4   4 -14 207.654 245.124  10
   4   4 -14 327.638 322.415  10
  -4   4 -14 738.599 462.865   9
  -4   4 -14 124.926 94.2892  19
   4  -4  14 121.908 118.895   2
  -4   4 -14 93.2986 240.046  15
   4  -4  14 131.440 58.6958  17
   4   4 -14 328.007 276.145  11
   4   4 -14 226.081 117.548  12
   4   4 -14 255.445 213.058  18
  -4   4 -14 230.106 262.146  12
   4  -4  14 357.721 244.113  16
  -4   4 -14 162.128 308.236   7
   4  -4  14 281.466 170.610  14
   4   4 -15-20.0043 64.0292  18
   4  -4  15 112.598 198.540   2
   4   4 -15 539.115 499.595   9
  -4  -4  15 18.0345 136.017   5
  -4   4 -15-100.722 96.3206  10
   4   4 -15 89.5041 226.442  10
   4   4 -15-13.6322 70.4953  11
   4  -4  15 85.0689 132.276   8
   4   4 -15 68.7208 113.609   1
  -4   4 -15-10.3381 73.9524  19
  -4   4 -15 273.768 401.140  15
  -4   4 -15 234.221 221.905   7
   4   4 -15 6.96988 91.0165  12
  -4  -4  15-27.1979 119.518  16
   4  -4  15-9.55981 113.438  16
   4  -4  15-97.6803 128.680  17
  -4  -4  15-99.3430 192.383   2
  -4  -4  15 101.840 161.862  17
  -4   4 -15 2.62147 222.820   9
  -4   4 -15 84.8366 84.0508  11
   4  -4  15 55.6919 115.454  14
   4  -4  15 11.7590 90.0651   6
   4   4 -16 208.294 186.139  12
  -4   4 -16-11.8075 117.931   7
   4  -4  16 150.343 259.739  14
  -4  -4  16-37.1059 86.9145   5
  -4   4 -16 187.243 162.968  11
  -4  -4  16-13.4016 49.5434  16
   4   4 -16-179.613 268.449  10
  -4   4 -16-144.782 240.524  10
  -4  -4  16 167.056 282.628   2
   4   4 -16 66.0764 317.758   9
   4  -4  16 65.0228 141.610   2
   4  -4  16 83.5644 157.592  16
   4   4 -16 0.43663 82.9822  18
   4   4 -16 286.084 316.893  11
   4   4 -16 156.541 250.544   1
   4  -4  16 14.3321 97.3461   6
  -4   4 -16 1.36277 114.246   9
  -4   4 -16 112.969 126.679  19
   4  -4  16 14.3846 51.5029   8
  -4  -4  16 88.1021 149.348  17
  -4   4 -16 62.9550 38.5378  15
  -4   4 -17-23.7410 25.1615   9
  -4  -4  17-15.6735 53.9095   2
  -4   4 -17 73.8161 116.346  11
  -4   4 -17 74.2625 242.578  10
   4   4 -17 6.03377 58.7876  10
   4  -4  17 52.0417 121.755   6
   4   4 -17-61.1913 142.514  18
  -4   4 -17 6.81159 54.5070  19
   4  -4  17 72.8028 188.442   2
   4   4 -17-28.5695 36.8713   1
  -4  -4  17 64.6277 175.235  16
   4   4 -17 245.338 315.676  11
  -4   4 -17-397.870 461.162  15
   4  -4  17 11.3091 31.0688   8
   4   4 -17-311.714 296.631   9
  -4  -4  17 153.915 209.718  17
   4  -4  17-144.253 234.505  16
  -4  -4  17-43.5266 112.235   5
   4   4 -18 1198.41 452.818  18
  -4   4 -18 336.302 259.892  10
   4   4 -18 284.896 255.503   1
  -4  -4  18 1069.94 371.718   5
  -4   4 -18 196.989 144.496  11
  -4   4 -18 775.746 452.255   9
   4  -4  18 2117.58 761.106  16
   4  -4  18 1720.64 458.097   8
  -4   4 -18 580.085 242.883  19
   4  -4  18 990.486 567.287   6
  -4  -4  18 1756.04 696.711   2
   4   4 -18 1072.11 664.086   9
   4   4 -18 1183.24 551.084  11
  -4  -4  18 1552.54 654.160  16
   4   4 -18 612.847 492.920  10
   4  -4  18 1891.74 604.373   2
   4   4 -19 2.16142 188.083  11
  -4  -4  19-161.447 299.391  17
   4   4 -19 58.9442 107.592   1
  -4  -4  19-48.6800 102.228   5
   4  -4  19 8.68026 171.987   8
  -4   4 -19 147.681 296.864   9
  -4   4 -19-547.037 464.397  10
   4   4 -19-347.267 102.421   9
  -4   4 -19-13.5045 46.9163  19
   4   4 -19-585.389 536.932  10
   4   4 -19 29.4256 88.2766  18
   4  -4  19 66.8968 43.6024  16
   4  -4  19 105.801 105.450   2
   4  -4  19-23.7289 223.994   6
  -4  -4  19-22.0300 38.2828  16
  -4  -4  19-462.812 337.077   2
  -5   0   0-15.3310 18.5158  19
  -5   0   0 21.0594 36.4936   3
  -5   0   0-9.77820 51.8982  12
   5   0   0 2.38711 22.6045   6
   5   0   0 60.5455 93.3006   1
  -5   0   0-0.10897 34.6603   5
   5   0   0 10.9014 40.8805   8
  -5   0   0-25.3531 27.8111   2
   5   0   0 9.67765 46.5767  18
  -5   0   0 13.3969 24.4126  17
  -5   0   0 10.6279 52.5190   4
   5   0   0 7.03218 46.8184  11
   5   0   0-18.8229 43.1744  14
   5   0   1 202.903 119.292   8
   5   0   1 341.033 141.220  11
  -5   0   1 163.238 81.9200  12
   5   0  -1 277.021 136.777  11
  -5   0   1 173.792 112.738  19
  -5   0  -1 192.027 118.954   4
   5   0   1 272.961 162.119   1
  -5   0  -1 195.399 139.159   5
  -5   0   1 213.738 139.973   5
  -5   0   1 180.510 114.061   4
  -5   0  -1 233.065 119.322   2
   5   0   1 247.912 159.043  14
   5   0   1 302.622 126.571  18
  -5   0   1 202.598 120.458  17
   5   0   1 273.211 107.502   6
  -5   0  -1 102.774 72.9152  19
   5   0  -1 265.365 122.296   8
   5   0  -1 268.274 166.860   1
   5   0  -1 152.033 100.175  18
  -5   0  -1 122.853 67.5105  17
  -5   0   1 188.253 88.1674   2
   5   0  -1 281.150 164.678  14
   5   0  -1 228.130 85.1300   6
  -5   0  -1 391.078 210.292  15
   5   0   2 17.7115 52.8495  18
   5   0  -2 46.7679 11.2596  11
   5   0  -2-42.0785 67.7455   1
   5   0  -2 16.1868 32.9191   8
   5   0  -2 2.88638 23.9598   6
  -5   0  -2-17.4384 100.452  19
  -5   0   2 36.2389 37.4847  12
  -5   0  -2-32.2990 116.631   5
   5   0  -2 7.72428 41.5648  14
  -5   0   2 1.75050 42.4477  17
  -5   0   2-34.0040 52.8613   5
   5   0   2-38.3751 62.7476   6
  -5   0  -2 30.1116 136.793   7
  -5   0   2-33.1514 55.1335   4
   5   0  -2 27.4186 36.1840  18
  -5   0   2 19.9927 21.4454   2
  -5   0  -2 0.20279 46.2177   4
  -5   0   2 11.6423 32.0303  19
   5   0   2-35.9704 82.7130   1
  -5   0  -2 3.74386 19.1932  17
   5   0   2 14.4277 26.4594  16
   5   0   2-18.1644 61.7000   8
  -5   0  -2-46.2664 110.732  15
   5   0   2-50.7295 107.546  14
   5   0  -3-18.6524 14.3917  14
   5   0   3-0.60445 28.5349   6
   5   0   3-10.2204 46.3002  18
   5   0   3 41.8776 105.765   1
  -5   0   3 30.6197 36.7336   5
  -5   0   3 5.31943 45.8135  19
  -5   0  -3 13.2388 66.7322   5
   5   0  -3 6.95860 89.4776  11
   5   0   3-13.9622 66.3304   8
  -5   0   3 39.4105 71.8594  17
   5   0  -3 6.42463 38.9368   1
   5   0   3-26.7283 23.0862  16
   5   0  -3 34.9819 71.6008   8
  -5   0  -3-61.7145 106.070   4
   5   0   3 6.77332 67.7831  14
  -5   0  -3 26.0217 44.0766  17
   5   0  -3-11.7098 37.4360   6
  -5   0  -3-44.2746 38.1902  19
   5   0  -3-16.4685 52.3228  18
  -5   0   3 2.96547 12.4141   4
  -5   0  -3-29.1872 77.5691   7
  -5   0  -3 28.9461 117.270  15
  -5   0   3 24.4268 36.5955   2
  -5   0   4 31.2087 39.8902   2
   5   0  -4 33.4261 62.0849  14
  -5   0  -4 44.4831 97.8251  15
   5   0  -4 185.854 169.803   1
   5   0  -4 49.8198 122.189  11
  -5   0   4 45.9043 81.1157  19
  -5   0  -4-13.6133 17.6763   4
  -5   0  -4 10.1979 32.6174  17
   5   0   4 8.82910 38.8265   1
  -5   0   4 51.9807 85.2241   5
  -5   0  -4-51.9459 79.3889  19
   5   0  -4 57.4171 92.1673  18
  -5   0   4 92.2557 155.070  17
   5   0  -4 0.99070 31.5229   8
  -5   0   4 43.1652 91.5905   4
   5   0   4-3.10924 29.0297  16
  -5   0   4-40.7234 75.4546  16
   5   0   4 48.3919 94.0328   8
   5   0   4 18.8289 30.0904  14
   5   0   4-18.4154 46.8353   6
  -5   0  -4-54.6123 163.343   7
   5   0   4-33.7096 46.1558  18
   5   0  -5 288.442 179.547   1
   5   0   5 341.680 192.771   8
   5   0  -5 244.356 139.345  14
  -5   0  -5 33.8185 15.2710  19
   5   0  -5 138.278 76.5098   8
  -5   0   5 289.112 135.145  19
   5   0  -5 149.678 116.293  11
   5   0   5 71.7891 116.601   1
  -5   0   5 335.427 168.554   2
  -5   0   5 299.259 156.023   5
  -5   0   5 275.360 170.854  17
   5   0   5 293.698 172.829  16
  -5   0   5-37.4805 98.8871  16
   5   0  -5 150.410 101.387  18
  -5   0  -5-7.90967 130.584   4
  -5   0  -5-112.264 257.642   7
  -5   0   5 215.571 112.142   4
  -5   0  -5-109.890 221.639  15
   5   0   5 384.966 244.302  14
   5   0   5 297.615 180.890   6
   5   0  -6-34.3249 97.0271   1
  -5   0   6-3.13994 54.1603   2
   0  -5   6-48.0068 163.506   6
   5   0  -6-46.5297 84.4900  11
   5   0   6-15.3119 40.9686   6
  -5   0   6-34.1368 68.3397  19
   5   0  -6 19.2631 28.1362  14
   5   0   6-19.9155 115.499  14
   5   0   6 26.0684 73.2432   8
  -5   0   6 19.7609 71.3809  17
  -5   0   6-48.6383 78.5103   5
   5   0   6 70.3748 131.963  16
  -5   0   6-100.336 135.345  16
   5   0  -6-42.0996 83.6654  18
   0   5  -6-2.20494 26.0806   3
  -5   0   7 5124.09 606.218   5
   0   5  -7 4704.43 936.599  13
  -5   0   7 5244.14 754.485  17
   0   5  -7 6005.14 852.574   3
   0   5  -7 4834.02 594.238  12
   5   0  -7 2417.63 515.813  11
  -5   0   7 4611.63 661.630   2
  -5   0   7 855.707 237.102  16
   5   0  -7 3525.88 596.845  18
   5   0  -7 4229.34 535.048  14
   5   0  -7 4204.13 654.581   1
   5   0   7 3869.00 736.015   8
   5   0   7 3799.55 721.893   6
  -5   0   7 3776.31 474.503  19
   0  -5   7 2274.39 476.586   6
   5   0   7 4049.52 689.406  16
   5   0   7 4106.80 843.144  14
   5   0  -8-47.8500 91.9704   1
   0   5  -8-68.0437 113.153  13
  -5   0   8 70.4339 132.508   2
  -5   0   8-40.5004 87.4253   5
   0  -5   8-12.6198 38.1912   6
  -5   0   8-62.3609 118.989  16
   0   5  -8-3.08850 3.78625  12
   0  -5   8-95.4660 186.384  17
   5   0  -8-9.98869 8.73113  14
   5   0  -8-23.3640 32.5646  11
   0   5  -8-68.4100 113.095  18
   5   0   8-76.7125 179.748   8
   0   5  -8-15.6946 35.9369   3
  -5   0   8-7.26331 85.9484  17
   5   0   8 18.2368 50.8416   6
   5   0  -8 7.40871 44.4044  18
   5   0   8 25.7994 105.834  16
  -5   0   9 1191.56 358.924   2
   0   5  -9 1576.22 330.579  12
   5   0   9 1005.15 396.258  16
  -5   0   9 1257.33 298.140   5
   5   0  -9 409.893 245.507  11
   5   0  -9 587.208 260.427  18
   0   5  -9 1348.74 392.792  18
   5   0  -9 643.493 206.871  14
  -5   0   9 1333.23 408.073  17
   5   0  -9 862.057 302.730   1
   0  -5   9 718.237 384.536  17
   5   0   9 975.115 382.585   8
   0  -5   9 665.208 289.498  16
   0  -5   9 1132.57 346.196   6
   0   5  -9 1654.44 440.500   3
  -5   0   9 459.240 215.589  16
   0   5  -9 1441.63 499.877  13
   5   0   9 931.171 395.010   6
   5   0 -10 16.9119 65.5685  18
  -5   0  10-20.1790 26.1252   2
   5   0  10-31.8621 77.3901  16
   0   5 -10 27.6972 38.7848  12
   5   0 -10 12.9448 61.3320  11
  -5   0  10 94.4452 136.140  16
   5   0 -10 28.6397 94.4223   1
  -5   0  10 87.8460 94.1244  17
   0  -5  10-63.1824 102.369  17
   5   0  10 17.8199 99.6762   8
   0  -5  10 33.6609 141.976  16
   0   5 -10-16.7348 87.2103  18
   0   5 -10 13.8143 168.253  13
   0  -5  10-69.2047 69.4112   6
   0   5 -10-13.9770 27.5412   3
   0  -5  10-139.696 331.261   2
   5   0  10-29.4088 105.047   6
   5   0 -10-13.1286 29.4859  14
  -5   0  11-122.047 164.488   2
   0   5 -11-17.2135 58.6242   3
   0   5 -11-36.8507 114.870  18
   5   0 -11-98.2302 79.5402  11
   0  -5  11-77.9997 186.008   2
   5   0 -11-11.1994 104.047   1
   5   0  11-130.082 261.224   6
   0  -5  11-49.5506 74.7526  17
   0   5 -11 68.6465 117.736  13
   0  -5  11-59.1531 137.640  16
   5   0  11 74.6398 193.197   8
   0  -5  11-2.54904 78.0065   6
  -5   0  11-11.1198 53.4675  17
   5   0  11-5.19507 120.407  16
   0   5 -11-31.2677 41.4973   4
  -5   0  11 53.5794 108.986  16
   0   5 -11 5.08270 31.9487  12
   5   0 -11-42.3349 19.3781  14
   0  -5  12 112.512 78.6068  17
   0  -5  12 18.5606 252.803   2
   0   5 -12 446.093 307.473   3
   0   5 -12 353.435 353.282  13
   5   0 -12 21.3245 33.2672  14
   0  -5  12 156.889 111.078  16
  -5   0  12 156.814 219.316  16
   0   5 -12 765.931 267.587  12
   5   0 -12-10.6853 58.6736  11
   0   5 -12 2.01817 41.2702   4
  -5   0  12-16.2415 111.818   2
   0  -5  12 127.830 72.2593  14
   5   0  12 127.409 212.838   8
   0  -5  12 31.3853 71.8378   6
   5   0 -12-17.3767 55.4765   1
  -5   0  12 35.8918 73.3338  17
   5   0  12-96.7851 174.572  16
   5   0  12-383.396 409.941   6
   0   5 -12 77.9238 121.320  18
   0  -5  13 1031.17 350.464   6
   0   5 -13 963.687 363.580   3
   0   5 -13 1156.11 297.703  12
   5   0 -13 281.126 204.021   1
   0   5 -13 1337.39 437.183  11
   0   5 -13 1202.47 328.638  18
   0  -5  13 1356.03 479.861  16
   0  -5  13 1264.60 559.984   2
   0  -5  13 1324.28 415.541  17
  -5   0  13 811.657 333.764  17
   0   5 -13 653.322 297.413  13
  -5   0  13 992.944 377.055   2
   5   0  13 603.316 360.080  16
   5   0  13 356.478 284.819   8
   5   0  13 92.2495 317.502   6
   0  -5  13 1032.97 178.461  14
   0  -5  14 22.7038 89.7925  17
   5   0  14-206.887 309.605  16
   0  -5  14-17.7946 67.9107   6
   0   5 -14-59.1948 150.397  13
   5   0  14-88.0162 57.7991   8
   0   5 -14 203.921 426.833   7
   0   5 -14-199.120 168.126  11
   0   5 -14 33.3296 48.0559  12
   0   5 -14-122.333 121.664   3
   0  -5  14-87.2180 92.5632   8
   0  -5  14-21.5693 109.090   2
   0  -5  14-144.585 158.298  16
  -5   0  14-244.508 255.008  17
   0   5 -14 83.9423 356.636  15
   0   5 -14 45.9067 113.401  18
  -5   0  14-21.1634 69.1224   2
   0  -5  15 218.283 218.315  16
  -5   0  15 325.444 249.206   2
   5   0  15 48.4279 123.700  16
   0   5 -15 268.104 169.785  12
   0   5 -15 40.7784 110.511   3
   0   5 -15 408.047 276.840  11
   5   0  15 286.473 200.823   8
   0   5 -15 106.308 96.0191  15
   0  -5  15 206.303 196.438   2
   0   5 -15 79.3417 168.520  18
   0  -5  15 169.559 150.005  17
   0  -5  15 67.9164 153.348   6
  -5   0  15-263.624 300.900  17
   0  -5  15 109.466 55.2643   8
   0   5 -15 69.1433 221.741   7
   0   5 -15 84.9916 155.994  13
   0  -5  16-33.0404 126.905   6
   0   5 -16-19.9102 142.325   7
   0   5 -16 108.637 253.113  15
   0   5 -16 343.040 343.784  13
   0  -5  16-67.7064 142.565  16
   0   5 -16 65.6977 126.954  12
   0   5 -16 7.24729 11.9518  18
   0   5 -16 100.665 310.394  10
   5   0  16-12.7158 218.964  16
   0  -5  16 63.0934 39.0292  17
   0   5 -16-14.8139 103.873   3
   0  -5  16 37.7181 60.4158   8
   0   5 -16 1.74184 118.205  11
   5   0  16-241.114 394.585   8
   0  -5  16 42.4387 230.369   2
   0   5 -17 164.487 139.883  12
   0  -5  17 84.8597 219.401   2
   0  -5  17 157.520 211.467  17
   0   5 -17 614.483 537.694   9
   0   5 -17 134.559 129.416  18
   0   5 -17 232.334 305.675   3
   0   5 -17-243.471 554.635  15
   0   5 -17-68.3227 115.884  10
   0  -5  17 101.920 75.2821   8
   0   5 -17 2.01727 292.974   7
   0   5 -17 182.522 229.426  11
   0  -5  17 50.9136 137.914  16
   0  -5  17 10.8024 143.379   6
   0   5 -17 568.120 436.675  13
   0   5 -18 827.479 627.972   9
   0   5 -18 171.845 349.104   3
   0   5 -18 215.464 227.273  12
   0   5 -18 183.530 195.900  11
   0  -5  18 76.5619 163.556  17
   0  -5  18 311.216 267.835  16
   0   5 -18 160.915 141.212  18
   0  -5  18 89.8454 81.4407   8
   0   5 -18-509.075 756.264   7
   0  -5  18-26.0641 238.705   2
   0   5 -18 252.515 326.069  10
   0  -5  18-11.3534 87.4859   6
   0  -5  19 1995.36 841.905   2
   0   5 -19 806.116 391.974  12
   0   5 -19 894.498 430.328   3
   0   5 -19 1580.94 502.986  11
   0   5 -19 1459.84 748.955  10
   0   5 -19 1258.30 415.716  18
   0   5 -19 1924.06 883.189   9
   0  -5  19 2351.52 610.047  17
   0  -5  19 2057.30 747.511  16
   0  -5  19 620.342 387.749   6
   0   5 -20 443.532 303.548  12
   0   5 -20 498.341 441.710  10
   0  -5  20 102.344 225.669   6
   0   5 -20 927.328 627.224   9
   0   5 -20 512.783 270.196  18
   0   5 -20 496.309 275.207  11
   0  -5  20 410.092 259.307  17
   0  -5  20-32.3227 165.044  16
   0  -5  20 53.9066 250.364   2
   5  -1   0 229.300 106.158   6
   5   1   0 146.129 165.703   1
  -5  -1   0 113.147 104.272   5
  -5   1   0 193.905 120.489   5
   5   1   0 168.306 115.245  18
   5   1   0 158.906 82.8711   8
  -5   1   0 149.672 69.0345   2
   5  -1   0 182.110 110.464  14
  -5  -1   0 79.1371 59.9799   4
  -5  -1   0 91.1301 68.7717  17
  -5  -1   0 10.3100 99.8566   2
  -5   1   0 155.648 118.772  19
   5  -1   0 198.729 115.320   8
  -5   1   0 35.4694 22.3397  17
  -5   1   0 187.635 129.472   4
  -5   1   0 149.894 102.748  12
   5  -1   0 220.379 136.171   1
  -5  -1   0 87.1043 136.877  19
   5  -1   0 99.4799 59.1671  18
   5   1   0 161.676 131.186  14
   5   1   0 80.0041 71.0752   6
  -5   1   1 3061.77 465.365   5
   5   1  -1 2408.86 354.916  13
   5   1  -1 2315.03 530.722  14
  -5   1  -1 3355.38 499.979   5
  -5   1  -1 2985.27 427.555  12
  -5   1   1 1443.09 284.411  12
   5   1   1 3318.80 691.001   1
  -5  -1   1 2287.12 510.398   5
   5   1  -1 4132.70 710.918   1
  -5  -1   1 2698.98 503.672   2
   5  -1   1 3963.83 574.316   1
  -5   1  -1 3199.85 307.384   2
  -5  -1  -1 1009.33 348.169   5
   5  -1  -1 3624.88 550.730   1
  -5   1   1 2447.21 321.741   2
  -5  -1   1 1953.19 433.398  19
  -5  -1  -1 1044.12 323.292  19
  -5  -1  -1 1209.57 352.337  17
  -5  -1   1 2120.33 456.849  17
   5  -1   1 3855.32 471.820   6
   5  -1   1 3444.17 491.842   8
   5  -1  -1 3516.41 421.794   6
   5  -1  -1 1673.76 307.157  18
   5  -1   1 3721.43 538.852  14
   5   1  -1 3586.34 508.337   8
  -5  -1   1 2077.85 469.357   4
  -5   1   1 3228.34 472.485   4
   5  -1  -1 3383.95 466.086   8
  -5   1  -1 1227.39 244.211  17
  -5   1  -1 3796.98 549.433   4
   5  -1   1 2039.01 295.894  18
  -5   1  -1 3452.30 514.236  19
  -5   1  -1 1345.80 290.055   3
   5   1   1 3330.41 514.771  18
  -5  -1  -1 979.508 336.084   4
   5   1   1 1132.68 293.677   6
   5   1  -1 1518.89 269.646   6
  -5   1   1 3516.69 489.392  19
   5   1  -1 3715.99 543.353  18
   5   1   1 2579.84 567.106  14
   5  -1  -1 3259.78 485.884  14
   5   1   1 2695.51 503.517   8
  -5   1   1 1351.70 304.075  17
   5  -1  -2 20.2861 51.7866  14
  -5   1   2 26.0945 17.2562   2
   5   1  -2-18.1115 23.4154  14
  -5  -1   2 45.6460 38.4596  12
   5   1  -2 35.2085 52.2786  13
   5  -1  -2 8.00931 34.6210   6
  -5   1   2-8.23227 59.7743   4
   5   1  -2 21.0565 66.1046   1
  -5  -1   2 42.1364 101.667   5
  -5  -1   2 27.2103 60.9514   7
  -5   1  -2 83.4586 69.6923   5
   5  -1   2 29.4100 68.2068  14
  -5  -1   2 16.3751 75.3010  19
  -5   1  -2 13.8473 56.4938  12
   5   1   2-41.0957 154.094  18
   5   1  -2 72.2936 86.5841   8
   5  -1   2 46.4442 33.9576   6
  -5   1   2 56.2826 76.0728   5
  -5   1   2 3.48516 18.5695  17
  -5  -1   2-12.0450 102.474   4
   5  -1   2 34.2585 26.1834  18
  -5  -1   2 5.70550 23.5652   2
  -5   1  -2 55.0325 87.1931  19
   5   1   2 27.8758 58.4477   8
  -5  -1  -2-28.6714 83.9503  17
   5   1  -2-18.4436 16.7327   6
  -5   1  -2 34.1991 35.8945   3
  -5  -1   2-34.7443 84.3379  17
  -5   1  -2 15.0116 38.4043  17
   5  -1   2 29.4506 16.2668   1
   5  -1   2 54.4157 106.719   8
  -5   1  -2 37.8351 28.8106   2
  -5   1  -2 22.0056 24.1221   4
   5  -1  -2-8.68695 32.6378   8
   5   1   2 21.5915 37.4807   1
   5  -1  -2 43.9372 75.2971   1
  -5   1   2 33.8769 36.2301  19
   5  -1  -2-10.5130 35.8644  18
  -5  -1   2-13.6369 61.2348  15
   5   1   2-10.7690 44.6770   6
   5   1  -2 32.1970 36.0367  18
   5   1   2 72.6991 117.829  14
   5   1  -3 10.9484 19.5473   6
   5  -1  -3 48.0050 60.0987  14
   5  -1   3 46.4925 34.6537   6
  -5  -1   3 15.5270 12.8640  12
   5  -1   3 67.0351 43.5086  18
  -5   1   3 35.2204 5.65779   5
  -5   1   3-26.0453 74.1939   2
   5   1   3 5.47835 58.4814   6
  -5   1  -3 83.6964 87.2152  12
  -5   1  -3 67.4109 64.1656  10
  -5  -1   3 13.5353 39.0668   5
   5   1  -3 44.7670 53.4140  10
   5  -1   3 106.867 89.9139   1
  -5  -1   3 20.6230 37.7326  17
  -5  -1   3 39.9580 45.2214  19
  -5   1   3 43.4783 44.6381  19
   5   1   3 125.271 164.320   1
   5  -1  -3 39.3453 67.2098  18
   5   1  -3 55.3890 85.3267  14
  -5   1   3 18.9329 36.3331  17
   5   1  -3 29.9505 41.8013  11
  -5  -1   3 15.0979 58.7784   2
   5   1   3 8.75846 14.2278   8
  -5  -1   3 55.7761 72.4035   4
  -5   1  -3 36.2551 94.7244  19
   5  -1   3 42.2485 71.6401   8
   5   1  -3 125.593 90.6196   8
  -5   1  -3-4.61307 38.5844  17
  -5   1  -3 67.8896 86.7209   4
   5  -1   3 84.5082 89.2862  16
   5  -1  -3 40.9419 48.4099   1
   5   1   3 37.2166 113.028  14
  -5  -1   3 69.3685 62.7287   7
   5  -1  -3 55.5916 67.7814   8
  -5  -1   3 61.8782 59.3982  15
   5  -1   3 36.9179 40.2281  14
   5   1  -3 65.5701 70.0037  18
  -5   1  -3 91.7027 104.349   3
   5   1  -3 119.196 127.055   1
  -5   1  -3 20.5332 50.8187   5
   5  -1   4 1841.80 390.626   6
   5  -1   4 1739.79 345.623  16
   5   1   4 672.977 306.195   8
  -5  -1   4 1342.74 361.017   5
   5   1  -4 938.096 246.651  10
   5   1  -4 1961.60 430.445  11
  -5  -1   4 1384.30 205.192  16
  -5  -1   4 1241.00 310.212   4
  -5   1  -4 1187.08 342.067   5
   5   1   4 339.535 163.677   6
   5  -1   4 1867.16 430.281   1
  -5   1   4 1095.78 283.942   5
   5   1  -4 1694.67 436.778   1
  -5  -1   4 1638.92 379.972   2
  -5   1  -4 996.055 204.477  10
  -5   1   4 803.226 218.209   2
   5  -1  -4 1002.92 302.319   1
   5   1  -4 1326.90 333.125  14
  -5   1  -4 1170.73 353.808  19
  -5   1   4 665.466 244.389  17
  -5   1  -4 1014.86 329.652   4
  -5  -1   4 1249.97 360.873  17
   5   1  -4 1653.33 375.454  18
  -5   1  -4 616.371 125.906  17
   5  -1   4 1662.91 383.417   8
   5  -1   4 1469.26 182.887  18
  -5   1   4 1212.10 279.991  19
   5   1  -4 1514.74 282.419   8
  -5  -1   4 1504.57 321.736  19
   5  -1  -4 395.242 133.194   8
   5  -1   4 1791.79 420.806  14
   5  -1  -4 958.758 264.885  14
   5   1   4 884.202 388.310  14
  -5   1  -5 285.101 176.915  19
   5  -1  -5 381.845 161.254  14
   5   1  -5 615.294 249.649   1
  -5   1   5 214.248 79.9919   2
   5  -1   5 632.811 243.078   6
   5   1  -5 720.959 277.704  11
   5  -1   5 651.584 280.142   1
  -5   1  -5 315.917 193.104   5
  -5   1  -5 257.066 111.723  10
   5   1  -5 240.430 116.293  10
   5   1   5 208.449 148.082   8
  -5  -1   5 611.708 206.895   4
  -5   1   5 370.278 136.833  19
   5   1  -5 980.787 339.254   9
  -5  -1   5 682.354 217.068  19
   5  -1  -5 286.590 158.744   1
   5   1  -5 658.652 226.359  18
   5  -1   5 757.899 284.618  14
  -5  -1   5 631.994 256.852   5
  -5  -1   5 520.919 227.040  17
  -5   1   5 339.176 171.712  17
   5  -1   5 751.415 241.719  16
  -5  -1   5 501.719 138.412  16
  -5  -1   5 504.190 218.423   2
   5   1  -5 638.707 178.790   8
  -5   1  -5 957.910 410.273   7
  -5   1  -5 840.110 359.943  15
   5   1   5 75.2147 143.234   6
  -5   1  -5 59.3465 66.3604   9
   5  -1   5 679.259 254.976   8
  -5   1  -5 446.668 257.724   4
   5   1  -5 461.468 195.174  14
   5   1  -6 944.039 317.740  10
   1   5  -6 1860.30 476.298   3
   5  -1  -6 1257.89 285.032  14
  -1   5  -6 1817.10 375.482  12
   5   1  -6 2577.37 538.911  11
   5  -1   6 1706.16 462.444   1
   1  -5   6 642.180 250.061   6
   1   5  -6 1846.58 601.155  13
   5   1  -6 2717.38 548.778   1
  -5  -1   6 2513.34 499.520   2
   5   1   6 392.360 86.6814   6
  -5  -1   6 2506.96 467.493   5
  -1   5  -6 2244.49 549.872   3
   5  -1  -6 1179.66 344.001   1
   5   1  -6 2338.54 526.577   9
  -5  -1   6 2739.07 406.703  19
  -5   1  -6 1274.32 399.710   4
   5   1   6 946.001 350.877   8
  -5  -1   6 2638.68 413.832   4
  -5  -1   6 2390.83 552.736  17
   5   1  -6 2459.04 489.446  18
   5  -1   6 2365.85 500.900   8
  -5   1  -6 1605.41 568.589  15
   5   1  -6 1992.63 312.377   8
  -5   1   6 1294.45 370.669  17
   5  -1   6 2790.43 566.456  14
  -5   1  -6 1201.22 354.316  19
   5  -1   6 2794.20 498.548  16
   5   1  -6 1871.11 381.345  14
  -5  -1   6 2005.13 323.854  16
  -5   1  -6 1667.25 577.062   7
   5  -1   6 2656.36 540.089   6
  -5   1  -6 700.604 207.356  10
   5   1  -7 361.439 161.803  14
  -1   5  -7 468.983 253.484   3
  -5   1  -7 77.5883 76.2736  10
   5  -1  -7 239.614 124.116  14
  -1   5  -7 288.827 209.801  13
   1   5  -7 541.870 293.455  13
   5  -1   7 45.2517 92.2309   1
   5  -1   7 550.136 268.323   6
  -1   5  -7 458.477 187.621  12
   5   1  -7 563.212 250.694  11
   5   1   7-24.1400 277.556   8
  -5  -1   7 463.143 241.498   2
   5   1  -7 176.010 176.272  10
   5   1  -7 441.160 235.166   9
  -5  -1   7 481.919 164.594  19
  -5   1  -7 109.780 87.0734   4
   5   1  -7 441.118 212.533   1
   5   1  -7 439.953 221.925  18
  -5   1   7 209.579 119.742  17
   1  -5   7 298.398 213.507   6
  -5  -1   7 620.222 283.513  17
   5   1   7-81.6954 296.160   6
   5  -1   7 511.870 267.292  14
  -5   1  -7-142.680 214.003   9
  -5  -1   7 516.365 174.528   4
   5  -1   7 465.913 210.795   8
   5  -1   7 528.824 237.636  16
  -5   1  -7 194.498 170.385  19
  -5  -1   7 346.389 150.638  16
  -5   1  -7 335.083 247.680   7
  -5  -1   7 401.623 175.810   5
   5  -1  -7 143.107 119.945   1
  -5   1  -7 423.795 309.623  15
  -1  -5   7 102.239 95.1575   6
   1   5  -7 548.282 256.813   3
  -1  -5   8 1786.45 400.809   6
  -1   5  -8 2892.67 708.679  13
  -5   1  -8 415.371 174.418  10
  -1   5  -8 3235.06 523.580  12
   1   5  -8 2653.96 419.231  12
  -5   1  -8 801.631 339.131  19
  -5  -1   8 3738.65 691.671  17
  -5  -1   8 3312.12 536.348   5
  -5  -1   8 3312.92 430.027   4
   5  -1  -8 813.127 255.348   1
  -5  -1   8 3259.07 588.249   2
   5   1  -8 3347.39 601.545   1
  -1   5  -8 3680.89 690.268   3
   5   1  -8 1603.50 520.803   9
   5  -1   8 3071.89 290.230   2
   5   1  -8 487.619 236.498  10
   5   1  -8 3011.70 575.439  18
   1  -5   8 2020.73 480.021   6
   5   1   8 506.258 143.535   8
  -5   1   8 1729.35 435.182  17
   5  -1   8 3341.60 643.796   8
   5   1  -8 2951.93 610.674  11
   1   5  -8 3543.62 642.208   3
   1   5  -8 3216.41 747.682  13
  -5  -1   8 2221.78 353.783  19
  -5   1  -8 1615.60 596.739   7
  -1  -5   8 722.918 380.520  17
   5  -1   8 3292.15 662.403   6
  -5   1  -8 1695.79 569.421  15
   5  -1   8 3198.83 674.572  14
  -5  -1   8 2213.18 409.971  16
   5   1  -8 2578.36 416.417  14
   5  -1   8 3524.12 647.246  16
   1   5  -8 2919.67 630.952  18
  -1   5  -9 1108.25 292.513  12
   1  -5   9 1039.52 321.714   6
  -5  -1   9 696.421 248.885  16
  -5  -1   9 1060.35 349.760   2
   5   1  -9 788.002 296.881  18
  -1  -5   9 154.814 239.056   2
   1   5  -9 1017.34 353.483  18
  -1   5  -9 1147.14 350.728  18
   1   5  -9 1208.26 279.598  12
  -1   5  -9 1005.83 410.445  13
   5  -1   9 1097.85 393.463   8
  -5  -1   9 1055.79 301.345   5
  -5  -1   9 825.568 210.540   4
   5   1  -9 878.968 318.420   1
  -5  -1   9 1235.95 425.860  17
  -1  -5   9 583.284 333.072  17
  -5   1  -9 95.7179 194.973   7
  -1  -5   9 634.773 268.478  16
  -1  -5   9 837.207 290.591   6
   5   1  -9 831.360 231.292  14
   5  -1   9 1333.16 433.583  16
   5  -1   9 989.428 183.002   2
   1   5  -9 1201.63 451.635  13
   1   5  -9 1239.28 376.057   3
  -5   1  -9 75.9428 187.228  15
  -5   1  -9 216.059 165.984  19
   5   1  -9-24.9317 262.139  10
   1  -5   9 699.886 292.166  16
   5   1  -9 783.500 323.049  11
  -1   5  -9 1473.80 427.338   3
   5  -1   9 944.698 390.339  14
   5   1  -9 268.427 287.567   9
   1  -5   9 673.138 330.001  17
  -5   1  -9-23.0603 186.329  10
   5  -1   9 1131.55 409.151   6
  -1  -5  10 353.357 240.653  17
   1   5 -10 236.393 190.392  18
   5  -1  10 256.173 86.7823   2
  -1  -5  10 239.142 183.447   6
   1  -5  10 405.804 244.722   6
   1  -5  10 182.168 112.056  16
  -1   5 -10 340.030 168.130  12
   5   1 -10 187.733 208.211   9
   5   1 -10-164.156 344.282  10
  -5  -1  10 116.858 40.5484   2
  -5   1 -10-57.8553 160.064  19
  -5  -1  10 313.047 178.481   5
   1   5 -10 232.125 163.703   3
   5   1 -10 179.044 123.757  11
  -5  -1  10 168.495 82.9494  17
  -1   5 -10 386.196 121.947   4
   1   5 -10 268.079 132.059  12
  -1  -5  10 327.917 325.957   2
  -5  -1  10 186.603 146.208  16
   1  -5  10 133.916 20.5906  14
   5  -1  10 326.385 239.635   8
  -5   1 -10-243.138 330.055  10
   1  -5  10 189.659 98.7327  17
   1   5 -10 273.884 193.144  13
  -1   5 -10 272.794 136.783  18
   5   1 -10 267.124 187.714  18
  -1   5 -10 354.924 212.248   3
  -1  -5  10 160.528 151.330  16
  -1   5 -10 478.637 290.246  13
   5   1 -10 301.319 190.061   1
   5  -1  10 313.516 237.265  16
   5  -1  10 138.471 68.4335  14
   5   1 -10 170.139 99.0290  14
   5  -1  10 247.955 176.910   6
   5  -1  11 580.090 299.029  16
  -5  -1  11 601.454 226.162   5
   5   1 -11 387.010 212.609   1
   1  -5  11-82.7842 430.248   2
   1   5 -11 685.787 280.222   3
  -1  -5  11 368.072 208.037   6
   1  -5  11 564.317 275.793   6
  -1   5 -11 692.520 271.742   3
   1   5 -11 756.261 232.913  12
  -1   5 -11 772.810 231.845  12
   5  -1  11 581.044 296.529   6
   5  -1  11 645.792 162.043   2
   5   1 -11 369.879 264.949  11
  -1   5 -11 732.780 224.591  18
   5   1 -11 21.6193 93.3196   9
   1  -5  11 779.458 273.154  17
   1  -5  11 5.65107 106.589   8
   5   1 -11 336.007 142.797  14
  -5  -1  11 763.238 318.886  17
   1   5 -11 791.030 262.952  18
  -1   5 -11 860.281 195.944   4
  -1   5 -11 250.887 163.071  13
   1  -5  11 490.948 293.702  16
   5   1 -11 265.544 175.918  18
  -1  -5  11 564.619 288.350  16
   1   5 -11 683.805 359.888  13
  -5  -1  11 310.225 187.579  16
  -1  -5  11 534.030 282.209  17
  -1  -5  11 401.485 254.067   2
   1  -5  11 702.208 162.819  14
   5  -1  11 656.651 316.989   8
  -5  -1  11 607.129 249.715   2
  -5  -1  12 18.3416 34.2241   2
   5   1 -12-43.7480 62.3152   1
   1  -5  12 289.930 93.1084  14
  -1  -5  12 136.967 135.788   6
  -1   5 -12 1503.83 648.178  13
   1  -5  12-29.7880 72.7613  17
   1   5 -12 426.646 460.800  13
   5  -1  12-21.6113 92.0082   2
   1   5 -12 263.921 267.695   3
   1   5 -12 360.989 215.902  12
   5   1 -12 82.2599 174.876  11
  -5  -1  12 133.833 132.819   5
  -1  -5  12 25.0584 158.725  16
  -1  -5  12 115.881 312.929   2
  -1  -5  12 326.063 245.586  17
   1  -5  12 611.150 193.505   8
   1   5 -12 180.130 206.311  18
   5  -1  12 0.09919 111.132   8
  -1   5 -12 804.225 305.835   4
   5  -1  12 103.975 146.970  16
   1  -5  12 173.328 192.651   6
  -1   5 -12 1097.73 585.772   3
   5   1 -12 50.4999 131.404  18
   5   1 -12 232.290 308.302   9
  -1   5 -12 1005.80 357.152  18
  -5  -1  12 107.497 140.649  17
   1  -5  12 610.707 333.224  16
   1  -5  12 1196.42 520.064   2
  -5  -1  12 169.441 187.686  16
   5  -1  12-41.3021 134.266   6
   5   1 -12-20.9953 30.5071  14
   5   1 -13 461.802 166.085  14
  -5  -1  13 1200.98 426.093  17
  -1  -5  13 631.415 281.733   6
   1  -5  13 1198.29 388.486   6
   1   5 -13 933.831 271.069  12
   1   5 -13 765.884 316.539   3
  -1   5 -13 830.619 342.767   3
  -1   5 -13 606.844 362.783  13
   1   5 -13 1799.63 514.537  11
  -1   5 -13 1154.54 391.912  11
   1  -5  13 824.373 436.048   2
   5   1 -13 325.696 252.786  11
  -5  -1  13 774.661 256.814   5
  -1  -5  13 692.911 350.711   2
   1  -5  13 802.108 189.568   8
   5   1 -13 295.683 284.568   9
  -1   5 -13 1029.56 279.168  18
   5  -1  13 898.210 252.089   2
   5   1 -13 388.042 228.558  18
  -5  -1  13 837.081 327.295   2
   1   5 -13 719.650 345.628  18
  -1  -5  13 962.268 400.273  17
   1  -5  13 1304.55 356.210  17
   1  -5  13 1095.39 421.952  16
   5   1 -13 351.243 216.611   1
   5  -1  13 585.650 311.655   8
   5  -1  13 821.606 432.219  16
  -5  -1  13 599.570 321.918  16
   1   5 -13 511.465 319.577  13
  -1  -5  13 893.837 391.844  16
  -1   5 -13 964.278 298.095  12
   1  -5  13 1094.50 221.191  14
   5  -1  13 566.261 270.646   6
  -1   5 -14 772.815 369.879  13
   5   1 -14 313.385 136.010  14
   1  -5  14 870.732 322.918   6
   5  -1  14 789.250 361.302  16
   1   5 -14 634.693 362.417  13
  -1   5 -14 698.897 303.234  12
   1   5 -14 811.498 267.400  12
  -1   5 -14 864.293 384.599   3
  -1   5 -14 901.206 288.510  18
  -1  -5  14 1203.49 431.171  17
   1   5 -14 1159.45 447.034  11
  -1   5 -14 963.874 358.554  11
   1  -5  14 789.127 205.742  14
   1   5 -14 828.923 528.968  15
   5   1 -14 96.0146 83.5005  11
   5   1 -14-138.429 330.000   9
   5   1 -14 254.814 159.057   1
   1  -5  14 729.087 411.041   2
   1  -5  14 1147.51 349.766  17
  -1  -5  14 489.444 267.540   6
   1   5 -14 741.148 376.852  18
  -1   5 -14 959.928 546.937  15
   5  -1  14 469.217 316.475   8
  -5  -1  14 605.940 293.213   2
   5   1 -14 343.089 217.374  18
  -5  -1  14 924.573 380.938  17
   1  -5  14 629.531 171.277   8
  -1  -5  14 1147.82 437.681  16
   1  -5  14 1036.98 413.678  16
  -5  -1  14 636.141 316.284  16
   1   5 -14 821.574 531.766   7
  -5  -1  14 676.708 238.632   5
   5  -1  14 619.611 408.042   6
   5  -1  14 797.598 234.254   2
   1   5 -14 796.081 344.630   3
  -1  -5  14 837.742 504.169   2
  -5  -1  15 560.213 204.401   5
  -5  -1  15 597.979 321.314   2
  -1  -5  15 323.962 263.585   6
   1  -5  15 978.001 360.572  17
   1  -5  15 556.907 307.255   6
   5  -1  15 689.419 240.634   2
  -1   5 -15 598.552 274.536  12
   5   1 -15 137.560 118.432   1
  -5  -1  15 506.487 318.462  16
  -1   5 -15 321.429 212.503  13
   1   5 -15 719.205 399.558  13
   1   5 -15 662.624 248.852  12
   1   5 -15 691.763 320.962   3
  -1   5 -15 643.726 345.202   3
   1   5 -15 1204.52 449.749  11
  -1   5 -15 1041.01 393.159  11
   1  -5  15 718.665 388.240  16
   5   1 -15 272.275 285.328  11
  -1  -5  15 783.061 344.997  17
   1   5 -15 385.678 353.586  15
  -1   5 -15 680.734 223.174  18
  -1  -5  15 830.492 411.154   2
   1   5 -15 817.365 310.688  18
   5  -1  15 405.457 300.256   6
   5   1 -15-412.202 507.788   9
   1  -5  15 1035.10 576.810   2
   1  -5  15 689.696 177.100   8
   5  -1  15 508.713 292.869   8
  -1  -5  15 905.325 413.096  16
   1  -5  15 302.833 142.459  14
   5   1 -15 282.010 216.987  18
  -5  -1  15 681.090 344.613  17
   1   5 -15 327.948 319.968   7
  -1   5 -15 773.599 595.077   7
  -1   5 -15 755.377 540.511  15
   5  -1  15 765.762 407.756  16
   5   1 -15 224.723 121.804  14
   5   1 -16 12.6494 56.0691  14
   1   5 -16 234.884 331.273  13
  -1   5 -16 343.241 340.513  13
  -1   5 -16 89.9097 201.555  12
   1   5 -16-24.1409 38.2828  12
   1   5 -16 32.0104 146.138  11
  -1   5 -16 59.6064 120.870  11
   5   1 -16 44.2736 190.033  11
  -1   5 -16 125.026 284.417  10
   1   5 -16 168.347 340.651  10
   1  -5  16-18.4999 112.248   2
   1  -5  16-17.1339 42.0807  17
  -1  -5  16 77.8235 160.706  17
   1  -5  16-10.1381 115.019   6
  -5  -1  16 138.545 233.761  16
   5   1 -16 16.8005 83.5565   1
   1   5 -16 11.0962 69.1396  18
  -1   5 -16 43.8518 78.3528  18
  -1  -5  16 372.189 337.349  16
   5  -1  16-191.291 285.320   8
  -1   5 -16 81.0304 317.677  15
   1  -5  16 189.454 284.638  16
  -1  -5  16 55.2405 58.6515   2
   1   5 -16 102.307 173.072   3
   1   5 -16-98.6376 307.829   7
  -5  -1  16 124.407 160.401  17
   1  -5  16 38.7035 103.434   8
  -5  -1  16 18.4545 68.7829   5
  -5  -1  16-97.4019 162.337   2
   5  -1  16 80.7036 75.6239  16
  -1   5 -16 187.160 487.368   7
  -1   5 -16 187.523 242.795   3
   1   5 -16 258.395 318.801  15
   5  -1  16-226.470 423.028   6
   1   5 -16-126.895 183.339   1
   5  -1  16 68.6223 53.7794   2
  -1  -5  16-63.2821 159.839   6
   5   1 -17 143.768 105.856  14
  -5  -1  17 454.785 325.558  16
   5  -1  17 949.278 324.125   2
   1   5 -17 14.2024 100.263   1
  -1   5 -17 548.227 356.909  13
  -1   5 -17 498.456 299.117  12
   1   5 -17 720.094 296.780  12
  -1  -5  17 764.261 392.409  16
   5  -1  17-46.9920 397.400   6
   1   5 -17 720.937 364.597   3
  -1   5 -17 502.067 356.223   3
   1   5 -17 1247.04 450.802  11
  -1   5 -17 664.792 317.793  11
   1   5 -17-70.1662 589.138  15
   5   1 -17 228.122 202.309   1
   5   1 -17 128.196 119.678  11
  -1   5 -17 532.726 408.683  10
   1   5 -17 620.778 396.755  10
  -1  -5  17 1091.17 419.484  17
  -1   5 -17 1481.81 773.582   9
  -5  -1  17 621.447 220.698   5
   1   5 -17-132.617 609.383   7
   5   1 -17-1387.23 1025.24   9
  -1  -5  17 223.127 40.9252   8
   1   5 -17 1869.93 806.755   9
   1   5 -17 330.485 318.158  18
  -1   5 -17 668.446 265.568  18
   1  -5  17 1031.17 500.514   2
   5  -1  17 479.992 330.436   8
  -1  -5  17 1031.16 521.983   2
   1  -5  17 833.382 227.127   8
  -5  -1  17 710.112 373.500   2
   1  -5  17 717.565 415.827   6
  -5  -1  17 900.470 407.595  17
   1  -5  17 1078.27 510.169  16
   1  -5  17 987.097 341.975  17
  -1  -5  17 308.134 264.035   6
  -1   5 -17 261.331 379.822   7
   5  -1  17 1088.62 564.702  16
  -1   5 -17 307.999 307.204  15
   5  -1  18 703.711 305.919   2
   1   5 -18 832.279 601.271   9
  -1   5 -18 583.283 354.874  12
   1   5 -18 504.925 250.930  12
  -5  -1  18 547.431 345.174   2
  -1   5 -18 586.580 436.574   3
   1   5 -18 460.107 282.472  18
   1   5 -18 660.802 313.132  11
  -1   5 -18 474.056 255.697  11
  -1   5 -18 750.744 507.780  10
   1   5 -18 868.181 619.228  10
   1   5 -18 544.808 352.828   3
   1  -5  18 583.549 370.036   2
  -1  -5  18 677.425 443.817   2
   1  -5  18 722.557 424.152  16
  -1   5 -18 72.9483 527.324   7
   5   1 -18 129.296 208.006   1
  -1   5 -18 554.967 296.855  18
   5  -1  18 529.569 343.023   8
  -1  -5  18 726.474 411.721  16
  -5  -1  18 348.834 175.074   5
   1  -5  18 922.649 350.027  17
   1  -5  18 595.437 203.027   8
  -5  -1  18 251.757 154.296  17
  -1  -5  18 655.778 325.235  17
   5  -1  18 655.354 474.677  16
  -1   5 -18-152.309 655.000  15
  -5  -1  18 457.470 334.584  16
  -1  -5  18-100.167 197.598   6
   1  -5  18 558.980 335.876   6
  -1   5 -18 1213.57 750.581   9
  -1  -5  19 364.209 374.501   6
   1  -5  19 994.866 536.921  16
   1  -5  19 986.348 294.993   8
   1  -5  19 854.029 553.067   2
   1   5 -19 844.041 380.848  12
   1   5 -19 533.076 333.739   3
  -1   5 -19 1168.91 561.809   3
   1   5 -19 1318.11 468.167  11
  -1   5 -19 1161.27 481.985  11
  -1   5 -19 954.613 585.109  10
   1   5 -19 462.557 400.474  10
  -5  -1  19 715.711 442.325  16
  -1   5 -19 912.387 420.241  12
   1   5 -19 1621.06 804.795   9
  -5  -1  19 342.354 247.376   2
  -1  -5  19 1123.85 563.083   2
   1   5 -19 1132.56 400.206  18
  -1   5 -19 683.614 328.156  18
   5  -1  19 348.598 240.986   8
   1  -5  19 1208.48 453.748  17
  -1  -5  19 1444.01 505.368  17
  -1   5 -19 2217.38 940.761   9
  -5  -1  19-17.1784 226.150  17
   5  -1  19 781.946 328.815   2
   5   1 -19 118.860 200.055   1
  -1  -5  19 902.677 477.689  16
   5  -1  19 718.568 494.668  16
   1  -5  19 706.866 374.823   6
  -1   5 -20 1214.73 527.580  12
  -1   5 -20 1639.56 801.266   9
  -1   5 -20 1243.46 686.673  10
   1   5 -20 1135.47 652.542  10
   1   5 -20 1278.87 454.521  12
  -1   5 -20 1103.62 385.641  18
   1   5 -20 1380.67 606.939   9
   1   5 -20 1601.97 482.453  18
   5  -1  20 1574.61 654.652   8
  -5  -1  20 1484.03 674.557  16
  -5   2   0 2810.67 446.826  12
   5   2   0 3959.16 815.453   1
  -5   2   0 4468.54 528.873   5
   5  -2   0 4113.94 570.039   1
   5  -2   0 4270.39 558.988   8
   5   2   0 4066.37 672.403  18
   5   2   0 2432.50 529.184   8
  -5   2   0 5143.65 595.273  19
   5  -2   0 3824.11 505.397   6
   5  -2   0 4384.58 569.832  14
  -5   2   0 4603.75 547.362   4
   5  -2   1 542.920 204.762   8
   5   2  -1 288.552 212.335  14
   5  -2   1 547.696 203.508  14
   5  -2  -1 368.803 177.215  14
   5  -2   1 498.374 184.634   6
  -5   2  -1 344.347 147.479  12
   5  -2  -1 116.818 60.3818   6
  -5   2   1 396.194 136.118   5
   5   2  -1 287.199 159.038   8
  -5   2   1 542.497 198.154  19
  -5  -2   1 112.368 153.166  17
   5   2  -1 514.636 228.938  18
   5  -2  -1 336.660 157.805   8
   5   2   1 221.687 109.102   8
  -5   2  -1 464.560 172.461   5
  -5   2  -1 425.797 179.160   4
   5   2  -1 476.003 277.951   1
   5   2   1 297.000 228.704   1
  -5   2  -1 531.720 193.422  19
   5  -2   1 526.600 205.872   1
   5  -2  -1 373.285 167.239   1
   5   2  -2 2213.33 444.775  13
   5   2  -2 2418.31 455.767   8
  -5   2  -2 3058.74 480.024  12
   5   2  -2 1497.91 445.797  14
   5   2  -2 3281.28 707.546   1
  -5   2  -2 3027.54 449.711   5
  -5  -2   2 1528.68 449.142   2
  -5  -2   2 1164.58 397.105   5
   5  -2   2 3488.59 506.596   1
  -5   2   2 2726.79 432.607  19
   5  -2  -2 1471.05 347.661   1
  -5   2  -2 3462.06 508.120  19
   5  -2   2 2976.63 462.084   8
   5   2  -2 3312.35 609.032  18
  -5  -2   2 1106.93 326.595  19
   5  -2   2 3357.56 504.478  14
  -5   2  -2 3244.86 500.975   4
   5   2   2 383.284 187.875   8
   5  -2  -2 1221.88 282.244   8
  -5   2  -2 1694.63 383.944   3
   5  -2   2 3619.77 516.444   6
   5  -2  -2 2014.42 375.863  14
  -5  -2   2 1314.77 396.069  17
  -5   2  -3 3520.44 532.377  12
  -5  -2   3 1254.34 359.624   4
  -5  -2   3 1818.82 487.212   5
   5   2  -3 4048.42 771.443   1
  -5   2  -3 3956.07 529.278   5
  -5  -2   3 2881.77 598.885   2
   5   2  -3 4562.25 603.505  13
   5  -2   3 4421.03 566.501   1
   5  -2  -3 1409.17 334.627   1
  -5  -2   3 2185.52 448.898  19
  -5   2  -3 4102.16 577.919   4
  -5   2  -3 4284.54 575.633  19
  -5   2   3 2838.72 444.472  19
   5   2  -3 3677.93 502.736   8
  -5  -2   3 2216.54 535.066  17
   5   2  -3 4253.25 680.362  18
   5  -2   3 3718.35 543.413   8
   5  -2   3 4399.71 587.653   6
   5   2  -3 1816.83 473.025  14
  -5   2  -3 2793.52 487.038   3
   5  -2   3 4277.93 593.383  14
   5  -2  -3 1695.59 344.868  14
  -5  -2   4 1412.90 412.164   2
  -5   2  -4 1315.71 331.444  12
  -5   2  -4 1644.29 354.768   5
   5   2  -4 1842.49 520.506   1
   5  -2   4 1913.83 385.830   1
  -5  -2   4 1005.89 347.664   5
  -5  -2   4 1158.79 399.938  17
   5  -2   4 1610.26 352.394   8
  -5  -2   4 1015.62 297.321  19
  -5   2  -4 1684.67 404.304   4
   5   2  -4 1931.50 440.178  18
   5   2  -4 1776.32 326.282   8
  -5  -2   4 732.793 273.418   4
  -5   2  -4 1627.54 366.429  19
   5  -2   4 1440.79 349.635  16
   5   2  -4 2103.97 411.471  13
   5  -2   4 2051.09 417.935   6
   5  -2   4 1951.38 420.152  14
  -5   2  -4 1176.92 308.678   3
   5   2  -4 741.508 303.918  14
   5   2  -5 693.991 147.055   3
   5   2  -5 1469.28 368.964  13
  -5  -2   5 873.557 290.130   4
  -5   2  -5 1021.49 305.799  12
  -5   2  -5 755.527 269.345   3
  -5  -2   5 1120.88 286.147  19
   2  -5   5 81.6471 53.9245   6
  -5   2  -5 1054.10 307.710   5
   5   2  -5 1544.74 406.994  18
   5   2  -5 1282.63 414.447   1
  -5  -2   5 1284.03 401.567   2
  -5  -2   5 669.854 282.212   5
  -5   2  -5 1082.66 299.579  19
   5  -2   5 1446.28 372.381  14
  -5   2  -5-13.3359 61.3780  13
   5   2  -5 649.801 286.672  14
  -5   2  -5 1014.05 315.418   4
   5   2  -5 1217.67 251.651   8
  -5  -2   5 852.940 208.646  16
   5  -2   5 1280.50 337.738  16
   5  -2   5 1591.17 351.531   1
   5  -2   5 1576.96 393.782   6
  -2   5  -5 797.250 312.492   3
  -5  -2   5 801.292 315.281  17
   5  -2   5 1301.04 333.346   8
  -5   2  -6 654.433 227.838  13
  -5  -2   6 2072.90 330.564  16
  -5   2  -6 1776.73 437.065  12
  -2   5  -6 1996.71 424.093  12
  -5   2  -6 1822.13 416.832   5
  -5  -2   6 1756.84 450.423   5
   5   2  -6 2902.02 609.038  11
   5  -2   6 2797.00 533.829   6
   5  -2   6 2814.85 485.327   1
   5   2  -6 2393.44 564.788   1
  -2   5  -6 2228.37 559.325   3
   5   2  -6 2337.77 316.156   8
  -5  -2   6 2386.07 532.788   2
  -5  -2   6 2015.74 521.380  17
   5   2  -6 2583.43 552.979  10
  -5  -2   6 2301.26 381.470  19
  -5  -2   6 1445.89 354.062   4
   5   2  -6 2387.50 499.626  18
   5   2  -6 1210.33 335.733  14
  -5   2  -6 1987.63 485.954   4
   5  -2   6 2399.38 464.378   8
   2  -5   6 707.282 281.595   6
   5  -2   6 2692.73 519.826  16
   5   2  -6 2394.55 283.332   3
   2   5  -6 1703.65 541.086  13
   5  -2   6 2667.28 509.077  14
  -5   2  -6 1643.96 411.234   3
  -5   2  -6 1601.41 385.516  19
  -5   2  -7 2243.92 401.789  13
  -2   5  -7 1847.04 518.744  13
   5  -2   7 4890.73 683.879   8
  -2   5  -7 4680.59 642.023  12
  -5   2  -7 2447.85 521.623   5
   5  -2   7 4102.94 631.808   1
   5   2  -7 5405.78 844.756  11
  -5   2  -7 3039.18 556.693  19
   5   2  -7 4420.26 758.140   1
  -5  -2   7 4527.71 753.042   2
  -5   2  -7 3744.42 558.281  10
   5   2  -7 3954.22 719.387  10
  -5  -2   7 3916.80 497.922  16
  -5  -2   7 4179.97 755.324  17
   5  -2   7 5317.81 751.171  16
   2   5  -7 3505.37 720.292  18
   5   2  -7 3932.06 393.743   8
  -5   2  -7 3127.00 639.694   4
  -5  -2   7 3451.04 607.201   5
   2   5  -7 4824.46 937.482  13
   2   5  -7 3974.61 679.261   3
   5  -2   7 5271.60 767.326   6
  -2   5  -7 4525.04 777.102   3
  -2  -5   7 911.074 276.962   6
   5   2  -7 1943.11 428.953  14
   5  -2   7 5404.57 749.452  14
  -5  -2   7 4743.16 526.921  19
   5   2  -7 4614.20 433.417   3
   2  -5   7 2348.62 515.350   6
   5   2  -7 5110.07 758.573  18
  -5  -2   7 3102.34 499.339   4
  -2   5  -8 1153.86 451.732  13
  -2   5  -8 1356.97 343.717  12
  -5  -2   8 1272.16 375.041   5
   5   2  -8 1679.77 475.286  11
  -5  -2   8 1018.00 267.605   4
   5   2  -8 1377.83 426.981   1
  -5  -2   8 1472.15 443.133   2
  -5  -2   8 1321.86 312.969  16
  -5   2  -8 1008.50 311.412  10
   5   2  -8 1142.88 402.314  10
  -5  -2   8 998.742 379.977  17
   5   2  -8 586.954 255.580  14
   5   2  -8 2211.66 622.729   9
  -2  -5   8 654.129 222.811   6
   5  -2   8 1646.99 446.759  16
  -5  -2   8 1283.56 261.918  19
   2   5  -8 1246.71 438.711  18
   5   2  -8 527.074 122.974   8
   5  -2   8 535.353 233.684   1
  -5   2  -8 837.351 294.500  19
  -5   2  -8 1301.94 322.423   9
  -2  -5   8 105.205 326.835   2
   5  -2   8 1619.76 434.939   6
   2   5  -8 1572.90 501.396  13
   5  -2   8 1562.73 403.059   8
  -5   2  -8 1536.57 605.433   7
   2   5  -8 1374.58 404.319   3
   2  -5   8 1113.11 368.102   6
  -5   2  -8 1352.69 561.117  15
   5  -2   8 1713.47 448.718  14
  -2   5  -8 1590.71 459.576   3
   5   2  -8 1569.51 424.796  18
  -2  -5   8 329.409 222.792  17
  -5   2  -8 756.758 333.985   4
  -2   5  -9 1832.95 402.762  12
   2  -5   9 1275.62 369.022   6
   2   5  -9 1202.42 265.725  12
  -2  -5   9 405.724 298.286   2
  -5  -2   9 1546.81 402.763   5
   5   2  -9 1788.62 506.302  11
   5  -2   9 1902.19 316.868   2
   5   2  -9 1612.18 458.886   1
  -5  -2   9 1545.62 469.065   2
  -5   2  -9 440.683 217.534   4
   2   5  -9 1880.19 587.692  13
  -2  -5   9 780.404 310.762  16
  -5   2  -9 764.257 284.424  19
  -5   2  -9 937.047 322.362  10
   5   2  -9 1127.90 431.967  10
  -5  -2   9 1330.66 257.995  19
  -5   2  -9 1149.22 289.912   9
  -2  -5   9 970.303 292.229   6
  -5  -2   9 1521.91 314.389   4
  -5   2  -9 1609.23 602.774  15
   5   2  -9 1563.67 442.292  18
  -2  -5   9 625.670 329.169  17
   2   5  -9 1733.04 439.273   3
  -2   5  -9 1344.56 443.334  13
  -5  -2   9 1567.42 485.424  17
   2   5  -9 1660.46 501.012  18
  -5  -2   9 1383.65 335.835  16
   2  -5   9 728.744 286.954  17
  -2   5  -9 1723.78 286.289   4
   5  -2   9 1835.47 486.405  16
   2  -5   9 632.545 261.445  16
  -2   5  -9 1376.48 335.625  18
   2  -5   9 427.071 126.237   8
   5  -2   9 1827.25 444.410   8
  -5   2  -9 1650.60 645.515   7
   5  -2   9 1921.79 514.160   6
  -2   5  -9 2026.79 519.571   3
   5  -2   9 2015.88 516.028  14
   2  -5   9 825.920 211.140  14
   5   2  -9 1798.16 602.525   9
   5   2  -9 643.777 229.941  14
   5   2 -10 1675.98 573.315   9
   2   5 -10 2445.23 626.630  13
  -2   5 -10 1871.80 545.486  13
  -5   2 -10 1076.82 535.148  15
  -5  -2  10 1866.92 334.001   4
  -2  -5  10 1282.41 402.274  16
  -5  -2  10 1937.48 458.842   5
   5   2 -10 2140.20 582.301  11
   5  -2  10 2720.42 390.134   2
  -2  -5  10 1278.98 491.567  17
  -5  -2  10 1933.12 491.860   2
   2  -5  10 2048.52 459.337  17
  -5   2 -10 3.03526 161.562   4
  -5   2 -10 814.578 226.723   9
  -5   2 -10 725.776 210.664  10
  -2   5 -10 2266.38 448.225  12
   2   5 -10 1932.18 338.728  12
  -2  -5  10 796.808 397.634   2
  -5   2 -10 900.378 294.904  19
   5   2 -10 2013.46 499.638  18
  -5   2 -10 928.148 535.652   7
   5   2 -10 1602.76 446.041   1
   5   2 -10 1097.09 408.258  10
  -2   5 -10 2340.76 410.617  18
  -2   5 -10 2368.98 357.599   4
  -5  -2  10 1670.46 395.108  16
  -5  -2  10 685.635 165.599  19
  -5  -2  10 2338.02 576.493  17
   2  -5  10 1945.86 323.491  14
   5  -2  10 1959.86 522.288  16
   5  -2  10 2133.18 491.646   8
   2   5 -10 2267.29 542.752  18
   2  -5  10 1719.09 501.503  16
   2  -5  10 1219.87 254.966   8
   5  -2  10 1985.62 535.720   6
  -2  -5  10 1404.16 364.539   6
   2  -5  10 1750.40 467.661   6
   5  -2  10 2238.92 548.207  14
  -2   5 -10 2060.43 520.613   3
   2   5 -10 2199.74 487.045   3
   5   2 -10 757.434 247.869  14
   5  -2  11 163.774 335.759   6
  -2   5 -11 100.324 109.538  18
   5  -2  11 105.816 328.140  16
  -5   2 -11-10.9790 111.774   7
   5  -2  11 84.3807 319.013  14
  -2  -5  11 68.3684 135.752   6
   2   5 -11 315.840 249.613  18
  -2   5 -11 296.761 404.429  13
   5   2 -11 382.397 472.432   9
   2   5 -11 318.373 346.526  13
   2   5 -11 176.210 203.477   3
  -2   5 -11 328.156 321.462   3
  -2   5 -11 468.937 295.668  12
  -5   2 -11 146.656 322.349  10
   2  -5  11 68.9230 126.574  14
   2   5 -11 145.824 140.290  12
   5   2 -11 118.604 193.563   1
   5   2 -11 358.070 349.617  11
  -2  -5  11-59.7514 132.466   2
  -5   2 -11 157.649 199.141  19
   5   2 -11 159.982 192.930  18
  -5  -2  11 199.336 217.267  17
   5   2 -11-121.060 84.6401  10
  -2  -5  11 58.3833 148.882  16
   2  -5  11 30.5597 240.691   6
   2  -5  11 234.761 295.486  17
  -5   2 -11 471.823 464.210   9
  -5  -2  11 88.1022 108.675   5
   5  -2  11 60.7968 139.481   2
   5  -2  11 48.0304 263.460   8
  -2   5 -11 161.393 142.401   4
  -5  -2  11 139.372 118.510   4
   2  -5  11 140.373 336.400  16
   2  -5  11 15.2254 180.656   8
  -5  -2  11 86.4411 137.667  16
  -5  -2  11 200.199 246.172   2
  -2  -5  11 2.28870 157.715  17
  -5   2 -11-29.8293 333.285  15
   5   2 -11 81.7708 96.7503  14
   5   2 -12 1186.51 486.186   9
  -2  -5  12 1509.37 404.306   6
   2   5 -12 2740.60 682.805  13
  -5  -2  12 2537.47 482.325   5
   2   5 -12 2895.77 584.815   3
  -2   5 -12 1719.14 563.703  13
   5   2 -12 2340.98 566.739  18
  -2   5 -12 3005.29 548.409  12
   2   5 -12 2900.68 444.355  12
   2  -5  12 2565.74 610.486   6
  -2  -5  12 1694.27 623.543   2
   5   2 -12 2403.58 598.729  11
   5   2 -12 2036.40 520.236   1
  -5  -2  12 2591.81 627.393   2
   5  -2  12 2430.11 650.922  14
  -2   5 -12 2991.69 469.806   4
  -5   2 -12 631.270 302.977   9
  -5  -2  12 2257.36 515.481  16
  -5  -2  12 2647.68 374.743   4
  -2   5 -12 3220.24 468.105  18
  -5  -2  12 3374.26 731.605  17
   5   2 -12 532.088 321.473  10
   2  -5  12 2913.85 689.058  16
   5  -2  12 3321.44 747.427  16
  -5   2 -12 726.297 368.774  10
  -2  -5  12 2421.45 655.595  17
  -2  -5  12 2280.28 595.379  16
   2  -5  12 3638.61 560.355  17
  -5   2 -12 686.047 400.905   7
   5  -2  12 2685.62 700.149   6
  -5   2 -12 507.710 354.013  15
   2  -5  12 3275.42 436.373  14
  -2   5 -12 2632.07 607.351   3
   5  -2  12 3005.27 650.272   8
   5  -2  12 3933.45 536.790   2
  -5   2 -12 429.562 211.235  19
   5   2 -12 833.495 246.912  14
   5  -2  13 344.373 272.894   6
   2  -5  13 315.862 234.111   6
  -2  -5  13 162.317 118.867   6
   2   5 -13 248.060 200.561  13
   2   5 -13 331.569 163.444   3
   5   2 -13 245.227 156.924   1
  -2   5 -13 381.483 237.385   3
   2   5 -13 783.935 407.052  11
   2  -5  13 10.7734 152.631   2
  -5  -2  13 246.795 184.506  16
  -5  -2  13 297.887 175.548   5
   5   2 -13 195.976 119.950  11
   2   5 -13-4.72014 147.681   1
  -2   5 -13 428.439 215.906  11
  -5  -2  13 350.687 141.185   4
  -2   5 -13-152.732 80.7662  19
   5   2 -13 95.8975 178.485  10
   5  -2  13 425.057 178.388   2
   2   5 -13 141.654 233.418  18
  -2  -5  13 331.472 304.443   2
   5   2 -13 200.083 169.749  18
   2  -5  13 468.131 161.162  14
   5   2 -13 322.252 264.932   9
  -2   5 -13 305.830 192.090   4
   5  -2  13 361.845 238.681   8
  -2   5 -13 395.909 271.526  13
   2  -5  13 570.395 215.305  17
  -5  -2  13 428.697 257.697  17
  -2   5 -13 352.276 218.914  12
  -2  -5  13 450.273 304.731  17
  -5   2 -13 66.5122 87.4941  19
  -5   2 -13 107.916 127.927   9
   2   5 -13 361.004 177.374  12
   2  -5  13 342.996 134.525   8
  -5   2 -13-0.10168 156.764  10
   2   5 -13 624.017 530.543   7
   2  -5  13 276.914 254.413  16
  -2  -5  13 417.573 254.281  16
   5  -2  13 496.765 339.675  16
  -5  -2  13 409.666 296.305   2
   2   5 -13 544.455 427.221  15
  -2   5 -13 497.167 186.850  18
   5  -2  13 262.924 226.815  14
   5   2 -13 133.862 93.2135  14
  -2   5 -14 599.238 147.444  19
   2   5 -14 1319.62 508.327  13
  -2   5 -14 1117.94 353.372  12
   2   5 -14 1201.48 416.546   3
  -2   5 -14 1191.80 451.631   3
   5   2 -14 725.180 328.646   1
  -5  -2  14 1311.01 366.875   5
   2   5 -14 1500.39 522.314  11
  -2   5 -14 1857.33 456.567  11
   5   2 -14 924.034 395.322  11
   5  -2  14 2173.92 455.753   2
  -5  -2  14 1644.42 536.455   2
  -2   5 -14 1555.32 330.293  18
  -2  -5  14 1215.82 469.798  16
  -5   2 -14 90.9597 104.142  19
   2   5 -14 1373.21 602.961  15
   2  -5  14 1701.02 563.727  16
   2  -5  14 825.974 438.952   2
  -2  -5  14 1379.01 595.338   2
  -5  -2  14 1374.39 252.058   4
   2  -5  14 1477.61 298.434   8
  -5  -2  14 1813.45 562.192  17
   5   2 -14 1249.49 442.944  18
  -2  -5  14 776.344 328.493   6
   5  -2  14 1370.33 426.771   8
   5   2 -14 698.574 545.250   9
  -2  -5  14 1733.28 542.387  17
   5   2 -14 49.0540 85.3067  10
  -2   5 -14 916.778 400.324  13
   2  -5  14 1302.38 487.321   6
   5  -2  14 1282.38 467.100  16
  -5  -2  14 1243.50 409.221  16
   2   5 -14 1160.99 577.759   7
   2   5 -14 1049.28 465.575  18
  -5   2 -14 205.868 206.734  10
  -5   2 -14-61.6482 225.161   9
  -2   5 -14 2009.99 800.041  15
   2  -5  14 1558.22 321.035  14
   5  -2  14 1576.99 535.892   6
   2   5 -14 1429.95 345.496  12
   5   2 -14 327.556 143.879  14
   2  -5  14 1935.77 411.788  17
  -2  -5  15 160.106 195.436   6
   2  -5  15 92.2685 68.7565   6
   2   5 -15 288.878 343.848  13
   2   5 -15 92.3184 60.7069  12
   2   5 -15 11.9161 65.2695   3
  -2   5 -15 194.050 189.964   3
  -2   5 -15 148.228 100.752  18
  -2   5 -15 299.056 192.465  11
  -5   2 -15 139.877 149.399  19
   5   2 -15 122.533 127.379   1
   5   2 -15-22.8273 96.9551  11
  -5   2 -15-478.954 419.579   9
  -2   5 -15 174.555 339.968   7
   5   2 -15-704.008 424.587  10
   2  -5  15 218.160 153.794  17
  -2   5 -15 121.493 183.090  12
  -5   2 -15-118.341 239.813  10
   2  -5  15 337.299 284.707  16
  -5  -2  15 123.358 115.884   5
   5  -2  15 211.580 188.297   6
   5   2 -15 99.4834 240.474   9
   2   5 -15 302.964 614.262  15
  -5  -2  15 255.312 237.498  17
   5  -2  15 201.591 182.025   8
  -2  -5  15 356.538 354.223   2
   5   2 -15 5.21864 119.543  18
   2   5 -15 117.765 505.214   7
  -5  -2  15-30.8416 128.436   2
  -2  -5  15 167.075 150.302  17
   2  -5  15 153.322 202.929   2
  -2   5 -15 116.386 185.397  13
   2  -5  15 138.034 85.9738   8
  -2   5 -15 90.1351 53.9281  19
  -2  -5  15 138.317 203.847  16
  -5  -2  15 329.096 245.334  16
  -5  -2  15 79.8280 28.8015   4
   5  -2  15 199.516 185.059   2
  -2   5 -15 400.740 429.355  15
   2  -5  15 103.432 91.8450  14
   5  -2  15 3.14603 146.778  16
   2   5 -15-78.7626 163.200   1
   5   2 -15 10.3103 71.9504  14
  -5   2 -16 152.076 229.397  19
   2  -5  16 1231.65 525.566   6
  -2   5 -16 866.427 451.587  13
   2  -5  16 1477.06 331.628   8
  -5  -2  16 1680.78 414.263   5
   2   5 -16 1286.33 522.305  13
  -2   5 -16 1157.11 415.317  12
  -5   2 -16-135.681 333.140   9
   2   5 -16 1297.05 444.500   3
   5   2 -16 451.500 435.454   9
   2  -5  16 1512.19 597.612   2
  -2   5 -16 1069.73 429.591   3
   2   5 -16 1783.88 611.739  11
  -2   5 -16 1884.31 491.413  11
  -5  -2  16 2182.86 652.565   2
   5   2 -16 869.968 462.030  11
   2   5 -16 988.993 526.621  10
   5   2 -16 682.553 299.959   1
   2   5 -16 1693.08 487.881  18
   5   2 -16-304.965 520.575  10
   5  -2  16 1825.53 676.501   6
  -2   5 -16 1490.48 641.523  10
  -2  -5  16 1611.23 622.197   2
   2   5 -16 8.93485 155.528   1
   5   2 -16 907.773 405.182  18
   2  -5  16 2122.01 462.619  17
  -5  -2  16 2532.82 687.574  17
   2   5 -16-21.7091 547.762  15
   2  -5  16 2392.44 686.965  16
   5  -2  16 1680.21 549.742   8
   2   5 -16 11.2317 596.859   7
  -2  -5  16 601.817 374.473   6
   5  -2  16 2039.12 718.618  16
  -5  -2  16 1299.42 472.975  16
  -2   5 -16 1137.50 685.725   7
  -2  -5  16 2069.37 583.677  17
  -2   5 -16 1516.33 360.896  18
   2   5 -16 1552.87 377.971  12
  -2   5 -16 1067.78 604.052  15
  -2  -5  16 1459.38 478.644  16
   2  -5  16 517.689 208.649  14
   5  -2  16 2186.03 531.631   2
  -5   2 -16-89.8871 388.730  10
   5   2 -16 322.594 153.869  14
   2  -5  17 55.0248 128.119   6
   2   5 -17 1155.60 726.659   9
  -5   2 -17-572.799 568.661  10
  -2   5 -17 202.651 309.976  13
  -2   5 -17 197.340 245.976  10
  -2   5 -17 216.648 250.718  12
   2   5 -17 265.171 240.373   3
  -2   5 -17 177.055 307.292   3
  -2   5 -17 349.667 254.178  11
   5   2 -17 468.113 379.827  11
   2   5 -17 154.229 234.938  10
   5   2 -17 209.683 452.398   9
   2   5 -17 235.335 234.238  18
  -5   2 -17 108.026 133.140  19
   5   2 -17 113.071 235.362  18
   2  -5  17 342.057 210.801  17
  -5  -2  17 350.883 187.497   5
   5   2 -17-623.380 756.120  10
   5  -2  17 456.833 319.967   8
  -2   5 -17 197.360 90.6849  19
  -2   5 -17 307.071 186.648  18
  -5  -2  17 272.434 300.044  16
   2  -5  17 181.337 160.396   2
  -2  -5  17 425.805 299.432  17
  -5  -2  17 416.799 367.142  17
   2  -5  17 242.179 127.209   8
  -2   5 -17 1234.76 736.674   9
  -2  -5  17 377.741 260.619  16
   5  -2  17 637.124 452.883  16
   2  -5  17 474.348 405.939  16
  -2   5 -17 390.005 565.396   7
  -2  -5  17 151.523 161.338   2
   2   5 -17 65.2950 193.935   1
   2   5 -17 149.207 202.829  11
  -2   5 -17 200.129 324.291  15
  -5  -2  17 308.105 288.735   2
   2   5 -17 237.837 166.496  12
   5  -2  17 289.574 307.775   6
   5  -2  17 475.469 248.401   2
   5   2 -17 391.783 342.412   1
  -2  -5  17 137.023 206.045   6
  -2   5 -18 1743.03 741.918   9
  -2   5 -18 833.964 440.532  13
  -2   5 -18 878.533 403.768  12
   2   5 -18 1033.70 330.145  12
   5  -2  18 2388.21 569.740   2
   2  -5  18 1725.32 437.485  17
   2   5 -18 975.428 409.975   3
  -5  -2  18 1776.22 430.635   5
   2   5 -18 1398.81 591.331  11
  -2   5 -18 1375.06 442.990  11
   2   5 -18 2630.05 935.862   9
   5   2 -18 413.488 278.869  11
  -2   5 -18 1073.81 548.840  10
   2   5 -18 1160.94 614.082  10
   2   5 -18 732.495 457.981  18
  -5  -2  18 1704.81 613.957   2
  -5  -2  18 1119.30 525.658  16
   2   5 -18 121.656 174.219   1
  -2   5 -18 890.579 268.622  18
   2  -5  18 1673.55 600.213   2
   5   2 -18 665.849 360.591  18
  -2  -5  18 1598.52 615.367   2
   2  -5  18 1624.22 344.385   8
   5   2 -18 85.3698 152.862   9
  -2  -5  18 1755.58 555.177  17
   5  -2  18 1473.96 641.904   6
   5  -2  18 1167.81 499.572   8
  -5  -2  18 2074.37 649.259  17
  -2  -5  18 1772.90 599.974  16
  -2   5 -18 1037.45 501.434   3
   5   2 -18 431.247 302.123   1
  -2   5 -18 386.066 233.186   7
   5  -2  18 2209.54 761.887  16
  -2   5 -18 478.058 329.402  15
  -5   2 -18-75.6625 199.185  19
   2  -5  18 1816.89 668.041  16
  -2  -5  18 179.415 209.018   6
   2  -5  18 1128.25 530.701   6
  -2  -5  19 1251.46 588.760  16
   2   5 -19 1260.35 376.465  12
   2   5 -19 1287.71 501.833   3
  -2   5 -19 1130.57 462.986  12
  -5  -2  19 2012.85 467.382   5
   2  -5  19 1916.06 390.164   8
  -2   5 -19 833.906 487.786   3
   2   5 -19 1669.96 606.841  11
  -2   5 -19 1101.24 415.630  11
   2   5 -19 2079.72 896.090   9
   5  -2  19 2495.59 601.316   2
   5   2 -19 502.347 369.547  11
  -2  -5  19 2120.89 746.276   2
  -2   5 -19 1405.27 672.804  10
   2   5 -19 1521.06 717.727  10
  -5   2 -19-239.159 245.405  19
  -2   5 -19 1048.00 333.859  18
  -2   5 -19 1846.00 764.615   9
   2  -5  19 2015.05 754.405   2
   2  -5  19 2078.35 494.780  17
  -5  -2  19 2611.54 776.297  17
  -2  -5  19 2009.12 603.125  17
   5   2 -19 590.766 363.528   1
   5  -2  19 2044.07 722.693  16
  -5  -2  19 1180.22 582.893  16
  -2   5 -19-230.832 908.934   7
  -2   5 -19-449.998 766.638  15
  -5  -2  19 1897.76 665.884   2
   5   2 -19 96.1954 406.371   9
   5  -2  19 941.658 501.665   6
  -2  -5  19-250.572 340.390   6
   2   5 -19 1731.24 521.631  18
   2  -5  19 2489.42 785.236  16
   2  -5  19 1664.52 640.290   6
   5  -2  19 1631.67 571.383   8
  -5   3   0 106.920 75.1362  19
   5  -3   0 19.9224 107.945   8
   5  -3   0 69.3233 96.3850  14
   5  -3   1 1045.68 298.905   6
  -5   3  -1 1312.95 328.883  12
   5  -3   1 1317.43 323.483   8
   5   3  -1 1125.57 480.282   1
   5  -3   1 1006.54 263.204   1
  -5   3  -1 2077.22 391.243  19
   5  -3   1 1460.49 334.797  14
   5   3  -2 129.691 169.835   1
   5  -3   2 100.033 99.8577   6
  -5   3  -2 183.028 110.226  19
   5  -3   2 115.368 79.6769   1
   5  -3   2 110.312 99.0844   8
  -5  -3   2-14.0931 146.922  17
   5   3  -2 41.2428 80.3515  18
   5  -3   2 145.310 118.114  14
   5   3  -2 4.22576 141.919   8
  -5   3  -2 143.865 92.3690  12
   5   3  -3 1981.52 500.394  13
   5  -3   3 2490.09 468.992   6
   5   3  -3 2099.25 630.130   1
   5  -3   3 2214.98 411.956   8
  -5  -3   3 544.492 283.840  17
  -5   3  -3 2444.97 426.614   4
   5   3  -3 2392.78 582.427  18
  -5   3  -3 2755.83 451.114  19
   5   3  -3 1494.60 364.337   8
  -5   3  -3 2455.23 463.995  12
  -5   3  -3 2269.45 373.145   5
  -5   3  -3 1656.40 440.744   3
   5  -3   3 2481.97 448.657  14
   5  -3   3 2128.99 379.882   1
   5  -3   4 572.635 239.406  14
   5  -3   4 645.379 258.006   6
  -5   3  -4 530.650 227.774  12
  -5   3  -4 464.692 194.310   5
   5   3  -4 647.957 312.354  18
   5  -3   4 607.926 223.238   1
  -5  -3   4 279.973 217.404   2
  -5  -3   4 213.162 201.163  17
   5  -3   4 574.973 241.894   8
  -5   3  -4 512.974 207.475  19
   5   3  -4 321.036 178.453   8
  -5   3  -4 385.708 214.266   3
  -5   3  -4 553.727 230.539   4
   5   3  -4 393.852 331.582   1
   5   3  -4 701.057 296.028  13
  -5   3  -5 1219.06 301.911  19
  -5   3  -5 1281.58 353.464  12
   5   3  -5 1377.71 387.146  13
  -3   5  -5 1003.94 300.658  12
   5  -3   5 1053.94 299.978   8
   3  -5   5 324.281 188.706   6
   5  -3   5 1429.48 376.179   6
   5  -3   5 1247.12 285.168   1
  -5  -3   5 453.417 187.403  19
   5   3  -5 1401.47 429.987  18
  -5  -3   5 789.775 375.394   2
   5   3  -5 1093.06 263.549   8
  -5   3  -5 1241.42 323.614   4
  -5  -3   5 537.298 281.221  17
  -5   3  -5 1259.62 288.372   5
   5   3  -5 897.550 393.017   1
  -5   3  -5 1026.76 344.491   3
   5  -3   5 1238.01 333.971  14
  -3   5  -5 847.320 348.889   3
   5   3  -6 4824.19 730.864  13
  -5  -3   6 1396.55 396.102   5
  -5  -3   6 2588.10 461.988  19
  -3   5  -6 3603.28 597.679  12
   5   3  -6 3388.59 746.994   1
  -5   3  -6 3926.76 527.371   5
  -5  -3   6 3073.96 723.979   2
   5   3  -6 4289.98 744.490  18
   5  -3   6 4641.71 557.343   1
  -5   3  -6 3811.64 556.530  19
  -5   3  -6 3987.77 622.416   4
   5   3  -6 4467.19 473.231   8
   5   3  -6 2016.02 333.731   3
  -5  -3   6 2710.49 667.602  17
   5  -3   6 4401.02 624.461  14
  -5   3  -6 3118.26 605.704   3
   5  -3   6 4677.15 695.496   6
   5  -3   6 3256.12 631.464  16
   5  -3   6 3844.47 564.979   8
  -3   5  -6 3461.54 712.562   3
   3  -5   6 1491.72 419.893   6
  -5   3  -6 3393.47 588.849  12
   3   5  -6 3664.50 829.206  13
   5  -3   7 1862.21 407.206   8
   3   5  -7 2059.49 585.748  13
   5   3  -7 1997.58 486.517  13
  -3  -5   7 234.808 273.739  17
  -5   3  -7 241.667 142.854  13
  -3   5  -7 1805.17 420.100  12
  -5   3  -7 1415.35 382.688  12
   3  -5   7 1038.95 348.884   6
  -5  -3   7 1358.32 459.455   2
  -3  -5   7 203.724 95.5336   6
  -5   3  -7 1899.49 400.035   5
   5   3  -7 1617.76 517.442   1
   5  -3   7 2103.41 514.082  16
   5  -3   7 2509.37 413.918   1
  -5  -3   7 973.645 357.171   5
  -5   3  -7 1482.30 413.243   3
  -5  -3   7 1458.75 324.337  19
  -5   3  -7 1747.27 394.346  19
   5   3  -7 2140.47 291.061   8
   3   5  -7 1702.98 528.543  18
   5   3  -7 2142.82 527.793  18
  -5  -3   7 1216.97 450.722  17
   5   3  -7 1745.09 311.231   3
  -5  -3   7 1342.17 322.896  16
   3  -5   7 443.292 133.568   8
  -5   3  -7 1979.19 457.925   4
   3   5  -7 1189.27 337.670   3
   5  -3   7 2170.34 499.344   6
  -3   5  -7 1878.56 513.004   3
   5  -3   7 2213.73 447.323  14
  -3   5  -8 1508.46 518.930  13
   5   3  -8 4174.54 720.078  13
   3   5  -8 3983.87 804.063  13
   5   3  -8 4171.60 739.506  18
  -5   3  -8 1383.23 376.398  13
  -5   3  -8 2756.56 552.915  12
  -3   5  -8 3527.06 594.723  12
   5  -3   8 4258.31 714.901   6
   5   3  -8 5072.87 912.411  11
  -5  -3   8 2122.05 516.097   5
  -5   3  -8 2847.31 526.629   5
  -5   3  -8 2915.65 288.787  11
   5  -3   8 4095.02 556.431   1
  -5  -3   8 3278.42 728.721   2
   3  -5   8 1721.55 344.251   8
  -3  -5   8 960.602 393.801   2
  -3  -5   8 1072.25 492.383  17
   5  -3   8 4084.59 725.758  16
  -3   5  -8 3062.31 431.884   4
  -5   3  -8 2834.73 598.340   4
  -5  -3   8 3187.57 443.355  19
  -5  -3   8 2877.20 688.137  17
   3   5  -8 3389.14 732.260  18
  -3   5  -8 3679.34 706.718   3
   3  -5   8 1932.87 359.658  14
  -5   3  -8 2913.59 509.297  19
   3   5  -8 3492.89 621.110   3
   3  -5   8 2847.45 590.367   6
  -3  -5   8 1387.04 321.129   6
   5   3  -8 3839.10 361.921   8
   5  -3   8 3672.24 579.264   8
   5  -3   8 4151.02 644.721  14
   5   3  -8 3481.52 451.489   3
   5   3  -8 3239.48 716.524   1
  -5   3  -8 2415.79 544.009   3
  -5  -3   8 3001.64 498.654  16
  -5   3  -9 1361.06 446.503   3
  -3   5  -9 1353.41 480.783  13
   5  -3   9 2734.76 543.119  14
  -5   3  -9 1423.52 382.101  13
  -5   3  -9 1588.41 449.273  12
  -3   5  -9 2192.73 472.021  12
   3   5  -9 2748.10 685.151  13
   3   5  -9 2137.18 578.298  18
   5  -3   9 1451.42 362.007   1
  -5   3  -9 1470.68 379.189   5
  -5  -3   9 1457.54 418.938   5
   5   3  -9 2708.14 647.011  11
  -5   3  -9 1325.52 207.210  11
   5   3  -9 1863.78 537.869   1
   5  -3   9 2322.92 470.166   8
  -5  -3   9 1909.98 565.409   2
  -5   3  -9 1690.21 475.924   4
  -5   3  -9 1734.15 393.110  19
   3  -5   9 1084.75 303.008  17
  -3   5  -9 1762.37 346.063  18
   5   3  -9 2404.12 551.864  18
  -3  -5   9 799.115 360.856  17
   5  -3   9 2780.64 619.996   6
   3  -5   9 1326.96 308.152   8
   3  -5   9 1508.01 413.729  16
   3  -5   9 1814.01 359.120  14
  -5  -3   9 2020.85 425.941  16
   5  -3   9 2677.65 622.955  16
  -5  -3   9 2093.69 328.207  19
  -5  -3   9 1777.31 535.825  17
  -3  -5   9 796.628 451.829   2
   3   5  -9 2368.20 495.720   3
   3  -5   9 1510.24 454.976   6
  -3  -5   9 1159.56 300.151   6
   5   3  -9 2076.92 361.016   3
  -3   5  -9 2300.11 571.954   3
  -3   5  -9 2446.55 406.569   4
  -5  -3   9 758.485 248.880   4
   3  -5  10 655.887 214.453  14
   5  -3  10 553.178 331.132   6
   3   5 -10 631.598 274.540   3
  -5  -3  10 430.146 217.021  16
  -3   5 -10 496.147 289.987  13
   5   3 -10 609.209 208.037   3
   3   5 -10 680.031 366.627  13
  -5   3 -10 102.090 95.0210  13
   3  -5  10 665.506 278.155   6
   5   3 -10 414.079 96.0108  12
  -5   3 -10 148.177 206.513  12
  -3   5 -10 552.458 264.793   3
  -3  -5  10 443.727 179.649   6
   3   5 -10 253.144 93.5508  12
  -3   5 -10 572.800 139.649   5
   5   3 -10 589.443 193.823  11
   5   3 -10 241.293 145.710   1
  -5   3 -10 187.569 140.455  11
  -5  -3  10 337.105 209.949   5
   5   3 -10 458.807 229.440  10
  -3   5 -10 198.568 59.3456  19
  -5   3 -10 404.827 325.863   3
  -3  -5  10 156.590 189.153  16
  -5  -3  10 427.272 172.971  19
   3   5 -10 586.566 293.382  18
   5  -3  10-87.1355 88.4993   1
  -3  -5  10 247.671 214.950  17
  -5   3 -10 277.319 251.836   4
   3  -5  10 554.349 229.576  17
   5  -3  10 731.599 313.897   8
  -5   3 -10 532.163 312.270  19
  -3  -5  10 192.104 104.613   2
  -5  -3  10 620.051 384.990   2
   3  -5  10 197.534 112.844  16
  -3   5 -10 734.795 221.344   4
  -5  -3  10 331.388 169.922   4
   5  -3  10 803.485 403.434  16
   3  -5  10 366.948 149.088   8
   5   3 -10 531.727 225.830  18
  -5   3 -10 707.920 360.105  10
  -5   3 -10 639.544 532.342  15
  -3   5 -10 687.685 247.597  12
  -3   5 -10 709.401 201.559  18
  -5  -3  10 512.602 315.528  17
   5  -3  10 852.897 361.468  14
   5  -3  11 1741.23 534.685   6
   3  -5  11 2205.71 397.448   8
   3   5 -11 2658.64 751.240  13
   5   3 -11 2684.21 825.692   9
   5   3 -11 1540.27 216.711  12
  -3   5 -11 2053.68 479.740  12
   3   5 -11 2102.63 388.204  12
  -3   5 -11 1943.29 330.350  18
  -5  -3  11 1404.85 472.853   5
  -3   5 -11 1739.91 263.753   5
   5   3 -11 2231.91 636.310  11
  -5  -3  11 2031.27 640.202   2
  -5   3 -11 2406.15 697.219  10
   5  -3  11 1498.09 516.478   2
   5   3 -11 1525.52 563.922  10
   5   3 -11 1458.20 487.245   1
  -3  -5  11 1795.37 626.772  17
  -5   3 -11 1090.49 491.958   4
   3   5 -11 308.188 339.002   1
  -3  -5  11 1003.43 329.086   6
   3   5 -11 2359.51 635.080  18
  -3  -5  11 1093.68 598.113   2
  -5  -3  11 1163.59 335.316   4
  -3   5 -11 1920.70 584.546  13
   5  -3  11 2602.22 551.362   8
  -3   5 -11 1091.42 230.058  19
   3  -5  11 2775.69 448.496  17
   5  -3  11 2042.66 540.656  14
  -5   3 -11 1925.64 557.406  13
  -5  -3  11 1790.91 548.831  17
  -3   5 -11 2003.54 417.117   4
  -5  -3  11 1885.98 481.055  16
   5   3 -11 1696.83 480.503  18
   3  -5  11 2140.92 606.100  16
  -3  -5  11 1612.88 516.321  16
   5  -3  11 2130.87 613.166  16
   3  -5  11 2448.80 565.554   6
  -5   3 -11 2289.04 983.794   7
  -5   3 -11 2832.91 970.841  15
   3   5 -11 2549.45 594.854   3
   3  -5  11 2053.48 379.440  14
  -3   5 -11 1812.11 572.068   3
   5   3 -11 156.247 243.248  14
  -5  -3  12 143.220 189.501  17
   3  -5  12 169.050 102.032  14
   5  -3  12 30.1653 112.658   6
  -3  -5  12-60.5731 67.3871   6
   5  -3  12-2.12426 43.6475   8
   3  -5  12 145.137 35.7159   6
   3   5 -12-54.8943 112.090   3
   3  -5  12 189.830 139.324  16
  -3   5 -12-8.37696 146.138   3
   5   3 -12 275.313 389.521   9
  -3   5 -12-34.2751 84.9874   5
   5   3 -12 69.6410 111.358  11
  -5  -3  12 42.1269 46.0333   5
  -3   5 -12 19.2342 7.25344  19
  -5   3 -12 47.4703 85.0352  10
   5   3 -12 37.2829 155.523  10
  -3   5 -12 69.1806 63.7581  12
  -5   3 -12 100.931 145.693  19
   3   5 -12-55.7829 215.935   1
   3  -5  12 43.4669 62.8538  17
  -3  -5  12 98.6358 123.317  17
  -3  -5  12 68.5207 192.926   2
   5  -3  12 122.052 144.996   2
   3   5 -12-140.932 221.214  18
  -3   5 -12 40.1176 60.8815  18
  -5   3 -12 22.9394 138.933   9
  -5   3 -12-233.203 329.191   4
   5   3 -12 83.6263 198.963   1
  -5  -3  12 89.7996 102.183   4
   3   5 -12-135.905 264.995  13
  -5  -3  12 39.6202 53.0400   2
  -3   5 -12-53.1134 38.1707   4
   5   3 -12 161.541 190.725  18
   3  -5  12 80.4676 73.9919   8
  -3   5 -12 41.7955 60.1376  13
  -3  -5  12 98.1550 88.9750  16
   5  -3  12 27.6627 174.615  16
  -5  -3  12 103.247 142.433  16
   3   5 -12 50.9175 52.3248  12
  -5   3 -12-51.1203 260.789   7
  -5   3 -12 49.1489 37.6422  15
   5   3 -12-47.7449 118.373  14
   5  -3  12-88.6969 159.803  14
  -3  -5  13 727.901 298.207   6
   3   5 -13 2231.02 638.953  13
  -5  -3  13 2553.83 559.871  16
  -3   5 -13 1801.74 528.235  13
  -3   5 -13 2297.76 526.456  12
   3   5 -13 2581.47 410.396  12
  -5  -3  13 2245.98 496.840   5
   3   5 -13 2801.16 791.836  11
   5   3 -13 2582.02 689.767  11
   5  -3  13 3196.13 615.656   2
   5   3 -13 1969.82 557.263   1
  -5  -3  13 3028.79 746.175   2
   5   3 -13 1676.18 648.702  10
   3  -5  13 667.839 210.750   2
  -3   5 -13 2543.72 389.843  18
   5   3 -13 2453.51 611.389  18
  -5  -3  13 3081.92 733.822  17
   3   5 -13 3076.61 655.987  18
  -3   5 -13 2010.65 495.074   4
   5  -3  13 3004.84 592.829   8
  -3   5 -13 3378.30 574.020  11
   3  -5  13 2277.87 670.498   6
  -3  -5  13 2031.98 694.553   2
   3  -5  13 2676.94 438.085   8
  -3  -5  13 2140.68 637.000  17
  -5   3 -13 1924.86 507.495   9
  -5   3 -13 1908.75 545.420  10
   3  -5  13 3680.25 503.923  17
  -5   3 -13 1145.11 339.963  19
   5   3 -13 3168.06 886.891   9
  -3  -5  13 2068.95 559.519  16
  -5  -3  13 1880.10 351.286   4
   3  -5  13 2491.15 686.164  16
   5  -3  13 3110.87 775.910  16
   3   5 -13 582.370 347.018   1
   3   5 -13 2560.34 765.810   7
  -5   3 -13 1412.16 692.449   7
   3   5 -13 2351.73 729.557  15
   5  -3  13 2841.86 680.415   6
  -5   3 -13 1945.60 804.446  15
   5  -3  13 2609.91 650.697  14
   3  -5  13 3378.29 523.011  14
   3   5 -13 2601.87 569.630   3
  -3   5 -13 1951.98 571.998   3
  -3  -5  14 59.1481 141.700   6
   5   3 -14 140.282 35.9114   1
   5  -3  14 441.091 336.909   6
   3  -5  14 692.919 330.512   6
   5  -3  14 504.801 244.421   2
  -3   5 -14 562.636 251.959  11
  -3   5 -14 84.7500 64.6242  13
   3   5 -14 450.899 333.615  13
   3   5 -14 381.615 248.105   3
  -3   5 -14 171.121 164.876  12
   3   5 -14 369.996 156.064  12
  -3   5 -14 186.110 179.854   3
  -5  -3  14 486.459 306.581   2
   3   5 -14 329.495 210.002  11
   5   3 -14 285.866 210.322  11
   3  -5  14 201.468 209.085   2
  -5   3 -14 147.597 149.475   9
  -5  -3  14 534.142 278.861   5
  -5   3 -14 290.065 227.294  10
   5   3 -14 64.8036 160.148  10
  -3   5 -14 337.800 139.866  18
   3  -5  14 487.662 195.721  17
   3  -5  14 567.810 374.442  16
   5  -3  14 427.254 237.952   8
   5   3 -14 206.751 150.240   9
   3   5 -14 78.0198 266.972  18
   5   3 -14 380.750 221.442  18
  -5   3 -14 133.988 104.214  19
   3  -5  14 399.398 175.458   8
  -3  -5  14 530.547 331.360  17
  -3  -5  14 371.285 301.238   2
   3   5 -14 251.056 280.083   1
  -5   3 -14 35.5784 278.993   7
  -3  -5  14 346.178 204.031  16
  -5  -3  14 409.514 251.449  17
   5  -3  14 759.276 426.953  16
  -5  -3  14 391.164 190.812  16
   3   5 -14 319.632 285.916   7
  -5  -3  14 290.896 111.319   4
  -3   5 -14 272.065 127.104  19
  -5   3 -14 120.215 237.546  15
   3   5 -14 425.125 379.183  15
   5   3 -14-63.6962 75.7847  14
   5  -3  14 224.538 87.6960  14
   3  -5  14 418.576 202.896  14
  -3   5 -14 133.590 68.2491   4
  -3   5 -15 269.144 141.977  13
   3   5 -15 855.019 496.768  13
  -3   5 -15 562.892 298.122  12
   3   5 -15 685.165 225.992  12
   3   5 -15 681.266 305.719   3
   3   5 -15 255.111 241.451   1
   5   3 -15 394.631 376.348   9
   3   5 -15 696.150 408.629  11
  -3   5 -15 921.887 300.519  11
  -5  -3  15 1160.58 472.755  17
  -3   5 -15 618.286 410.006  10
   3   5 -15 1174.75 641.554  10
   5  -3  15 1193.63 392.377   2
  -3  -5  15 706.028 391.544  17
  -3   5 -15 402.594 299.406   3
  -5  -3  15 752.648 313.620   5
  -5   3 -15 201.733 176.548   9
   5   3 -15 372.283 314.917  10
  -5   3 -15-117.194 560.563   7
  -3   5 -15 1047.01 759.791   7
   3  -5  15 609.394 386.420  16
  -3   5 -15 624.411 203.425  18
   3  -5  15 644.538 379.137   2
  -3  -5  15 662.706 422.186   2
   5   3 -15 332.525 212.740   1
   5  -3  15 959.127 364.613   8
  -5  -3  15 671.782 196.719   4
   3  -5  15 834.042 259.265  17
  -5   3 -15 204.514 183.432  19
   3  -5  15 678.795 221.970   8
  -5   3 -15 210.610 145.110  10
   3  -5  15 412.050 357.282   6
   5   3 -15 607.038 321.356  18
  -3  -5  15 816.271 372.515  16
   3   5 -15-161.031 490.936   7
   5  -3  15 709.749 386.161  16
  -5  -3  15 671.291 295.632  16
   3   5 -15-59.9451 441.389  15
   3   5 -15 469.032 342.515  18
  -5   3 -15 85.4861 133.454  15
  -3   5 -15 817.412 580.805  15
   5  -3  15 380.577 247.419  14
   5   3 -15 36.1362 82.5068  14
  -5  -3  15 807.059 391.641   2
  -3   5 -15 497.213 158.128  19
   3  -5  15 775.165 298.093  14
   5   3 -15 736.863 420.351  11
  -3  -5  15 40.1448 53.7263   6
   5  -3  15 791.766 383.938   6
  -5  -3  16 94.7900 155.829   5
  -3   5 -16 9.50108 105.607  12
   5   3 -16 321.803 397.150  10
   3   5 -16 134.801 230.741  13
   5  -3  16-60.2149 155.215   8
   3   5 -16 21.9629 49.9968  12
   3   5 -16 7.21999 41.6905   3
   3  -5  16 61.3016 160.776   6
  -3   5 -16 73.6308 223.681   3
   5   3 -16-25.7915 65.1216   1
   3  -5  16 58.9911 110.848   8
   3   5 -16-305.581 249.274  11
   3   5 -16 85.0579 64.5041   1
   5   3 -16 225.185 341.753   9
  -3  -5  16-36.5052 70.1394  16
  -3   5 -16 196.824 158.777  11
  -5   3 -16-68.0529 112.943  19
   5   3 -16 149.894 233.825  11
  -3   5 -16 14.7476 77.8308  18
  -3   5 -16-65.2508 197.672  10
   3   5 -16-163.684 191.361  10
  -3  -5  16-2.65667 122.946   2
  -5   3 -16 101.935 193.781   9
  -5  -3  16 117.556 139.635  17
  -3   5 -16 81.0414 67.0307  19
   3  -5  16 133.719 237.170   2
   3   5 -16 12.5853 81.8274  18
   3  -5  16 85.5490 151.281  16
  -5   3 -16 183.437 203.232  10
  -5  -3  16-15.6242 50.3876   2
   5  -3  16-43.0673 66.0372   2
   3  -5  16 31.0614 32.2771  17
  -3  -5  16 40.2475 135.831  17
   5   3 -16 133.749 209.266  18
   5  -3  16-36.0504 29.8610  16
  -5  -3  16 5.92470 80.5984  16
  -3   5 -16 132.699 312.014   7
  -3   5 -16-19.4214 240.764  15
   5   3 -16-144.800 161.121  14
  -3   5 -16-54.8310 156.711  13
  -5  -3  16-22.3578 60.9707   4
   3  -5  16 6.40500 112.987  14
  -3  -5  16-60.4258 130.240   6
   5  -3  16 5.04826 99.7840   6
   3  -5  17 1240.79 509.277   6
  -3   5 -17 392.270 315.910  13
  -3   5 -17 561.270 298.562  12
   3   5 -17 904.398 288.217  12
   5   3 -17 734.616 356.785   1
   3   5 -17 1241.41 445.009   3
  -3   5 -17 825.955 442.814   3
   3   5 -17 1182.20 525.866  11
   5  -3  17 1910.88 549.832   2
  -3   5 -17 1134.19 362.043  11
   3  -5  17 1060.24 513.380   2
   3   5 -17 574.983 322.893   1
   5   3 -17 375.296 407.431  18
  -3   5 -17 1137.81 507.853  10
   3   5 -17 1274.98 637.280  10
  -5  -3  17 1224.20 396.545   5
  -5  -3  17 1033.96 230.564   4
  -5   3 -17 507.180 293.080  19
  -3   5 -17 1903.53 809.447   9
   3  -5  17 1255.77 555.066  16
  -3   5 -17 780.842 209.710  19
   5  -3  17 1780.06 649.768  16
   3   5 -17 2547.56 1076.56   9
   5   3 -17 748.920 387.142  11
   3  -5  17 1224.54 346.700   8
   3   5 -17 1587.96 500.850  18
  -3  -5  17 1285.18 586.907   2
   3  -5  17 1405.75 356.335  17
   5  -3  17 1714.43 516.688   8
  -3   5 -17 773.364 245.006  18
  -5   3 -17 346.756 343.381   9
  -3  -5  17 1328.55 530.809  16
   5   3 -17 712.769 575.068   9
  -3  -5  17 1610.73 577.838  17
  -5  -3  17 1232.59 518.148  17
   5   3 -17 139.717 275.160  10
  -5  -3  17 1448.18 525.355   2
  -5  -3  17 1379.79 476.583  16
   3  -5  17 542.099 272.645  14
  -3   5 -17 869.010 659.838   7
  -3   5 -17 914.141 594.782  15
  -3  -5  17-13.4282 207.264   6
  -5   3 -17 225.401 202.538  10
   5  -3  17 1207.33 576.062   6
   5  -3  18 935.571 410.581   8
  -3   5 -18 607.174 483.332  13
  -3   5 -18 424.761 305.749  12
  -5   3 -18 29.2712 37.7460  10
   3   5 -18 486.369 201.021  12
   5   3 -18 586.486 706.066   9
  -5   3 -18-76.6662 221.784  19
   3   5 -18 721.180 347.559   3
  -3   5 -18 816.015 462.036   3
   3   5 -18 981.575 497.353  11
  -3   5 -18 220.942 197.885  11
   5   3 -18 554.417 339.325  18
   5   3 -18 892.432 520.830  11
  -5   3 -18 179.611 260.054   9
  -3   5 -18 1202.24 590.867  10
   3   5 -18 948.237 503.070  10
  -5  -3  18 814.914 314.400   5
  -3   5 -18 1120.25 656.254   9
   3  -5  18 851.951 541.658   6
   3   5 -18 371.114 354.749  18
  -3  -5  18 1390.05 525.588  17
   3  -5  18 825.848 307.689   8
  -5  -3  18 1582.01 605.835  17
   3  -5  18 984.055 306.374  17
   5   3 -18 194.822 175.490   1
   5  -3  18 1179.42 414.931   2
   3   5 -18 109.492 113.881   1
  -3  -5  18 1094.16 457.819  16
   3  -5  18 1130.34 594.887  16
  -5  -3  18 455.820 336.704   2
  -5  -3  18 491.843 363.189  16
  -3   5 -18 386.568 300.929   7
   5  -3  18 740.146 404.966  16
  -3  -5  18 701.219 416.232   2
  -3   5 -18 760.961 603.520  15
   3   5 -18 1583.74 973.593   9
  -3  -5  18 17.1942 168.745   6
  -3   5 -18 317.911 171.845  18
   5  -3  18 849.594 515.657   6
   5   3 -18-204.915 155.675  10
   3  -5  18 1000.03 520.563   2
  -5   3 -19 136.245 185.470  10
  -3   5 -19 1078.63 565.645  13
  -3   5 -19 982.855 468.205  12
   3   5 -19 1087.85 344.060  12
  -3  -5  19 1623.63 684.610   2
   5   3 -19 902.468 437.140  18
  -5  -3  19 1508.81 448.875   5
   3   5 -19 1141.28 486.128   3
  -3   5 -19 822.111 566.310   3
   5  -3  19 1745.22 585.111   8
   3   5 -19 1378.98 563.737  11
   5  -3  19 2200.92 656.677   2
  -3   5 -19 845.401 321.881  11
   5   3 -19 714.257 383.700  11
  -3   5 -19 1392.89 657.552  10
   3   5 -19 941.994 712.919  10
   5   3 -19 316.718 366.208  10
   5   3 -19 282.241 284.470   9
  -5   3 -19 52.4924 150.870   9
   3  -5  19 1738.68 416.826   8
   3  -5  19 1713.41 701.873   2
   3  -5  19 1697.91 673.830  16
   3   5 -19 609.869 471.568  18
  -3  -5  19 1864.16 636.266  17
  -3   5 -19 1531.38 632.644   9
   5   3 -19 407.975 266.174   1
  -3  -5  19 1320.12 527.679  16
  -5  -3  19 1182.66 576.604   2
   3   5 -19 189.639 257.063   1
  -3   5 -19 107.663 598.907   7
   5  -3  19 1822.76 770.976  16
  -5  -3  19 1082.25 466.843  16
  -3   5 -19-161.594 552.113  15
  -5  -3  19 1699.80 575.588  17
  -5   3 -19 207.924 234.763  19
   3  -5  19 1464.92 387.321  17
  -3  -5  19-523.608 573.106   6
   5  -3  19 1525.68 764.285   6
   3   5 -19 2044.65 911.276   9
   3  -5  19 1147.42 494.367   6
   5  -4   2 41.3087 48.9425   6
   5  -4   2 101.715 80.4464   8
   5  -4   3 90.6034 100.576  14
   5  -4   3 50.4729 54.9909   6
   5  -4   3 80.1243 42.4806   8
  -5   4  -3 200.694 145.926  12
  -5  -4   3-112.690 196.466  17
  -5   4  -3 176.755 121.992  19
  -5   4  -4 372.312 165.869  19
   5  -4   4 277.570 188.824   6
   4  -5   4 78.7459 97.6767   6
  -5   4  -4 376.649 193.870  12
   5   4  -4 62.5915 57.2941   1
   5  -4   4 283.232 167.833   8
  -5  -4   4-156.972 271.371  17
   5   4  -4 375.994 209.288  18
   5  -4   4 254.757 140.863  14
  -5   4  -4 240.473 205.917   3
   5  -4   5 238.520 108.998   1
   5  -4   5 297.668 185.764   6
   4  -5   5 193.273 161.402   6
  -5   4  -5 504.521 231.766  12
  -4   5  -5 338.799 213.115   3
  -4   5  -5 353.495 192.405  12
   5  -4   5 319.323 166.225  14
  -5  -4   5 62.0214 119.439  17
   5   4  -5 338.160 232.210  13
  -5  -4   5-91.3034 255.938   2
  -5   4  -5 318.862 121.602   5
   5  -4   5 331.897 164.555   8
   5   4  -5-10.0732 143.789   8
   5   4  -5 401.789 228.273  18
  -5   4  -5 312.668 211.295   3
  -5   4  -5 404.370 182.657  19
  -5   4  -5 428.374 178.547   4
   5   4  -5 352.374 293.816   1
  -4   5  -6 649.185 322.440   3
  -5  -4   6 192.246 160.995   2
  -5   4  -6 572.143 273.353   3
   4   5  -6 977.290 424.200  13
   5   4  -6 809.502 343.231  13
   4  -5   6 384.625 225.378   6
   5  -4   6 693.428 276.334   6
  -4   5  -6 809.311 291.944  12
  -5   4  -6 795.169 224.413   5
   5  -4   6 768.322 217.553   1
   5   4  -6 929.164 395.833  18
  -5  -4   6 231.045 168.821  17
   4   5  -6 633.858 288.295  18
  -5   4  -6 803.963 265.085   4
   4  -5   6 288.956 158.468  14
   5   4  -6 434.944 174.889   8
   5   4  -6 440.999 304.573   1
  -5   4  -6 733.809 242.997  19
   5  -4   6 576.820 221.132   8
   4  -5   6 195.683 91.3400   8
  -5   4  -6 657.345 272.412  12
  -4  -5   6 63.8550 48.1767  17
   5  -4   6 757.682 267.586  14
   5   4  -7 3105.09 664.920  13
   4   5  -7 2872.77 695.329  13
   5   4  -7 2560.66 644.017  18
   5   4  -7 1722.74 578.148   1
  -4   5  -7 2517.05 612.581   3
  -5   4  -7 2913.60 564.299  12
  -4   5  -7 2750.76 540.479  12
  -5   4  -7 2393.52 396.655   5
  -5   4  -7 2135.60 548.297   3
  -5  -4   7 813.032 290.627  19
   5   4  -7 2114.28 344.082   8
   5  -4   7 2478.19 380.269   1
  -4  -5   7 251.637 274.004  17
  -5   4  -7 2903.16 520.860   4
  -5   4  -7 2504.40 448.757  19
   5  -4   7 2468.50 475.424   8
  -5  -4   7 969.772 415.446  17
  -5  -4   7 1304.54 507.192   2
   4   5  -7 2627.60 709.724  18
   4  -5   7 1383.70 337.789   8
   4  -5   7 1891.32 483.596   6
   5  -4   7 2595.16 574.623   6
   5   4  -7 1100.12 274.395   3
   5  -4   7 2573.65 487.752  14
   4  -5   7 1262.86 320.203  14
   5  -4   8 382.801 182.907  14
  -5  -4   8 47.6089 26.0488   6
  -4   5  -8 314.003 223.770   3
  -5   4  -8 139.455 123.471   3
  -5   4  -8 59.5130 13.0853  13
   4   5  -8 315.939 207.172  13
   5   4  -8 382.258 180.152  13
   5  -4   8 314.951 140.610   1
   4  -5   8 247.641 176.354   6
  -5   4  -8 368.708 201.423   4
  -4  -5   8 138.326 214.016   2
  -4   5  -8 363.782 209.254  12
   5   4  -8 317.040 118.136   8
   4   5  -8 137.739 144.320  18
  -5  -4   8 204.162 200.026   2
   4  -5   8 249.986 132.089  14
  -5  -4   8 110.811 114.417  19
   5  -4   8 420.667 254.978   6
  -5   4  -8 300.254 156.893  19
  -4   5  -8 194.861 86.7197  19
  -4  -5   8 106.890 69.7934   6
   4  -5   8 209.708 141.771   8
  -5  -4   8 101.690 157.717  17
   5  -4   8 145.088 71.2344  17
  -5   4  -8 350.161 154.691   5
   5  -4   8 104.626 124.273  16
   5  -4   8 339.222 188.565   8
   5   4  -8 198.166 130.456  18
  -4   5  -8 295.105 157.942   4
   5   4  -8 292.559 154.474   3
  -4  -5   8 222.181 204.686  17
  -5   4  -8 399.973 229.851  12
   5   4  -8 50.0762 117.755   1
   4   5  -8 190.162 120.944   3
   4   5  -9 1835.72 573.996  13
   5   4  -9 1655.93 543.821  13
  -5   4  -9 474.732 331.478  13
  -4  -5   9 725.239 208.792   6
  -5   4  -9 1231.33 429.125  12
  -4   5  -9 1528.17 410.174  12
  -5   4  -9 1185.74 456.741   3
   4   5  -9 383.388 96.5723   8
   5   4  -9 1488.78 213.702   8
  -5   4  -9 1560.00 348.310   5
  -4   5  -9 1520.11 273.890   5
   5  -4   9 1830.15 325.693   1
   4  -5   9 935.686 182.947   1
  -5  -4   9 1089.78 281.985  19
   5  -4   9 1586.30 393.799   8
   4   5  -9 11.2088 211.383   1
   5  -4   9 1917.17 426.553  14
  -5   4  -9 1356.10 345.773  19
   4  -5   9 631.628 75.3782  16
  -4   5  -9 670.862 325.829  13
  -4  -5   9 473.583 324.692   2
   5   4  -9 1698.30 522.481  18
   4  -5   9 1217.66 326.663   8
   4   5  -9 1538.50 487.988  18
  -4   5  -9 1194.79 271.842  19
  -5  -4   9 937.351 447.236   2
   4  -5   9 1343.49 441.163   6
   5  -4   9 1637.40 549.515  16
  -4   5  -9 1582.16 370.228   4
  -5  -4   9 1073.48 436.613  17
  -5  -4   9 713.019 276.810  16
   5   4  -9 692.547 225.164   7
   5   4  -9 1307.58 554.954   1
   4  -5   9 556.718 141.522  17
   5   4  -9 602.303 159.348  15
   4   5  -9 1420.91 372.745   3
   5  -4   9 1594.05 482.010   6
   5   4  -9 1579.31 373.354   3
  -4   5  -9 1521.33 477.266   3
   4  -5   9 1424.94 342.282  14
  -5   4  -9 1404.87 384.873   4
  -4  -5   9 920.523 474.286  17
  -5  -4  10 886.128 242.674  19
   4   5 -10 1387.70 480.527  18
  -4   5 -10 902.757 237.007  19
  -4  -5  10 442.371 131.999  19
   5   4 -10 1828.63 597.917  13
  -4   5 -10 606.482 307.427  13
  -4  -5  10 309.806 122.738   6
  -5   4 -10 1498.35 570.145  13
  -4   5 -10 1097.92 346.868  12
   4   5 -10 1691.92 549.084  13
  -4   5 -10 890.077 377.470   3
   4  -5  10 897.882 389.527   6
   5   4 -10 2388.33 783.993  11
  -5   4 -10 1592.01 293.967  11
  -4   5 -10 1074.70 228.096   5
   5   4 -10 1351.52 619.019   1
  -5  -4  10 767.577 394.802   2
   4  -5  10 1022.22 186.252   1
  -5  -4  10 643.109 354.772  17
  -5   4 -10 1724.84 411.281  19
  -5  -4  10 1077.34 436.256  16
   5   4 -10 1761.72 566.097  18
  -5   4 -10 1123.00 372.198   5
  -5   4 -10 1285.77 481.776   4
   5  -4  10 1487.72 401.888   8
  -4   5 -10 1165.80 239.937  18
  -4  -5  10 525.641 272.680   2
   4  -5  10 1111.23 257.523  17
  -4  -5  10 458.199 295.372  17
   5  -4  10 960.114 153.311  17
   4  -5  10 860.157 266.810   8
  -4  -5  10 234.775 217.943  16
   4  -5  10 451.428 140.690  16
   5  -4  10 1282.12 433.775   6
   5  -4  10 1253.85 493.566  16
   4   5 -10 529.533 396.115   1
  -4   5 -10 1113.78 312.299   4
   4   5 -10 1023.91 352.979   3
   5  -4  10 1434.80 395.879  14
   4  -5  10 1044.52 298.299  14
   5  -4  10 758.058 246.712   1
  -4  -5  11 167.152 192.299  17
   5  -4  11-80.0350 48.1010  14
  -4   5 -11 108.115 144.709  13
  -4  -5  11 93.7694 72.7958   6
   5  -4  11-49.6486 118.764   6
   4   5 -11 40.4850 91.7374   3
   4   5 -11 19.7014 114.709   1
  -5   4 -11-71.7651 91.6561  13
  -5   4 -11-84.5598 142.612  12
   4   5 -11-100.369 113.814  13
   5   4 -11 53.9597 115.920  13
   5   4 -11-55.2187 68.6176   3
  -4   5 -11-2.85076 81.1458   3
  -4   5 -11-52.8828 103.220  12
  -5   4 -11 26.2762 85.2144   3
   5   4 -11-7.27316 42.4948  12
   5   4 -11-24.4579 136.933  11
  -5  -4  11 30.5208 116.514   5
  -5   4 -11-24.9299 59.8117  11
  -5   4 -11-50.6453 129.082   5
   4  -5  11 146.355 161.948   6
  -4   5 -11 19.3996 50.9637   5
   5  -4  11 8.60214 1.87122  17
   4  -5  11 235.435 143.031  17
   5  -4  11 29.0141 108.070   1
   5   4 -11 176.247 198.350   1
  -4  -5  11 105.943 81.3884  19
  -5   4 -11-23.9490 34.4340  19
   5  -4  11 26.2050 39.9177   8
  -4   5 -11 7.58747 20.7825  19
  -4   5 -11 12.2394 64.0588  18
  -5   4 -11-1.65257 6.00377  18
  -4  -5  11 156.531 228.301   2
   5   4 -11-19.6503 100.413  18
  -5  -4  11-32.0801 166.885  17
   4  -5  11 58.2957 103.815  14
  -4   5 -11 21.8375 66.7318   4
  -5  -4  11 226.259 282.900   2
   4  -5  11 56.1886 68.8438   8
  -4  -5  11-191.679 209.584  16
   4  -5  11 199.654 236.113  16
  -5  -4  11 47.2507 127.673  16
   5  -4  11 81.6895 233.605  16
  -5  -4  11-162.297 198.233   6
  -5   4 -11-21.4363 63.7899   4
  -5  -4  11 64.8016 52.9711  19
   4   5 -11-49.0682 58.1588  18
   5   4 -12 451.697 338.356   1
   4  -5  12 742.239 256.854  14
   4   5 -12 530.167 250.184   3
   5  -4  12 568.988 279.888   6
  -5   4 -12 585.534 329.794  13
  -5   4 -12 407.289 234.163   4
   5   4 -12 855.345 405.311  13
  -4   5 -12 541.566 317.713   3
   5   4 -12 552.145 232.230   3
  -5   4 -12 522.054 293.738  12
  -4   5 -12 354.064 267.496  13
   4  -5  12 759.802 199.681  17
  -5   4 -12 622.907 338.740   3
  -4   5 -12 888.140 289.088  11
   5   4 -12 861.275 383.739  11
  -5  -4  12 112.657 161.166   5
  -5   4 -12 503.738 167.442  11
  -4   5 -12 361.750 146.994   5
  -4  -5  12 168.875 138.458   6
   5   4 -12 822.206 499.732  10
   4   5 -12 621.705 341.359  18
   4   5 -12 688.343 369.083  15
  -4   5 -12 363.132 208.725  12
  -4   5 -12 520.665 176.601  19
  -4   5 -12 699.481 165.130  18
  -4  -5  12 267.886 238.571   2
  -4  -5  12 324.993 233.946  17
   5   4 -12 684.443 363.786  18
  -4  -5  12 517.748 269.550  16
  -4  -5  12 238.089 85.5239  19
   5  -4  12 791.747 395.984  16
   4   5 -12 483.986 348.303   1
  -5  -4  12 634.566 345.659  17
  -5  -4  12 547.356 344.946   2
   4  -5  12 618.477 338.683  16
   5   4 -12 440.031 122.084  12
   4  -5  12 765.997 390.062   6
  -4   5 -12 615.660 254.841   4
   5  -4  12 627.327 233.767   8
   4   5 -12 515.516 163.911  12
   4  -5  12 674.074 241.469   8
  -5  -4  12 480.661 239.025  16
   4   5 -12 723.816 346.829  13
   4   5 -12 852.119 405.920   7
  -5   4 -12 407.399 393.625  15
  -5  -4  12 316.378 112.610  19
  -5   4 -12 584.996 235.670  19
   5  -4  12 751.207 305.679  14
   5  -4  12 265.857 79.0172  17
   4  -5  13 490.247 396.634   6
   5   4 -13 764.447 286.881   3
   5   4 -13 688.898 165.817  12
   4  -5  13 840.622 301.344  14
   5   4 -13 490.463 304.739   1
  -4  -5  13 606.161 335.529  17
  -5  -4  13 573.245 313.645  17
  -4   5 -13 721.276 183.162  18
  -4   5 -13 482.635 346.963  13
  -5   4 -13 167.650 132.788  13
   4   5 -13 738.956 340.252  13
   4   5 -13 806.528 305.376   3
   4   5 -13 635.219 184.180  12
  -5   4 -13 564.120 273.724  12
   4  -5  13 736.448 258.433   8
  -4   5 -13 657.316 331.827   3
  -4   5 -13 393.838 242.079  12
   5   4 -13 1224.93 499.092  11
  -5   4 -13 300.806 273.210   3
   4   5 -13 1118.53 439.334  11
  -4   5 -13 877.534 248.612  11
  -5  -4  13 335.456 233.443   5
  -5   4 -13 482.315 176.961  11
  -5   4 -13 637.060 321.806  10
   5   4 -13 557.027 352.559  10
   5  -4  13-37.5701 331.330   2
   5   4 -13 721.973 338.281  18
  -4   5 -13 596.751 206.964  19
   5  -4  13 701.567 291.358   8
   4   5 -13 288.680 202.976   1
   5  -4  13 765.289 373.046   6
   4   5 -13 792.607 355.292  18
  -5   4 -13 177.715 89.1110   4
  -4  -5  13 577.940 397.867   2
  -4   5 -13 637.372 294.290   4
   4  -5  13 928.068 237.547  17
  -5   4 -13 707.815 532.353   7
  -5  -4  13 738.856 454.470   2
  -4  -5  13 519.019 301.005  16
  -5  -4  13 658.517 312.801  16
   5  -4  13 888.396 410.230  16
   5  -4  13 917.876 338.196  14
   4   5 -13 341.818 208.071   7
   4  -5  13 715.136 356.016  16
   4   5 -13 276.562 111.207  15
  -5   4 -13 748.289 558.333  15
  -5   4 -13 486.684 212.511  19
  -4  -5  13 58.9566 35.9929   6
   5  -4  14 314.949 261.276   6
  -5   4 -14 238.477 371.208   7
   5  -4  14 288.048 146.897   2
  -4   5 -14 239.791 272.629  13
  -4   5 -14 503.764 227.711  11
   5   4 -14 245.865 177.508   1
   4   5 -14 538.148 243.555   3
  -5   4 -14 434.196 286.503  12
  -4   5 -14 277.472 180.792  12
   5   4 -14 382.952 129.863  12
   4   5 -14 421.001 164.164  12
   5   4 -14 362.941 239.763   3
   4  -5  14 507.310 345.731   6
  -5   4 -14 222.327 296.298   3
   4   5 -14 718.769 403.110  11
   5   4 -14 572.743 371.856  11
   4   5 -14 185.692 225.899   1
  -5  -4  14 136.605 136.706   5
  -5   4 -14 164.552 105.630  11
  -4   5 -14 196.717 200.420   4
   4  -5  14-217.801 451.898   2
  -5   4 -14 317.603 141.610  10
   5   4 -14 432.798 394.234  10
  -5   4 -14 660.336 417.296   9
  -5   4 -14 314.740 185.617  19
  -4   5 -14 209.484 205.182   3
   5   4 -14 509.102 303.451  18
  -4   5 -14 318.307 124.783  18
  -5   4 -14 329.652 186.533  13
   4   5 -14 585.731 307.469  18
  -4  -5  14 410.977 175.119  16
  -4   5 -14 213.525 108.227  19
  -4  -5  14 39.8815 38.6783   6
   5  -4  14 369.884 211.743   8
   4   5 -14 344.941 282.292  13
  -5  -4  14 598.879 352.464   2
   5   4 -14 787.206 598.250   9
   4  -5  14 533.216 185.294  17
   4  -5  14 246.964 109.825   8
  -5  -4  14 441.089 239.770  16
   5  -4  14 716.417 382.018  16
   4  -5  14 430.522 302.591  16
  -5  -4  14 693.058 366.917  17
  -4  -5  14 383.669 206.550   2
  -5   4 -14 263.607 337.067  15
  -4  -5  14 233.087 170.951  17
   5  -4  14 382.718 261.405  14
   4  -5  14 392.476 197.372  14
   4  -5  15 204.773 317.733  16
   5  -4  15 173.297 235.484   2
   5  -4  15 98.6305 115.930   6
  -5   4 -15 70.6976 61.3436  19
  -5   4 -15 280.671 208.251  10
   4   5 -15 342.434 324.608  13
  -5   4 -15 273.200 279.484  13
  -5  -4  15 202.058 213.907  17
  -4   5 -15 333.104 342.850  13
  -5   4 -15 437.435 341.673  12
   5   4 -15 346.047 318.194   1
   5  -4  15 169.243 132.197   8
   4   5 -15 181.532 153.778   3
   5   4 -15 146.885 85.4757  12
  -4   5 -15 241.060 211.243  12
   4   5 -15 208.189 112.850  12
  -4   5 -15 275.806 268.722   3
   5   4 -15 354.597 234.011   3
   4   5 -15 205.097 299.660  11
   5   4 -15 57.4911 79.8772  11
  -4   5 -15 187.993 124.189  11
  -5  -4  15 188.546 248.102   5
  -5   4 -15 41.9997 73.8109  11
  -4   5 -15 169.509 161.748  10
   4   5 -15 522.240 428.093  10
   5   4 -15 278.808 374.927  10
  -4   5 -15 278.042 132.371  19
  -5   4 -15 509.323 611.441   7
   4   5 -15 107.067 158.140  18
  -4   5 -15 92.7318 59.9220  18
   5   4 -15 194.945 203.377  18
  -4  -5  15 264.532 213.400  17
  -5  -4  15 113.734 153.676   2
  -5   4 -15 377.493 329.813   9
   4  -5  15 141.871 119.831   8
  -5   4 -15 396.932 422.177  15
   4  -5  15-59.2676 258.592   2
  -4  -5  15 146.995 201.243  16
   4  -5  15 64.1311 139.617   6
  -5  -4  15 190.755 155.752  16
   5  -4  15 308.617 215.402  16
  -4   5 -15 438.420 511.975   7
   4   5 -15 209.296 246.968   1
  -4   5 -15 287.838 420.588  15
  -4  -5  15 188.270 217.183   2
  -4  -5  15-31.6413 46.5289   6
   5  -4  15 241.870 179.871  14
   4  -5  15 98.4326 103.034  14
   5   4 -15 334.577 408.648   9
   4  -5  15 324.001 154.307  17
   5  -4  16 402.201 229.377   8
   4  -5  16 184.290 245.590   6
  -4   5 -16 377.893 346.958  13
   4   5 -16 319.754 312.727  13
   5   4 -16 232.675 143.762  12
   4   5 -16 412.608 237.573   3
   4   5 -16 340.569 159.056  12
   5   4 -16 255.231 297.130   1
  -4   5 -16 94.8949 140.146   3
  -4  -5  16 25.0661 124.381   6
   4   5 -16 362.461 359.809  11
   5   4 -16 266.163 239.458  11
  -4   5 -16 244.922 192.440  11
  -5  -4  16 306.588 267.938   5
  -5  -4  16 115.313 153.970  17
  -5   4 -16 48.1907 43.4086  11
  -4   5 -16 365.773 340.797  10
   4   5 -16 497.401 471.257  10
  -5   4 -16 827.038 455.198  10
   5   4 -16-148.768 284.394  10
  -5  -4  16 195.216 237.207   2
   4  -5  16 160.083 186.887   2
   4  -5  16 364.256 291.634  16
  -4   5 -16 122.724 68.7856  18
   5  -4  16 375.824 308.699   6
  -5   4 -16 178.571 156.316  19
   4   5 -16 307.245 301.885  18
   5   4 -16 7.76865 83.4800  18
  -4   5 -16 533.964 481.464   9
  -5  -4  16 91.9824 145.588  16
  -4   5 -16 257.373 147.696  19
  -4  -5  16 103.063 154.635  17
   4  -5  16 308.319 191.301   8
   4  -5  16 264.702 146.106  17
  -5   4 -16 398.148 314.277   9
   5  -4  16 296.494 242.020   2
  -4  -5  16 295.082 247.744  16
  -4   5 -16 96.2036 133.961  12
   4   5 -16 169.806 242.691   1
   5  -4  16 145.193 172.914  16
  -5   4 -16 127.725 292.895   7
  -4   5 -16 497.798 567.275   7
  -4  -5  16-76.7691 171.758   2
  -5   4 -16-94.0571 114.926  15
  -4   5 -16-106.811 307.975  15
   5  -4  16 383.501 308.076  14
   4  -5  16 302.743 249.783  14
   5   4 -16 303.799 479.400   9
   4   5 -17 960.129 854.093   9
   4  -5  17-81.9071 237.481   6
  -4   5 -17-11.4534 186.528  13
   4   5 -17 430.404 440.876  13
  -4  -5  17 95.2198 302.677  17
  -4   5 -17 99.9215 198.614  12
  -5  -4  17 43.1684 77.3256   2
   4   5 -17 250.822 215.783  12
  -4  -5  17 62.5610 205.937  16
   4   5 -17 99.8685 226.555   3
  -4   5 -17-118.330 212.704   3
   5   4 -17 37.5413 142.017   1
  -5  -4  17 29.7418 93.0463  16
   4   5 -17-7.62288 51.1365  11
  -4   5 -17 43.6626 36.4567  19
   5   4 -17 113.739 319.823  11
  -5   4 -17 115.811 162.032   9
  -4   5 -17 53.1180 85.6168  11
  -5  -4  17 44.2638 89.5861   5
  -4   5 -17 103.941 316.576  15
  -4   5 -17 106.335 190.332  10
   4   5 -17 48.1606 294.385  10
  -5   4 -17-230.635 210.812  10
   5   4 -17 45.8170 140.422  10
   4  -5  17 94.0950 136.860   8
   4  -5  17 29.8105 206.876   2
  -4   5 -17 252.948 385.983   9
   5  -4  17 48.0052 77.7878   2
   4   5 -17 71.1265 253.123  18
   5   4 -17 196.026 150.066  12
   5  -4  17 127.144 104.077   8
  -5   4 -17-11.7787 101.164  19
  -4  -5  17 4.29661 246.698   2
   5   4 -17-1.52967 428.837   9
  -5  -4  17 312.133 287.517  17
   4  -5  17 156.317 102.660  17
   4  -5  17 133.809 208.560  16
   5  -4  17 159.699 184.446  16
  -5   4 -17-123.369 541.666   7
   5   4 -17 147.693 225.560  18
   4   5 -17 41.8432 267.071   1
  -4   5 -17-13.7256 114.762   7
  -5   4 -17-200.516 580.218  15
  -4  -5  17-546.071 557.052   6
   5  -4  17 61.7796 95.2948   6
   5  -4  17-147.597 238.094  14
   4  -5  17 90.8611 200.990  14
   4  -5  18 224.264 331.773   6
  -4   5 -18 51.5045 149.656  13
  -4   5 -18-78.7652 130.476  12
   4   5 -18 265.411 233.508   3
   5   4 -18 352.794 463.217   9
  -4   5 -18 323.305 328.539   3
   5   4 -18 205.395 194.409   1
   4   5 -18 403.590 374.629  11
   5   4 -18-243.504 396.448  10
   5   4 -18-69.9575 214.597  11
  -4   5 -18 181.108 137.878  11
  -5  -4  18 140.377 116.217   5
  -4   5 -18 331.755 159.078  19
  -4   5 -18 238.324 236.341  10
   4   5 -18 464.043 602.037  10
   5  -4  18 268.513 222.465   8
  -5   4 -18-43.9251 76.7310   9
   4   5 -18 1297.52 772.628   9
  -4   5 -18 216.598 203.754   9
  -5   4 -18-27.4534 107.110  19
  -4  -5  18 450.572 340.424  17
   4  -5  18 198.940 210.583   2
   4   5 -18 369.504 255.845  12
   4  -5  18 421.346 386.703  16
   5  -4  18 533.987 362.827   2
  -4   5 -18 21.1884 164.471   7
  -4  -5  18 317.063 326.145   2
   4  -5  18 369.865 201.043   8
  -5  -4  18 382.387 276.242  17
   4  -5  18 191.946 51.8419  17
   4   5 -18 341.376 326.090  18
  -4  -5  18 220.677 289.747  16
  -5  -4  18 278.516 195.107  16
  -5   4 -18-704.425 965.177   7
  -5  -4  18 115.043 37.1096   2
   5  -4  18 145.137 239.557  16
   4   5 -18 370.776 370.920   1
  -5   4 -18 255.708 292.116  10
  -4   5 -18 171.202 339.650  15
   4  -5  18 104.941 240.185  14
   5   4 -18 220.543 209.429  18
   5  -4  18 396.539 384.134   6
   5  -5   4 155.992 155.961   6
  -5   5  -4 94.7205 56.5899  12
   5  -5   4-51.0478 211.468   8
   5  -5   5 29.9213 70.7898  14
   5  -5   5-42.8024 48.4461   6
  -5   5  -5 37.0981 83.8262  12
  -5  -5   5-35.4283 180.066  17
   5  -5   5-105.954 158.870   8
   5   5  -5-121.331 199.601  18
  -5   5  -5-67.6723 197.514   3
  -5  -5   6-35.3767 165.064  17
   5  -5   6 272.190 170.217  14
   5   5  -6 363.219 230.627  13
   5  -5   6 220.666 173.456   6
  -5   5  -6 328.335 202.186  12
  -5   5  -6 287.464 227.341   3
   5  -5   6 195.783 138.561   8
   5   5  -6 540.918 360.053  18
  -5   5  -6 237.887 121.154  19
  -5   5  -7-6.85325 41.8783   3
   5  -5   7 34.1346 63.4211  14
   5   5  -7 7.15982 39.4095  13
   5  -5   7-16.4947 96.7128   6
  -5   5  -7 0.98180 68.7484  12
  -5  -5   7-90.6725 144.068   6
   5  -5   7-69.3046 136.496   1
  -5  -5   7 112.748 317.291  17
  -5  -5   7-405.161 584.717   2
   5  -5   7 48.0813 87.3753   8
  -5   5  -7-35.7696 90.1461   5
   5   5  -7-78.7399 167.763  18
  -5   5  -7-12.2164 35.4439   4
  -5   5  -7-28.5162 31.4938  19
   5   5  -8 2194.48 647.675  13
  -5   5  -8 1374.08 461.421   3
  -5   5  -8 1915.95 493.605  12
   5  -5   8 1318.66 410.512   6
   5   5  -8 2226.13 666.331  18
  -5  -5   8 625.774 182.420   6
  -5   5  -8 1711.85 395.705   4
  -5   5  -8 1666.82 320.098   5
   5  -5   8 1377.59 371.416   8
   5  -5   8 1236.91 269.335   1
  -5   5  -8 1309.84 323.011  19
  -5  -5   8 631.135 295.236   2
   5   5  -8 1434.19 609.757   1
  -5  -5   8 858.095 455.995  17
   5  -5   8 1353.43 355.463  14
  -5   5  -9-333.049 349.241  13
   5  -5   9-29.6350 92.6369   6
  -5   5  -9-40.4028 61.3788  12
  -5  -5   9-114.978 123.446  19
  -5  -5   9-35.6203 52.1953   6
   5  -5   9-5.04315 60.9337  14
   5   5  -9-109.044 222.797  18
  -5   5  -9-23.5024 73.6670  19
  -5  -5   9-119.096 79.8249  17
  -5   5  -9 28.5888 100.152   3
  -5  -5   9-238.825 227.539   2
   5   5  -9-44.3296 56.8042   8
   5  -5   9-177.352 132.077   8
   5   5  -9-104.958 116.155  13
  -5   5  -9-12.8002 53.0837   4
  -5   5  -9-13.6550 43.4641   5
   5  -5   9-9.47337 4.05991   1
   5   5  -9-103.985 198.319   1
   5   5  -9-23.4887 60.7936   3
  -5  -5  10 86.5370 73.9700   6
   5   5 -10 26.3536 45.8684   3
   5  -5  10 11.1451 60.1464  14
  -5   5 -10 48.7013 69.5185  19
  -5   5 -10 165.856 269.540  13
   5  -5  10-47.3836 78.0328   6
  -5   5 -10 103.364 160.474  12
  -5   5 -10 143.134 210.321   3
  -5  -5  10 66.1459 174.753   2
  -5   5 -10 108.754 98.1749   5
   5  -5  10-25.5128 47.6362  17
  -5  -5  10-77.9700 189.445  17
   5   5 -10 61.4741 164.472  18
   5   5 -10-37.6421 78.5375   1
  -5  -5  10 51.1142 116.430  19
   5   5 -10 8.59075 17.0285   8
   5  -5  10 36.0028 79.0224   8
  -5   5 -10 110.917 112.248   4
   5  -5  10-259.266 323.754  16
  -5   5 -10 36.7889 23.6126  18
   5  -5  10 55.9143 91.0914   1
   5   5 -10 60.9413 71.5205  13
   5  -5  11 4.56722 55.0350  14
  -5   5 -11-42.3981 63.8798   4
   5   5 -11-36.3282 92.4031   3
  -5   5 -11-30.2152 59.0300  13
   5  -5  11-39.4993 140.761   6
   5  -5  11-29.3603 43.6244  17
  -5   5 -11 108.916 192.458   3
  -5  -5  11-17.2846 35.3413  19
  -5   5 -11 35.7410 84.9351  12
   5  -5  11 16.8078 65.4439   1
   5   5 -11-62.1938 148.782  18
  -5   5 -11-49.8982 90.3093   5
  -5  -5  11-155.964 231.553  16
   5   5 -11 63.5022 214.506   1
   5   5 -11 9.82871 125.885  15
  -5   5 -11 62.6988 92.9911  19
   5   5 -11 16.7874 128.888   7
  -5  -5  11 18.7813 75.7854   6
  -5  -5  11-23.1306 110.606  17
  -5  -5  11 92.3509 196.547   2
  -5   5 -11-11.7969 22.5398  18
   5  -5  11 46.5884 102.051  16
   5  -5  11-108.161 103.070   8
   5   5 -11-76.4649 121.326  13
   5  -5  12 676.010 250.773  14
   5  -5  12 297.051 274.635   6
  -5  -5  12 128.841 144.982   6
  -5   5 -12 251.629 253.788  13
   5   5 -12 714.851 307.093  13
  -5   5 -12 325.188 216.341   3
   5   5 -12 181.906 300.890   1
  -5   5 -12 142.413 69.8842  12
  -5  -5  12 288.765 106.483  19
   5   5 -12 730.889 456.923  11
  -5   5 -12 403.126 236.001   4
  -5   5 -12 549.506 173.220  11
  -5   5 -12 327.648 200.470   5
   5  -5  12 503.659 341.372  16
  -5   5 -12 439.621 116.105  18
  -5  -5  12 202.986 266.099   2
   5   5 -12 404.722 275.430  18
   5  -5  12 100.753 89.8176   1
   5   5 -12 549.479 247.882   3
  -5  -5  12 395.414 264.366  17
   5  -5  12 480.331 143.492  17
   5  -5  12 484.803 216.827   8
  -5  -5  12 300.249 168.269  16
   5   5 -12 53.0439 185.305   7
   5   5 -12 66.2460 202.862  15
  -5   5 -12 351.996 154.071  19
   5   5 -13 142.214 107.119  13
  -5   5 -13 10.7396 97.9190  19
   5  -5  13 27.2612 158.399   6
  -5   5 -13-127.758 181.733  13
  -5   5 -13-74.3840 172.120   3
  -5   5 -13-24.2645 87.6390  12
   5   5 -13-58.4060 78.7781  12
   5   5 -13-18.7920 142.725  11
  -5   5 -13 74.7045 129.904  11
  -5  -5  13 59.7959 113.508   6
   5   5 -13-5.30873 38.6712  18
   5  -5  13 83.3252 100.976   8
   5   5 -13 29.2867 90.1179   3
  -5   5 -13 11.3877 142.632   4
  -5   5 -13 16.7577 43.8042  18
  -5  -5  13 60.3686 202.587  17
   5  -5  13 23.2716 33.3162  17
   5  -5  13-61.1362 80.8464  16
   5   5 -13-35.1748 197.334   1
  -5  -5  13 45.9010 100.384  16
  -5  -5  13-36.4250 48.5733   2
   5  -5  13 5.40792 105.974  14
  -5  -5  13 14.2945 35.0913  19
   5   5 -14 949.393 322.447   3
   5  -5  14 963.269 340.395  14
   5   5 -14 647.860 178.006  12
   5   5 -14 652.442 418.416   1
  -5   5 -14 672.631 361.621  12
  -5   5 -14 559.844 345.686   3
   5  -5  14 819.350 297.094   8
   5   5 -14 1344.52 511.901  11
  -5   5 -14 853.184 263.244  11
   5   5 -14 1553.84 720.459  10
  -5   5 -14 682.815 531.024  15
   5   5 -14 854.962 396.778  18
  -5  -5  14 551.538 291.783  16
  -5  -5  14 551.497 305.666   2
  -5   5 -14 447.998 294.111   4
  -5   5 -14 299.959 272.363  13
  -5  -5  14 764.154 390.873  17
  -5   5 -14 386.968 126.228  18
   5  -5  14 665.061 168.120  17
  -5   5 -14 468.132 200.678  19
   5  -5  14 1005.73 443.072  16
   5   5 -14 526.530 308.612  13
  -5  -5  14 127.206 192.677   6
   5  -5  15-59.7653 51.5701  17
  -5  -5  15 234.764 208.717  16
  -5   5 -15 326.114 347.487  13
   5   5 -15-82.2504 67.1109  13
   5   5 -15-74.9040 93.7715   3
   5   5 -15-7.31416 12.5341  12
   5   5 -15 411.279 422.587  11
  -5   5 -15-21.3988 63.5324  11
   5   5 -15 19.0129 121.609  10
  -5   5 -15 111.915 127.381  19
  -5   5 -15 72.4016 141.188   3
  -5   5 -15-95.8246 94.9861  12
  -5  -5  15-44.0674 138.487  17
   5  -5  15 19.4771 127.637   6
   5   5 -15 3.43050 73.8379  18
  -5   5 -15-39.1608 167.143   4
   5  -5  15 12.1582 95.2351   8
   5  -5  15 10.9583 84.7943  14
   5  -5  15 77.6089 205.119  16
  -5   5 -15 140.145 248.734  10
   5   5 -15-98.2648 176.591   1
  -5   5 -15 303.203 484.523   7
  -5   5 -15 299.785 406.335  15
  -5  -5  15-413.085 426.959   6
  -5  -5  15-80.6136 165.411   2
   5  -5  16 22.3588 172.491   6
  -5   5 -16 20.0240 47.3904  19
  -5   5 -16 148.010 118.238   3
   5   5 -16 131.706 162.601  13
   5   5 -16 27.3244 50.6534   3
  -5   5 -16 110.649 222.570  12
  -5  -5  16-71.3765 205.911   2
   5   5 -16 1532.33 1036.09   9
  -5   5 -16 210.864 373.896  15
   5   5 -16 39.8501 95.5060  12
  -5   5 -16 236.461 216.044  13
   5   5 -16 75.4597 409.321  10
   5   5 -16 193.630 251.914  11
  -5   5 -16-34.7531 56.7389  11
   5   5 -16 8.22275 88.8122  18
  -5   5 -16-13.4296 156.004  10
   5  -5  16-414.526 575.781   2
  -5   5 -16 275.999 355.505   9
  -5  -5  16 129.664 178.603  16
  -5  -5  16 115.747 281.396  17
   5  -5  16-32.8317 40.5698   8
   5  -5  16 113.307 253.802  16
   5   5 -16 200.752 395.836   1
  -5   5 -16 368.789 482.657   7
   5  -5  16 32.6177 104.904  14
   5   5 -17 1865.31 611.788   3
   5  -5  17 292.034 310.348   6
  -5   5 -17 297.390 324.957   9
  -5   5 -17 41.4856 97.9885  13
   5   5 -17 1307.08 740.314  13
   5   5 -17 604.595 313.510  12
  -5   5 -17-1.56884 130.410  12
  -5   5 -17-241.859 242.023   3
   5   5 -17 3336.23 1026.68   1
  -5  -5  17 3307.48 1004.12   2
   5   5 -17 1773.79 821.974  11
  -5   5 -17 155.528 156.044  11
  -5   5 -17 216.822 281.458  10
   5  -5  17-50.2695 359.323   2
   5   5 -17 2024.05 721.984  18
   5  -5  17 311.852 239.924   8
   5  -5  17 57.2799 165.130  14
   5  -5  17 320.856 335.960  16
  -5   5 -17-108.114 65.5687   7
  -5   5 -17 243.795 387.597  15
  -5   5 -17 135.299 147.459  19
   5  -5  18 401.561 320.047   6
  -5  -5  18 108.326 195.584  16
  -5   5 -18 178.937 294.791  12
   5   5 -18 289.247 299.772   3
  -5   5 -18 369.943 383.816   3
  -5  -5  18 94.4560 109.381   2
  -5   5 -18 202.353 142.820  19
   5   5 -18 396.722 437.120  11
  -5   5 -18-62.2024 123.583  11
  -5   5 -18 461.044 488.022  10
   5   5 -18 311.377 554.690  10
  -5   5 -18-24.9928 153.610   9
  -5   5 -18-124.227 153.933  13
   5  -5  18 224.147 39.5028   2
   5  -5  18 186.649 106.532   8
  -5   5 -18-88.5481 362.705  15
   5  -5  18 86.6961 215.443  14
   5   5 -18 491.896 340.380  18
  -5  -5  18 402.201 333.310  17
   5   5 -18 1179.98 835.060   9
  -5   5 -18 96.0823 322.685   7
   5  -5  18 589.545 286.324  16
   5   5 -18 83.8470 223.652   1
  -6   0   0 45.9817 33.9439   3
   6   0   0 150.437 82.6468   6
  -6   0   0 130.171 85.1120  12
   6   0   0 182.891 106.113  11
  -6   0   0 168.784 161.389   5
  -6   0   0 98.3411 85.5853   2
   6   0   0 165.401 170.594   1
  -6   0   0 121.507 117.105  19
   6   0   0 188.093 121.409  18
   6   0   0 114.821 90.0758   8
  -6   0   0 147.772 98.6904  17
  -6   0   0 130.469 128.035   4
   6   0   0 227.307 161.199  14
   6   0   1 11.3822 51.7664   6
   6   0   1 44.5038 82.6796   8
  -6   0   1-20.3559 10.6239  17
   6   0  -1-28.8682 52.7719   6
  -6   0  -1 55.3095 116.736  12
  -6   0   1 72.7120 133.506   4
  -6   0  -1 2.28517 43.6038   3
  -6   0   1 15.2976 54.6181  12
   6   0   1 10.0648 53.1508  11
   6   0  -1 13.2750 59.9162  11
   6   0   1 13.4728 105.256   1
  -6   0  -1 31.6892 37.0726   5
  -6   0   1-23.9765 83.8885   5
   6   0   1 18.2219 46.0777  14
  -6   0  -1-58.5322 64.3935  19
  -6   0  -1 15.3391 62.8446   2
   6   0   1 12.3110 54.4027  18
   6   0  -1 38.4583 59.5443  18
  -6   0  -1-42.6353 83.3664   4
  -6   0   1 42.6547 61.3033   2
   6   0  -1 0.50528 39.8783   8
   6   0  -1-42.6870 120.367   1
  -6   0  -1-62.3993 77.0977  17
  -6   0   1-37.5606 83.1459  19
  -6   0  -1 187.075 191.568   7
  -6   0  -1 123.343 147.866  15
   6   0  -1-7.47136 54.3212  14
   6   0   2 252.632 147.832   6
   6   0   2 228.764 168.508   1
   6   0  -2 307.538 112.834   6
  -6   0   2 108.161 76.6462  12
   6   0  -2 289.536 150.384  11
  -6   0  -2 176.696 160.963   5
  -6   0   2 276.378 169.758  19
  -6   0   2 262.596 183.279   5
  -6   0  -2 214.365 159.437  19
   6   0   2 309.478 135.246  18
   6   0  -2 286.204 151.572  18
   6   0   2 327.230 117.891  16
  -6   0  -2 196.747 172.141   4
   6   0   2 319.799 193.519   8
  -6   0  -2 207.534 114.694  17
  -6   0   2 158.494 120.643  17
   6   0  -2 325.392 175.039   8
  -6   0   2 198.517 138.818   4
  -6   0  -2 264.006 180.259  15
  -6   0   2 192.299 108.650   2
  -6   0  -2 100.303 109.268   7
   6   0  -2 213.535 151.541   1
   6   0   2 377.190 220.277  14
   6   0  -2 275.375 176.477  14
   6   0  -3 24.1261 59.9537  14
   6   0   3 15.5840 31.4008   6
   6   0  -3 1.93124 12.3824   1
   6   0  -3 38.4142 50.9625   6
  -6   0  -3-0.03845 70.7242  19
  -6   0  -3-19.7246 80.9289   5
   6   0  -3-41.3172 75.7917  11
  -6   0   3-25.6540 80.5524   5
  -6   0   3 11.0408 45.7180  19
   6   0  -3-43.6660 97.9949  18
   6   0   3 50.3922 46.8798  18
   6   0   3 29.7668 118.173   8
  -6   0  -3 14.8830 51.1080  17
  -6   0   3 42.1729 69.3650  17
   6   0  -3 6.85878 57.9587   8
  -6   0   3 71.9341 69.1926   4
   6   0   3 2.81003 44.5556  16
  -6   0  -3-12.5891 51.1207   7
  -6   0   3-21.2072 25.9313   2
  -6   0  -3-70.2561 124.323  15
   6   0   3-30.2431 100.664   1
   6   0   3 9.30749 35.1277  14
  -6   0  -3 14.0577 131.405   4
   6   0   4-62.7990 99.0803  14
   6   0  -4 9.27028 31.9800   6
  -6   0   4-0.62738 10.3124  16
  -6   0  -4-67.1821 195.175   5
   6   0  -4-18.0654 34.2111  11
  -6   0   4-10.7587 74.0756   5
   6   0  -4 2.26208 61.5475   1
   6   0   4 26.6938 40.1097   8
  -6   0   4 8.34885 67.0124  19
   6   0  -4 72.7727 109.821  18
   6   0   4-0.27534 63.8105   1
  -6   0  -4 42.0594 49.0122   4
  -6   0  -4 2.83829 42.4649  17
  -6   0   4 44.7332 61.5121  17
  -6   0  -4 66.4203 120.156   7
   6   0   4 36.6951 53.6008   6
   6   0  -4 9.12526 4.94066   8
   6   0  -4 4.50631 34.7845  14
  -6   0   4-2.59799 27.4727   4
   6   0   4 58.6476 56.7495  16
   6   0   4 10.0383 44.5887  18
  -6   0  -4-44.1430 138.827  15
  -6   0   4 44.4630 72.9433   2
  -6   0  -4-2.65028 100.143  19
  -6   0  -5 36.7277 55.2028  19
   6   0  -5 42.8812 91.3185  11
  -6   0   5 2.99553 82.5600  19
   6   0   5 38.9801 148.184   8
   6   0  -5-5.21715 95.6744   1
  -6   0  -5 17.3125 66.3406  17
  -6   0  -5-76.4653 208.115   4
   6   0  -5-23.0968 34.6136  18
   6   0   5 9.74135 51.4836  18
  -6   0   5-0.62485 18.3845   5
   6   0   5-1.67407 73.5493   1
  -6   0   5 41.5080 58.0437  16
  -6   0   5 16.6792 61.9517  17
   6   0  -5 9.43031 70.9999   8
  -6   0  -5-69.2253 248.395   7
  -6   0   5-31.6040 61.3459   4
   6   0  -5-9.34226 53.0698  14
   6   0   5-0.41931 79.7332  16
  -6   0  -5-247.632 214.966  15
   6   0   5-86.5390 142.902  14
  -6   0   5-30.3950 66.6395   2
   6   0   5 25.4508 118.307   6
   6   0   6 685.639 315.434   8
   6   0  -6 679.666 239.785  14
   6   0  -6 914.560 332.239   1
  -6   0   6 784.613 265.121   5
   6   0  -6 705.712 285.976  11
  -6   0   6 895.640 265.845  19
   6   0   6 344.225 193.917   1
  -6   0   6 794.396 232.527   4
  -6   0   6 516.903 241.720  17
   6   0  -6 581.416 249.697  18
  -6   0   6 585.096 238.539   2
   6   0  -6 268.997 107.235   8
   6   0   6 727.485 282.020  16
  -6   0   6 212.419 106.766  16
  -6   0  -6 95.0731 96.0018  19
   6   0   6 860.397 403.754  14
   6   0   6 726.692 303.324   6
   6   0  -7-3.21938 29.1838  14
   0  -6   7-31.6135 117.456   6
   6   0  -7 36.6925 104.573  11
  -6   0  -7 40.7354 55.8619  19
  -6   0   7 13.7600 73.9543  17
   6   0   7-2.45327 16.7700  16
   6   0  -7 90.5897 123.662   1
  -6   0   7 10.3731 2.09433   5
  -6   0   7-10.4542 28.2570   4
  -6   0   7 57.2584 89.5419  16
   6   0  -7 31.1171 35.6965  18
   6   0   7 26.7357 117.019   8
  -6   0   7-52.5221 70.4400   2
  -6   0   7-44.3312 32.9671  19
   6   0   7 61.4896 170.853  14
   0   6  -7-75.1833 195.105   3
   6   0   7-5.70565 9.05184   6
  -6   0   8 618.612 236.692   5
  -6   0   8 583.739 266.148   2
   0   6  -8 389.627 253.182  13
   6   0  -8 404.549 191.594  14
   0  -6   8 225.988 174.756   6
   6   0  -8 478.052 238.634   1
   6   0  -8 294.967 229.149  11
  -6   0   8 507.499 267.455  17
   6   0  -8 327.851 180.890  18
   6   0   8 375.831 213.988   8
   6   0   8 689.444 330.968  16
  -6   0   8 108.076 91.5689  16
   6   0   8 499.419 317.336  14
   6   0   8 390.501 280.114   6
   0   6  -8 711.185 336.126   3
   0   6  -9-83.8774 124.042   3
   6   0  -9 9.57813 24.0465  14
  -6   0   9 43.3876 139.058   2
   6   0  -9 47.2422 62.5159   1
   0   6  -9-89.9794 211.660  18
   0  -6   9-1.28914 72.7567   6
   0   6  -9 49.3670 90.9234  13
   0   6  -9-21.4899 87.0850  12
   6   0  -9 119.823 155.417  18
   6   0  -9 80.8688 98.5265  11
  -6   0   9 40.5554 70.2630   5
   6   0   9 40.7943 139.226   8
   0  -6   9-35.9679 215.400  17
  -6   0   9 55.9025 119.570  17
   6   0   9 32.2578 108.004  16
  -6   0   9 10.2626 83.6852  16
   6   0   9-101.071 177.805   6
   6   0 -10 146.983 135.002  14
   0   6 -10 181.506 56.3427   3
  -6   0  10 99.4621 132.728   2
   0   6 -10 211.816 167.800  13
   0   6 -10 167.070 138.873  12
   6   0 -10 58.0496 19.2067  11
   0   6 -10 204.129 161.256  18
  -6   0  10 139.058 107.172   5
   6   0  10 106.607 155.896   8
   6   0 -10 103.588 106.349  18
   0  -6  10 127.004 125.322   6
   6   0 -10 99.5441 156.622   1
  -6   0  10 180.979 162.910  17
   0  -6  10 99.3896 179.481  17
   6   0  10 376.737 281.549  16
  -6   0  10 135.863 145.496  16
   6   0  10 112.170 192.478   6
   6   0 -11 23.2899 57.4413  14
   0   6 -11-29.3644 64.0956   3
   0   6 -11 35.9270 116.635  13
   0   6 -11-53.4917 62.6778  18
   0  -6  11-33.5748 57.8863   6
   0   6 -11-125.759 106.240  12
   6   0  11 102.915 99.8089   6
   6   0 -11-131.460 191.872  11
  -6   0  11 111.015 162.492   2
   6   0 -11-96.6615 135.917  18
  -6   0  11-83.3432 122.296   5
   6   0  11-128.624 196.287   8
  -6   0  11-19.4652 29.6043  17
   0  -6  11-630.989 331.510  16
   0  -6  11-145.108 160.977  17
   6   0  11 64.4329 166.972  16
  -6   0  11 77.8502 146.292  16
   6   0 -11 8.56662 143.047   1
   0   6 -12 1706.55 615.740  13
   0  -6  12 1470.13 399.291   6
   0   6 -12 2109.74 426.883  12
  -6   0  12 1723.56 394.905   5
  -6   0  12 1804.48 503.682   2
   6   0 -12 355.292 208.418  11
   0  -6  12 91.8564 414.077   2
   0   6 -12 2542.30 302.093   4
   6   0  12 1352.80 554.487   8
  -6   0  12 2022.30 585.005  17
   6   0 -12 718.511 308.745   1
   0  -6  12 1199.00 498.723  16
   0   6 -12 2383.88 560.695  18
   6   0  12 1779.19 630.191  16
  -6   0  12 957.769 382.484  16
   0   6 -12 2185.00 575.608   3
   6   0  12 808.504 400.942   6
   6   0 -12 811.325 248.852  14
   0  -6  12 1482.45 471.253  17
   6   0  13-133.950 208.363   8
   6   0 -13 40.7126 71.4783  14
   0  -6  13 9.06553 31.3649  14
  -6   0  13-157.332 132.970   2
   0   6 -13 161.739 258.369  13
   0   6 -13 65.9025 87.8286  12
   6   0 -13 105.582 167.909   1
   0  -6  13 136.022 192.491  17
   0  -6  13-191.425 388.525   2
   0   6 -13-36.7715 40.9333   4
   0  -6  13 108.364 163.348  16
  -6   0  13-24.9271 120.416   5
   0   6 -13-31.2537 119.802  18
  -6   0  13-99.3955 164.148  17
   0   6 -13 87.4466 142.247   3
   0  -6  13 130.293 147.904   6
   6   0  13 37.7678 150.102  16
  -6   0  13 31.3466 182.215  16
   6   0  13-296.544 406.691   6
   6   0 -14 176.867 117.771  14
   0  -6  14 623.134 314.864   6
  -6   0  14 582.078 324.974   2
   0   6 -14 653.116 300.540   3
   0   6 -14 665.899 261.274  12
   6   0 -14 271.471 204.725   1
   0   6 -14 733.195 297.150  18
   0  -6  14 213.620 232.841   2
   0   6 -14 572.696 322.161  13
  -6   0  14 355.688 124.022   5
   6   0  14 430.868 246.191   8
   0  -6  14 783.320 366.405  17
  -6   0  14 780.456 342.736  17
   0  -6  14 742.825 386.599  16
   6   0  14-111.334 504.175   6
   6   0  14 531.600 375.099  16
   0  -6  14 647.180 152.611  14
   0  -6  15-48.4772 138.168   6
   0  -6  15-55.6855 176.592  17
   0   6 -15 111.657 266.710  13
   6   0  15-297.001 411.802   8
   0   6 -15 10.0293 98.4170  12
   0   6 -15-84.5224 104.481  11
   0  -6  15-55.8356 125.447   2
  -6   0  15-352.701 355.062  17
   6   0 -15 207.835 239.304   1
   0   6 -15 93.4211 117.560  18
   0   6 -15 62.3135 149.747   3
  -6   0  15 78.6183 175.352   2
   0  -6  15 82.5948 186.101  16
   6   0  15-17.0527 87.3666  16
   0  -6  15 30.8729 54.5693  14
   0  -6  16-154.722 196.921   6
   0   6 -16 305.751 313.143  13
   0   6 -16 297.956 246.450   3
   0   6 -16 123.063 172.798  12
  -6   0  16 302.137 300.166   2
   0   6 -16 179.733 243.941  11
   0   6 -16 149.120 156.811  18
   0   6 -16 303.450 501.148   7
   0  -6  16 279.751 197.538  17
   6   0  16-56.9608 99.8773   8
   0  -6  16 24.3084 64.6688   2
   0   6 -16 199.907 353.741  15
   0  -6  16-21.6490 83.8532  16
   6   0  16 360.579 493.751  16
   0  -6  17 40.2883 197.135   6
   0   6 -17-119.142 236.446  13
   0   6 -17 91.4381 171.389   3
   0   6 -17 24.5787 27.1379  12
   0   6 -17 117.590 184.868  11
   0   6 -17-92.9655 50.9118  18
   6   0  17-65.4213 121.645   8
   0  -6  17-67.7042 55.0783   2
   0  -6  17 186.673 192.833  16
   0  -6  17-61.2474 94.4483  17
   0   6 -17-43.1644 187.618   7
   6   0  17 306.045 478.470  16
   0   6 -17-66.2955 113.964  15
   0  -6  18 581.677 393.687   6
   0   6 -18 609.448 471.391  13
   0   6 -18 237.221 146.937  12
   0   6 -18 349.714 259.499   3
   0   6 -18 459.908 592.461  15
   0   6 -18 478.520 272.775  18
   0   6 -18 621.374 336.538  11
   0   6 -18 760.861 680.945  10
   0  -6  18 518.497 372.210  16
   0  -6  18 435.785 314.545  17
   0   6 -18 175.328 224.501   7
   0  -6  18 488.704 370.790   2
   0   6 -19 74.9170 225.575  13
   0   6 -19-11.8448 56.2019  12
   0   6 -19 41.6416 83.1287   3
   0   6 -19 333.665 332.554  10
   0   6 -19 462.177 511.061   9
   0  -6  19-22.6056 158.710   2
   0   6 -19 117.854 40.6863  18
   0  -6  19 58.1332 78.8410  17
   0   6 -19-180.552 620.848   7
   0  -6  19 217.226 288.648  16
   0   6 -19-30.7276 74.5825  11
   0   6 -19 212.702 168.949  15
   0  -6  19-143.220 285.626   6
  -6   1   0 3411.87 561.841   4
  -6   1   0 2225.17 399.132  12
  -6  -1   0 2037.15 545.201   5
   6   1   0 4181.73 810.905   1
  -6   1   0 3240.47 543.801   5
  -6  -1   0 1361.99 389.788   2
   6  -1   0 3591.10 612.961   1
  -6   1   0 3300.36 385.262   2
   6   1   0 3652.64 604.947   8
  -6  -1   0 1866.02 466.778  19
  -6  -1   0 1694.81 467.525   4
  -6   1   0 3684.27 582.177  19
   6   1   0 3862.83 571.822  18
   6  -1   0 2126.70 357.008  18
   6  -1   0 3496.92 537.761   8
  -6  -1   0 1939.96 445.605  17
  -6   1   0 1460.85 320.703  17
   6   1   0 1836.90 346.458   6
   6  -1   0 3643.88 482.182   6
   6   1   0 3117.64 645.181  14
   6  -1   0 3690.73 583.803  14
   6  -1   1 628.676 239.443  14
  -6   1  -1 224.862 140.982   3
   6  -1  -1 646.336 244.898  14
  -6   1  -1 585.314 228.423  19
  -6  -1  -1 222.303 130.926  17
   6   1  -1 516.206 170.419  13
   6  -1  -1 290.580 135.157  18
   6  -1   1 726.814 212.476   6
   6   1  -1 680.138 318.099   1
  -6   1  -1 618.319 242.473   5
  -6   1   1 352.098 154.390  12
   6   1   1 733.620 252.170  18
  -6   1  -1 569.120 148.519   2
  -6  -1   1 447.986 237.513   5
  -6   1   1 538.012 167.731   2
  -6   1   1 700.353 243.247  19
  -6  -1  -1 259.827 147.846  19
  -6  -1  -1 223.561 152.068   5
   6   1   1 489.623 269.335  14
  -6   1  -1 466.692 180.264  12
  -6  -1   1 426.651 198.472   2
   6   1   1 540.493 236.539   8
  -6  -1   1 540.804 249.078   4
  -6   1  -1 269.108 134.491  17
   6  -1   1 437.931 150.462  18
  -6  -1   1 536.693 223.712  19
  -6  -1  -1 184.483 138.783   4
   6   1   1 242.504 118.069   6
   6   1  -1 650.640 257.136   8
  -6  -1   1 351.266 156.272  17
  -6   1   1 601.962 232.706   5
   6  -1  -1 612.555 222.628   8
   6  -1   1 699.524 247.884   8
  -6   1   1 306.330 148.178  17
  -6   1  -1 621.071 242.624   4
  -6  -1   1-6.12458 152.401   7
  -6   1   1 626.088 234.949   4
  -6  -1   1-6.54256 131.230  15
   6   1   1 759.623 326.028   1
   6  -1  -1 743.400 210.938   6
   6  -1   1 587.151 227.764   1
   6  -1  -1 620.899 259.021   1
   6   1  -1 471.183 246.566  14
   6   1  -1 357.524 148.850   6
   6   1  -1 819.630 263.885  18
  -6   1   2 747.935 244.685  19
   6  -1  -2 683.627 240.516  14
   6   1  -2 1027.12 228.321  13
  -6  -1   2 502.386 244.767   4
   6   1   2 617.809 286.803   8
  -6  -1   2 420.693 113.472  12
  -6   1  -2 624.088 231.308  12
   6   1  -2 1093.83 331.772  11
  -6   1   2 752.465 267.290   5
  -6   1  -2 771.228 178.453   2
   6  -1   2 1046.96 343.857   1
   6   1  -2 829.083 359.295   1
  -6  -1   2 582.043 282.887   5
  -6   1   2 508.485 184.316   2
   6   1  -2 531.491 153.516  10
  -6   1  -2 699.716 267.462   5
  -6   1  -2 502.885 206.515   3
  -6   1   2 396.913 193.293  17
  -6  -1  -2 150.807 121.274  19
  -6  -1   2 448.896 223.487  19
  -6   1  -2 509.944 234.865  19
   6  -1   2 688.158 176.762  18
  -6  -1  -2 253.254 213.713  17
   6   1  -2 825.942 281.357  18
   6  -1  -2 372.586 166.381  18
  -6  -1   2 791.589 284.939   2
   6   1  -2 907.127 269.505   8
  -6  -1   2 532.227 242.274  17
   6  -1  -2 713.221 233.742   8
   6  -1   2 707.532 255.900   8
  -6   1  -2 268.201 109.681  17
  -6   1  -2 658.528 258.431   4
   6   1   2 727.746 362.345   1
   6   1   2 717.741 258.195  18
  -6  -1   2 388.367 137.511   7
  -6   1   2 599.815 214.277   4
   6  -1  -2 723.692 287.799   1
   6   1   2 284.143 111.644  16
  -6  -1   2 383.840 149.611  15
   6  -1   2 853.739 257.152   6
   6  -1  -2 741.510 198.770   6
   6  -1   2 864.761 306.625  14
   6   1   2 668.966 323.648  14
   6   1   2 314.231 195.634   6
   6   1  -2 642.141 274.495  14
  -6  -1  -2-24.0718 172.777   4
   6   1  -2 462.730 150.693   6
   6   1  -3 26.0075 35.0385   6
   6  -1  -3 2.12773 41.2369  14
   6  -1  -3 77.2505 99.2436   1
   6  -1   3 82.8238 70.5096   6
  -6   1   3 30.3184 45.6843   2
  -6   1  -3 21.6989 91.1858  12
  -6   1  -3 27.1905 42.8966   3
   6  -1  -3 22.3302 42.0470   6
   6   1  -3 93.6282 124.171  11
   6   1   3-61.6313 134.890  18
  -6   1  -3 28.5192 84.5257   5
  -6  -1   3 27.5214 173.300   5
  -6   1  -3-15.6367 23.8761  10
  -6   1  -3-37.1233 66.4450   2
   6   1  -3-65.2279 64.7107  10
   6  -1   3 52.7343 95.4792   1
  -6  -1  -3-58.3446 115.601  17
  -6  -1  -3-154.582 196.177  19
  -6  -1   3 36.5838 85.0613  19
  -6   1   3 55.6943 96.8119   5
  -6  -1   3 8.34570 3.61069  12
   6  -1  -3 25.3386 77.4672  18
   6   1  -3 71.3019 182.636   1
   6   1   3 20.2785 94.4626   8
  -6  -1   3 155.988 120.936   7
  -6  -1   3-39.9891 46.5732   2
  -6  -1   3 155.267 161.412  17
   6  -1   3 47.8665 64.7544   8
   6   1  -3 18.5208 76.4693   8
  -6  -1   3-45.8812 85.5777   4
  -6   1  -3 44.5683 49.7575  17
  -6   1  -3 74.6239 123.393   4
  -6   1   3-14.9177 53.1695  17
  -6  -1   3 38.0070 49.5037  15
   6  -1   3 12.2702 33.6515  16
   6   1  -3-54.0128 50.3440  18
   6   1   3 85.5053 96.4626   1
  -6   1   3-5.83016 21.3420  19
  -6   1   3 37.5423 33.8491   4
   6  -1  -3 27.3103 37.6095   8
   6   1   3-58.3982 106.455  16
   6  -1   3 30.7329 33.4325  18
  -6   1  -3-18.4763 52.0109  19
   6   1  -3 287.110 211.703   9
   6   1   3 12.1441 63.8178   6
   6   1   3-16.0920 101.064  14
   6   1  -3 23.7090 117.177  14
   6  -1   3-65.4977 107.290  14
   6  -1  -4 186.595 126.454  14
   6  -1   4 418.307 229.154   1
   6   1  -4 100.640 49.7807  10
  -6   1  -4 233.301 171.422   3
   6   1  -4 400.722 225.631   9
   6   1  -4 589.207 216.407  11
  -6   1  -4 226.163 193.129   5
  -6   1   4 312.185 151.225  19
  -6  -1   4 240.032 173.209   5
  -6   1  -4 92.8831 59.2244  10
  -6  -1   4 294.361 160.641  19
   6   1   4 210.904 193.751   1
  -6   1   4 244.956 141.524   5
  -6   1  -4 203.968 175.606   4
   6  -1   4 386.865 191.432   6
   6   1  -4 332.669 161.500   8
   6  -1   4 351.409 109.976  18
   6   1  -4 406.986 244.549   1
   6   1   4 307.823 241.775   8
   6  -1  -4 142.711 128.023  18
  -6   1   4 271.620 138.162   2
   6  -1   4 360.286 226.785   8
  -6  -1   4 302.106 204.968  17
  -6   1   4 193.176 145.388  17
  -6  -1   4 325.449 150.860   2
   6   1  -4 233.156 77.2663   6
   6  -1  -4 159.170 104.330   8
   6  -1   4 413.513 175.987  16
  -6   1  -4 178.660 155.372  19
  -6   1   4 235.045 122.331   4
   6   1   4 44.7549 117.694  16
   6   1  -4 370.573 197.144  18
   6   1   4 144.943 144.940   6
   6   1   4 202.824 167.967  14
  -6   1  -4 136.681 73.4468  17
   6   1  -4 277.691 152.996  14
   6  -1   4 375.577 206.578  14
   6  -1  -4 233.982 155.574   1
  -6  -1   4 276.975 175.348   4
  -6  -1   4 248.817 83.9545  16
   6   1   5 479.876 272.181   8
   6  -1  -5 603.585 213.410  14
   6  -1   5 964.940 316.396   6
   6  -1   5 831.169 306.791   8
  -6   1  -5 94.2793 69.4005  13
  -6   1   5 603.450 212.207   2
  -6   1   5 737.171 233.595   5
   6  -1   5 1046.11 286.073  16
  -6  -1   5 801.332 325.693   5
   6   1  -5 1248.72 369.232  11
  -6  -1   5 1052.68 360.777   2
  -6   1  -5 462.700 244.570   5
   6   1  -5 829.956 313.660  18
  -6  -1   5 988.730 306.770  19
  -6   1  -5 102.575 60.3428  10
  -6   1   5 817.174 251.721  19
   6  -1   5 860.070 157.321  18
  -6  -1   5 779.405 292.216   4
   6  -1  -5 195.000 144.389  18
  -6  -1   5 791.654 179.549  16
  -6  -1   5 641.864 302.145  17
  -6   1  -5 297.598 95.7156  17
   6   1  -5 881.524 257.059   8
  -6   1  -5 533.438 251.160   4
  -6   1   5 500.802 219.600  17
   6   1  -5 903.466 362.058   1
   6   1  -5 135.052 105.600  10
  -6   1  -5 522.952 249.376  19
   6  -1  -5 526.455 255.497   1
  -6   1  -5 892.824 430.718   7
   6  -1   5 1046.47 359.146   1
   6   1   5 239.920 137.477  16
  -6   1  -5 771.278 383.663  15
   6   1   5 334.455 228.667   6
   6   1   5 725.250 393.777  14
   6   1  -5 760.312 311.017   9
   6  -1   5 1070.14 366.635  14
   6   1  -5 710.422 281.486  14
   6  -1   6 509.595 242.554   6
   6  -1  -6 250.847 124.740  14
  -6   1   6 315.773 149.006   5
  -6   1   6 234.875 122.947   2
  -6   1   6 249.997 81.4404  19
  -6   1  -6 101.520 67.9932   5
   6   1  -6 302.710 161.418  11
   6   1   6 21.6016 98.6101   6
  -6   1  -6 200.699 192.727  19
   6   1  -6 399.505 219.796  18
  -6  -1   6 461.182 240.617   5
   6  -1   6 355.367 201.713   8
   6   1   6 143.510 84.2834   8
  -6  -1   6 399.593 170.981  19
   6  -1   6 399.083 97.8196  18
   6  -1  -6 235.294 153.693   1
  -6   1  -6-12.0385 65.6462  10
  -6   1  -6 150.390 76.0185   4
  -6  -1   6 345.092 221.013  17
   6   1  -6 195.327 128.959   9
  -6   1   6 224.827 120.693  17
   6  -1   6 418.802 266.616   1
   6   1  -6 286.872 127.305   8
   6  -1   6 529.780 233.864  16
  -6  -1   6 264.923 101.814  16
  -6  -1   6 346.596 193.786   2
  -6   1  -6 386.090 249.123   7
   6   1   6 57.0041 62.4901  16
  -6   1  -6 284.304 236.037  15
   6   1  -6 323.587 209.437   1
  -6  -1   6 352.182 174.242   4
   6  -1   6 461.370 246.301  14
   6   1  -6 73.0888 80.2836  10
   6   1  -6 346.962 184.217  14
   6  -1   7 1253.37 394.299   6
   6   1  -7 786.922 222.842   8
   6  -1  -7 625.710 219.300  14
   6   1   7 369.590 100.551   6
   6   1  -7 760.627 338.019   9
   1  -6   7 103.098 109.214   6
  -6  -1   7 1059.39 333.786   5
  -6   1   7 1027.06 271.874   5
   6   1  -7 1124.60 379.866  11
  -6   1   7 704.992 249.328   2
   6   1  -7 1136.29 386.641   1
  -6  -1   7 1286.90 389.218   2
  -6  -1   7 1161.48 299.999  19
   6  -1   7 730.586 356.673   1
  -6   1  -7 700.490 377.627  15
   6   1  -7-26.9510 203.728  10
  -6   1  -7 510.792 269.451  19
   6  -1   7 1298.40 411.224   8
   6   1  -7 1071.35 337.609  18
   6   1   7 675.213 367.365   8
  -6   1  -7 451.643 255.859   4
  -6  -1   7 944.487 364.519  17
  -6  -1   7 1133.22 314.106   4
   6  -1   7 1382.99 396.508  16
  -6   1   7 855.894 301.562  17
  -6  -1   7 1101.90 244.331  16
   6  -1  -7 563.928 244.711   1
  -6   1  -7 889.623 421.053   7
   6   1   7 376.709 225.644  16
  -1   6  -7 1266.13 432.797   3
   6  -1   7 1327.76 447.336  14
   6   1  -7 896.241 282.135  14
  -6   1  -7-21.2305 169.165  10
   6  -1   8 920.417 361.783   6
   1   6  -8 711.870 380.405  13
  -6   1   8 592.316 230.579   2
   6   1  -8 845.570 333.607   1
  -1   6  -8 676.515 213.003  12
   6  -1  -8 328.482 181.758   1
   6   1  -8 878.255 358.430  11
  -6  -1   8 823.889 234.734   4
  -6  -1   8 929.467 253.820  19
  -6  -1   8 733.826 279.728   5
   6   1  -8 782.480 308.044  18
   6   1  -8 524.556 325.603   9
  -6   1  -8 247.046 192.616  19
  -6   1  -8 19.9640 197.725   4
   6   1   8 429.576 268.511   8
   6  -1   8 697.310 299.084   8
   6   1  -8-289.874 349.717  10
   6  -1  -8 511.066 175.663  14
  -6  -1   8 873.241 370.577  17
  -6   1   8 425.454 215.992  17
   6  -1   8 846.241 317.394  16
  -6   1  -8 367.523 147.301   7
  -6  -1   8 621.438 193.035  16
   6   1  -8 712.895 259.810  14
   6   1   8 281.169 162.223  16
  -6   1  -8 366.369 241.502  15
  -6  -1   8 872.686 326.661   2
   1  -6   8 242.043 154.128   6
   6   1   8 122.094 297.958   6
   6  -1   8 1036.90 401.942  14
  -6   1  -8-100.515 243.301  10
   1   6  -8 907.899 358.807   3
  -1  -6   8 153.152 95.6637   6
  -1   6  -8 1049.78 394.039   3
  -6   1   9 401.551 187.192  17
   6   1  -9 505.973 211.755  14
   1   6  -9 840.182 328.579   3
   6  -1  -9 271.996 154.976  14
  -1   6  -9 561.767 345.076  13
   1   6  -9 952.289 462.617  13
  -6  -1   9 656.505 208.406  19
  -6   1   9 490.941 191.087   2
  -1  -6   9 295.842 182.204   6
  -6  -1   9 827.573 292.793   5
  -6  -1   9 504.788 209.542  16
  -1   6  -9 880.096 257.580  12
   1  -6   9 466.467 203.807   6
   6   1  -9 750.147 328.694  11
   6   1  -9 696.685 308.822   1
   6  -1   9 764.720 148.597   2
  -6   1  -9 150.777 155.112  19
  -1   6  -9 1174.23 406.187   3
   6   1  -9 296.278 231.402   9
  -1  -6   9 35.4815 195.822  17
  -6  -1   9 861.538 237.744   4
   1   6  -9 560.860 262.522  18
   6   1  -9 734.349 313.686  18
   6   1   9 385.968 213.426   8
   6  -1   9 822.731 320.258   6
   6  -1  -9 334.089 218.039   1
  -6  -1   9 958.760 389.714  17
   6  -1   9 883.927 333.006   8
  -6   1  -9 34.2613 311.026   7
   6  -1   9 964.768 354.803  16
   6   1   9 484.897 305.663  16
  -6   1  -9-99.7863 407.024  15
  -6  -1   9 874.413 333.302   2
   6  -1   9 949.518 433.381  14
   1   6 -10 1469.02 557.050  13
  -1   6 -10 1825.95 411.937  12
   1   6 -10 1486.94 337.326  12
   1  -6  10 1110.69 369.724   6
  -1  -6  10 950.947 333.297   6
  -6   1  10 961.267 341.614   2
  -1   6 -10 1661.58 569.496  13
  -6  -1  10 1523.22 385.046   5
   6   1 -10 1296.48 484.037  11
  -6  -1  10 1579.25 466.429   2
   6   1 -10 1375.27 453.517   1
   1   6 -10 1337.26 506.714  18
   6  -1  10 1419.19 452.238   8
   6   1 -10 515.082 406.935   9
  -6  -1  10 1548.57 321.936   4
   6   1  10 400.203 260.291   8
  -6  -1  10 1794.41 513.446  17
   1  -6  10 523.065 326.739  17
  -1  -6  10 378.142 249.208  17
   6   1 -10 1287.61 437.986  18
  -1   6 -10 1889.14 476.343  18
  -6   1  10 1063.02 351.947  17
   6  -1  10 2011.83 572.870  16
  -6  -1  10 1173.47 346.507  16
   6  -1  10 1549.32 240.305   2
   6   1  10 969.632 467.308  16
   1   6 -10 1906.73 511.030   3
  -1   6 -10 1810.26 506.512   3
   6   1 -10 941.333 290.091  14
   6  -1  10 1697.18 615.970  14
  -6   1 -10 197.596 192.751  19
   6  -1  10 1627.05 536.458   6
   6  -1 -10 503.974 261.654   1
   1   6 -11 187.833 115.893   3
  -1   6 -11 278.724 187.621   3
   6  -1  11 202.200 90.9898   2
  -1   6 -11 242.878 239.502  13
  -1  -6  11 76.1200 24.4018   6
   1  -6  11 14.5532 36.5723   6
  -1   6 -11 150.795 109.658  12
   1   6 -11 236.332 126.724  12
   6   1 -11 325.652 233.863  11
  -6   1 -11 18.3179 119.385  19
  -1  -6  11-78.1000 130.599  17
   1   6 -11 220.544 239.718  18
  -6  -1  11 226.650 88.9244   4
  -1  -6  11-181.842 369.689  16
   6   1 -11 234.600 246.195   9
  -1   6 -11 279.356 187.883  18
  -6  -1  11 145.699 75.2931  16
   6  -1  11-29.8429 135.332   8
   6   1  11-8.98569 284.414   8
   1  -6  11 29.5615 98.7596  17
   6   1 -11 46.0088 82.9067  18
  -6  -1  11 359.072 237.469  17
   1   6 -11 216.066 184.260  13
   6  -1  11 272.900 251.020  16
  -1   6 -11 202.564 61.3236   4
   6   1 -11 150.592 108.300  14
   6  -1  11 165.194 227.608  14
  -6  -1  11 161.278 154.400   2
   6   1 -11 187.778 204.219   1
   6  -1  11 86.4805 107.091   6
  -6  -1  11 281.887 184.414   5
   6   1 -12 348.597 160.903  14
   1   6 -12 827.069 383.067  13
   1   6 -12 842.654 334.941   3
   1  -6  12 438.970 130.512  14
   6   1 -12 454.412 249.403  18
  -6   1 -12 28.5607 62.0013  19
  -1   6 -12 964.299 352.044   3
  -1   6 -12 790.927 390.499  13
  -1  -6  12 416.280 240.594   6
   1  -6  12 692.200 310.262   6
  -1   6 -12 900.190 311.796  12
  -1   6 -12 1030.02 316.961  18
   1   6 -12 811.085 258.580  12
  -1  -6  12-80.2503 343.087   2
   6   1 -12 339.711 161.722  11
   6  -1  12 887.393 208.954   2
  -6  -1  12 786.832 285.584   5
   6   1 -12 174.028 151.791   9
   1   6 -12 537.536 332.352  18
   6   1  12 45.8256 204.249   8
  -1  -6  12 473.076 277.858  17
   6  -1  12 685.146 329.820   8
  -1  -6  12 408.604 120.508  16
   1  -6  12 295.838 229.819  16
  -6  -1  12 594.019 270.200  16
   1  -6  12 659.503 289.646  17
   6   1 -12 602.990 307.091   1
  -6  -1  12 1012.28 398.829  17
  -1   6 -12 1268.24 249.754   4
  -6  -1  12 740.430 203.842   4
   6  -1  12 578.719 314.398   6
  -6  -1  12 561.724 249.448   2
   6  -1  12 881.587 428.034  16
   6  -1  13 1308.02 290.038   2
   6   1 -13 549.128 201.610  14
   1   6 -13 1327.16 556.776  13
  -1   6 -13 1482.00 309.679   4
   1  -6  13 1158.76 371.908   6
  -1   6 -13 903.349 451.884  13
  -1   6 -13 1472.15 478.601   3
  -1   6 -13 1419.83 403.177  12
   1   6 -13 1463.06 355.737  12
  -1  -6  13 1328.25 482.256  17
  -1  -6  13 639.539 401.625   2
  -6  -1  13 1236.51 355.526   5
   6   1 -13 432.146 257.902  11
   1  -6  13-322.524 544.197   2
   1   6 -13 1234.02 443.248  18
   1  -6  13 1200.38 493.181  16
   1  -6  13 1420.14 430.231  17
  -1   6 -13 1784.56 420.210  18
   6   1 -13 795.770 358.537  18
   6   1 -13 752.886 344.899   1
  -6  -1  13 1609.23 523.831  17
   6  -1  13 1308.04 525.098   8
  -1  -6  13 605.094 265.903   6
  -1  -6  13 1040.79 407.884  16
   6  -1  13 1412.73 560.013  16
  -6  -1  13 818.253 322.872  16
   6   1 -13 82.2551 118.206   9
   1   6 -13 1614.26 507.378   3
   1  -6  13 1125.68 225.790  14
   6  -1  13 1287.97 546.201   6
  -6  -1  13 878.953 378.648   2
  -6   1 -13-37.8749 73.2566  19
   6   1 -14 214.121 132.250  14
   1  -6  14 604.276 162.875  14
   1   6 -14 650.630 265.887  12
   1  -6  14 552.794 282.913   6
  -1  -6  14 152.072 141.349   6
  -6  -1  14 447.056 281.093   2
   6  -1  14 618.073 210.996   2
   1   6 -14 626.929 311.182   3
  -1   6 -14 340.879 205.835   3
   1   6 -14 559.950 361.292  13
  -1   6 -14 625.919 259.458  12
  -1   6 -14 578.364 362.205  13
   1  -6  14 720.318 345.111  17
   6   1 -14 182.539 176.195  11
  -1   6 -14 814.233 266.966  18
   1   6 -14 95.1937 236.199  18
  -1  -6  14 200.453 192.722   2
  -6  -1  14 376.854 234.879  16
   6   1 -14 111.134 145.209  18
  -1   6 -14 362.151 159.108   4
   6  -1  14 503.483 402.661   8
  -1  -6  14 402.798 287.932  17
  -1  -6  14 465.511 317.909  16
  -6  -1  14 507.098 234.212   5
  -6  -1  14 303.288 232.226  17
   1  -6  14 378.473 292.106  16
   6  -1  14 383.943 317.402  16
   6   1 -14 172.055 154.380   1
  -1  -6  14 290.040 88.0011  14
   6  -1  14 686.912 380.092   6
   1  -6  14-53.0909 352.410   2
   6   1 -14-492.246 539.941   9
   6   1 -15 136.669 115.723  14
   1  -6  15 438.156 153.380  14
  -1  -6  15 230.644 218.099   6
  -1   6 -15 424.763 351.211  13
   1   6 -15 418.055 312.659  13
   1   6 -15 323.615 181.141   3
  -1   6 -15 385.547 230.421   3
   1  -6  15 435.611 288.851   6
  -1   6 -15 438.238 238.683  12
   1   6 -15 389.416 202.823  12
   6  -1  15 121.735 48.2907   6
   1   6 -15 788.172 392.012  11
  -1   6 -15 542.631 276.936  11
  -6  -1  15 430.058 242.213   5
   6   1 -15 116.605 95.5849  11
  -1   6 -15 492.828 220.434  18
   1   6 -15 151.293 278.768  18
  -1  -6  15 340.656 262.355  17
   1  -6  15 17.0136 154.263   2
  -1  -6  15 172.963 98.6447   2
   6  -1  15 558.892 207.939   2
   6   1 -15-1067.86 807.857   9
   6   1 -15 169.397 184.899  18
   1  -6  15 635.671 300.603  17
  -6  -1  15 361.491 226.916  17
   6  -1  15 212.711 177.748   8
   6  -1  15 449.833 327.637  16
  -1  -6  15 421.303 272.290  16
   1  -6  15-46.4792 169.717   8
   1  -6  15 194.708 149.839  16
  -6  -1  15 464.766 288.283  16
   1   6 -15 407.745 366.995  15
  -6  -1  15 379.739 218.245   2
   6   1 -15 184.716 130.270   1
   1  -6  16 231.743 44.1163   8
   6   1 -16 175.110 132.517  14
  -1  -6  16 234.095 180.093   6
   1  -6  16 553.625 328.180   6
  -1  -6  16 747.929 379.365  16
   6  -1  16 623.843 282.485   2
  -1   6 -16 595.260 374.553  13
   1   6 -16 465.383 340.019  13
   1   6 -16 770.697 353.237   3
  -1   6 -16 723.253 394.987   3
  -1   6 -16 674.837 308.025  12
   1   6 -16 603.131 250.658  12
   1  -6  16 812.477 495.157   2
   1   6 -16 1069.75 432.983  11
  -1   6 -16 990.586 358.618  11
  -6  -1  16 591.191 267.883   5
   6   1 -16 187.664 200.630  11
   6   1 -16-1316.53 1020.57   9
   1   6 -16 745.200 623.511  15
   6   1 -16 299.404 241.859   1
   1  -6  16 1027.37 374.765  17
  -1  -6  16 210.385 206.625   2
   6  -1  16 693.812 421.915  16
   1   6 -16 380.771 341.348  18
  -1   6 -16 713.731 258.296  18
  -1  -6  16 896.990 432.921  17
   6  -1  16 644.564 425.892   8
  -6  -1  16 998.431 421.449  17
   1  -6  16 652.169 367.877  16
  -6  -1  16 361.441 264.922  16
   1   6 -16 626.492 632.157   7
  -1   6 -16 1353.08 838.451   7
  -1   6 -16 962.951 658.764  15
   6  -1  16 399.841 279.454   6
   1  -6  16 458.623 189.015  14
  -6  -1  16 729.482 363.239   2
  -1  -6  17 104.851 152.564   6
   6   1 -17-72.6249 59.1402  14
   1  -6  17 234.420 196.885   6
  -6  -1  17 20.9030 100.047   5
   1   6 -17-1.77911 83.0907  18
   6  -1  17 84.6148 127.549   2
  -1   6 -17 9.46213 73.3350  13
   1   6 -17-90.9314 346.700  13
   1   6 -17-88.7315 166.293   3
  -1   6 -17-1.83478 81.9071   3
  -1   6 -17 117.459 178.871  12
   1   6 -17 5.42421 22.8928  12
   1   6 -17 335.675 301.961  11
  -1   6 -17 125.377 234.607  11
  -1  -6  17 128.086 183.329  16
  -1   6 -17-51.7952 65.3861  18
   6   1 -17 38.6378 78.3919  11
   1  -6  17 63.1574 47.5247   2
   6   1 -17 102.927 151.196   1
   6  -1  17-76.2201 165.544   8
  -1  -6  17 7.34509 103.462  17
   1  -6  17 75.6878 40.2476  17
  -6  -1  17 70.4625 200.349  17
   1  -6  17-15.4583 81.5560   8
   1  -6  17 26.0614 118.455  16
   1   6 -17 112.934 442.321   7
   6  -1  17 222.538 319.773  16
  -6  -1  17 57.0134 100.840  16
  -1   6 -17 433.315 616.333   7
   1   6 -17 47.3703 207.515  15
  -1  -6  17 117.115 218.450   2
  -1   6 -17 170.627 288.453  15
   6  -1  17-282.968 534.844   6
  -6  -1  17-32.1645 88.9446   2
  -6  -1  18 638.546 277.519   5
   1  -6  18 328.422 292.119   6
  -1   6 -18 922.431 616.629  13
   1   6 -18 378.102 289.282  13
   6   1 -18 219.875 226.094   1
  -1   6 -18 619.574 334.784  12
   1   6 -18 602.420 341.347   3
   1   6 -18 804.957 342.448  12
   1  -6  18 1085.41 416.358  17
  -1  -6  18 1757.62 574.402  17
   1   6 -18 785.765 400.412  11
  -1   6 -18 1119.30 452.799  11
  -1  -6  18 1240.68 659.982   2
  -1   6 -18 810.396 624.732  10
   1   6 -18 1168.28 691.939  10
  -1   6 -18 871.111 355.906  18
   1  -6  18 563.325 438.566   2
  -1   6 -18 769.153 472.154   3
   1   6 -18 131.828 335.734  18
  -6  -1  18 615.995 341.252   2
   6  -1  18 644.793 417.466   8
  -6  -1  18 454.560 303.299  17
   1  -6  18 529.772 197.166   8
  -1  -6  18 1390.17 578.625  16
   1  -6  18 947.278 481.033  16
   1   6 -18 607.105 539.983   7
   6  -1  18 856.098 495.757  16
  -1   6 -18 813.723 582.866   7
  -6  -1  18 426.114 298.218  16
   1   6 -18 450.356 329.720  15
  -1   6 -18 877.643 619.685  15
   6  -1  18 808.393 326.362   2
   6  -1  18-320.671 739.530   6
  -1  -6  18 559.411 367.639   6
   1  -6  19 686.231 410.611   6
   1  -6  19 720.560 333.583  17
   6  -1  19 429.365 241.051   2
   1   6 -19 1084.26 821.557   9
  -1   6 -19 171.165 162.512  13
   1   6 -19 237.595 214.132  13
   6   1 -19 178.059 220.926   1
  -1   6 -19 480.601 323.373  12
   1   6 -19 446.877 229.788  12
   1   6 -19 202.535 225.324   3
  -1   6 -19 735.771 414.879   3
   1   6 -19 439.248 247.390  11
  -1   6 -19 795.229 403.890  11
   6  -1  19 528.965 358.856   8
  -1   6 -19 753.995 405.432  10
   1   6 -19 908.395 576.828  10
  -1   6 -19 1751.92 986.707   9
   1   6 -19 246.982 234.501  18
  -1   6 -19 581.546 298.816  18
  -6  -1  19 560.461 294.677   5
  -1  -6  19 757.632 382.469  17
  -1  -6  19 657.423 442.812   2
  -6  -1  19 440.875 349.587   2
  -6  -1  19-275.571 240.620  17
   1  -6  19 385.103 245.221   2
   1   6 -19-296.167 729.343   7
  -1   6 -19 502.513 442.080   7
   6  -1  19 906.993 519.539  16
  -6  -1  19 389.300 260.059  16
   1   6 -19-200.285 668.148  15
  -1   6 -19 549.713 531.009  15
  -1  -6  19 656.614 371.775  16
  -1  -6  19 172.343 275.577   6
   1  -6  19 659.870 430.686  16
  -6   2   0 1675.34 371.897   5
  -6   2   0 1598.68 359.786   4
   6   2   0 1745.20 458.685  18
   6  -2   0 1575.03 385.201   1
  -6   2   0 1670.13 376.981  19
  -6  -2   0 245.532 171.333  17
   6  -2   0 1434.80 338.653   8
  -6   2   0 897.089 270.776  12
   6   2   0 1301.22 400.006   8
   6   2   0 1476.11 535.737   1
   6  -2   0 1454.05 325.436   6
   6  -2   0 1320.94 348.890  14
   6   2   0 1042.30 428.112  14
  -6   2  -1 4755.59 655.594   4
   6  -2   1 5229.42 672.372   8
   6   2   1 4036.93 916.283   1
   6   2  -1 5175.68 972.091   1
  -6   2  -1 4855.49 629.218   5
  -6   2   1 4258.87 582.445   5
   6  -2  -1 3895.46 582.108   8
   6  -2   1 5475.49 707.675   1
   6  -2  -1 4058.43 627.992   1
  -6   2  -1 5230.79 669.313  19
  -6  -2   1 1221.50 407.594  19
   6  -2   1 5288.97 689.744  14
   6   2  -1 4483.84 692.449   8
   6   2   1 4022.40 694.479  18
   6   2  -1 5612.86 806.592  18
  -6   2   1 4332.26 589.080   4
  -6  -2   1 1503.49 430.005  17
  -6   2  -1 3889.06 562.899  12
   6   2   1 3098.31 635.564   8
   6  -2   1 5816.78 665.430   6
   6  -2  -1 3196.54 480.201   6
   6   2  -1 2529.86 665.085  14
   6  -2  -1 4329.74 613.520  14
  -6   2   1 5286.56 660.775  19
  -6   2  -2 191.957 138.304   3
   6  -2   2 302.392 157.095  14
   6  -2  -2 224.777 124.475  14
   6   2  -2 321.204 194.330  18
   6   2  -2 401.898 267.396   1
  -6   2  -2 208.569 65.3643   2
   6  -2   2 449.632 175.500   6
  -6  -2   2 163.453 169.328   2
  -6   2  -2 335.443 184.418  12
   6  -2  -2 3.39597 134.184   6
   6   2  -2 179.059 148.619  14
  -6  -2   2 107.858 75.1088   5
  -6   2   2 310.836 146.032   5
  -6   2  -2 407.592 181.424   5
  -6  -2   2 225.454 149.350  17
  -6   2  -2 501.691 218.438  19
   6  -2   2 420.259 195.860   1
  -6   2   2 298.934 163.452  19
  -6  -2   2 147.089 140.542  19
  -6  -2   2 70.0680 73.9915   4
   6   2   2 153.816 177.176   8
   6   2  -2 391.922 196.112   8
   6  -2   2 361.320 172.734   8
   6   2  -2 212.351 128.188  13
   6  -2  -2 193.873 112.598   8
  -6   2  -2 337.407 184.710   4
   6   2   2 62.6134 163.061   1
   6  -2  -2 311.716 179.778   1
   6   2  -3 1039.76 440.545   1
   6   2  -3 1054.38 309.694  13
  -6   2  -3 688.886 259.838   3
  -6   2  -3 971.623 297.811  12
  -6   2  -3 1067.43 298.080   5
   6   2   3 570.506 294.102   8
  -6   2   3 813.173 263.779  19
  -6   2   3 720.549 228.276   5
  -6  -2   3 520.621 291.821   5
   6  -2   3 1182.30 336.660   1
  -6   2  -3 1028.16 320.672  19
   6   2  -3 1266.74 392.366  18
   6   2  -3 1017.20 310.392   8
  -6  -2   3 710.161 333.344   2
  -6   2  -3 983.682 312.186   4
   6  -2  -3 510.679 226.924   1
   6  -2   3 998.639 293.162   8
  -6  -2   3 303.198 129.175   4
  -6  -2   3 597.171 228.438  19
   6  -2  -3 260.699 41.5152   8
  -6  -2   3 688.676 315.957  17
   6  -2   3 1129.60 326.199   6
   6  -2   3 1131.90 347.646  14
   6  -2  -3 731.138 242.950  14
   6   2  -3 573.496 308.265  14
   6  -2   4 663.251 192.039  16
   6   2  -4 1604.24 362.705  13
  -6   2  -4 857.006 266.996  12
  -6   2  -4 1241.52 350.474   5
   6   2  -4 1442.29 482.559   1
   6  -2   4 1454.52 368.056   1
  -6  -2   4 708.751 292.303   5
   6  -2  -4 508.496 228.372   1
  -6   2   4 985.784 270.698  19
   6   2  -4 1515.12 339.751   8
   6   2  -4 1515.03 425.623  18
   6  -2   4 1306.52 351.589   8
   6   2   4 372.113 129.002   8
  -6  -2   4 1253.70 402.351   2
  -6   2  -4 1044.05 329.197   4
  -6  -2   4 682.194 277.435   4
  -6  -2   4 1093.18 370.788  17
  -6   2  -4 913.858 302.212   3
  -6   2  -4 1236.36 346.598  19
   6  -2   4 1523.98 376.943   6
   6  -2   4 1411.41 376.391  14
   6  -2  -4 752.587 241.830  14
  -6  -2   4 640.774 280.474  19
   6   2  -4 774.346 336.209  14
  -6   2  -5 922.422 305.988  19
   6  -2  -5 462.128 187.069  14
   6   2  -5 1236.21 340.185  13
  -6   2  -5 704.564 261.195  12
  -6   2  -5 639.907 254.713   3
  -6   2  -5 839.997 323.872   4
   6   2  -5 1643.48 467.987  11
   6   2  -5 1129.98 408.845   1
   6  -2   5 1238.80 352.630   1
  -6  -2   5 876.211 342.703   5
  -6  -2   5 935.201 339.779   2
  -6   2  -5 765.179 276.198   5
  -6  -2   5 802.241 291.717  19
   6   2  -5 1104.54 266.060   8
   6  -2   5 1049.63 317.774   8
   6   2  -5 1103.77 380.791  18
   6   2   5 86.1117 129.840   8
  -6  -2   5 552.762 253.192   4
  -6  -2   5 754.437 336.250  17
   6  -2   5 1067.33 330.658   6
   6  -2   5 1017.35 331.546  16
   6  -2   5 1163.88 355.769  14
   6   2  -5 468.240 253.979  14
   6  -2  -5 386.666 176.401   1
  -6   2  -6 1264.91 383.194  12
   6   2  -6 1368.20 207.112   3
  -6   2  -6 1703.01 440.650   5
  -6  -2   6 1607.97 468.529   5
   6   2  -6 2535.94 589.203  11
   6  -2   6 2793.62 544.163   1
   6   2  -6 2214.18 569.096   1
   6   2   6 154.793 135.375   8
  -6  -2   6 2010.56 520.427   2
  -6   2  -6 1977.43 373.236  10
   6   2  -6 2118.55 506.718  10
  -6   2  -6 1443.92 381.266  19
   6  -2   6 2608.43 528.632   6
  -6   2  -6 1327.34 375.588   3
  -6  -2   6 1354.48 378.545   4
   6  -2   6 2235.98 493.875   8
   6   2  -6 2410.16 375.554   8
  -6  -2   6 1675.41 494.758  17
   6   2  -6 2397.75 537.817  18
  -6  -2   6 1944.91 416.848  19
  -6  -2   6 1829.45 306.166  16
   6  -2   6 2838.64 556.863  16
  -6   2  -6 1393.36 419.694   4
   6  -2   6 2616.71 549.555  14
   6   2  -6 1215.93 370.616  14
  -6   2  -7 1574.03 443.825   3
  -6   2  -7 759.858 239.772  13
  -2   6  -7 2201.90 445.263  12
   2  -6   7 519.279 261.372   6
  -6   2  -7 1578.98 436.633   5
  -6  -2   7 2459.92 602.616   5
   6  -2   7 2764.27 568.177   1
   6   2  -7 4123.63 796.549  11
   6   2  -7 2969.20 690.022   1
  -6  -2   7 2829.82 623.973   2
  -6   2  -7 2357.25 356.923   9
   6   2  -7 3157.97 649.884  18
  -6   2  -7 1884.61 392.348  10
   6   2  -7 3040.64 654.735  10
  -6   2  -7 1764.14 464.789  19
  -6  -2   7 2790.00 678.276  17
  -6   2  -7 2031.06 556.996   4
  -6  -2   7 2066.22 463.404   4
   6   2  -7 2645.03 379.702   8
  -6  -2   7 2646.86 445.032  19
   6  -2   7 2971.83 566.638   8
   6  -2   7 2752.77 568.138  16
  -2   6  -7 2597.10 632.208   3
   6  -2   7 3219.80 617.589   6
   6   2  -7 1776.58 476.665  14
   6  -2   7 3174.38 635.372  14
  -6  -2   7 2484.41 393.477  16
   6   2  -7 2556.68 296.319   3
   2   6  -8 1702.45 615.362  13
  -6   2  -8 710.470 220.218  13
  -2   6  -8 1543.51 377.940  12
   2  -6   8 636.191 295.735   6
  -2  -6   8 189.608 145.932   6
  -6  -2   8 1196.82 386.960   5
   6   2  -8 2051.21 549.342  11
  -6   2  -8 639.620 286.789   5
   6   2  -8 1665.79 508.178   1
   6   2  -8 1128.65 246.375   8
  -6  -2   8 1803.35 498.319   2
  -6   2  -8 932.983 259.466   9
  -6   2  -8 939.216 300.698  10
   6   2  -8 1204.42 393.013  10
  -6  -2   8 1524.07 316.222  19
  -6   2  -8 964.646 351.006  19
   6   2  -8 1515.05 431.879  18
   2   6  -8 987.490 393.716  18
   6  -2   8 1738.08 455.951   8
  -6  -2   8 1226.25 334.462   4
  -2  -6   8-30.0800 284.532  17
   6  -2   8 1176.03 388.559   1
  -6  -2   8 1073.22 390.653  17
  -6   2  -8 802.845 335.495   4
   6  -2   8 1839.10 461.000  16
  -6  -2   8 1314.48 302.408  16
  -6   2  -8 1218.86 549.315   7
   2   6  -8 1360.77 406.013   3
   6  -2   8 1774.34 481.605   6
  -2   6  -8 1523.85 469.853   3
  -6   2  -8 1595.09 600.432  15
   6  -2   8 2120.75 525.238  14
   6   2  -8 906.711 334.471  14
   6   2  -8 2494.44 660.068   9
   2   6  -9 2679.15 774.632  13
  -6   2  -9 998.550 314.666   9
   2  -6   9 1096.27 353.631   6
  -2  -6   9 508.334 225.361   6
  -6  -2   9 2021.33 502.153   5
   6   2  -9 2900.72 687.024  11
  -6  -2   9 2238.82 377.428  19
   6   2  -9 2195.63 564.293   1
  -6  -2   9 2376.23 598.936   2
  -6   2  -9 1120.22 333.637  10
   6   2  -9 1101.40 431.355  10
  -6   2  -9 1096.54 333.667  19
   6  -2   9 632.851 287.551   1
   2   6  -9 2491.32 677.110  18
  -6  -2   9 2081.69 414.576   4
  -6   2  -9 869.143 374.858   4
   6   2  -9 2566.86 782.836   9
   6   2  -9 2217.38 552.753  18
  -2   6  -9 2621.27 506.918  12
  -2   6  -9 2685.15 621.951   3
   6  -2   9 3090.87 668.534  16
  -6  -2   9 2079.59 409.422  16
  -2   6  -9 1698.40 564.267  13
   2   6  -9 2440.85 583.277   3
  -6  -2   9 2444.29 632.238  17
  -6   2  -9 1460.18 704.683   7
   6  -2   9 2731.29 650.970   6
   6  -2   9 2794.73 596.905   8
  -6   2  -9 1359.36 602.665  15
   6  -2   9 3007.94 684.667  14
   6   2  -9 1064.23 348.701  14
  -2  -6   9 66.6455 238.358  17
   2   6 -10 289.018 199.742   3
   6  -2  10 538.381 345.013   6
  -2   6 -10 402.291 218.402   3
   2   6 -10 201.343 147.981  13
  -6  -2  10 624.726 244.330  19
   2  -6  10 94.9739 163.108   6
  -2  -6  10 235.496 177.330   6
  -2   6 -10 385.517 193.726  12
   6   2 -10 724.902 420.884  11
  -6  -2  10 903.636 484.192   2
  -6  -2  10 351.129 202.607   5
  -6   2 -10 500.626 312.662  10
   6   2 -10 640.861 299.889  10
  -6   2 -10 367.679 276.260  19
  -6   2 -10 952.668 383.716   9
  -2   6 -10 125.478 55.3082  18
   6  -2  10 511.535 200.830   2
   6   2 -10 562.526 354.154  18
  -6   2 -10-178.118 339.898   4
  -6  -2  10 1224.38 541.918  17
  -2   6 -10 152.991 62.3085  13
   2  -6  10-43.4815 35.1853  17
  -2  -6  10 35.0931 133.999  17
   6  -2  10 671.363 378.717   8
   2   6 -10 319.788 230.067  18
  -6  -2  10 340.107 179.277  16
  -6  -2  10 275.768 165.179   4
   6   2 -10 380.368 222.620   1
   6   2 -10 1166.52 541.619   9
   6  -2  10 925.511 413.992  16
  -6   2 -10 381.643 430.654   7
  -6   2 -10 516.706 484.297  15
   6  -2  10 604.816 377.945  14
   6   2 -10 259.692 168.144  14
   6   2 -11 3213.94 886.007   9
  -2   6 -11 3326.55 845.318  13
   2   6 -11 5014.19 1039.28  13
   6   2 -11 4028.15 754.217  18
  -2   6 -11 4647.06 706.479  12
   2   6 -11 3436.65 497.919  12
   6  -2  11 4965.78 837.609   8
  -6  -2  11 4053.24 712.764   5
   6   2 -11 4351.88 875.662  11
   6  -2  11 5998.83 600.970   2
   6   2 -11 3385.94 714.498   1
  -6  -2  11 4370.73 828.153   2
  -6  -2  11 4076.71 557.589   4
  -2  -6  11 896.642 275.709   2
  -6   2 -11 1058.94 356.819  10
  -6   2 -11 1402.60 445.441  19
  -2   6 -11 4835.29 693.756  18
  -6   2 -11 957.085 303.757   9
  -6   2 -11 1641.05 738.495   7
   6   2 -11 1682.46 627.389  10
   2  -6  11 2494.56 564.681  17
  -6  -2  11 4432.15 869.360  17
  -2  -6  11 1770.63 619.096  17
   6  -2  11 5342.25 912.245  16
  -6  -2  11 3551.95 593.010  16
   2  -6  11 2235.98 602.011  16
  -6   2 -11 1606.30 772.242  15
  -2   6 -11 5412.57 564.075   4
   6  -2  11 4981.02 926.951   6
  -2  -6  11 2333.43 502.739   6
   2  -6  11 3329.06 668.963   6
   2   6 -11 4385.45 784.470   3
  -2   6 -11 5343.34 933.798   3
   6  -2  11 5168.01 937.597  14
   6   2 -11 1786.59 424.582  14
   2  -6  11 2129.27 370.092  14
  -6   2 -12 160.078 144.331  19
   2   6 -12 655.029 296.362   3
  -2   6 -12 565.051 398.797  13
  -2   6 -12 895.593 384.056   3
  -2  -6  12 434.832 321.380  17
  -2  -6  12 332.782 219.069   6
   2  -6  12 683.807 314.069   6
   6   2 -12 470.110 330.890   9
  -2  -6  12 189.535 37.6634  16
  -2   6 -12 600.588 269.821  12
   2   6 -12 594.115 216.241  12
  -6  -2  12 632.514 255.434   5
   6   2 -12 512.302 302.843  11
   6   2 -12 402.152 335.009  10
  -2   6 -12 771.613 259.396  18
  -6   2 -12 52.7534 72.7610   9
  -6  -2  12 669.845 214.094   4
   2   6 -12 236.530 310.242  18
   6   2 -12 566.235 313.210  18
  -6  -2  12 838.139 408.573  17
   6  -2  12 944.082 240.797   2
   2  -6  12 671.855 272.138  17
   2   6 -12 641.304 366.965  13
  -6   2 -12 194.450 203.723  10
  -2   6 -12 956.909 238.913   4
   6  -2  12 743.712 354.386   8
   6  -2  12 817.605 348.158  16
  -6   2 -12-34.7909 347.920   7
  -6  -2  12 408.463 210.725  16
  -6  -2  12 645.118 333.718   2
  -2  -6  12 40.3781 234.433   2
   2  -6  12 292.567 170.530  16
   2  -6  12 453.174 168.666  14
  -6   2 -12 41.8811 33.4688  15
   6   2 -12 355.933 259.693   1
   6  -2  12 526.744 332.978  14
   6   2 -12 231.257 145.853  14
   6  -2  12 587.726 314.057   6
   6   2 -13 1011.17 400.605   1
  -2  -6  13 740.865 301.977   6
  -2   6 -13 911.906 484.424  13
   2   6 -13 1654.04 604.963  13
  -2   6 -13 1469.56 529.308   3
  -2   6 -13 1627.75 425.613  12
   2   6 -13 1257.18 316.506  12
  -6  -2  13 1332.34 408.670   5
   6  -2  13 2109.05 390.905   2
   6   2 -13 1280.50 507.937  11
  -6  -2  13 1566.16 329.527   4
  -6  -2  13 1099.92 398.174  16
  -2  -6  13 621.889 327.188   2
   6   2 -13 167.912 79.4998  10
  -6   2 -13 169.134 152.070  19
  -2   6 -13 1636.22 398.699  18
   2   6 -13 1793.58 521.838  18
   6   2 -13 1102.18 412.701  18
  -6  -2  13 1943.83 596.096  17
   6  -2  13 1384.05 458.548   8
   2  -6  13 1599.80 420.719  17
  -2  -6  13 1186.92 508.264  17
  -2   6 -13 1721.86 386.207   4
   2  -6  13 1350.00 406.500   6
   2  -6  13 1628.43 577.201  16
   6   2 -13 897.057 456.637   9
  -6   2 -13-165.749 272.697   9
   2  -6  13 361.270 98.2210   8
  -6   2 -13-129.993 497.614   7
   6  -2  13 1789.73 562.246  16
  -6  -2  13 1521.02 515.560   2
  -6   2 -13 49.3043 364.826  15
   2   6 -13 1650.93 486.920   3
   2  -6  13 1607.81 324.945  14
   6  -2  13 1245.42 512.194  14
   6   2 -13 413.174 205.976  14
   6  -2  13 1536.49 538.329   6
  -2  -6  13 729.411 382.193  16
   2  -6  14 927.310 403.374   6
   6   2 -14 663.071 345.798   1
  -2   6 -14 632.005 399.218  13
   2   6 -14 922.711 480.983  13
   2   6 -14 863.369 375.971   3
  -2   6 -14 603.275 333.741   3
  -2   6 -14 997.412 334.226  12
   2   6 -14 767.188 251.709  12
  -2  -6  14 621.108 397.163   2
   6  -2  14 1433.92 328.484   2
   6   2 -14 379.256 272.090  11
  -6  -2  14 762.315 273.974   5
  -6   2 -14-77.1795 287.429  10
   6   2 -14 653.840 333.384  18
  -2   6 -14 949.739 296.150  18
   6   2 -14 39.5038 129.252   9
   2   6 -14 891.077 364.867  18
  -6  -2  14 858.322 237.041   4
  -6   2 -14 12.2656 127.988  19
   6  -2  14 659.360 276.686   8
  -2  -6  14 411.551 256.054   6
   2  -6  14 918.508 232.562  14
  -2   6 -14 817.972 305.550   4
   2  -6  14 888.268 354.408  17
  -6  -2  14 872.715 392.019  17
  -2  -6  14 690.421 384.570  17
  -2  -6  14 575.740 287.942  16
   2  -6  14 508.619 409.733  16
   2  -6  14 358.990 146.723   8
   6  -2  14 870.776 386.266  16
  -6  -2  14 823.379 389.556   2
   6   2 -14-10.3896 344.426  10
  -6  -2  14 746.038 302.633  16
   6  -2  14 638.568 402.295   6
   6   2 -14 161.998 105.473  14
   6  -2  15 1294.73 461.828   8
  -2  -6  15 397.395 251.262   6
   2  -6  15 864.783 456.438   6
  -2   6 -15 1293.22 559.609  13
   2   6 -15 1609.39 602.085  13
  -2   6 -15 1618.46 470.412  12
   2   6 -15 1587.60 389.743  12
  -2   6 -15 1255.47 502.750   3
   6   2 -15 975.587 417.741   1
  -2   6 -15 2288.38 581.871  11
   2   6 -15 2411.73 683.013  11
   6  -2  15 2262.53 470.823   2
   6   2 -15 1063.12 501.272  11
  -6   2 -15-44.2397 213.631  19
   2  -6  15 402.466 196.583   2
  -6  -2  15 1382.43 376.402   5
   6   2 -15-346.841 606.037  10
  -2  -6  15 1881.80 595.080  17
  -2  -6  15 1356.94 662.648   2
   2   6 -15 1960.72 538.824  18
  -2   6 -15 1815.74 417.348  18
  -2  -6  15 1276.18 510.685  16
   2   6 -15 1895.61 776.851   7
  -6  -2  15 1552.71 313.180   4
  -6   2 -15-321.299 418.384  10
   2  -6  15 1104.65 287.231   8
  -2   6 -15 574.685 218.783   4
   6   2 -15 1134.64 458.719  18
  -6  -2  15 2348.00 694.171  17
   2  -6  15 1614.49 589.873  16
   2   6 -15 1911.99 763.761  15
   6  -2  15 2248.02 683.870  16
  -6  -2  15 1434.38 470.846  16
  -6  -2  15 1409.10 511.875   2
   6   2 -15 527.283 441.700   9
   2  -6  15 2003.55 380.109  14
   2   6 -15 1635.59 505.582   3
   6  -2  15 1723.98 612.323   6
   6   2 -15 384.819 185.662  14
   2  -6  15 2269.89 534.967  17
   6  -2  16 208.065 189.739   8
  -2  -6  16 148.084 112.643   6
   2  -6  16 309.307 211.433   6
   2   6 -16 221.145 331.787  15
  -2   6 -16 448.948 358.360  13
   2   6 -16 156.800 229.208  13
   2  -6  16 117.141 72.4007   8
   2   6 -16 128.662 141.522   3
  -2   6 -16 98.8700 159.652   3
  -2   6 -16 197.911 166.758  12
   6   2 -16-56.0538 161.415   1
   2   6 -16 166.743 143.894  12
   2   6 -16 200.987 112.383  11
  -2   6 -16 408.477 261.997  11
   6   2 -16 67.5770 168.206  11
   2  -6  16 85.0691 133.723  16
  -6   2 -16 18.1651 144.479  19
  -6  -2  16 109.216 63.2923   5
  -2  -6  16 530.641 459.659   2
   6   2 -16-820.463 830.273  10
   6   2 -16 21.6614 137.651   9
  -2   6 -16 129.820 110.765  18
   6   2 -16 152.204 189.938  18
   2  -6  16 167.409 85.1389  17
  -6  -2  16 139.752 191.504  17
  -2  -6  16 234.622 259.239  16
   6  -2  16 107.735 225.987   6
  -6  -2  16 127.089 67.0253   4
   6  -2  16 330.254 332.226  16
  -6  -2  16 114.991 164.506  16
   2   6 -16-39.3833 71.4273   7
   2   6 -16 84.6170 250.982  18
   6  -2  16 305.873 209.305   2
  -6  -2  16 87.8518 222.467   2
  -2  -6  16 120.555 186.657  17
  -2   6 -16 298.664 436.771  15
   2  -6  16 27.8224 55.9843   2
   2  -6  16 226.905 154.010  14
   6   2 -16 11.7334 62.1718  14
  -2  -6  17 445.622 249.108   6
   2  -6  17 1625.51 585.795  16
   2  -6  17 880.094 495.650   6
  -2   6 -17 1277.30 508.900  13
   2   6 -17 855.974 309.459  13
   2   6 -17 1382.60 372.167  12
   2   6 -17 1252.63 453.183   3
   2   6 -17 1873.35 535.718  18
   6   2 -17 815.834 410.357  18
  -2  -6  17 1608.81 641.211   2
  -2   6 -17 1079.10 465.071   3
  -2   6 -17 1189.58 423.365  12
   6   2 -17 660.809 383.085   1
  -6  -2  17 1535.88 431.327   5
   2   6 -17 1844.29 682.778  11
  -2   6 -17 2098.84 565.094  11
   2  -6  17 1377.38 329.352   8
   6  -2  17 2209.01 513.145   2
   6   2 -17 438.435 340.178  11
   2   6 -17 1932.15 876.554  10
  -6   2 -17-49.9881 162.118  19
   2  -6  17 942.120 516.603   2
  -2   6 -17 1439.79 371.971  18
   6   2 -17 474.552 237.924   9
  -6  -2  17 1409.81 292.704   4
   2  -6  17 2253.67 542.151  17
  -6  -2  17 2195.61 681.723  17
  -2  -6  17 1434.15 496.488  17
  -2  -6  17 1567.99 549.481  16
   6  -2  17 2038.29 770.719  16
   2   6 -17 1195.68 719.426   7
  -6  -2  17 1826.73 566.009  16
  -2   6 -17 1679.31 930.773   7
  -6  -2  17 1653.22 584.640   2
   2   6 -17 905.567 551.807  15
  -2   6 -17 1348.96 788.157  15
   6  -2  17 1646.31 644.958   6
   2  -6  17 942.774 307.173  14
   6  -2  17 1750.12 594.929   8
  -6  -2  18 173.422 99.2100   5
  -6  -2  18 369.435 366.315  17
  -2   6 -18 150.069 202.779  13
   2   6 -18 44.2923 146.490  13
   2   6 -18 199.618 239.386   3
  -2   6 -18 58.6936 155.191  12
   2   6 -18 291.948 241.300  12
  -2   6 -18 155.953 285.655   3
  -6   2 -18 221.542 224.925  19
   6   2 -18 72.3883 192.371   1
   6   2 -18 189.932 214.717   9
   2   6 -18 266.887 272.804  11
  -2   6 -18 230.075 180.682  11
   6   2 -18 90.1410 149.747  11
  -2   6 -18 323.622 500.655  10
   2   6 -18 816.587 594.918  10
  -6  -2  18 88.5758 24.7016   2
  -2  -6  18 72.6833 134.582   2
   6  -2  18 387.076 253.637   2
   6  -2  18 344.248 299.854  16
   2   6 -18 136.849 336.789  18
   6   2 -18 16.3784 277.375  18
   2  -6  18 130.155 148.696   6
   6  -2  18 208.597 246.214   8
  -2   6 -18 199.402 140.275  18
  -2  -6  18 360.764 315.779  17
   2  -6  18 298.024 209.178  17
   2  -6  18 196.330 169.946   8
   2  -6  18 339.266 270.738  16
   2   6 -18-561.847 705.649   7
  -2  -6  18 200.191 197.299  16
  -6  -2  18 696.816 385.705  16
  -6  -2  18 135.051 95.1830   4
  -2   6 -18 206.677 382.257   7
   2  -6  18 153.974 33.5750   2
   2   6 -18-460.293 581.498  15
  -2   6 -18 168.088 299.139  15
   6  -2  18 99.7861 200.542   6
  -2  -6  18 107.261 289.739   6
   6  -3   0 555.705 223.491   6
   6  -3   0 812.843 274.661   1
   6   3   0 1078.44 516.695   1
   6  -3   0 849.731 283.945   8
   6   3   0 504.712 190.485   8
   6  -3   0 925.655 294.220  14
  -6   3   0 1422.89 351.336  19
   6  -3   1 281.440 159.960  14
   6  -3  -1 223.068 138.400  14
  -6  -3   1-63.5026 121.233  17
   6  -3   1 310.793 168.134   6
  -6   3  -1 329.944 180.493  12
   6  -3   1 313.025 156.115   1
  -6   3   1 431.852 198.271  19
  -6   3  -1 488.959 196.337  19
   6  -3  -1 131.042 44.4085   1
  -6   3  -1 273.696 128.387   5
   6   3  -1 247.273 235.487   1
   6   3  -1 236.291 135.218  18
   6   3   1-33.5475 275.535   8
   6  -3   1 291.445 144.060   8
   6  -3  -1 46.9503 72.0224   8
  -6   3  -1 240.448 114.670   4
   6   3  -1 282.768 192.225   8
  -6   3  -2 2914.44 541.703  12
   6   3  -2 2265.08 513.938   8
   6  -3   2 3229.32 558.454   8
   6   3  -2 3371.39 822.630   1
  -6   3  -2 3250.92 493.378   5
   6  -3   2 2732.79 493.769   1
  -6   3  -2 3415.60 543.995  19
   6   3  -2 3612.40 734.609  18
  -6   3  -2 3162.77 518.842   4
  -6  -3   2 286.407 197.980  17
   6  -3   2 2646.82 497.794   6
   6  -3   2 3030.02 526.693  14
   6  -3   3 86.0037 112.586  14
   6  -3   3 64.4074 52.5041   6
  -6   3  -3 74.0489 80.0379  12
  -6  -3   3-100.203 178.205  17
   6   3  -3-37.5083 134.647  13
  -6  -3   3-136.611 257.248   2
   6  -3   3 99.1459 87.9679   1
  -6   3  -3 136.946 100.370   5
  -6   3  -3 74.3426 85.7350  19
   6   3  -3 239.186 215.858  18
   6   3  -3 112.309 130.046   8
   6   3  -3 118.801 171.194   1
   6  -3   3 108.520 121.505   8
  -6   3  -3 111.976 120.651   4
  -6   3  -3 37.6906 48.7587   3
   6   3  -4 1148.93 349.418  13
  -6   3  -4 1154.66 337.611   4
  -6   3  -4 1184.35 347.448  12
  -6   3  -4 1059.42 290.723   5
  -6  -3   4 660.793 345.173  17
  -6   3  -4 575.363 269.860   3
   6  -3   4 1266.99 329.510   1
  -6   3  -4 1045.86 309.717  19
  -6  -3   4 360.989 252.355   2
   6   3  -4 1152.36 402.554  18
   6   3  -4 874.764 287.267   8
   6  -3   4 1126.79 325.306   8
   6   3  -4 1007.70 445.588   1
  -6  -3   4 361.416 207.465  19
   6  -3   4 1174.39 343.031   6
   6  -3   4 1273.55 348.650  14
   6   3  -5 2129.94 487.029  13
  -6   3  -5 1682.60 418.540  12
   6   3  -5 1699.48 574.737   1
  -6   3  -5 1581.77 361.615   5
   6  -3   5 2229.09 434.188   1
  -6  -3   5 1198.90 481.619   2
   6   3  -5 2095.42 541.941  18
  -6   3  -5 1869.80 450.586   4
  -6  -3   5 997.546 402.073  17
   6   3  -5 1995.88 385.381   8
  -6   3  -5 2077.93 438.148  19
  -6  -3   5 602.252 266.313  19
   6  -3   5 1943.73 456.181   6
  -6   3  -5 1522.85 438.157   3
   6  -3   5 1978.52 452.039  14
   6  -3   5 1971.84 435.739   8
  -6   3  -6 1137.14 383.044   3
   6   3  -6 1680.71 432.886  13
  -6  -3   6 896.397 405.738  17
  -6   3  -6 992.359 340.062  12
  -6   3  -6 1375.59 354.830   5
   6   3  -6 1708.87 328.850   8
  -6  -3   6 722.319 345.931   5
   6  -3   6 1788.97 380.187   1
  -6   3  -6 1454.20 372.350  19
  -6   3  -6 1193.97 367.485   4
   6  -3   6 1288.56 358.206   8
  -6  -3   6 987.504 408.734   2
  -6  -3   6 829.181 288.692  19
   6  -3   6 802.961 271.122  16
   6   3  -6 1442.96 453.335  18
   6  -3   6 1654.35 441.430   6
   6  -3   6 1560.03 396.462  14
   6   3  -6 1411.74 518.376   1
   6   3  -7 1941.28 468.593  13
  -3   6  -7 1694.94 424.069  12
  -6   3  -7 1283.35 371.806  12
   3  -6   7 383.289 214.817   6
  -6   3  -7 1689.28 411.168   5
   6   3  -7 1695.86 562.710   1
   6  -3   7 2477.92 464.315   1
  -6  -3   7 833.598 350.661   5
  -3   6  -7 1519.46 523.797   3
  -6  -3   7 1425.04 344.616  19
  -6   3  -7 1632.02 401.604  19
   6   3  -7 1994.69 525.474  18
  -6   3  -7 1647.60 451.851   4
   6   3  -7 1839.86 319.419   8
  -6  -3   7 425.570 193.615   4
  -6  -3   7 1171.39 438.988   2
  -6  -3   7 1097.30 412.242  17
  -6  -3   7 746.528 221.805  16
   6  -3   7 1982.27 533.819  16
   6  -3   7 1733.58 426.615   8
   6   3  -7 986.992 222.130   3
   6  -3   7 2134.14 507.453   6
   6  -3   7 1983.46 459.540  14
  -6   3  -7 1318.55 413.167   3
   6   3  -7 277.182 208.710  14
   3   6  -8 3098.20 816.650  13
   6   3  -8 3814.89 679.421  13
  -6   3  -8 253.196 140.543  13
  -6   3  -8 2177.06 527.189  12
  -3   6  -8 3132.07 594.607  12
  -6  -3   8 1571.60 498.064   5
  -6   3  -8 2514.21 527.169   5
   6   3  -8 4163.10 828.667  11
   6   3  -8 3358.81 770.679   1
   6  -3   8 3625.49 597.911   1
  -6  -3   8 2786.20 697.137   2
  -6  -3   8 1094.14 304.956   4
  -6  -3   8 2994.54 479.913  19
  -6   3  -8 2597.88 523.705  19
   3   6  -8 2532.88 717.863  18
   6   3  -8 3748.66 717.827  18
   6   3  -8 2870.15 384.758   3
   6  -3   8 3406.97 598.936   8
   6   3  -8 3262.00 394.628   8
  -6  -3   8 2430.27 645.313  17
  -6   3  -8 2895.70 626.322   4
   6  -3   8 3566.04 711.086  16
   6  -3   8 3846.73 704.724   6
  -3   6  -8 3603.71 765.929   3
   3  -6   8 1410.00 436.600   6
   6  -3   8 3564.87 634.709  14
   6   3  -8 298.127 178.766  14
  -6   3  -8 2244.85 554.384   3
  -6  -3   8 2395.43 430.447  16
  -3   6  -9 1342.42 427.788   3
   6  -3   9 1797.23 496.238   6
  -6   3  -9 1313.25 436.938  13
  -3   6  -9 1369.71 394.739  12
   3  -6   9 657.891 271.576   6
   6   3  -9 1197.88 425.465   1
  -3  -6   9 384.225 200.316   6
  -6   3  -9 1339.17 500.848   3
   6  -3   9 2235.32 627.651  16
   6   3  -9 1660.02 552.905  11
  -6  -3   9 2000.19 694.775   2
  -6   3  -9 814.507 342.255   5
  -6  -3   9 1114.08 409.659   5
  -6   3  -9 916.711 189.236  10
   6   3  -9 1424.11 427.722  10
  -6   3  -9 1488.51 591.435   4
   3   6  -9 1197.74 494.841  18
   6  -3   9 1638.14 445.343   8
   6   3  -9 1368.14 433.486  18
   6   3  -9 1502.51 272.052   8
  -6  -3   9 779.901 280.918   4
  -6  -3   9 1966.10 648.413  17
  -3  -6   9 89.3304 187.716  17
   3   6  -9 1608.71 577.613  13
   3   6  -9 1023.55 360.818   3
   6   3  -9 1471.71 304.221   3
   6   3  -9 463.082 260.420  14
   6  -3   9 1657.74 417.339  14
   3   6 -10 4426.34 956.326  13
  -3   6 -10 2223.94 679.406  13
  -6   3 -10 1360.30 383.923  13
  -6   3 -10 2176.67 555.960  12
  -3   6 -10 4336.02 676.629  12
  -3   6 -10 4522.78 553.225   4
   6  -3  10 1786.43 483.612   1
  -6  -3  10 2689.25 638.282   5
   6   3 -10 5340.53 981.855  11
  -6   3 -10 1351.83 390.431   5
  -6  -3  10 3668.11 796.261   2
  -6   3 -10 3310.91 622.863  10
  -3  -6  10 252.794 422.063   2
  -6  -3  10 3731.17 588.000  16
  -6   3 -10 2538.17 523.244  19
  -6  -3  10 3437.23 476.219  19
  -6   3 -10 4461.11 673.014   9
   6  -3  10 5045.69 888.436  16
  -3   6 -10 3120.61 535.298  18
   3   6 -10 4504.10 909.307  18
   6   3 -10 3964.85 763.387  18
  -6  -3  10 1944.75 435.960   4
  -6   3 -10 2531.75 648.559   4
   6  -3  10 4624.53 741.006   8
  -6  -3  10 3412.62 778.790  17
   3  -6  10 825.917 271.598  17
  -3  -6  10 864.059 425.677  17
   6   3 -10 3558.64 778.223   1
   3  -6  10 667.558 155.148   8
  -6   3 -10 4034.73 1057.33  15
   6  -3  10 5123.59 860.206   6
   3   6 -10 4168.05 734.564   3
   3  -6  10 2485.51 593.810   6
  -3  -6  10 1498.36 385.918   6
  -3   6 -10 3885.03 799.652   3
   6  -3  10 5237.69 845.824  14
   3  -6  10 1995.99 384.208  14
   6   3 -10 3955.08 503.093   3
   6   3 -10 305.239 203.342  14
  -6   3 -10 2075.21 556.358   3
  -6   3 -11 180.712 152.632   9
   6  -3  11 41.6715 196.849   6
   3  -6  11 20.0184 42.6597  14
  -3   6 -11 42.4229 43.9218  13
   3   6 -11 74.9660 127.277  13
  -6   3 -11 70.6009 130.311  13
  -3  -6  11-9.99558 93.5137   6
   3  -6  11-11.9346 136.468   6
  -3   6 -11 44.5907 119.996   3
  -3   6 -11 78.2504 106.683  12
   6   3 -11 109.234 99.7828   3
   6   3 -11 164.644 195.486  14
   6   3 -11 73.1332 213.466  11
  -3  -6  11 50.4954 171.027  17
  -6  -3  11 113.433 157.918   5
   6   3 -11 106.139 180.566   1
  -3  -6  11-383.064 524.830   2
  -6   3 -11 34.1057 80.4193  10
   6   3 -11 338.859 314.465  10
   6  -3  11 27.1692 56.9779   8
   6   3 -11 305.823 402.979   9
  -6   3 -11 46.7618 54.4168  19
  -6  -3  11 93.0816 83.3104  19
  -3   6 -11 25.9330 53.0068   5
   3  -6  11-381.114 467.345  16
  -3   6 -11 115.120 113.431  18
   3   6 -11 62.8323 137.000  18
   6   3 -11 134.947 158.826  18
  -6   3 -11-29.3689 165.904   4
   3  -6  11-18.9150 156.569  17
  -6  -3  11-69.9871 225.721  17
  -6  -3  11 33.1896 135.641   2
  -6  -3  11 88.7619 84.2414   4
  -6   3 -11 82.0179 235.240   7
   3  -6  11-244.189 138.805   8
  -6  -3  11 81.3151 88.2460  16
   6  -3  11 74.9915 141.513  16
  -3   6 -11 133.047 116.283   4
   3   6 -11 125.566 66.3793   3
  -6   3 -11 172.159 276.191  15
   6  -3  11 32.4954 122.891  14
   6   3 -12 3201.47 989.721   9
   3   6 -12 2979.68 809.627  13
  -3  -6  12 1255.59 345.582   6
  -6   3 -12 1167.35 398.851  13
   6   3 -12 2110.48 226.954  12
  -3   6 -12 3282.41 634.121  12
   3   6 -12 1775.73 340.240  12
   6  -3  12 3270.72 650.416   8
  -6  -3  12 1722.67 391.857   4
  -6  -3  12 2342.88 581.150   5
   6   3 -12 3277.80 819.710  11
  -3   6 -12 2980.29 316.405   5
   6   3 -12 2485.84 684.065   1
  -6  -3  12 2457.70 677.147   2
  -6   3 -12 1583.39 481.376  10
   6   3 -12 1982.81 648.802  10
   6  -3  12 951.376 240.108   2
  -6  -3  12 1031.99 229.672  19
  -3  -6  12 1250.28 409.020  16
  -3  -6  12 1013.50 519.397   2
  -6   3 -12 1498.57 408.642  19
  -3   6 -12 3033.27 490.286  18
   3   6 -12 3010.11 716.979  18
   6   3 -12 2600.54 647.549  18
   3  -6  12 1454.34 340.396   8
  -6   3 -12 479.316 160.059   4
   3  -6  12 2183.05 489.393  17
  -3  -6  12 1549.90 596.501  17
  -6  -3  12 2523.92 536.993  16
  -6   3 -12 1815.51 735.085  15
   6  -3  12 3458.09 807.142  16
   3  -6  12 1415.13 488.837  16
  -3   6 -12 2190.18 664.580  13
  -3   6 -12 3639.47 562.622   4
  -6  -3  12 2751.18 732.631  17
  -6   3 -12 1889.82 789.687   7
   6  -3  12 3663.82 786.577   6
  -6   3 -12 1968.93 499.842   9
   3  -6  12 1830.41 589.452   6
   3   6 -12 2932.90 628.777   3
   6  -3  12 3585.72 783.680  14
  -3   6 -12 2605.92 685.679   3
   3  -6  12 2677.05 457.513  14
   6   3 -12 204.728 171.239  14
  -3  -6  13 925.774 468.288  17
   3  -6  13 932.134 274.804  14
  -3  -6  13 402.030 222.297   6
   3   6 -13 946.093 362.637   3
  -3   6 -13 625.585 351.404  13
   3  -6  13 918.402 395.301   6
   3   6 -13 966.160 454.864  13
  -3   6 -13 684.904 353.392   3
   6   3 -13 883.565 166.281  12
   3   6 -13 731.914 218.461  12
  -3   6 -13 868.430 342.536  12
  -6   3 -13 520.699 272.005   9
  -3   6 -13 670.541 170.945   5
   6   3 -13 957.779 437.672  11
   6   3 -13 721.363 364.606   1
   3  -6  13 746.618 403.810  16
  -6  -3  13 820.779 360.671   5
  -3  -6  13 279.830 301.755   2
  -6   3 -13 655.068 354.425  10
   6   3 -13 638.576 375.593  10
  -6   3 -13 539.948 277.467  19
  -3   6 -13 932.998 257.025  18
   6  -3  13 860.961 334.057   2
   3   6 -13 1273.59 459.625  18
   6   3 -13 713.429 329.931  18
  -3  -6  13 364.392 213.546  16
   3  -6  13 1127.49 341.904  17
   6  -3  13 1085.38 370.162   8
   6  -3  13 1059.48 430.606   6
  -6  -3  13 670.092 244.672   4
  -6  -3  13 1228.67 469.929  17
  -3   6 -13 915.855 307.760   4
   6   3 -13 914.572 508.750   9
  -6  -3  13 1119.06 466.061   2
   3  -6  13 748.711 233.229   8
   6  -3  13 1253.14 497.529  16
  -6  -3  13 863.960 333.590  16
  -6   3 -13 611.211 473.609   7
  -6   3 -13 458.073 334.771  15
   6   3 -13 137.479 136.169  14
   6  -3  13 1051.29 452.866  14
   6  -3  14 1843.82 644.421   6
  -3  -6  14 474.822 245.502   6
   3   6 -14 1235.29 520.920  18
   3  -6  14 1463.19 521.211   6
   3   6 -14 1430.35 573.090  13
  -3   6 -14 1015.66 415.986   3
  -3   6 -14 1647.88 475.588  12
   3   6 -14 1440.48 330.740  12
  -3   6 -14 1039.42 453.227  13
   6  -3  14 1959.99 471.200   2
   6   3 -14 1736.76 592.875  11
  -3  -6  14 1353.22 532.189  17
  -6  -3  14 1346.06 433.068   5
   6   3 -14 1302.79 488.125  18
  -6   3 -14 597.406 249.316   9
  -6   3 -14 594.429 277.306  19
  -6   3 -14 742.831 356.098  10
  -3   6 -14 1490.19 460.810   4
   6   3 -14 591.356 358.680  10
  -6  -3  14 1693.14 576.725  17
   6   3 -14 1659.55 662.117   9
  -3   6 -14 1902.62 377.161  18
   6   3 -14 1173.04 458.219   1
  -6  -3  14 1141.47 302.703   4
   6  -3  14 1846.00 504.621   8
  -3  -6  14 873.073 469.625   2
   3  -6  14 1956.36 454.772  17
  -6  -3  14 1734.54 482.236  16
  -6  -3  14 1461.10 551.390   2
  -3  -6  14 1141.96 436.996  16
   3  -6  14 1187.09 311.780   8
   3  -6  14 1446.43 522.392  16
   6  -3  14 2005.66 659.010  16
  -6   3 -14 680.361 478.247   7
   3   6 -14 2359.05 818.036  15
  -6   3 -14 761.735 488.423  15
   3   6 -14 1634.85 496.191   3
   3  -6  14 1865.25 398.058  14
   6  -3  14 1456.37 539.372  14
  -3  -6  15 191.175 225.632   6
   3  -6  15 424.921 347.792   6
   6   3 -15 485.460 299.589   1
   3   6 -15 406.967 213.859  13
   3   6 -15 563.138 287.192   3
  -3   6 -15 593.193 326.862   3
  -3   6 -15 537.602 299.709  12
  -6   3 -15 220.174 189.018  19
   3   6 -15 496.987 198.601  12
   3   6 -15 979.692 458.625  11
  -3   6 -15 830.318 301.895  11
   6   3 -15 457.304 333.600  11
   6   3 -15 486.385 327.847  18
  -6  -3  15 523.597 256.335   5
  -6   3 -15 197.142 236.901   9
  -6   3 -15 208.867 184.393  10
  -3  -6  15 527.211 286.745  17
   6   3 -15 159.906 189.877  10
  -3   6 -15 36.5736 110.197  13
   6  -3  15 750.314 462.820   6
  -3  -6  15 572.808 415.209   2
   3   6 -15 252.820 355.137  18
   3  -6  15 424.961 199.191   8
   6  -3  15 767.393 318.616   2
  -3   6 -15 575.204 299.237   4
  -6  -3  15 818.168 410.048  17
  -6  -3  15 620.758 371.783   2
   6  -3  15 629.489 401.783  16
   6  -3  15 738.215 349.870   8
  -6  -3  15 512.897 193.928   4
   3  -6  15 631.265 234.859  17
  -3   6 -15 578.477 206.375  18
   3  -6  15 520.312 373.602  16
  -6  -3  15 499.519 290.638  16
  -6   3 -15-84.4967 486.446   7
   3   6 -15 477.139 405.251   7
  -6   3 -15-75.4278 421.249  15
   3   6 -15 661.211 410.399  15
  -3  -6  15 317.986 225.401  16
   6  -3  15 397.985 293.734  14
   6   3 -15 29.2685 71.6410  14
   3  -6  15 609.977 234.298  14
   6   3 -15 326.435 439.635   9
  -3  -6  16 234.368 115.470   6
   3  -6  16 1039.05 527.795   6
  -6  -3  16 1291.47 514.881   2
  -3   6 -16 844.445 414.098  13
   3   6 -16 1111.17 490.008  13
   3   6 -16 1187.03 422.318   3
   3   6 -16 1288.83 339.420  12
  -3   6 -16 1051.42 487.041   3
  -3   6 -16 870.533 356.260  12
   3   6 -16 1354.01 517.776  11
  -3   6 -16 1882.06 509.218  11
   6   3 -16 721.542 363.078   1
   6   3 -16 795.876 411.329  11
  -6  -3  16 1225.93 414.309   5
   3  -6  16 197.812 396.094   2
  -6   3 -16 114.452 93.9286  19
   6   3 -16 579.738 365.556   9
  -6   3 -16 408.073 319.649   9
  -3   6 -16 1263.03 322.827  18
   3  -6  16 1107.11 322.667   8
   3   6 -16 1324.24 537.207  18
   3  -6  16 1713.82 415.805  17
   6  -3  16 1538.60 484.551   8
  -3  -6  16 1155.54 501.559  17
  -6  -3  16 1015.43 277.729   4
  -6  -3  16 1426.87 555.320  17
  -6   3 -16 572.265 390.518  10
   6  -3  16 1754.95 485.725   2
   3  -6  16 1151.61 521.560  16
  -6   3 -16-254.346 654.867   7
   6  -3  16 1831.35 650.435  16
  -6  -3  16 1296.67 464.252  16
   3   6 -16 715.706 412.980   7
   6   3 -16 157.297 212.691  10
  -6   3 -16-464.309 713.701  15
   3   6 -16 454.241 333.948  15
  -3   6 -16 1866.51 883.425  15
   6   3 -16 1088.86 469.084  18
   3  -6  16 1309.69 377.033  14
  -3  -6  16 1297.16 474.089  16
   6  -3  16 1421.54 614.139   6
  -3  -6  16 1041.36 577.075   2
   3  -6  17-32.0788 89.9116   6
  -3   6 -17 510.907 485.746  13
   3   6 -17 220.108 440.937  13
   3   6 -17 300.443 430.568   3
  -3   6 -17 479.283 746.150   7
  -3   6 -17 187.960 363.632   3
  -3   6 -17 34.7658 198.267  12
   3   6 -17 196.569 247.234  12
   3   6 -17-42.3148 151.091  11
  -3   6 -17-36.5075 26.2176  11
   6   3 -17-87.2384 36.8660  11
  -3   6 -17 442.483 385.470  10
   3   6 -17 198.268 595.566  10
  -6  -3  17-122.795 157.452   5
   3   6 -17 195.109 399.682   1
   3  -6  17-149.337 198.968   2
  -6   3 -17 53.9118 7.66761  10
  -6   3 -17 97.4518 224.109  19
   6   3 -17-10.9966 288.631  10
   3  -6  17-85.1111 133.489   8
  -6  -3  17-66.3052 116.265  17
  -3  -6  17 155.681 319.040   2
   6  -3  17 156.251 239.418   8
   3   6 -17-17.1183 214.540  18
  -3   6 -17-27.0106 33.0097  18
   6   3 -17 35.8322 76.6331  18
   6   3 -17-209.323 261.058   1
   6  -3  17 139.351 316.307   2
   6   3 -17 18.1420 236.395   9
  -3  -6  17 106.455 184.656  17
  -6   3 -17 168.313 238.508   9
   3  -6  17-61.9859 91.3827  17
  -3  -6  17-145.004 248.584  16
   3  -6  17 105.700 127.423  16
  -6  -3  17-159.838 262.129   2
   6  -3  17 290.610 388.973  16
   3   6 -17-20.0705 427.435   7
  -6  -3  17-31.5094 87.7936  16
   3   6 -17-135.333 261.689  15
  -3   6 -17 405.834 570.803  15
   3  -6  17 54.7734 211.804  14
   6  -3  17 392.873 473.760   6
  -3  -6  17 200.680 435.256   6
   3  -6  18 1863.09 591.458   6
   3   6 -18 2032.75 602.190  18
   3   6 -18 1226.72 593.717  13
   3   6 -18 1818.40 409.945  12
   3   6 -18 1694.34 511.053   3
  -3   6 -18 1252.45 433.842  12
  -3   6 -18 1066.28 514.137   3
  -6  -3  18 1994.57 567.359   5
   3   6 -18 1865.06 727.661  11
  -6   3 -18 248.528 209.501  10
   6  -3  18 2536.06 632.524   2
  -3   6 -18 1906.18 525.196  11
   6   3 -18 1220.65 572.766  11
  -3   6 -18 1801.98 666.309  10
   3   6 -18 2139.21 813.503  10
   6   3 -18 272.145 572.524   9
  -3   6 -18 1274.25 334.882  18
  -6   3 -18-222.390 397.108   9
  -3   6 -18 1164.82 544.918  13
   3  -6  18 1802.69 407.079   8
  -3  -6  18 2063.64 845.251   2
   3  -6  18 801.540 418.838   2
   3   6 -18-62.4337 134.223   1
   6   3 -18 1545.39 575.514  18
  -3  -6  18 2491.39 773.063  17
   3  -6  18 2493.81 518.986  17
  -6  -3  18 2615.57 793.085  17
   6   3 -18 719.738 428.134   1
  -6   3 -18 175.831 120.575  19
   6  -3  18 2385.65 634.336   8
  -3  -6  18 1741.91 609.342  16
   3  -6  18 2413.76 819.270  16
  -6  -3  18 1812.80 690.539   2
   6  -3  18 2839.40 845.690  16
  -6  -3  18 1020.43 477.240  16
  -3   6 -18 1509.38 797.340   7
   6   3 -18-74.1501 397.210  10
  -3   6 -18 1418.27 771.835  15
   6  -3  18 1279.39 623.981   6
  -3  -6  18-53.7726 214.932   6
  -6   4  -1 278.622 101.303  19
   6  -4   1 18.1140 161.446   8
   6  -4   2 131.135 103.455  14
   6   4  -2-97.7184 255.735  18
   6  -4   2 35.6341 43.3513   6
  -6   4  -2 35.7358 130.545  12
  -6   4  -2 273.658 152.580  19
  -6  -4   2-129.723 204.234  17
   6  -4   2 175.303 114.400   8
   6  -4   2 70.8196 78.2424   1
   6  -4   3 621.304 243.655  14
  -6   4  -3 878.026 311.489  12
   6  -4   3 554.436 250.411   6
   6   4  -3 563.542 381.066   1
  -6   4  -3 1040.25 310.911  19
   6  -4   3 456.966 186.196   1
  -6   4  -3 673.153 212.034   5
   6   4  -3 233.272 118.055   8
  -6  -4   3-2.92552 123.870  17
   6   4  -3 862.885 370.360  18
   6  -4   3 726.845 263.221   8
  -6   4  -3 815.238 257.170   4
   6  -4   4-6.05055 60.9162  14
   6  -4   4-15.3990 39.2053   1
   6  -4   4 13.2514 40.2269   6
  -6   4  -4 56.4613 117.801  12
   6   4  -4-17.8440 88.3656  18
  -6   4  -4-26.4299 62.0061   5
   6   4  -4 47.5796 115.522   1
   6   4  -4 13.5511 100.084   8
   6  -4   4-1.34905 30.7840   8
  -6  -4   4 29.6238 169.602  17
  -6   4  -4-46.1032 74.7504   4
  -6   4  -4 27.1154 92.6676   3
  -6   4  -4-19.8965 41.2740  19
   6   4  -5 805.290 377.024  18
  -6   4  -5 571.445 292.947   3
   6  -4   5 775.930 278.849  14
   6   4  -5 748.160 340.642  13
   6  -4   5 707.360 299.422   6
  -6   4  -5 761.632 290.144  12
  -6   4  -5 691.336 238.328   5
  -6  -4   5-101.622 357.623   2
   6   4  -5 456.900 223.444   8
  -6   4  -5 716.394 254.792  19
   6   4  -5 399.988 253.929   1
   6  -4   5 640.123 254.384   8
  -6   4  -5 702.064 272.799   4
  -6  -4   5 171.260 315.263  17
   6  -4   5 670.871 229.662   1
  -6   4  -6 692.810 327.172   3
  -6   4  -6 1183.74 358.697   4
   6   4  -6 1064.29 391.989  13
  -6   4  -6 980.434 340.297  12
   4  -6   6 240.399 173.263   6
  -6   4  -6 1091.84 324.586  19
  -4   6  -6 811.466 274.481  12
  -6   4  -6 1052.79 299.041   5
   6  -4   6 1118.77 289.694   1
   6   4  -6 854.973 438.008   1
   6  -4   6 1064.21 358.572   6
  -6  -4   6 355.319 261.151   2
   6  -4   6 942.677 316.712   8
   6   4  -6 931.189 279.749   8
  -6  -4   6 251.210 81.4957  17
   6   4  -6 1188.85 446.416  18
  -6  -4   6 152.482 107.323  19
   6  -4   6 1021.90 315.654  14
   6   4  -7 1371.10 507.875  13
   4   6  -7 849.842 377.687  13
  -4   6  -7 1075.65 346.121  12
  -6   4  -7 892.233 350.251   3
  -6   4  -7 1075.13 353.590  12
  -6   4  -7 1081.42 292.448   5
  -6  -4   7 348.097 199.101  19
   6   4  -7 1004.06 250.542   8
   6  -4   7 1245.51 306.543   1
  -6  -4   7 584.896 352.206   2
   4   6  -7 674.328 273.556  18
   6   4  -7 1272.07 466.123  18
   6  -4   7 1164.69 365.181   8
  -4  -6   7-111.507 210.133  17
   4  -6   7 483.673 289.313   6
  -6  -4   7 367.246 337.825  17
   6   4  -7 737.443 406.061   1
  -6   4  -7 1090.93 313.373  19
  -6   4  -7 1196.45 351.746   4
  -4   6  -7 1032.98 436.613   3
   6  -4   7 1415.00 446.125   6
   6  -4   7 1188.63 352.829  14
  -4   6  -8 698.327 373.746   3
   6  -4   8 1105.95 346.072  14
   4   6  -8 915.573 430.107  13
   6   4  -8 1221.50 431.041  13
  -6   4  -8 714.231 319.221   3
   6  -4   8 1021.03 384.263   6
  -6   4  -8 1096.23 318.882  19
  -4   6  -8 1084.67 361.126  12
   4  -6   8 435.067 259.154   6
  -6   4  -8 1044.56 358.116  12
  -4  -6   8-37.0965 131.083   6
  -6  -4   8 744.104 443.860   2
  -4  -6   8-143.169 276.667  17
   6  -4   8 1160.39 287.285   1
  -6   4  -8 887.182 277.835   5
   4   6  -8 1021.51 457.268  18
  -6  -4   8 655.832 225.506  19
   6   4  -8 1405.07 286.180   8
   6   4  -8 1145.18 424.072  18
  -6  -4   8 456.966 321.829  17
   6  -4   8 948.230 305.417   8
  -6   4  -8 811.928 300.214   4
   6  -4   8 337.784 338.798  16
   6   4  -8 787.814 486.370   1
   6   4  -8 378.966 132.127   3
  -4   6  -9 1665.51 526.819   3
   4  -6   9 702.511 245.080  14
   4   6  -9 2174.12 643.023  13
   6   4  -9 2044.06 558.102  13
  -6   4  -9 177.477 163.257  13
  -6   4  -9 1171.57 425.825   3
   4  -6   9 980.233 448.897   6
  -6   4  -9 1312.66 402.027  12
  -4  -6   9 310.084 146.235   6
  -4   6  -9 1823.76 468.745  12
  -6   4  -9 1584.51 228.034  11
   6  -4   9 1851.22 394.589   1
   6  -4   9 1615.71 423.377   8
  -6  -4   9 1304.13 322.819  19
  -6   4  -9 1485.37 386.837  19
  -6  -4   9 1491.83 577.707   2
   4   6  -9 1817.29 637.049  18
   6   4  -9 1830.75 542.946  18
  -6   4  -9 1628.48 473.552   4
   6   4  -9 1801.27 277.933   8
  -4  -6   9 149.949 228.294  17
  -6  -4   9 1128.37 481.162  17
  -6   4  -9 1378.80 375.539   5
  -6  -4   9 536.847 172.713  16
   6  -4   9 1648.77 490.774  16
   6   4  -9 1089.10 483.344   1
   6   4  -9 1254.32 307.911   3
   6  -4   9 1784.93 503.806   6
   6  -4   9 1833.75 459.750  14
  -4   6  -9 1617.74 351.290   4
   4  -6  10 12.3720 53.6135  14
   4   6 -10 51.0966 87.3229  18
   6   4 -10 32.8284 58.7312   3
  -4   6 -10-40.4970 135.125   3
   6  -4  10 171.298 112.568   6
  -6   4 -10 90.2512 147.402  13
   4   6 -10-132.120 167.290  13
   6   4 -10 50.8443 67.9584  13
  -6   4 -10 144.763 206.926   4
   4  -6  10-72.2414 171.526   6
  -4  -6  10-15.8227 51.3963   6
  -6   4 -10-12.3870 35.2066   3
  -6   4 -10 73.5244 140.385  12
  -4   6 -10-8.57250 34.9217  12
   6   4 -10-21.5141 20.3283  11
  -6   4 -10 101.662 76.5850  11
  -6   4 -10 31.3868 55.9957   5
   6  -4  10 36.0914 65.0790   8
  -4  -6  10-87.1306 207.262  17
  -6  -4  10-16.2764 85.2009   2
  -4   6 -10-18.5298 92.7415   5
   6   4 -10 100.051 155.315  18
   6  -4  10-38.6498 97.9518   1
  -6  -4  10 77.8808 36.5054  16
  -6  -4  10-53.3863 127.361  17
   6  -4  10 260.599 321.224  16
   6   4 -10 55.5746 59.3384   8
   4  -6  10-179.709 128.015   8
  -6  -4  10 102.576 110.030  19
  -4   6 -10 68.0931 45.3274   4
  -6   4 -10 27.0217 51.9309  19
   6   4 -10 187.845 207.230   1
  -4   6 -10-206.275 335.458  13
   4   6 -10 69.3873 110.508   3
   6  -4  10 145.681 161.801  14
   4   6 -11 2644.80 741.012  13
   6   4 -11 2810.35 656.167  13
  -6   4 -11 305.501 195.403  13
  -4  -6  11 878.561 259.163   6
  -6   4 -11 1491.42 494.271   4
  -4   6 -11 2428.76 569.401  12
  -6   4 -11 1350.23 422.025  12
  -6   4 -11 1526.86 512.979   3
   6   4 -11 2962.72 765.256  11
  -6   4 -11 1233.82 217.775  11
  -4   6 -11 2492.95 342.726   5
  -6  -4  11 1954.82 671.933   2
  -6  -4  11 880.992 320.005   5
  -6   4 -11 1345.24 416.506   5
   6   4 -11 2810.16 802.610  10
  -4   6 -11 848.610 372.170  13
   4  -6  11 1225.13 203.569   1
  -6   4 -11 1723.95 416.308  19
   4  -6  11 1171.41 330.033   8
   6  -4  11 2258.56 510.490   8
   6  -4  11 1045.30 293.319   1
  -4   6 -11 2221.55 394.507  18
   4   6 -11 2309.73 684.165  18
   6   4 -11 2542.12 678.816  18
  -4   6 -11 2787.98 506.080   4
   4  -6  11 1721.01 443.384  17
  -4  -6  11 796.931 460.145  17
  -6  -4  11 1822.86 339.510  19
  -6  -4  11 1684.24 421.063  16
   6  -4  11 2373.27 666.281  16
  -6  -4  11 1890.77 614.689  17
   6  -4  11 2813.63 668.328   6
   4   6 -11 2088.34 516.879   3
   4  -6  11 1543.95 555.057   6
  -4   6 -11 2274.71 628.276   3
   6   4 -11 2467.34 434.389   3
   6  -4  11 2659.29 580.297  14
   4  -6  11 1697.80 394.315  14
  -4  -6  11 579.779 302.080   2
   6   4 -11 1754.47 593.339   1
   6   4 -12 417.412 275.007   1
   4  -6  12 833.004 263.185  14
   4   6 -12 840.977 318.785   3
   6  -4  12 934.051 416.843   6
  -4  -6  12 313.863 154.004   6
  -4   6 -12 1025.10 411.753   3
   4   6 -12 1142.03 464.950  13
  -6   4 -12 305.947 205.887  13
   4  -6  12 754.244 354.827   6
   6   4 -12 963.527 273.495   3
   6   4 -12 1312.48 473.526  13
  -6   4 -12 651.718 316.008  12
  -4   6 -12 832.142 326.724  12
  -6   4 -12 600.095 332.619   3
  -4   6 -12 1037.39 231.445   5
   6   4 -12 1418.04 550.382  11
  -6  -4  12 187.448 85.8068   5
  -4  -6  12 49.5977 176.209  16
  -6   4 -12 319.187 112.738  11
  -6   4 -12 1043.58 428.547  10
   6   4 -12 817.532 412.566  10
  -4  -6  12 769.305 431.272   2
  -6  -4  12 555.859 173.233  19
  -4   6 -12 701.480 401.191  13
   6  -4  12 991.796 337.800   8
  -4   6 -12 1038.74 254.020  18
   4   6 -12 1184.95 483.340  18
   6   4 -12 1053.31 457.265  18
  -6   4 -12 532.603 328.777   4
  -4  -6  12 633.359 351.463  17
  -6  -4  12 853.067 452.483  17
  -4  -6  12 541.596 140.916  19
  -4   6 -12 1097.05 343.305   4
   4  -6  12 443.136 199.037  16
   4  -6  12 640.387 252.482   8
  -6  -4  12 788.475 319.337  16
   6  -4  12 1215.35 476.248  16
  -6   4 -12 996.719 613.549  15
  -6  -4  12 693.231 408.875   2
  -6   4 -12 677.176 263.720  19
   6  -4  12 1247.34 431.174  14
   4  -6  12 901.951 283.902  17
   4  -6  13 643.306 269.795  14
  -4  -6  13-64.1845 181.673  16
   6  -4  13 454.429 327.100   6
  -4  -6  13 199.582 174.799   6
   4   6 -13 321.850 204.873   3
   6   4 -13 371.499 316.667   1
  -4   6 -13 385.128 300.594  13
  -6  -4  13 110.140 28.7309  19
   4   6 -13 567.287 311.789  13
  -6   4 -13 365.579 254.965  13
  -4   6 -13 482.394 331.201   3
  -6   4 -13 293.941 177.500  19
   6   4 -13 702.700 373.510  13
   6   4 -13 535.783 207.201   3
  -6   4 -13 253.143 239.176  12
  -4   6 -13 368.682 196.835  12
   6   4 -13 230.163 75.9931  12
  -6   4 -13 165.004 179.806   3
   6   4 -13 713.122 314.239  11
  -6  -4  13 340.161 163.041   5
  -4   6 -13 450.995 176.907   5
  -6   4 -13 96.6563 81.0331  11
  -4  -6  13 339.542 368.309   2
  -6   4 -13 548.860 308.710   9
  -6   4 -13 487.692 289.098  10
   6   4 -13 483.909 379.213  10
   6   4 -13 1136.55 684.108   9
  -4  -6  13 186.286 68.5774  19
  -4   6 -13 38.7371 83.6819  19
   6  -4  13 485.112 258.294   8
   4   6 -13 622.864 346.965  18
  -4   6 -13 502.258 178.738  18
   6   4 -13 335.216 219.432  18
  -6   4 -13-17.6444 139.888   4
   4  -6  13 616.743 224.851  17
   4  -6  13 187.888 276.327   6
  -4  -6  13 283.410 268.532  17
  -6  -4  13 545.722 390.918  17
  -4   6 -13 616.624 267.847   4
   4  -6  13 0.83277 280.300  16
  -6  -4  13 433.946 211.340  16
   6  -4  13 338.451 206.392  16
  -6  -4  13 366.455 252.553   2
  -6   4 -13 623.502 586.082   7
  -6   4 -13 607.240 483.131  15
   6  -4  13 616.453 316.419  14
   4  -6  13 287.270 183.046   8
   4  -6  14 1288.77 336.454  14
  -4  -6  14 306.095 210.236   6
   6  -4  14 1245.48 552.461   6
   4   6 -14 1114.26 393.044   3
   4  -6  14 1086.90 429.322   6
  -4   6 -14 663.719 424.998  13
   4   6 -14 1177.94 528.713  13
   6   4 -14 970.626 447.236   1
  -6   4 -14 175.851 141.710  13
  -4   6 -14 800.480 402.766   3
   6   4 -14 852.525 166.963  12
   4   6 -14 743.763 213.367  12
  -6   4 -14 698.537 382.235  12
   6   4 -14 1250.68 344.360   3
  -6   4 -14 584.619 246.630  19
  -4   6 -14 1137.99 412.004  12
  -6   4 -14 705.900 391.756   3
  -4   6 -14 1438.91 407.983  11
   6   4 -14 1331.90 516.115  11
  -6  -4  14 824.949 372.905   5
   4   6 -14 1206.77 463.639  18
  -6   4 -14 826.994 372.997  10
   6   4 -14 1073.20 537.410  10
  -4  -6  14 744.691 387.541  17
  -6   4 -14 1201.62 407.482   9
  -4   6 -14 482.612 166.764  19
  -4   6 -14 1019.18 246.933  18
   6   4 -14 990.621 430.929  18
  -6   4 -14 174.424 79.0167   4
   4  -6  14 1510.57 357.991  17
  -4  -6  14 585.015 336.239  16
  -4   6 -14 767.617 335.098   4
   6   4 -14 2166.89 862.054   9
  -6  -4  14 1461.69 589.542  17
   6  -4  14 1166.38 388.608   8
   4   6 -14 123.879 207.563   1
   4  -6  14 985.699 315.052   8
   4  -6  14 1277.61 566.712  16
  -6  -4  14 1107.73 408.691  16
   6  -4  14 1300.47 529.073  16
  -4  -6  14 476.583 336.488   2
   4   6 -14 1265.46 618.780   7
  -6   4 -14 782.698 621.169   7
   4   6 -14 1131.20 497.154  15
  -6   4 -14 450.863 250.808  15
   6  -4  14 1139.77 431.216  14
  -6  -4  14 1110.75 516.938   2
  -4  -6  15-20.2335 39.3569   6
   6  -4  15 910.925 478.997   6
  -4  -6  15 889.946 482.616  17
   4  -6  15 507.617 328.907   6
   4   6 -15 1168.18 423.285   3
  -4   6 -15 705.137 412.324  13
   4   6 -15 842.274 466.117  13
  -6   4 -15 531.463 343.788  13
  -4   6 -15 317.222 225.713   3
   4   6 -15 746.094 230.216  12
  -6   4 -15 405.480 344.912  12
   6   4 -15 507.810 378.208   1
  -4   6 -15 614.612 300.647  12
   6   4 -15 697.823 268.481   3
  -6  -4  15 769.472 494.031   2
  -6   4 -15 413.778 349.270   3
   4   6 -15 622.048 305.969  11
  -4   6 -15 1075.77 356.374  11
   6   4 -15 1031.86 514.086  11
  -6  -4  15 642.266 310.598   5
  -6   4 -15 1308.00 542.072  10
   6   4 -15 664.242 307.561  10
   6  -4  15 252.252 199.446   2
   4   6 -15-146.809 140.812   1
  -6   4 -15 540.927 258.227  19
  -6   4 -15 731.721 407.203   9
   6   4 -15 933.349 416.809  18
  -4   6 -15 468.923 168.382  19
  -4  -6  15 580.881 355.049   2
   4   6 -15 728.873 466.775  18
  -4   6 -15 893.625 248.402  18
  -6  -4  15 881.540 434.342  17
   6   4 -15 1401.41 746.098   9
  -4   6 -15 940.870 427.260   4
  -6  -4  15 774.585 336.708  16
   4  -6  15 924.053 277.891  17
   6  -4  15 1176.33 431.649   8
   4  -6  15 606.115 262.044   8
   4  -6  15 827.890 454.108  16
   6  -4  15 1169.20 538.305  16
  -4  -6  15 601.369 330.985  16
   4   6 -15 402.105 272.650   7
  -6   4 -15 515.601 558.562   7
   4   6 -15 501.362 390.334  15
  -6   4 -15 640.323 532.461  15
   6  -4  15 1277.23 513.754  14
   4  -6  15 1037.39 335.854  14
   6  -4  16 317.409 271.517   6
  -4  -6  16-69.0881 196.183   2
  -6   4 -16 152.012 270.861   9
   4  -6  16-11.7055 46.7717   6
  -4   6 -16 44.8091 174.537  13
   4   6 -16-255.560 284.643  13
   4   6 -16 278.214 271.253   3
  -6   4 -16-2.36776 95.4298  13
  -6   4 -16 399.415 370.058  12
  -4   6 -16-43.7711 8.62406   3
  -4   6 -16 200.612 211.111  12
   6   4 -16 506.046 551.603   1
   4   6 -16 54.0091 113.586  12
   6   4 -16 635.100 357.306   3
  -6   4 -16 179.824 348.366   3
   4   6 -16-52.2511 253.958  11
  -4   6 -16 375.563 257.606  11
   6   4 -16 1092.35 765.141  11
  -6  -4  16 530.617 479.182   5
  -6   4 -16-33.4766 134.797  10
   6   4 -16 844.299 901.461  10
   6   4 -16 579.538 479.980  18
  -6   4 -16 52.4551 133.609  19
   4   6 -16-171.365 233.347   1
  -4   6 -16 35.5922 34.9297  19
   4  -6  16 154.502 128.231  14
   6  -4  16 169.587 216.590   8
  -6   4 -16-5.52907 234.149  15
   4   6 -16 119.327 52.2152  18
  -4   6 -16 143.330 111.823  18
  -4   6 -16-122.264 127.057   4
  -6  -4  16 1374.00 799.617  17
  -4  -6  16 31.9745 291.236  17
  -6  -4  16 568.776 584.917   2
   4  -6  16 195.192 143.195  17
   4  -6  16 99.8325 86.6971   8
  -4  -6  16 17.8429 194.934  16
   4  -6  16-29.9783 329.505  16
   6   4 -16 2029.29 1341.73   9
  -6  -4  16 889.370 468.356  16
   6  -4  16 88.2447 146.999  16
   4   6 -16-373.033 616.604   7
  -6   4 -16 83.8117 229.058   7
   4   6 -16-597.852 669.062  15
  -4   6 -16 798.382 700.894  15
   6  -4  16 45.3420 101.322   2
   6  -4  16-47.9589 90.5862  14
  -4  -6  16-5.63729 189.628   6
   4  -6  17 671.621 322.169  16
   6   4 -17 1208.66 788.439   9
  -4   6 -17 278.743 301.276  13
   4   6 -17 87.5850 222.213  13
  -6   4 -17 485.174 442.769  13
   4   6 -17 197.926 145.010   3
  -4  -6  17 526.766 386.407  17
  -4   6 -17 567.020 413.849   3
  -4   6 -17 411.621 321.854  12
   4   6 -17 572.868 264.351  12
   6   4 -17 271.069 273.311   1
   6   4 -17 421.857 194.016   3
   4   6 -17 734.421 525.214  11
  -4   6 -17 715.029 273.195  11
   6   4 -17 1353.99 707.852  11
   4   6 -17 447.666 323.146   1
  -6  -4  17 383.233 292.568   5
  -4   6 -17 716.123 479.703  10
   4   6 -17 1301.90 788.235  10
  -6   4 -17 172.904 102.670  10
   6   4 -17 354.538 428.418  10
   4  -6  17 427.273 322.003   6
   6  -4  17 607.716 386.511   2
  -4   6 -17 263.854 132.872  19
  -4  -6  17 415.033 338.801   2
   6   4 -17 873.606 431.699  18
  -6   4 -17 111.614 118.405  19
   6  -4  17 481.303 228.988   8
  -6  -4  17 985.200 525.090   2
  -6  -4  17 1732.31 662.829  17
   4  -6  17 531.717 220.810  17
   4  -6  17 554.668 242.537   8
  -4  -6  17 653.224 419.215  16
   6  -4  17 873.557 431.109  16
  -6   4 -17 14.1195 389.664   7
   4   6 -17 784.799 409.368  18
  -4   6 -17 779.743 725.671   7
  -6   4 -17-12.1085 498.546  15
  -4   6 -17 960.423 664.298  15
  -6  -4  17 1098.85 414.832  16
   6  -4  17 325.325 233.064  14
  -6   4 -17 206.585 136.319   9
  -4  -6  17 261.749 503.261   6
   4  -6  17 635.257 259.058  14
   6  -4  17 521.834 283.222   6
  -4   6 -18 290.397 285.897  10
   4   6 -18 301.232 248.705  10
  -6   4 -18-219.506 297.163  10
   6  -5   3 75.3274 137.197   6
   6  -5   4 210.230 172.236  14
   6   5  -4 211.338 66.7269  18
   6  -5   4 96.1225 98.3221   6
  -6   5  -4 157.712 148.332  12
  -6  -5   4 88.1652 105.797  17
  -6   5  -4 55.2089 125.114  19
   6  -5   4-48.8949 154.473   8
   6  -5   5 59.0163 113.264  14
   6  -5   5 85.1865 111.066   6
  -6   5  -5 247.798 204.371  12
  -6   5  -5 108.281 73.6926  19
   6   5  -5-52.8416 35.8156  18
  -6  -5   5 177.614 216.776  17
   6  -5   5 139.232 124.591   8
  -6   5  -5 32.0099 60.8050   4
  -6   5  -5 183.321 205.382   3
   6  -5   5-40.4582 147.560   1
   6  -5   6 4.70633 58.3201  14
   6   5  -6 13.9295 154.297  13
   6  -5   6 173.041 196.675   6
   5  -6   6 60.8692 171.915   6
  -6   5  -6 76.5892 109.808  12
  -5   6  -6 26.5490 60.4309  12
   6   5  -6 225.397 294.193   1
  -6   5  -6 48.6264 49.9257  19
   5   6  -6-273.366 327.425  18
  -6   5  -6 34.4179 31.6140   5
   6   5  -6-58.0344 121.644  18
   6   5  -6 109.321 73.6128   8
  -6  -5   6 232.673 221.736  17
   6  -5   6 8.11927 38.7032   1
   6  -5   6 107.993 117.219   8
  -6   5  -6 90.7772 59.5846   4
  -5  -6   6 44.1505 165.891  17
  -6   5  -6 98.1695 145.814   3
   6   5  -7 677.289 374.529  18
  -6   5  -7 327.764 202.607   3
   6  -5   7 427.798 218.761  14
   6   5  -7 567.359 339.215  13
   6  -5   7 417.938 255.150   6
   5  -6   7 220.259 198.174   6
  -6   5  -7 488.514 254.598  12
   6  -5   7 340.260 179.639   1
  -6  -5   7-73.0131 112.332   6
  -5   6  -7 546.243 256.491  12
  -6  -5   7-244.011 474.315   2
  -6   5  -7 591.544 208.569   5
   6   5  -7 254.057 127.118   8
  -6   5  -7 506.788 211.549  19
  -5  -6   7-41.5900 77.2800  17
  -6  -5   7 146.277 116.439  17
   6  -5   7 366.676 188.670   8
   5  -6   7-45.4625 255.510   8
  -6   5  -7 397.066 215.627   4
   5   6  -7 292.805 301.322  18
  -5   6  -7 460.408 283.093   3
   6   5  -7 6.05830 187.307   1
  -5   6  -8 295.424 216.196   3
   6  -5   8 374.269 197.000  14
   5  -6   8 176.351 148.416  14
  -6   5  -8 226.645 196.188   3
  -6   5  -8 351.288 176.052  19
   5   6  -8 499.907 372.277  13
   6   5  -8 274.350 202.914  13
   6  -5   8 293.298 194.610   6
  -6  -5   8 122.759 87.5690   6
   5  -6   8 166.847 180.207   6
  -6   5  -8 226.778 180.458  12
  -5  -6   8-106.584 147.945   6
  -5   6  -8 446.732 244.397  12
  -6  -5   8-28.3945 126.947  19
   6   5  -8 469.461 334.972  18
  -6   5  -8 410.597 185.443   5
   6   5  -8 311.623 252.753   1
   6   5  -8 322.771 147.573   8
  -5  -6   8 109.096 154.015  17
  -6  -5   8 206.644 204.135  17
   6  -5   8 290.469 141.563   1
  -6  -5   8-277.126 338.960   2
   6  -5   8 294.240 189.942   8
   5  -6   8 0.38246 184.299   8
  -6   5  -8 444.959 237.972   4
   5   6  -8 228.190 256.758  18
  -5   6  -8 343.296 150.529   4
   6  -5   9 125.652 121.259  14
  -5   6  -9 252.517 251.573   3
  -6  -5   9 35.1705 51.9391   6
  -6   5  -9 163.622 183.412   3
   5   6  -9 189.951 223.217  13
   6   5  -9 212.633 163.623  13
   6  -5   9 192.535 144.282   6
   5  -6   9 27.6037 87.5840   6
  -5  -6   9-2.82905 57.7176   6
  -5   6  -9 350.444 214.727  12
   6  -5   9 222.835 121.173   1
   6   5  -9 128.626 168.188  18
   6  -5   9 102.988 65.5869   8
   5  -6   9 79.5137 83.1956  14
  -6   5  -9 85.6614 81.4769   5
  -6   5  -9 127.236 108.287  12
  -6   5  -9 262.942 188.515  19
  -5   6  -9 97.2925 37.9947   5
   5   6  -9 78.2532 31.5318  18
   6   5  -9 220.980 273.191   1
   6   5  -9 199.361 114.075   8
  -6  -5   9 98.3924 138.005  17
  -6   5  -9 106.984 82.1112   4
   5  -6   9 103.973 109.801   8
  -5   6  -9 163.960 114.931   4
  -6  -5   9 121.703 190.190   2
  -5  -6   9 2.92904 77.1198  17
  -6  -5   9-32.5007 120.166  19
  -6  -5  10 62.9344 188.184   2
   6  -5  10 297.393 186.633  14
   5  -6  10 324.681 187.651  14
  -5   6 -10 222.236 140.350   3
  -6   5 -10-216.172 291.660  13
   5   6 -10 282.480 229.136  13
   6   5 -10 343.030 237.129  13
   6  -5  10 65.2053 113.362   6
  -5  -6  10 62.4207 50.5725   6
   5  -6  10 156.123 214.143   6
  -6   5 -10 313.887 241.454  12
  -5   6 -10 389.827 232.408  12
  -6   5 -10 234.272 131.145   5
  -5  -6  10-352.841 515.769   2
  -5   6 -10 209.966 126.416   5
  -5   6 -10 22.3113 106.062  19
   5   6 -10 279.814 257.967  18
  -6   5 -10 183.038 65.5850  18
   6   5 -10 236.036 196.455  18
   5  -6  10 175.654 91.1884   1
   5   6 -10 144.944 97.9760   8
  -6   5 -10 305.132 174.062  19
   6  -5  10 231.890 111.693   1
   6   5 -10 238.493 264.203   1
  -5  -6  10-129.769 161.324  17
  -6  -5  10 206.261 251.701  17
   6   5 -10 269.207 115.284   8
   6  -5  10 316.773 193.720   8
  -6   5 -10 307.119 219.405   4
   6  -5  10-118.178 311.967  16
  -6   5 -10 525.924 325.059   3
   6  -5  10 222.475 83.8099  17
  -5   6 -10 248.583 167.273   4
  -6  -5  10 77.2681 112.019  19
   6   5 -10 312.691 177.712   7
   6   5 -10 232.386 157.267  15
   5   6 -10 17.9753 164.196   3
   5  -6  10 154.995 139.676   8
   6   5 -10 87.7895 14.8620   3
  -6  -5  10 10.5599 42.4431   6
   6  -5  11 539.461 286.288  14
   6   5 -11 376.750 176.760   3
  -6  -5  11 37.4135 59.8325   6
   5  -6  11 319.133 180.919  14
  -5   6 -11 342.573 258.354   3
  -6   5 -11 294.981 219.374  13
   5   6 -11 676.148 364.119  13
   6  -5  11 448.689 312.043   6
   6   5 -11 560.437 328.021  13
  -5   6 -11-204.697 367.142  13
  -6   5 -11 60.5704 58.6728   3
   5  -6  11 256.623 163.125   6
   6  -5  11 426.580 199.548   1
  -6   5 -11 474.179 266.929  12
  -5   6 -11 511.883 274.997  12
  -6   5 -11 495.790 197.590  11
  -6   5 -11 409.742 211.095   5
  -5  -6  11 96.9454 62.4493   2
  -6  -5  11 249.893 158.953  19
  -5   6 -11 481.241 177.906   5
  -6   5 -11 380.179 206.799  19
  -5  -6  11 54.1040 31.0798  19
  -5   6 -11 270.666 128.945  19
  -6  -5  11 447.392 368.671   2
  -5   6 -11 418.291 158.572  18
   6   5 -11 412.861 257.312  18
   6  -5  11 343.402 99.5714  17
   5  -6  11 411.566 209.048  17
  -5  -6  11 222.506 218.172  17
  -6  -5  11 362.305 294.565  17
   6   5 -11 313.869 305.614   1
   5   6 -11 187.150 86.3457   8
  -6   5 -11 228.924 159.420   4
   5  -6  11 357.382 133.754   1
   6   5 -11 323.233 104.528   8
   6  -5  11 451.013 259.992   8
  -6  -5  11-143.243 245.602  16
   6  -5  11 219.262 37.0650  16
  -5   6 -11 448.270 224.341   4
  -5  -6  11 92.8713 62.4382   6
   5  -6  11 255.085 175.704   8
   5   6 -11 361.306 318.904  18
   5   6 -11 345.549 180.807   3
   5   6 -12 135.172 138.840   3
   5  -6  12 183.468 99.0295  14
   6   5 -12 57.6755 28.8481   3
  -5  -6  12 101.649 136.894   6
  -5   6 -12-57.2023 201.169  13
   6  -5  12 253.043 154.897   6
  -6   5 -12 248.930 319.921  13
  -5   6 -12 284.382 296.061   3
   5   6 -12 174.242 201.511  13
   5  -6  12 56.9571 106.384   6
   6   5 -12 156.493 175.509  13
  -6   5 -12 90.4375 110.424   3
  -6   5 -12 211.766 206.746  12
  -5   6 -12 59.2046 99.8152  12
   6   5 -12 164.180 193.584  11
  -6   5 -12 149.331 110.405  11
  -6   5 -12 48.0094 50.2852   5
   5  -6  12-828.040 432.120  16
  -6  -5  12 105.242 76.6290  19
  -5   6 -12 119.037 73.8412   5
  -5  -6  12 77.4033 196.515  17
   6   5 -12 169.795 168.532  18
   5   6 -12 158.637 163.460   1
  -6  -5  12-17.8357 71.0514  16
  -5  -6  12 47.0351 30.1820  19
  -5  -6  12 207.671 315.850   2
  -6   5 -12 94.7003 60.8977  19
  -5   6 -12 119.123 80.4757  19
  -5   6 -12 182.785 107.502  18
   5   6 -12 120.324 158.753  18
  -6   5 -12 42.3894 31.4285  18
   5  -6  12 125.241 64.4449   1
  -6  -5  12-84.9757 139.614  17
  -6   5 -12 61.8360 34.8957   4
   6  -5  12 97.4798 50.1102  17
   6   5 -12 185.819 189.874   1
   6  -5  12 134.194 123.440   8
  -5   6 -12 179.077 136.594   4
   6  -5  12 196.714 181.216   1
   6  -5  12 349.289 303.743  16
   5  -6  12 225.282 121.491  17
  -6  -5  12-190.489 192.140   6
  -6  -5  12 126.373 154.451   2
   5  -6  12 94.6505 64.5956   8
   6  -5  12 160.481 142.221  14
   5  -6  13 950.972 325.866  14
  -5  -6  13 115.482 133.075   6
   5   6 -13 717.698 294.481   3
   5   6 -13-142.644 226.960   1
   6  -5  13 880.698 410.295   6
   6   5 -13 876.798 287.926   3
  -5   6 -13 242.458 281.350  13
  -6   5 -13 52.9976 63.6701  13
   5  -6  13 463.324 254.851   6
   5   6 -13 961.312 467.724  13
  -5   6 -13 593.938 358.840   3
   6   5 -13 1137.61 431.333  13
  -6   5 -13 315.759 264.086   3
  -6   5 -13 570.319 326.135  12
  -5   6 -13 808.378 346.955  12
  -5   6 -13 479.285 203.725  19
   6   5 -13 811.849 491.994  11
  -6   5 -13 348.584 78.4654   5
  -6   5 -13 692.144 209.717  11
  -5   6 -13 664.597 232.896   5
   6  -5  13 54.0253 56.6367   1
  -5  -6  13 595.535 160.821  19
   5   6 -13 756.903 332.434  18
  -6   5 -13 552.462 228.987  19
  -5   6 -13 939.253 210.324  18
   6   5 -13 676.604 360.574  18
  -6  -5  13 505.527 406.012   2
  -6   5 -13 645.291 339.862   4
  -5  -6  13 334.010 300.129  17
   5  -6  13 998.243 252.884  17
  -6  -5  13 354.107 238.302  17
  -5   6 -13 686.119 340.343   4
   6  -5  13 756.327 313.703   8
   6  -5  13 246.572 83.4863  17
   5  -6  13 487.070 208.763   8
  -5  -6  13-128.042 260.671  16
   5  -6  13 376.551 126.011  16
  -6  -5  13 572.360 278.102  16
   6   5 -13 462.947 347.574   1
   6  -5  13 986.523 460.652  16
  -6  -5  13 522.528 159.652  19
   5   6 -13 987.808 448.780   7
  -5  -6  13 394.424 354.011   2
   5   6 -13 846.880 395.982  15
   6  -5  13 899.069 357.645  14
   5  -6  14 119.655 139.229  14
   6  -5  14 100.124 171.986   6
   5   6 -14 13.0626 56.5678   3
   5  -6  14-16.5336 143.920   6
  -5   6 -14 4.52688 168.113  13
   6   5 -14 129.430 134.885   3
  -5  -6  14 101.821 180.411   6
  -6   5 -14 115.798 183.645  13
   5   6 -14 84.2903 213.636  13
   6   5 -14 56.7112 21.6381  13
  -5   6 -14 163.316 194.074   3
  -6   5 -14-11.2582 81.7345   3
  -6   5 -14 46.8427 179.988  12
  -5   6 -14 73.8806 123.176  12
   5   6 -14 225.103 312.484  11
  -5   6 -14-4.41777 10.5235  11
   6   5 -14-109.194 146.874  11
  -6   5 -14 58.9980 93.5069  11
  -6   5 -14 141.115 209.911  10
   6   5 -14 218.827 284.239  10
  -5   6 -14 66.8280 99.3442  19
  -5  -6  14-24.8995 212.531   2
   5   6 -14 15.4536 136.775   1
  -6  -5  14 245.089 252.604  17
   5   6 -14 1.21043 107.005  18
   6   5 -14 38.7089 119.065  18
  -5   6 -14 30.4742 62.7247  18
  -6  -5  14-107.360 185.092   2
   6  -5  14 58.2080 82.2471   8
  -6   5 -14-98.8543 130.294   4
  -5   6 -14 107.991 168.307   4
  -5  -6  14-10.2429 172.631  17
   5  -6  14 3.58390 46.8221  17
   5  -6  14 23.2305 55.8503   8
  -5  -6  14-14.7495 93.2077  16
   5  -6  14 25.2006 138.462  16
  -6  -5  14 68.1452 104.904  16
   6  -5  14-25.2927 157.874  16
   6   5 -14 120.137 216.972   1
   5   6 -14-6.14002 190.714   7
   5   6 -14 68.5911 147.040  15
  -6   5 -14 296.468 413.154  15
  -6   5 -14 11.4786 54.3743  19
   6  -5  14 207.118 156.030  14
  -6  -5  14-47.0114 71.6097  19
   6  -5  15 770.665 455.047   6
   5  -6  15 445.559 393.817   6
  -5   6 -15 607.492 312.722   4
   5   6 -15 932.343 346.594   3
  -5   6 -15-67.7103 299.893  13
  -6   5 -15 1.22768 226.452  13
   5   6 -15 851.962 389.524  13
   6   5 -15 950.923 373.026   3
   6   5 -15 500.784 368.936  13
  -5   6 -15 257.077 303.578   3
  -6   5 -15 375.804 189.994  19
  -6   5 -15 223.349 167.778  12
  -5   6 -15 415.483 250.572  12
  -6   5 -15 303.720 266.412   3
   5   6 -15 97.7573 139.809  12
   5   6 -15 688.177 291.788  11
  -5   6 -15 1023.60 349.138  11
   6   5 -15 1196.67 646.688  11
   6  -5  15 676.834 255.476   8
  -6   5 -15 402.957 157.912  11
  -6   5 -15 464.608 276.669  10
   6   5 -15 493.200 313.030  10
  -6  -5  15 887.111 575.644  17
  -5   6 -15 363.322 160.862  19
  -5  -6  15 320.616 26.7067   2
   6  -5  15 889.271 433.891  16
  -6  -5  15 570.919 520.189   2
   6   5 -15 609.406 380.807  18
   5   6 -15 497.973 333.343  18
  -6   5 -15 165.643 140.062   4
   5   6 -15 407.215 420.360   1
  -5  -6  15 679.192 470.095  17
   5  -6  15 822.686 226.062  17
   5  -6  15 510.675 194.220   8
  -5  -6  15 126.610 89.8835  16
   5  -6  15 821.906 478.514  16
  -6  -5  15 541.174 359.615  16
  -6   5 -15 972.171 445.251   9
   6   5 -15 553.639 506.542   1
  -6   5 -15 701.208 622.942   7
  -6   5 -15 605.178 478.679  15
  -5  -6  15-100.432 198.437   6
   6  -5  15 934.494 381.371  14
   5  -6  15 906.613 328.775  14
   6  -5  16 209.143 259.513   6
   5  -6  16-16.9401 134.066   6
   6   5 -16 2120.91 914.364  13
  -5   6 -16 1080.49 581.482  13
  -6   5 -16 166.874 161.733  13
   5   6 -16 673.759 502.533  13
  -5   6 -16 353.136 455.570   3
  -6   5 -16 212.104 165.096  12
  -5   6 -16 423.745 293.875  12
  -6   5 -16 14.8166 218.275   3
   6   5 -16 3756.68 1099.79   1
   5   6 -16 930.943 503.928  11
  -5   6 -16 415.399 244.207  11
  -6   5 -16 193.282 136.154  19
   5   6 -16 4015.53 1481.76  10
  -6   5 -16 338.697 231.262  10
  -5   6 -16 202.591 133.456  19
  -6   5 -16 257.300 206.465   9
   5   6 -16 1332.81 555.589  18
   5   6 -16 3446.30 1017.42   1
  -5   6 -16 157.677 246.836   4
  -5  -6  16 7735.73 1415.15  17
   6  -5  16 232.486 218.548   8
   5  -6  16 150.244 149.342   8
   5  -6  16 540.241 404.974  16
   6  -5  16 269.732 300.222  16
  -6   5 -16 255.656 393.976   7
  -6   5 -16 7.24481 116.695  15
  -5   6 -16 1163.03 832.094  15
   5   6 -16 1841.16 544.516   3
  -5  -6  16 1718.06 677.498   6
   6  -5  16 149.051 222.634  14
   5  -6  16 312.385 194.824  14
   5  -6  17 136.128 179.498   6
  -6   5 -17-122.344 188.331   9
   6  -5  17-20.9098 68.6230   6
  -5   6 -17 134.179 30.8151  13
  -6   5 -17 48.7939 131.392  13
   5   6 -17-47.9510 78.6720   3
   5   6 -17 37.0595 227.860  13
   6   5 -17 384.122 421.343  13
   6   5 -17-6.22218 59.8063   3
  -5   6 -17-123.934 189.837   3
  -6   5 -17 39.5478 142.118  12
  -5   6 -17 28.5815 178.784  12
  -6   5 -17 187.062 275.745   3
   5   6 -17 304.824 292.261  11
   6   5 -17 409.787 394.928  11
  -5   6 -17 40.5419 107.236  11
   5   6 -17-82.5623 145.447  18
  -5   6 -17 151.084 312.424  10
   5   6 -17-107.594 50.9981  10
  -6   5 -17-32.8733 121.878  10
   6   5 -17-139.126 234.562  10
   6   5 -17 1268.75 1053.09   9
  -6   5 -17 140.505 171.812  19
  -5   6 -17 42.0844 53.8254  19
  -5  -6  17 158.573 388.059   2
   5   6 -17 82.2696 296.104   1
  -6  -5  17 130.210 210.486   2
  -5  -6  17-30.7077 186.616  17
  -6  -5  17-46.1243 77.1840  17
   5  -6  17 63.8795 174.494  16
   6  -5  17-18.6791 50.5625   8
   5  -6  17 51.6012 117.272   8
  -5  -6  17-94.9972 139.580  16
  -6  -5  17-67.9632 98.4384  16
   6  -5  17 273.945 353.718  16
  -6   5 -17 461.204 729.651   7
  -5   6 -17 448.710 639.272   7
  -6   5 -17 32.4919 382.124  15
  -5   6 -17 8.73819 316.285  15
   6   5 -17 91.4171 251.741   1
   6   5 -17-44.7730 114.636  18
  -5  -6  17-157.243 248.113   6
   6  -5  17-28.2326 120.255  14
   5  -6  17-64.9321 173.384  14
   6  -6   5 0.09186 141.290   6
   6   6  -5-76.7499 228.721  18
  -6  -6   5 119.059 318.761  17
  -6  -6   6-56.5300 191.579  17
   6  -6   6 186.723 172.863   6
  -6   6  -6 383.891 214.758  12
   6  -6   6-164.207 228.913   8
   6   6  -6 334.503 239.982  18
   6  -6   7 68.9673 173.996  14
   6  -6   7-50.2823 47.6118   6
  -6   6  -7-5.95345 18.7490  12
   6   6  -7-28.6083 109.068  18
   6  -6   7-140.768 206.919   8
  -6   6  -7-10.3165 83.7707   4
  -6  -6   7 77.0439 362.434  17
  -6   6  -7 62.7716 62.4652   3
   6  -6   8 61.0044 56.6688  14
   6   6  -8 204.415 186.221  13
   6   6  -8 560.162 408.370  18
   6  -6   8 159.451 148.142   6
  -6  -6   8-54.7189 104.252   6
  -6   6  -8 418.975 265.034  12
  -6   6  -8 95.9848 62.8971   5
   6   6  -8-7.38808 160.650   8
  -6  -6   8-207.295 276.665  17
   6  -6   8 149.272 118.199   8
  -6   6  -8 266.362 183.828   4
   6  -6   8 59.2380 38.8600   1
  -6   6  -8 54.5672 127.325  19
  -6   6  -8 206.368 213.794   3
  -6   6  -9 9.67450 126.971   3
   6  -6   9 25.5551 88.3628  14
   6   6  -9-35.8235 198.037  13
   6  -6   9-23.3723 75.4784   1
   6  -6   9 13.8336 42.7420   6
  -6  -6   9 57.6138 91.9311   6
  -6   6  -9 65.2936 98.8517  12
  -6   6  -9 24.0711 43.5831   5
  -6   6  -9-33.7224 107.094  19
   6   6  -9 117.263 126.800  18
   6   6  -9 45.6126 58.9622   8
  -6  -6   9-106.803 375.104  17
   6  -6   9 46.2794 105.035   8
  -6   6  -9 39.0871 47.8029   4
   6  -6  10 51.3292 111.697  14
  -6   6 -10 4.23979 74.3895   3
   6   6 -10-43.5818 133.331  13
  -6  -6  10 42.1783 36.8845   6
   6  -6  10-30.9290 30.1387   6
  -6   6 -10-10.2657 72.8218  12
  -6   6 -10 19.0898 86.1322   5
  -6  -6  10-213.616 418.076   2
  -6  -6  10-30.8031 53.6146  19
  -6  -6  10 70.8222 322.505  17
   6   6 -10 26.3245 96.7166  18
   6   6 -10 19.3040 36.2552   8
   6  -6  10 6.81215 91.0389   8
  -6   6 -10-42.9064 78.9924  19
  -6   6 -10-39.6133 97.9569   4
   6  -6  10 6.62575 37.0705   1
   6   6 -10 6.53393 146.063   1
   6  -6  11-50.5128 66.3586  14
   6  -6  11-12.4275 43.1659   1
  -6  -6  11 56.7301 77.6663   6
   6  -6  11 15.3838 60.4780   8
  -6   6 -11-213.169 236.400   3
   6   6 -11 9.83794 135.642  13
   6  -6  11-78.1649 151.501   6
  -6   6 -11 57.1462 156.816  12
   6  -6  11 33.3843 57.5318  17
   6   6 -11-171.325 221.505  18
   6   6 -11-132.121 105.368   1
  -6  -6  11-238.682 356.744   2
  -6   6 -11 110.814 114.171   5
  -6  -6  11-139.694 277.424  17
   6   6 -11 20.8131 59.8679   8
  -6   6 -11-28.8799 54.2937  18
  -6   6 -11-46.5173 103.003   4
  -6   6 -11-60.5345 92.5258  19
  -6  -6  11-62.1281 55.7502  19
   6   6 -11-255.636 234.255   3
  -6  -6  12 49.5348 101.423   6
   6  -6  12 534.839 240.165  14
  -6   6 -12-198.863 317.037  13
  -6   6 -12 409.965 331.387   3
   6   6 -12 642.670 324.655  13
   6  -6  12 426.635 326.079   6
  -6  -6  12 227.394 111.832  19
  -6  -6  12 143.966 187.031   2
  -6   6 -12 346.491 225.176  12
  -6   6 -12 500.239 204.851   5
   6  -6  12 423.004 182.347   1
  -6   6 -12 347.938 161.011  19
   6   6 -12 240.391 117.991   1
  -6   6 -12 449.485 266.105   4
   6  -6  12 501.122 162.808  17
   6   6 -12 736.296 432.694  18
   6  -6  12 486.992 262.605   8
   6   6 -12 552.727 308.057   7
   6   6 -12 420.732 243.824  15
  -6  -6  12 470.460 388.401  17
   6   6 -12 443.145 226.072   3
   6  -6  13-19.8801 51.2893  14
   6   6 -13 140.821 144.547   3
  -6   6 -13 116.113 77.5194  13
  -6   6 -13 52.0269 140.645   3
   6   6 -13 100.376 131.645  13
  -6   6 -13-103.768 200.052  12
  -6   6 -13-22.8211 60.9739  11
  -6   6 -13-35.9375 85.4915   5
  -6  -6  13 92.6603 91.4800  19
  -6  -6  13-28.6969 38.6905   2
  -6   6 -13 59.3295 22.9564  19
   6   6 -13 144.493 96.1562  18
  -6   6 -13 59.6866 178.762   4
   6   6 -13-74.5771 183.284   1
   6  -6  13-30.2864 133.134   8
   6  -6  13-294.141 506.118  16
   6  -6  13-91.4571 126.350   6
  -6  -6  13-102.505 155.322  17
   6  -6  13-61.8265 76.0513   1
  -6  -6  13 45.7721 116.839   6
   6   6 -14 445.398 256.018   3
   6  -6  14 497.533 333.417   6
  -6   6 -14 231.991 216.596  13
   6   6 -14 834.183 463.946  13
  -6   6 -14 364.420 272.178   3
  -6   6 -14 433.349 257.100  12
   6   6 -14 896.741 326.399  11
  -6   6 -14 755.839 261.537  11
  -6   6 -14 458.501 201.856  19
  -6  -6  14 87.7827 81.3275   2
  -6  -6  14 503.809 482.456  17
   6  -6  14 574.812 216.283   8
   6   6 -14 535.489 217.546  18
  -6  -6  14-726.129 341.696  16
   6  -6  14 312.634 127.808  16
  -6  -6  14-192.418 177.397   6
   6   6 -14 199.201 342.154   1
  -6   6 -14 394.665 273.292   4
   6  -6  14 635.310 276.277  14
   6  -6  15 93.4313 84.3921   6
  -6   6 -15-172.662 305.714  13
   6   6 -15 1419.55 737.694  13
  -6   6 -15-16.2468 41.4757   3
  -6   6 -15-26.8923 37.7761  12
  -6   6 -15 94.9147 235.242   4
   6   6 -15 1257.69 927.464  11
  -6   6 -15 24.3805 73.9941  19
  -6  -6  15 2400.62 957.002   2
   6   6 -15 1509.84 871.343   1
   6  -6  15 17.0843 199.053   8
  -6  -6  15 3775.64 752.267  16
   6  -6  15-87.3635 309.738  16
   6   6 -15 828.158 659.723  18
   6   6 -15 1461.57 489.476   3
   6  -6  15-2.01959 129.471  14
   6  -6  16 368.217 398.892   6
  -6   6 -16-53.1945 70.9916  13
   6   6 -16 387.515 337.774  13
  -6   6 -16-69.4945 193.171   3
  -6   6 -16 313.321 288.977  12
   6   6 -16 517.426 412.720  11
  -6   6 -16 344.648 294.635  10
   6   6 -16 170.080 196.817  10
  -6  -6  16 231.910 449.758   2
   6   6 -16 444.471 339.795  18
  -6   6 -16 40.8318 205.920   4
   6   6 -16 169.288 228.248   3
   6   6 -16 312.770 380.968   1
  -6  -6  16 547.594 466.572  17
  -6   6 -16 100.129 132.576  19
   6  -6  16 296.358 229.531   8
  -6  -6  16 128.531 211.424  16
   6  -6  16 482.682 480.165  16
  -6   6 -16 236.185 420.942  15
   6  -6  16 240.216 225.427  14
   7   0   0-36.1359 66.1801   6
  -7   0   0 5.98646 50.2412  12
   7   0   0 36.4766 75.8618  11
   7   0   0 55.3107 92.6719   8
  -7   0   0-18.2370 69.7217   5
   7   0   0 11.7973 56.7480   1
  -7   0   0-10.9173 37.4380  19
   7   0   0-0.99166 52.9869  18
  -7   0   0 24.1212 76.4068   2
  -7   0   0 19.1610 55.8965  17
  -7   0   0-28.0143 95.6109   4
   7   0   0 7.49062 5.47843  14
  -7   0   0-24.5157 45.9236   3
   7   0  -1 386.386 163.606   6
   7   0  -1 490.720 123.632  13
  -7   0  -1 190.557 86.4223   3
  -7   0   1 298.070 158.754   2
  -7   0  -1 262.426 167.340  12
   7   0  -1 352.134 179.690   8
  -7   0   1 216.372 110.956  12
   7   0   1 459.177 266.533   1
   7   0   1 759.103 203.397  11
   7   0  -1 493.312 152.637  11
  -7   0  -1 338.533 234.777   5
  -7   0   1 298.690 201.511   5
  -7   0   1 291.067 182.075  19
  -7   0  -1 223.319 155.432   2
   7   0   1 462.721 171.629  18
   7   0  -1 413.813 186.102  18
   7   0   1 396.118 180.347   6
  -7   0  -1 268.364 204.597   4
  -7   0  -1 302.778 162.878  17
  -7   0   1 238.199 145.423  17
  -7   0   1 271.287 167.577   4
   7   0  -1 432.536 244.730   1
  -7   0  -1 315.843 187.158  19
   7   0   1 420.650 215.749   8
  -7   0  -1 470.403 283.140   7
  -7   0  -1 407.239 239.079  15
   7   0   1 354.180 213.015  14
   7   0  -1 410.431 227.561  14
   7   0   2-27.6788 72.1311   6
   7   0   2 93.4544 166.030   1
   7   0  -2-46.6212 68.9445   6
  -7   0  -2-79.2591 160.630   7
  -7   0   2-20.4249 53.0380  12
  -7   0  -2 116.394 132.170   3
   7   0   2 25.7869 47.8800  11
   7   0  -2 1.57760 30.4652  11
  -7   0  -2-29.1166 79.3572   5
  -7   0   2-7.58767 90.2583   5
  -7   0  -2 1.13163 67.9509  17
  -7   0  -2 17.2353 101.271  19
  -7   0   2 1.06850 66.8760  19
   7   0   2-14.1941 33.4753  18
   7   0  -2 7.90792 48.0140  18
  -7   0   2-12.5997 21.0780   2
   7   0  -2 53.7295 144.629   1
   7   0   2 1.61869 60.0166   8
  -7   0   2-76.4051 123.181  17
   7   0  -2-37.9203 34.5002   8
  -7   0   2-37.9783 68.5320   4
  -7   0  -2-29.2349 108.885   4
   7   0   2-20.3986 12.2476  16
  -7   0  -2-12.7638 100.131  15
   7   0   2-103.531 148.160  14
   7   0  -2 21.2022 76.1151  14
   7   0   3 778.433 292.360   6
  -7   0   3 724.764 281.062  19
   7   0  -3 876.094 299.189  18
  -7   0  -3 362.994 237.287   5
   7   0  -3 794.779 255.644  11
  -7   0   3 822.226 308.067   5
  -7   0  -3 183.252 142.529  19
   7   0  -3 895.560 273.491   8
   7   0   3 1035.86 250.083  18
  -7   0  -3 427.601 293.050   4
   7   0   3 813.278 332.196   8
  -7   0  -3 485.162 164.808  17
  -7   0   3 496.734 241.461  17
   7   0   3 1038.13 239.782  16
  -7   0   3 837.444 299.860   4
  -7   0   3 809.483 260.069   2
  -7   0  -3 567.020 332.373   7
  -7   0  -3 483.786 267.978  15
   7   0  -3 970.586 201.832   6
   7   0  -3 840.736 329.414   1
   7   0   3 963.616 393.415   1
   7   0   3 955.673 385.933  14
   7   0  -3 860.662 299.611  14
  -7   0   4-5.00357 74.7376  19
   7   0   4-15.1233 63.1191   6
   7   0  -4-32.8118 37.0252  14
   7   0  -4 43.9232 8.68940   1
   7   0  -4 26.1723 41.4846   6
  -7   0  -4-44.8932 162.630   5
  -7   0   4-0.03275 79.2148   5
   7   0  -4-41.5426 94.7812  11
   7   0  -4 3.25123 41.8972  18
  -7   0  -4-88.2579 224.504   4
   7   0   4-40.2365 92.9300   8
   7   0   4-22.4872 38.5034  18
  -7   0  -4 87.2208 122.991  17
  -7   0   4 30.6214 81.3251  17
   7   0  -4-52.3735 80.4460   8
  -7   0  -4 0.97762 126.203  19
  -7   0   4 69.5589 112.382   4
   7   0   4 12.3587 97.4589   1
   7   0   4-64.9848 68.3521  16
  -7   0  -4-79.9991 184.616   7
  -7   0   4 0.48429 26.2353   2
  -7   0  -4-69.8364 179.565  15
   7   0   4 20.1046 62.9360  14
   7   0  -5 74.2723 66.2664  14
   7   0  -5 59.1553 45.1875   6
   7   0  -5 228.154 191.734   1
   7   0  -5 51.6458 84.0476  11
  -7   0   5 23.2495 40.8804  19
   7   0  -5 34.9536 57.0238  18
  -7   0  -5 0.05692 109.464   4
   7   0   5 130.724 123.408  18
  -7   0  -5 32.3351 64.8219  17
   7   0   5 20.9156 96.8979   1
   7   0   5 104.963 126.474   8
  -7   0  -5 114.312 154.434  19
   7   0  -5 125.255 102.862   8
  -7   0   5 49.0109 82.5150  17
  -7   0   5 93.0034 119.207   4
  -7   0  -5-37.4827 177.773   7
   7   0   5 153.517 156.245  16
  -7   0   5-4.24574 10.3659  16
  -7   0  -5 16.3588 153.158  15
  -7   0   5 34.3527 44.4534   5
  -7   0   5 67.0321 81.8676   2
   7   0   5 145.913 170.637  14
   7   0   5 118.008 179.955   6
   7   0  -6-66.9185 56.8927  14
  -7   0   6 1.30679 63.5947  17
   7   0  -6-33.4125 55.1487   6
   7   0  -6-25.6582 30.4891  11
  -7   0  -6-25.9657 124.398  19
   7   0  -6 117.597 153.673   1
  -7   0   6 4.48855 19.0484   5
  -7   0   6 36.7706 89.0086  19
   7   0   6 17.3483 137.460   1
   7   0   6-30.7638 35.7572  18
   7   0  -6 44.3535 87.2978  18
  -7   0  -6 16.6657 75.2394  17
   7   0   6 27.1985 28.7424   8
   7   0  -6 67.0405 96.1476   8
  -7   0   6 10.8690 25.5092   4
   7   0   6-61.2577 109.123  16
  -7   0   6-12.9262 27.5951  16
  -7   0   6 32.4230 74.6328   2
   7   0   6 1.09315 44.1311  14
   7   0   6-59.0417 88.4724   6
   7   0  -7 157.225 130.572  14
  -7   0   7 209.155 152.712   4
   7   0  -7 130.037 130.393  11
  -7   0  -7 26.3052 79.9361  19
  -7   0   7 242.134 159.002   5
   7   0   7 57.0924 106.666  18
   7   0  -7 133.207 150.539   1
   7   0  -7 116.346 121.010  18
   7   0   7 260.844 230.570   8
  -7   0   7 181.724 132.532  19
  -7   0   7 297.953 205.847  17
   7   0   7 183.169 142.760  16
  -7   0   7 129.159 76.6492  16
  -7   0  -7 8.78566 76.3899  17
   7   0   7 184.938 129.369  14
   7   0   7 61.6647 136.917   6
  -7   0   7 181.469 135.516   2
  -7   0   8 9.10847 53.4701   2
   7   0  -8 59.4342 59.6459  14
   7   0  -8 25.1146 53.9158  11
  -7   0   8 77.4820 129.701   5
  -7   0  -8 42.4708 136.265  19
   7   0  -8 102.363 124.249  18
   7   0   8 155.470 238.077   8
  -7   0   8 46.8690 30.0423  19
  -7   0   8 43.5666 115.586  17
   7   0  -8-0.08493 75.9136   1
  -7   0   8-12.2815 24.2441   4
   7   0   8 178.383 232.463  16
  -7   0   8 102.805 114.555  16
   7   0   8-23.2282 158.677  14
   7   0   8-6.83494 122.416   6
   7   0  -9-11.5491 36.2735  14
   0  -7   9-111.809 143.258   6
   7   0   9-3.24229 62.6167  16
   7   0  -9-88.1160 157.400  11
  -7   0   9-105.753 145.257   2
  -7   0  -9-166.199 244.439  19
   7   0  -9-9.03938 81.1983  18
  -7   0   9 49.5345 91.0217   5
   7   0   9 105.468 201.580   8
  -7   0   9 2.12290 107.682  17
  -7   0   9-40.6992 81.4775   4
  -7   0   9 42.2234 60.0664  16
   7   0  -9-43.7489 98.0910   1
   7   0   9-19.3367 84.4183  14
   7   0   9-88.4196 114.900   6
   0   7  -9-8.68553 133.785   3
   7   0 -10 77.9537 112.652  14
  -7   0  10 47.0472 71.8720   2
   0   7 -10-28.0883 79.8859  13
   7   0 -10 1.58938 20.9784   1
   0  -7  10 143.413 170.993   6
   7   0 -10-123.261 165.967  11
  -7   0  10 16.9188 35.3533   5
   0   7 -10-109.266 316.229  18
   7   0 -10 2.78287 63.0176  18
   7   0  10-2.20816 146.079   8
   0  -7  10 50.3817 198.982  17
  -7   0  10-101.210 124.666  17
   7   0  10 67.3980 114.469  16
  -7   0  10 38.6043 50.4665  16
  -7   0  10-50.0415 114.671   4
   7   0  10 51.9485 162.299   6
   0   7 -10 66.8915 163.153   3
   0   7 -11 1261.41 470.432   3
   7   0 -11 517.891 223.981  14
   0   7 -11 1410.43 593.352  13
   0   7 -11 966.875 289.934  12
   0  -7  11 212.727 323.954  17
   0  -7  11 449.306 262.997   6
  -7   0  11 829.876 345.510   2
   7   0 -11 557.993 288.031   1
   7   0 -11 290.682 271.648  11
  -7   0  11 862.419 312.397   5
   0   7 -11 967.989 407.343  18
   7   0 -11 318.227 217.818  18
   7   0  11 841.514 410.352   8
  -7   0  11 827.943 392.725  17
   7   0  11 962.280 413.386  16
  -7   0  11 405.766 233.081  16
   7   0  11 1274.66 509.034   6
   0   7 -12-3.28576 117.487   3
  -7   0  12 10.2705 76.0893   2
   7   0 -12 73.8018 116.442  14
   0   7 -12 136.717 282.507  13
   0  -7  12-164.256 90.8524   6
   0   7 -12 17.2806 73.7065  12
   7   0 -12-64.6964 162.040  11
   7   0 -12-52.6740 107.874   1
   0   7 -12 26.0384 186.041  18
  -7   0  12 18.4788 84.3324   5
   0  -7  12-142.529 207.253  17
  -7   0  12-93.2180 152.597  17
   7   0  12 9.39208 101.301   8
   7   0  12 154.346 249.156  16
  -7   0  12-59.0425 91.5558  16
   7   0  12-10.6495 214.046   6
   7   0 -13 586.669 220.361  14
   0   7 -13 1923.96 685.777  13
   0  -7  13 1212.26 429.828   6
   0   7 -13 1829.37 436.991  12
  -7   0  13 1487.48 406.181   5
  -7   0  13 1762.50 500.631   2
   7   0 -13 396.014 219.750   1
   0   7 -13 1871.68 594.714  18
   7   0  13 1481.21 606.361   8
  -7   0  13 1935.64 582.880  17
   0   7 -13 2092.39 291.168   4
   0  -7  13 969.388 439.500  17
   7   0  13 1696.14 620.349  16
  -7   0  13 803.483 348.179  16
   0   7 -13 2291.73 634.781   3
   7   0  13 978.139 390.516   6
   0  -7  14-30.2802 51.8019  17
   7   0 -14-25.3372 49.9402  14
  -7   0  14 82.4703 70.8118   2
   0  -7  14-72.1256 100.654  14
   0   7 -14 5.04894 121.138   3
   0   7 -14 203.664 166.884  13
   0  -7  14 29.9990 158.076   6
   0   7 -14-25.6214 80.6299  12
  -7   0  14 109.621 118.902  16
  -7   0  14 6.74328 18.1463   5
   0   7 -14-14.5276 67.5896  18
   7   0 -14 15.4441 91.8660   1
   0   7 -14-7.63523 50.8436   4
   7   0  14-29.6726 95.2784   8
  -7   0  14-26.7760 158.089  17
   7   0  14 16.8254 49.3191  16
   7   0  14-486.189 538.006   6
   7   0 -15 255.136 157.628  14
   0  -7  15 444.588 142.739  14
  -7   0  15 755.653 400.680   2
   0  -7  15 489.589 228.252   6
   0   7 -15 974.337 445.580   3
   0   7 -15 737.017 414.316  13
   0   7 -15 704.815 274.060  12
  -7   0  15 582.614 226.439   5
   0   7 -15 856.735 394.550  18
   7   0  15 653.582 388.513   8
   7   0 -15 255.477 299.482   1
   0  -7  15 704.932 353.144  17
  -7   0  15 775.393 318.004  17
   0  -7  15 246.947 210.305  16
   7   0  15 799.302 478.530  16
   7   0  15-138.205 490.357   6
  -7   0  16 141.010 251.575   2
   0  -7  16-55.5963 130.451   6
   0   7 -16-111.454 230.146  13
   0   7 -16-4.55422 57.9420   3
   0   7 -16 16.2573 43.8516  12
   0  -7  16-334.086 557.578   2
   0  -7  16-154.991 284.772  17
   7   0  16-114.653 57.0112   8
   0   7 -16-53.6835 147.435  18
   7   0 -16 76.0724 175.953   1
   7   0  16 275.765 307.910  16
   0  -7  16-157.430 283.579  16
   0  -7  17 379.081 359.250   6
   0   7 -17 507.067 494.398  13
   0   7 -17 404.640 411.041   3
   0   7 -17 128.357 143.395  12
   0   7 -17 154.046 183.368  11
   0  -7  17-48.3623 178.051  16
   0  -7  17 0.65761 323.940   2
   0   7 -17 101.978 193.946  18
   7   0  17 41.9548 377.962   8
   0  -7  17 114.724 241.041  17
   7   0  17 183.246 309.758  16
   0   7 -17 1273.39 882.816  15
   0  -7  18 112.173 165.662  16
   0  -7  18-146.971 246.714   6
   0  -7  18-90.5624 404.411   2
   0   7 -18 162.746 393.050   7
   0   7 -18 171.318 288.055  13
   0   7 -18-27.3882 191.494   3
   0   7 -18 130.504 180.143  12
   0   7 -18 7.54326 96.4410  11
   7   0  18 22.1334 338.446   8
   0  -7  18 12.0947 126.272  17
   7   0  18 393.723 588.790  16
   0   7 -18 267.783 451.974  15
   0   7 -18 95.1710 83.6061  18
  -7   1   0 1123.74 304.373  12
   7   1   0 1911.07 475.850   8
  -7   1   0 1509.37 416.021   5
   7   1   0 2089.57 597.968   1
  -7  -1   0 909.608 371.047   5
   7  -1   0 1796.06 471.785   1
  -7   1   0 1736.57 309.994   2
   7  -1   0 334.349 114.221  11
  -7   1   0 1514.04 406.497  19
  -7  -1   0 961.583 379.785  19
   7  -1   0 1047.43 276.798  18
  -7   1   0 1616.57 434.509   4
   7  -1   0 1636.58 403.686   8
  -7  -1   0 873.947 311.019  17
  -7   1   0 705.188 235.691  17
   7   1   0 2074.12 444.196  18
  -7  -1   0 551.826 221.607   2
   7   1   0 843.544 260.923   6
   7  -1   0 1981.85 373.725   6
   7   1   0 1618.69 512.558  14
   7  -1   0 1665.50 441.326  14
  -7  -1   0 756.498 328.368   4
   7  -1  -1 680.750 282.956  14
  -7  -1  -1 180.548 75.5253  19
   7  -1   1 667.322 237.363   6
   7   1  -1 817.625 377.740   1
  -7  -1   1 492.341 166.318  12
   7   1  -1 389.817 136.385  13
  -7   1  -1 427.356 194.400  12
   7   1   1 727.813 252.550  18
   7  -1  -1 843.675 319.155   1
  -7   1   1 292.518 155.639  12
   7   1   1 707.998 291.969   8
   7   1  -1 1288.52 331.962  11
  -7  -1  -1 360.606 243.890   5
  -7   1  -1 705.439 193.304   2
  -7  -1   1 451.526 257.793   5
  -7   1   1 722.923 215.274   2
   7  -1   1 56.1393 38.4558  11
   7  -1  -1 88.2495 37.8539  11
  -7   1  -1 547.553 254.233   5
  -7  -1   1 493.362 258.383  19
  -7   1   1 786.833 286.071  19
  -7  -1   1 434.386 222.817   2
   7   1  -1 896.182 306.280  18
   7  -1   1 474.917 174.714  18
   7  -1  -1 480.524 199.525  18
  -7  -1  -1 130.946 86.3050   4
  -7  -1   1 569.763 300.930   4
  -7  -1  -1 493.029 203.485  17
   7   1  -1 859.711 308.020   8
  -7  -1   1 507.714 206.357  17
   7  -1   1 680.841 283.256   8
  -7   1  -1 291.851 131.782  17
   7  -1   1 672.086 298.758   1
  -7   1   1 321.431 151.171  17
  -7   1   1 569.703 256.919   5
   7  -1  -1 764.352 274.095   8
  -7   1  -1 543.813 264.267   4
  -7   1  -1 561.134 246.706  19
  -7   1   1 678.587 270.503   4
  -7  -1   1 64.5056 92.6366   7
  -7  -1   1 98.7297 127.369  15
   7  -1  -1 729.424 212.317   6
   7   1   1 642.673 359.380   1
   7   1   1 745.386 355.307  14
   7   1   1 311.793 148.795   6
   7   1  -1 475.158 262.886  14
   7   1  -1 447.551 178.819   6
  -7   1  -1 138.284 104.889   3
   7  -1   1 696.381 282.712  14
  -7  -1   2 394.403 227.658  17
   7  -1  -2 379.941 195.211  14
   7  -1  -2 354.329 204.024   1
  -7   1  -2 245.973 157.090   3
   7  -1   2 334.702 178.141   6
   7   1  -2 554.775 173.232  13
   7  -1  -2 430.500 166.560   6
  -7   1  -2 164.570 114.486  12
  -7  -1   2 269.878 111.287  12
  -7  -1   2 243.575 183.097   4
   7   1  -2 545.013 207.316  11
   7   1  -2 702.106 319.040   1
  -7  -1   2 416.055 255.728   5
   7  -1   2-9.28679 67.3224  11
   7  -1  -2-102.826 122.385  11
  -7   1  -2 390.167 226.059   4
  -7   1  -2 269.583 190.318   5
   7   1  -2 58.7694 42.1233  10
  -7  -1   2 376.171 220.515  19
  -7   1   2 331.683 155.286   5
  -7   1  -2 324.024 179.410  19
  -7   1   2 467.352 206.063  19
   7  -1   2 489.547 250.994   1
   7   1   2 405.210 190.031  18
   7   1  -2 536.766 245.848  18
  -7   1  -2 363.122 136.324   2
  -7  -1   2 464.213 218.392   2
   7  -1   2 424.339 154.770  18
  -7  -1  -2-3.20546 129.231   4
   7  -1  -2 222.667 144.254  18
  -7  -1  -2 131.949 123.560  17
   7   1  -2 475.143 210.557   8
   7  -1   2 476.051 233.029   8
  -7   1  -2 179.593 105.425  17
  -7   1   2 261.558 150.304  17
  -7   1   2 359.058 184.793   4
   7   1  -2 793.021 271.037   9
   7  -1  -2 349.865 179.931   8
   7   1   2 503.816 329.963   1
  -7  -1   2 277.136 128.647   7
   7   1   2 275.824 124.688  16
  -7  -1   2 157.288 69.4309  15
  -7  -1  -2-6.64650 133.472  19
   7   1   2 314.470 251.090  14
   7   1   2 223.822 138.438   6
   7   1   2 530.461 267.605   8
   7   1  -2 414.151 240.579  14
  -7   1   2 294.324 119.321   2
   7  -1   2 413.388 213.628  14
   7   1  -2 319.388 128.852   6
   7   1  -3 443.824 132.976   6
   7  -1  -3 296.977 174.737  14
  -7   1   3 390.009 170.963   2
   7  -1   3 608.755 229.889   6
   7   1  -3 635.464 195.433  13
  -7   1  -3 254.970 141.507   3
  -7   1  -3 305.993 169.608  12
   7  -1  -3 362.831 145.438   6
  -7  -1   3 142.332 69.1468  12
   7   1  -3 742.747 275.086  11
   7  -1   3 523.719 255.349   1
  -7   1  -3 464.938 231.924   5
  -7  -1   3 398.696 235.667   5
  -7   1  -3 104.009 46.4933   2
   7   1  -3 486.082 273.065   1
  -7   1  -3 305.623 204.765  19
  -7   1   3 480.522 203.333   5
   7   1  -3 610.659 249.642   9
  -7   1   3 464.004 207.075  19
   7   1  -3-107.211 138.301  10
  -7   1  -3 207.060 125.734  17
   7   1   3 402.570 205.453  18
  -7  -1  -3 247.262 250.826  19
   7   1  -3 492.781 250.944  18
   7  -1   3 456.074 155.885  18
   7  -1  -3 150.596 100.013  18
  -7  -1  -3 105.078 98.8188  17
   7   1   3 392.195 231.061   8
  -7  -1   3 443.475 205.580   2
   7   1   3 447.045 327.181   1
   7  -1  -3 529.400 251.159   1
  -7  -1   3 285.951 164.146  17
   7  -1   3 467.188 228.447   8
  -7   1  -3 420.373 244.636   4
   7   1  -3 511.135 222.071   8
  -7   1   3 198.421 126.284  17
  -7  -1   3 189.458 163.859  19
   7  -1  -3 380.659 176.585   8
   7  -1   3 152.563 81.0160  16
  -7   1   3 333.665 179.676   4
  -7  -1   3 487.260 208.804   7
   7   1   3 294.432 127.043  16
  -7  -1   3 338.074 218.256   4
  -7  -1   3 411.519 162.530  15
   7   1   3 323.031 242.327  14
   7   1   3 324.328 205.969   6
   7   1  -3 334.869 189.546  14
  -7   1  -3-56.5807 89.8119  10
   7  -1   3 565.324 282.282  14
   7  -1  -4-27.1943 47.1790  14
   7   1  -4 39.1131 46.0130   6
   7  -1   4-6.35653 79.2115   6
  -7  -1  -4-24.5086 166.374  19
  -7   1   4 26.1853 64.6222   2
   7  -1   4 60.0096 144.332   1
   7   1  -4-113.931 111.929   9
  -7   1  -4 71.4393 144.779  12
  -7   1  -4 39.0200 93.0242   3
   7  -1  -4 30.3763 12.3321   6
   7   1  -4 154.346 146.563  11
  -7   1  -4 61.4481 111.939   5
  -7  -1   4 101.424 161.969   5
   7   1  -4-466.316 305.382  10
  -7  -1   4 196.273 165.005  19
  -7   1   4 83.6860 113.740   5
  -7   1   4 0.02769 32.8647  19
   7   1  -4 39.2079 168.905   1
   7   1   4 35.8903 48.0092  18
   7   1   4 198.649 251.254   1
   7   1  -4 103.740 157.251  18
   7  -1   4 13.9788 32.6883  18
   7  -1  -4 41.9836 47.6050  18
   7   1   4 51.2626 45.6473   8
  -7  -1  -4 14.5052 11.7902  17
  -7  -1   4 9.86670 94.5343   2
  -7  -1   4-32.7749 11.2015  17
  -7   1  -4 11.3823 40.5952   4
   7  -1   4 24.2483 16.5756   8
  -7   1  -4 34.9911 76.9317  17
  -7  -1   4 46.2915 151.328   4
  -7   1   4-7.36505 38.3541  17
   7   1  -4 19.9940 82.0741   8
   7  -1  -4 26.6431 70.9866   8
   7  -1   4 41.7616 72.9363  16
  -7   1  -4 41.5825 88.9401  19
  -7   1   4 112.896 81.0495   4
  -7  -1   4 13.2059 75.0844   7
   7   1   4-45.2409 68.7970  16
  -7  -1   4 28.9735 10.2731  15
  -7   1  -4 82.3163 165.026  15
   7   1   4 93.5130 125.684   6
   7   1   4 94.4043 111.586  14
   7  -1  -4-62.7738 86.1612   1
   7   1  -4 69.9977 135.596  14
   7  -1   4 1.13260 63.1322  14
   7  -1  -5 155.533 122.960  14
   7  -1   5 304.461 179.253   6
   7   1  -5 258.853 85.1259   6
  -7   1   5 136.110 125.627   2
   7   1   5 297.207 252.800   1
   7  -1  -5 355.011 222.450   1
   7   1  -5 498.119 258.889  11
  -7   1  -5 98.3412 132.247   5
  -7  -1   5 241.848 182.368   5
  -7  -1   5 295.123 164.787  19
  -7   1   5 202.382 146.026   5
   7   1  -5 253.422 222.031  18
   7  -1   5 307.118 112.002  18
   7  -1  -5 182.353 135.996  18
   7   1   5 217.270 214.360   8
  -7   1  -5 153.168 129.507  19
  -7  -1  -5-15.7457 60.3990  17
   7   1  -5 344.309 224.498   1
  -7   1  -5 285.087 238.499   4
   7  -1   5 329.489 209.528   8
   7   1  -5 161.628 96.9379   9
  -7  -1   5 314.649 208.043  17
  -7   1  -5 138.071 85.1655  17
  -7  -1   5 252.097 176.481   4
   7   1  -5 213.840 124.930   8
  -7   1   5 257.851 181.889  17
  -7  -1   5 326.033 204.477   2
  -7  -1   5 274.203 98.6434  16
   7  -1   5 486.242 206.531  16
   7  -1  -5-13.3055 125.579   8
  -7   1   5 237.011 102.480   4
   7   1   5 117.812 105.782  16
  -7   1  -5 357.725 277.553  15
  -7   1   5 299.144 183.508  19
   7   1   5 201.039 213.821   6
   7   1   5 420.005 321.549  14
   7  -1   5 362.177 234.821   1
   7  -1   5 378.899 251.434  14
   7   1  -5 306.802 188.255  14
  -7   1  -5 391.786 336.697   7
   7  -1   6 336.306 206.983   6
   7  -1  -6 135.064 106.694  14
   7   1  -6 237.114 72.4898   6
  -7   1  -6 37.5563 51.6942  13
  -7   1   6 136.628 123.387   2
  -7   1   6 238.714 129.697   5
   7   1  -6 222.997 217.669   9
  -7   1  -6 270.836 235.997  19
  -7   1  -6 126.457 133.063   5
   7   1  -6 353.517 204.729  11
  -7  -1   6 158.846 175.168   5
  -7  -1   6 304.396 159.536  19
  -7   1   6 237.972 149.191  19
   7  -1  -6 132.304 95.6871   1
   7  -1   6 314.891 102.085  18
   7   1  -6 158.201 165.665  18
   7   1   6 320.101 251.135   8
  -7   1  -6 71.0674 29.1288   4
   7  -1   6 436.848 253.441   8
  -7   1  -6 110.227 70.3774  17
  -7  -1   6 222.376 192.342  17
  -7   1   6 322.648 184.273  17
  -7  -1   6 315.899 189.419   4
   7   1  -6 255.432 129.607   8
   7   1  -6 274.042 176.831   1
  -7  -1   6 219.662 145.109   2
   7  -1   6 397.126 183.664  16
   7  -1   6 315.913 194.712   1
  -7  -1   6 257.964 104.621  16
  -7   1  -6 286.521 277.066   7
   7   1   6 162.466 168.204  16
  -7   1   6 128.038 74.2821   4
  -7   1  -6 207.487 222.216  15
   7   1   6 91.4969 40.2861   6
   7  -1   6 276.572 214.206  14
   7   1  -6 158.147 154.220  14
   7  -1   7 273.856 132.682   6
  -7   1   7 209.124 151.574   5
  -7   1   7 324.726 194.761   2
   7   1  -7-116.282 205.499   9
   7   1   7 136.921 100.550  16
   7   1  -7 272.132 149.550  11
   7  -1  -7 188.878 133.475  14
  -7  -1   7 231.784 127.531  19
  -7  -1   7 287.473 210.580   5
   7  -1   7 310.258 209.746   1
  -7   1   7 14.6094 65.6689  19
   7   1  -7 179.492 162.886  18
   7   1   7 149.706 189.975   8
  -7   1  -7 106.501 64.5072   4
   7  -1   7 340.856 95.4116  18
   7  -1   7 395.902 251.916   8
  -7   1  -7 53.7788 26.5883  17
  -7   1  -7 99.1367 155.311  19
  -7  -1   7 203.884 173.733  17
  -7   1   7 299.316 215.256  17
  -7  -1   7 250.146 197.945   4
   7   1  -7 245.098 116.372   8
   7  -1   7 390.586 217.934  16
   7  -1  -7 48.5699 50.2634   1
  -7  -1   7 297.826 102.950  16
  -7  -1   7 305.777 181.851   2
  -7   1  -7 181.854 229.110   7
   7   1  -7 205.990 172.584   1
  -7   1  -7 160.201 243.805  15
   7   1   7 42.0779 230.745   6
   7  -1   7 385.772 260.531  14
   7   1  -7 186.996 154.620  14
   7  -1   8 1030.49 439.693   6
   7   1  -8 933.701 410.454   1
   7  -1  -8 394.839 196.183  14
   7  -1  -8 410.959 234.975   1
  -7   1   8 485.864 227.668   2
   7   1  -8 996.888 401.136  11
  -7  -1   8 1088.83 409.433   2
  -7  -1   8 1140.90 343.309  19
  -7   1  -8 450.526 332.727  19
   7  -1   8 1446.60 666.880   1
   7   1  -8 656.082 386.672   9
  -7   1   8 509.116 219.151   5
   7  -1   8 657.305 132.673  18
  -7   1  -8 792.209 384.879   4
   7   1  -8 858.425 422.973  18
   7   1   8 451.235 310.539   8
   7  -1   8 939.782 382.791   8
  -7  -1   8 1170.40 467.687  17
  -7   1   8 409.871 231.864  17
  -7  -1   8 989.280 261.700  16
  -7  -1   8 726.041 265.671   4
   7   1  -8 120.797 163.954   8
   7  -1   8 1027.24 372.851  16
  -7   1  -8 405.536 296.449   7
   7   1   8 587.566 338.673  16
  -7   1  -8 154.274 46.1446  15
   7   1   8 202.615 189.273   6
  -7  -1   8 709.362 291.465   5
   7  -1   8 1012.39 454.865  14
   7   1  -8 770.311 298.005  14
   7   1  -9 1236.50 435.103   1
   1  -7   9 320.858 222.604   6
  -7   1   9 979.108 311.690   5
   7   1  -9 982.612 332.624  11
  -7  -1   9 1488.22 444.485   2
   7  -1  -9 659.939 282.875   1
  -7   1   9 959.679 359.511   2
  -7  -1   9 1330.05 318.395  19
  -7  -1   9 1399.90 357.161   4
  -7   1  -9 146.717 71.4363  19
  -7  -1   9 1144.16 363.959   5
   7   1  -9 23.8795 219.849   9
   7   1   9 916.395 402.470   8
   7   1  -9 1115.28 395.210  18
   7  -1   9 1102.89 417.746   8
  -7  -1   9 1203.63 452.978  17
  -7   1   9 922.477 359.502  17
  -7   1  -9 36.4196 276.789   7
   7  -1   9 1504.56 446.867  16
  -7  -1   9 1025.30 263.487  16
   7   1   9 731.042 358.120  16
  -1   7  -9 1495.23 498.549   3
  -7   1  -9 40.0642 299.767  15
   7   1   9 451.475 221.037   6
   1   7  -9 1198.18 400.319   3
   7  -1   9 1593.47 549.871  14
   7  -1  -9 515.071 219.961  14
   7  -1   9 1506.24 500.113   6
   7   1  -9 929.802 313.604  14
   7  -1 -10 152.286 100.443  14
  -1   7 -10-107.171 374.461  13
   1   7 -10 312.525 247.371  13
  -7   1  10 314.155 209.748   2
   1  -7  10 168.308 172.520   6
  -1  -7  10 119.066 46.5567   6
   7   1 -10 356.684 243.828   1
  -1   7 -10 259.119 151.138  12
   7   1 -10 270.953 145.165  11
  -7  -1  10 127.828 45.9627  19
  -7   1 -10-55.7217 110.939  19
  -7  -1  10 109.156 109.222   5
  -7   1  10 264.179 142.912   5
   1   7 -10 1.17918 203.351  18
   7  -1 -10 114.323 127.963   1
   7   1 -10 387.446 262.050  18
   7   1  10 284.149 258.095   8
  -1  -7  10-50.7324 155.300  17
   7  -1  10 614.581 322.121   8
  -7  -1  10 284.673 184.029  17
  -7   1  10 73.4104 43.4255  17
  -7  -1  10 304.009 162.539   4
  -7   1 -10-968.922 531.838   7
   7  -1  10 518.817 310.819  16
  -7  -1  10 216.305 117.013  16
   7   1  10 437.148 366.185  16
  -7   1 -10-343.830 466.706  15
  -7  -1  10 303.429 207.123   2
   7  -1  10 412.658 297.735  14
   7   1 -10 219.759 291.110   9
   1   7 -10 411.247 259.106   3
   7  -1  10 532.470 286.899   6
  -1   7 -10 642.707 342.043   3
   7   1 -10 248.802 170.046  14
   7   1 -11 520.094 224.052  14
   1   7 -11 790.811 365.803   3
  -1   7 -11 877.343 389.366   3
  -1   7 -11 568.492 395.744  13
   1   7 -11 655.857 474.542  13
  -7   1  11 613.648 300.660   2
   1  -7  11 420.003 264.724   6
  -1  -7  11 91.0443 99.8827   6
  -1   7 -11 613.016 241.689  12
   7   1 -11 542.991 290.334   1
   7   1 -11 488.134 333.097  11
   7  -1  11 699.781 161.445   2
  -7   1 -11 62.6782 113.580  19
  -7  -1  11 529.499 264.603   5
   7   1 -11-13.5872 257.797   9
   1   7 -11 547.893 398.157  18
   7   1  11 311.532 211.339   8
   1  -7  11 102.612 146.874  17
  -1  -7  11 131.988 196.555  17
   7  -1  11 760.240 381.924   8
   7  -1 -11 236.058 197.457   1
  -7  -1  11 614.142 302.403  17
  -7   1  11 42.6063 138.097  17
  -7  -1  11 683.791 239.126   4
   7  -1  11 887.299 362.964  16
  -7  -1  11 453.048 200.364  16
   7   1 -11 457.958 269.551  18
   7   1  11 498.274 407.313  16
  -7  -1  11 712.221 346.901   2
   7  -1  11 770.930 414.979  14
  -1   7 -11 718.300 319.108  18
   7  -1  11 738.363 318.886   6
   7   1 -12 568.172 223.710  14
   1   7 -12 1054.33 412.770   3
  -1   7 -12 1261.25 498.894   3
  -1   7 -12 974.472 520.198  13
   1   7 -12 1235.40 561.669  13
   1  -7  12 375.538 241.417   6
  -1  -7  12 386.342 219.101   6
  -1   7 -12 1079.89 370.912  12
   7   1 -12 749.512 345.379   1
   1   7 -12 994.089 287.080  12
   7   1 -12 743.629 325.385  18
   7   1 -12 625.932 283.057  11
   7  -1  12 1174.61 240.162   2
  -7  -1  12 1145.82 376.864   5
   7   1 -12 34.0012 209.908   9
  -1   7 -12 1389.30 449.847  18
   1   7 -12 1268.05 468.575  18
  -7  -1  12 993.254 298.243   4
   7  -1  12 1201.58 479.703   8
  -1  -7  12 235.838 275.197  17
   1  -7  12 371.582 206.298  17
  -7  -1  12 980.130 420.039  17
   7   1  12 1134.38 558.292   8
   7  -1  12 1331.27 494.032  16
  -7  -1  12 838.962 314.559  16
   7   1  12 635.525 475.507  16
  -7  -1  12 1142.19 423.268   2
   7  -1  12 857.328 385.745   6
   7   1 -13 186.916 140.323  14
   1   7 -13 432.684 265.790   3
   1  -7  13 55.8379 72.4191  14
  -1   7 -13 518.807 267.895   3
   7  -1  13 562.224 186.807   2
  -1   7 -13 364.155 315.026  13
   1   7 -13 266.652 275.703  13
  -1  -7  13 217.847 150.202   6
   1  -7  13 266.401 222.785   6
  -1   7 -13 451.122 226.054  12
   1   7 -13 456.837 213.237  12
  -1  -7  13 191.922 202.312  17
   7   1 -13 298.554 223.772  11
  -7   1 -13-46.0025 136.541  19
   7   1 -13 336.399 240.465   1
  -7  -1  13 371.468 203.598   5
   7   1  13 550.179 466.996   8
  -1   7 -13 446.151 246.612  18
   1   7 -13 173.238 287.370  18
   7   1 -13 172.286 124.011  18
   1  -7  13 131.475 159.853  17
   7   1 -13-800.316 482.726   9
  -7  -1  13 408.182 241.663  17
  -1   7 -13 686.542 199.157   4
   7  -1  13 514.931 378.931  16
  -7  -1  13 531.135 204.625   4
  -7  -1  13 346.000 218.686  16
   7  -1  13 658.142 358.530   8
  -7  -1  13 320.710 243.757   2
   7  -1  13 415.736 300.871   6
   7   1 -14 550.054 235.534  14
  -1   7 -14 1470.20 535.677  13
   1   7 -14 1629.30 666.137  13
  -1  -7  14 855.815 369.475   6
   1  -7  14 1055.62 427.346   6
  -1   7 -14 1835.39 501.921  18
  -1   7 -14 1676.42 437.491  12
   1   7 -14 1621.20 422.762  12
  -7  -1  14 1622.73 445.639   5
   1   7 -14 1332.57 569.109  18
  -7  -1  14 1863.52 586.650   2
   7   1 -14 682.909 403.683  11
   7  -1  14 1995.36 369.391   2
  -7   1 -14 180.206 160.418  19
   7   1 -14-799.088 795.635   9
  -1   7 -14 2077.02 364.442   4
   7   1 -14 751.047 363.595   1
  -7  -1  14 1331.42 320.018   4
   7   1 -14 728.354 350.235  18
   7  -1  14 1774.16 616.131   8
   1  -7  14 1211.18 454.731  17
  -1  -7  14 842.618 475.844  17
  -7  -1  14 1847.77 594.041  17
  -1  -7  14 397.552 266.052  16
   1  -7  14 625.796 287.478  16
   7  -1  14 2116.45 671.761  16
  -7  -1  14 1321.41 423.253  16
   1   7 -14 1756.56 555.745   3
  -1   7 -14 1909.99 587.761   3
   1  -7  14 967.234 224.144  14
   7  -1  14 1499.81 593.926   6
   7   1 -15 2.03935 115.496  14
   1  -7  15 293.497 135.662  14
  -1  -7  15 91.6000 54.1470  14
   7  -1  15 439.526 187.348   2
  -1  -7  15 222.093 214.959   6
   1   7 -15 376.334 267.944   3
   1  -7  15 100.634 24.5813   6
  -1   7 -15 476.415 323.448   3
  -1   7 -15 331.360 324.067  13
   1   7 -15 550.354 359.838  13
  -1   7 -15 341.184 202.690  12
   1   7 -15 324.655 195.842  12
   7   1 -15-1329.96 1009.25   9
   7   1 -15 152.488 232.763  11
  -1  -7  15-287.724 605.210   2
  -7   1 -15-90.4441 229.666  19
  -7  -1  15 270.245 183.743   5
  -1   7 -15 324.079 218.933  18
   1   7 -15 148.049 254.084  18
   7   1 -15 192.103 168.944   1
   7  -1  15 351.534 263.544   8
   1  -7  15 199.568 129.654  17
  -1  -7  15 255.422 272.750  17
   7   1 -15 214.627 258.637  18
  -7  -1  15 330.985 260.931  17
  -1  -7  15 317.124 74.8096  16
   1  -7  15-144.353 274.182  16
   7  -1  15 430.771 436.808  16
  -7  -1  15 218.999 157.873  16
  -7  -1  15 143.155 50.3138   4
   7  -1  15 471.944 320.685   6
  -7  -1  15 128.207 173.136   2
   1  -7  16 340.626 147.073  14
   7   1 -16 132.458 105.101  14
  -1  -7  16 104.188 122.147   6
   7  -1  16 607.980 253.822   2
   1  -7  16 477.203 339.198   6
   1   7 -16 547.169 353.419   3
  -1   7 -16 549.556 299.585  13
   1   7 -16 414.109 185.422  13
  -1   7 -16 443.521 282.331   3
  -1   7 -16 507.559 270.388  18
  -1   7 -16 521.644 264.105  12
   1   7 -16 407.024 205.589  12
  -7   1 -16-64.1661 220.369  19
   7   1 -16 222.699 359.202  11
   1   7 -16 199.257 249.040  18
   7  -1  16 556.358 380.189   8
   7   1 -16 152.879 205.890  18
  -1  -7  16 546.721 348.972  17
   1  -7  16 369.267 220.013  17
   7   1 -16 153.388 214.175   1
  -7  -1  16 940.093 493.736  17
  -1  -7  16 218.009 225.008  16
   1  -7  16 219.822 158.286  16
   7  -1  16 604.037 369.177  16
  -7  -1  16 496.238 351.085  16
  -7  -1  16 700.365 324.699   5
  -7  -1  16 389.229 186.774   4
   7  -1  16 245.493 241.727   6
  -7  -1  16 597.087 400.255   2
  -1  -7  16-37.6293 422.447   2
   7   1 -17 40.7210 77.4820  14
  -7  -1  17 376.477 238.369   5
  -1  -7  17 239.162 97.4083   6
   1  -7  17 808.461 420.118   6
   7  -1  17 623.390 277.369   2
  -1   7 -17 166.825 184.274  13
   1   7 -17 700.633 584.075  13
   1   7 -17 1083.82 522.143   3
  -1   7 -17 575.427 396.177   3
  -1   7 -17 698.606 326.773  12
   1   7 -17 740.344 365.298  12
   1   7 -17 963.836 529.441  11
  -1   7 -17 727.260 345.196  11
   7   1 -17 223.228 206.430  11
   1  -7  17-252.984 581.587   2
  -1  -7  17 182.904 57.2762   2
  -7   1 -17-166.645 270.759  19
   1   7 -17 146.794 402.636  18
  -1   7 -17 620.144 319.399  18
   7  -1  17 516.613 288.192   8
  -1  -7  17 494.146 351.449  17
   1  -7  17 486.425 288.759  17
  -7  -1  17 473.124 325.532  17
  -1  -7  17 338.149 328.179  16
   7   1 -17 237.341 291.362   1
   7  -1  17 417.064 327.699  16
  -7  -1  17 589.084 336.961  16
   1  -7  17 526.111 426.897  16
   1   7 -17 1415.24 962.435   7
   1   7 -17 891.708 749.090  15
   7  -1  17-323.212 559.976   6
  -7  -1  17 372.208 277.279   2
  -1  -7  18 185.590 213.838   6
   1  -7  18 160.863 210.755   6
   7  -1  18 29.5825 97.9518   2
  -1   7 -18 167.439 209.800  13
   1   7 -18 167.229 364.166  13
   1   7 -18 76.7887 208.063   3
  -1   7 -18 144.612 276.264   3
  -1   7 -18 9.23511 67.1856  12
   1   7 -18 173.447 169.607  12
   1   7 -18-46.0680 235.737  11
  -1   7 -18 330.282 355.755  11
   1  -7  18-11.5829 398.666   2
  -7   1 -18-27.1554 251.963  19
  -1  -7  18-203.208 307.837   2
  -7  -1  18 50.5342 152.252   5
   1   7 -18-84.5723 155.457  18
  -1   7 -18 32.3952 181.269  18
   7  -1  18-125.139 239.717   8
  -1  -7  18-183.919 136.730  17
   1  -7  18-26.6457 81.9531  17
  -7  -1  18-313.429 341.792  17
   7   1 -18-10.5505 78.9839   1
  -1  -7  18 365.795 341.668  16
   1  -7  18 69.9669 184.011  16
   7  -1  18 116.455 209.808  16
  -7  -1  18 174.684 186.308  16
   1   7 -18 284.309 303.758   7
  -1   7 -18 476.222 645.553   7
   1   7 -18 161.205 297.228  15
  -1   7 -18 251.661 330.385  15
   7  -1  18-916.954 754.969   6
  -7  -1  18 54.5301 128.702   2
  -7   2   0 1335.34 354.359  12
   7   2   0 2518.96 712.440   1
  -7   2   0 2493.48 486.227   5
  -7  -2   0 357.538 209.167  19
   7  -2   0 2746.05 561.385   1
  -7   2   0 1645.33 281.192   2
   7   2   0 2860.33 596.842  18
   7  -2   0 2152.01 456.997   8
   7  -2   0 2278.47 426.267   6
  -7   2   0 2433.88 496.688  19
   7  -2   0 2358.25 503.001  14
  -7   2   0 2273.53 474.203   4
   7   2   0 1422.76 526.067  14
   7   2   0 2034.28 522.174   8
  -7   2  -1 1771.28 414.966  12
   7   2   1 2275.97 708.170   1
   7   2  -1 2521.64 695.291   1
  -7   2  -1 2106.37 463.732   5
  -7   2   1 2072.88 451.987   5
   7  -2   1 2365.45 515.071   1
  -7   2  -1 1873.21 273.671   2
   7  -2  -1 2186.76 502.538   1
  -7   2   1 1414.29 275.704   2
  -7   2  -1 2449.32 508.925  19
  -7  -2  -1 149.616 119.114  19
  -7   2   1 2518.30 494.228  19
  -7  -2   1 653.683 309.623  19
   7   2   1 2129.73 531.627  18
   7   2   1 1888.24 513.064   8
  -7   2  -1 2231.12 496.246   4
   7  -2   1 2427.20 501.158   8
  -7   2   1 2168.18 451.861   4
   7  -2  -1 2074.82 456.572   8
   7   2  -1 2453.66 537.241   8
  -7  -2  -1 264.892 218.869  17
  -7  -2   1 772.317 325.170  17
   7   2  -1 2413.41 545.962  18
   7  -2   1 2623.41 459.898   6
   7  -2  -1 1880.80 379.855   6
   7   2  -1 1502.41 524.106  14
   7  -2   1 2424.64 502.113  14
   7  -2  -1 1659.00 415.750  14
   7   2   1 1310.10 517.308  14
   7  -2   2 1025.86 329.150  14
   7  -2  -2 709.942 265.791  14
   7   2  -2 578.920 202.098  13
  -7   2   2 510.980 163.494   2
  -7   2  -2 796.730 281.602  12
   7  -2  -2 537.406 200.930   6
  -7  -2   2 337.233 216.360   5
   7  -2   2 1153.15 345.341   1
  -7   2  -2 913.175 173.507   2
  -7  -2   2 214.016 184.812  19
  -7  -2   2 591.249 276.533   2
  -7   2   2 783.506 261.126   5
   7   2  -2 1389.79 409.147  18
   7   2   2 823.680 309.912  18
   7   2   2 1191.16 539.629   1
   7   2  -2 1045.27 353.313   8
  -7   2   2 976.510 327.609  19
   7  -2   2 1033.13 323.708   8
  -7   2   2 929.327 289.445   4
   7  -2  -2 751.833 277.660   8
  -7  -2   2 236.749 148.403   4
  -7   2  -2 866.471 305.950   5
   7  -2  -2 643.512 269.499   1
  -7  -2   2 496.203 256.374  17
  -7   2  -2 924.570 326.433   4
   7   2   2 831.861 359.336   8
  -7   2  -2 1033.92 328.910  19
  -7  -2  -2 70.8632 175.605  17
   7  -2   2 1083.86 307.973   6
   7   2  -2 1123.00 432.773   1
   7   2  -2 658.651 318.976  14
  -7   2  -2 248.753 175.918   3
   7  -2   3 84.9157 60.8277  14
   7   2  -3-56.6516 136.763   1
   7   2   3 93.2340 131.061   8
   7  -2  -3 29.9521 15.3266  14
  -7   2  -3 14.9708 92.8475   3
  -7   2  -3 48.7177 100.464  19
   7   2  -3 159.910 112.428  13
   7  -2  -3 93.6974 55.6592   1
   7  -2   3 171.104 155.270   6
  -7  -2   3 27.0598 26.9901  12
  -7   2   3-88.0769 119.429   2
  -7   2  -3 91.1746 123.047  12
   7  -2  -3-79.6453 145.635   6
  -7  -2   3 81.6296 104.301   5
  -7   2  -3 135.514 131.669   5
   7   2   3 61.5315 198.749   1
  -7  -2   3-26.7175 93.2196  19
  -7   2   3 101.259 100.099  19
  -7  -2   3 43.7490 123.133   2
  -7  -2   3 45.7324 65.7553   4
  -7   2   3 121.363 117.813   5
   7   2  -3 90.6425 88.9064   8
  -7  -2   3-53.2034 51.2135  17
   7  -2   3 68.0661 22.9007   8
  -7   2  -3 115.862 139.131   4
   7   2  -3 82.7535 148.373  18
   7  -2  -3 22.9253 56.2828   8
  -7   2  -3 127.662 63.9136   2
  -7   2   3 32.8258 88.8006   4
   7  -2   3 69.5301 33.8279   1
   7   2  -3 131.125 190.477  14
   7  -2   4 848.286 332.059  14
  -7   2   4 686.469 263.233  19
   7  -2  -4 431.797 207.977  14
  -7   2  -4 403.704 226.984   3
   7  -2   4 818.907 277.042   6
   7   2  -4 1078.85 300.449  13
   7   2  -4 770.250 344.970   1
  -7   2  -4 513.987 222.602  12
  -7  -2   4 108.727 53.8458  12
   7   2  -4 1269.93 385.977  11
  -7  -2   4 458.999 259.544   5
  -7   2  -4 600.467 269.084   5
  -7  -2   4 534.415 223.531  19
  -7   2  -4 368.077 206.178  19
  -7   2   4 548.742 201.556   5
   7  -2  -4 414.680 223.754   1
  -7  -2   4 811.096 339.996   2
   7   2   4 213.460 220.539   8
   7  -2   4 844.815 312.037   1
  -7  -2   4 371.320 224.706  17
   7   2  -4 750.948 258.250   8
   7  -2   4 691.426 305.857   8
  -7  -2   4 283.041 172.710   4
   7   2  -4 901.377 343.291  18
   7  -2  -4 36.1130 197.443   8
   7   2  -4 325.848 221.535  14
  -7   2  -4 623.008 269.716   4
   7  -2  -5 6.90005 25.4698  14
   7  -2   5 219.373 166.213   6
   7   2  -5 208.206 162.006  13
  -7   2  -5 68.8298 135.404   3
  -7   2  -5 99.2951 116.317  12
   7   2  -5 107.666 89.7706   1
   7   2  -5 140.530 77.6490  11
  -7  -2   5 57.9083 65.0923   5
  -7   2  -5 133.415 110.688  10
  -7   2  -5 175.996 157.417   5
   7   2  -5 324.241 170.581  10
   7  -2   5 172.301 118.870   1
  -7   2  -5 139.461 98.3370   9
  -7   2  -5 208.869 190.562  19
  -7   2   5-62.5826 135.160  19
  -7   2   5-17.9071 97.9887   5
   7   2  -5 78.3066 117.523  18
   7   2   5 174.219 221.647   8
  -7  -2   5 237.258 186.604  19
  -7  -2   5 315.385 222.929   2
  -7  -2   5 80.6642 98.5473   4
  -7  -2   5 127.969 129.467  17
   7   2  -5 275.738 170.675   8
   7  -2   5 188.675 159.987   8
  -7   2  -5 143.035 145.528   4
   7  -2   5 85.7771 110.948  16
   7  -2  -5 88.2913 110.042   1
   7   2  -5 125.682 118.422  14
   7  -2   5 67.9519 113.478  14
   7  -2  -6 363.307 224.929  14
   7   2  -6 1295.41 359.406  13
   7  -2   6 1262.79 380.166   6
  -7   2  -6 608.719 276.894  12
  -7   2  -6 565.460 250.274   3
   7  -2   6 1427.05 438.331   1
   7   2  -6 1490.39 456.394  11
   7   2  -6 1223.09 445.325   1
  -7   2  -6 833.907 327.305   5
  -7  -2   6 925.736 378.964   5
   7   2  -6 1190.16 298.067   8
  -7   2  -6 1016.49 251.649  10
   7   2  -6 734.831 285.817  10
  -7   2  -6 741.813 318.153  19
   7  -2  -6 441.553 235.819   1
   7   2  -6 1197.85 385.687  18
   7   2   6 404.874 240.706   8
  -7  -2   6 1121.51 310.807  19
  -7  -2   6 1097.29 387.440   2
   7   2  -6 2095.65 605.937   9
  -7  -2   6 841.002 317.993   4
  -7  -2   6 784.324 314.396  17
  -7   2  -6 643.877 312.201   4
   7  -2   6 1314.67 390.362   8
  -7  -2   6 594.757 149.619  16
   7  -2   6 1202.38 356.147  16
  -7   2  -6 689.587 162.940   9
   7   2  -6 553.511 264.315  14
   7  -2   6 1096.18 373.677  14
  -7   2  -7 143.404 358.127  13
  -7   2  -7 861.307 444.473  12
  -7   2  -7 1083.34 497.911   4
  -7   2  -7 939.462 408.009   3
   7  -2   7 1426.23 552.272   1
   7   2  -7 1667.69 533.650  11
  -7   2  -7 729.727 354.385   5
  -7  -2   7 637.369 352.023   5
  -7   2  -7 1350.27 409.679  10
   7   2  -7 515.793 389.222  10
   7   2  -7 1146.41 488.260   1
   7  -2   7 1682.86 514.870   8
   7   2  -7 1220.85 326.552   8
   7   2  -7 1234.01 411.926  18
   7   2   7 335.701 54.8389   8
   7   2  -7 2401.11 648.040   9
  -7  -2   7 654.643 361.025  17
  -7  -2   7 979.289 463.735   2
  -7  -2   7 630.666 294.728   4
   7  -2   7 1646.61 518.672  16
  -7   2  -7 1092.83 459.952  19
   7  -2  -7 405.858 248.917   1
   7  -2   7 1640.65 512.693   6
  -7   2  -7 1758.35 659.772  15
   7  -2   7 1867.73 607.423  14
   7   2  -7 648.776 377.536  14
   2  -7   8 435.473 300.706   6
   7  -2   8 1859.76 580.018   1
  -7  -2   8 2658.19 683.641   5
   7   2  -8 3226.51 764.862  11
   7   2  -8 2673.42 676.344   1
  -7   2  -8 1163.26 449.540   5
  -7  -2   8 2176.08 613.943   2
   7   2  -8 1923.75 599.660  10
  -7   2  -8 1561.96 515.421  19
  -7  -2   8 3022.23 540.497  19
   7   2  -8 3433.71 931.944   9
   7   2  -8 2427.16 634.238  18
  -7  -2   8 1951.34 511.111   4
   7  -2   8 2835.67 645.987   8
   7   2  -8 2148.70 395.287   8
   7   2   8 514.509 89.8066   8
  -7   2  -8 1232.10 484.415   4
  -7  -2   8 2239.00 388.963  16
   7  -2   8 3008.64 631.790  16
  -7   2  -8 2350.00 828.358   7
  -2   7  -8 2341.78 609.070   3
   7  -2   8 2906.99 667.140   6
  -7   2  -8 1902.48 730.507  15
   7   2  -8 1633.88 522.321  14
   7  -2   8 3127.12 733.576  14
   7   2  -8 2060.60 277.139   3
   7  -2   9-171.645 226.498   6
   2   7  -9-125.836 330.133  13
  -7   2  -9 3.98115 120.351  13
   2  -7   9-34.5911 92.1298   6
  -2  -7   9 0.34821 85.6754   6
   7   2  -9 156.818 105.927   3
   7   2  -9 47.4419 151.148  11
  -7  -2   9 16.3219 37.8370   5
  -7   2  -9-26.7316 94.2354  10
   7   2  -9 150.084 219.540  10
  -7   2  -9 24.6423 21.0258  19
   7   2  -9 117.592 125.959   9
  -7  -2   9 91.9795 96.9175  19
  -7   2  -9 72.8787 32.6367   9
   2   7  -9-383.986 427.020  18
   7  -2   9 29.5995 143.282   1
   7   2  -9 77.5858 166.825   1
   7   2  -9 1.92133 57.5690  18
  -7   2  -9-2.76164 211.400   4
  -2  -7   9-178.419 225.117  17
   7  -2   9-88.8686 126.603   8
  -7  -2   9 77.3082 169.231  17
  -7  -2   9-77.5699 125.977   4
   7   2   9-29.2088 239.134   8
  -7  -2   9 30.2120 33.9735   2
   7   2  -9-45.2471 118.904   8
   7  -2   9 59.2113 101.252  16
  -7  -2   9-91.3675 96.1189  16
  -7   2  -9 4.82878 37.1487   7
  -7   2  -9 25.1588 138.237  15
   7  -2   9 93.2788 53.0653  14
   7   2  -9 13.2637 103.552  14
  -2   7  -9 28.0366 80.4689   3
   7   2 -10 803.231 421.971  10
   2   7 -10 3194.80 879.558  13
  -2   7 -10 2680.37 561.554  12
  -7   2 -10 1148.53 395.558  19
   2  -7  10 911.478 394.160   6
  -2  -7  10 272.241 149.809   6
  -7  -2  10 2490.16 599.867   5
   7   2 -10 2835.92 722.719  11
   7   2 -10 2981.22 693.075   1
  -7  -2  10 2702.20 653.801   2
  -7  -2  10 2456.40 454.155  19
   2   7 -10 2500.58 765.245  18
   7   2 -10 2976.92 673.753  18
   7  -2  10 3451.48 713.549   8
  -7   2 -10 605.391 251.827   4
  -7  -2  10 2473.92 702.898  17
  -2  -7  10 224.878 306.241  17
  -7   2 -10 99.3856 190.418   9
  -7  -2  10 2635.15 517.839   4
  -7   2 -10 747.252 275.481  10
   7  -2  10 3856.26 786.180  16
  -7  -2  10 2724.65 467.989  16
   7   2 -10 2292.05 740.393   9
  -7   2 -10 2383.30 772.599   7
   2   7 -10 2667.87 640.970   3
   7  -2  10 3322.52 740.069   6
  -2   7 -10 3286.96 759.142   3
  -7   2 -10 1874.16 689.862  15
   7  -2  10 3900.21 843.144  14
   7   2 -10 1459.72 423.034  14
   7  -2  11 835.720 398.994   6
  -2   7 -11 843.593 415.379   3
  -2   7 -11 522.934 251.454  13
   2   7 -11 639.362 377.270  13
   7   2 -11 310.651 311.420  10
   2  -7  11 434.926 252.055   6
  -2  -7  11 211.615 218.654   6
  -2   7 -11 665.635 282.761  12
   7   2 -11 731.179 352.810  11
  -7  -2  11 421.024 248.688   5
   2  -7  11-148.350 208.029  17
  -7   2 -11 60.1194 154.554  10
  -7   2 -11 322.159 260.878  19
   7   2 -11 468.202 303.672   9
  -7  -2  11 490.387 180.760  19
  -7   2 -11-277.101 353.543   9
   2   7 -11 124.069 313.727  18
  -2   7 -11 743.459 295.842  18
   7   2 -11 383.242 249.456  18
  -2  -7  11-13.1120 130.377  17
   7  -2  11 885.496 362.496   8
  -7  -2  11 654.474 340.549  17
   7   2 -11 466.979 292.415   1
  -7  -2  11 519.294 227.692   4
  -7  -2  11 695.206 337.525   2
   7  -2  11 946.129 388.804  16
  -7  -2  11 450.877 187.759  16
  -7   2 -11 364.204 398.483   7
  -7   2 -11 252.002 183.379  15
   7  -2  11 844.421 406.549  14
   7   2 -11 232.898 172.963  14
   2   7 -11 636.805 321.821   3
  -2   7 -12 1433.61 500.789   3
   2  -7  12 415.813 151.997  14
  -2   7 -12 1163.33 551.662  13
   2   7 -12 1118.58 483.400  13
  -2  -7  12 296.007 168.080   6
   2  -7  12 729.820 345.655   6
  -2   7 -12 1401.60 415.673  12
  -2   7 -12 1500.29 314.290   4
   7  -2  12 1467.67 310.228   2
   7   2 -12 845.937 394.232  11
   7   2 -12 525.243 287.653   9
  -7  -2  12 1184.96 423.935   5
   7   2 -12-22.4778 236.083  10
  -7   2 -12 527.683 295.724  19
  -2   7 -12 1378.88 415.455  18
  -7  -2  12 1113.63 322.420   4
   2   7 -12 1492.38 527.435  18
   7   2 -12 1116.16 455.295  18
   2  -7  12 673.848 401.159  17
   7  -2  12 1698.67 535.972   8
  -7  -2  12 1368.14 503.220  17
  -7   2 -12 85.8745 83.4799  10
   7   2 -12 914.083 382.221   1
  -7  -2  12 1229.93 477.474   2
   7  -2  12 1618.55 537.829  16
  -7  -2  12 1060.05 343.980  16
  -7   2 -12 86.3386 258.651   7
  -7   2 -12 210.931 150.784  15
   2   7 -12 1449.29 483.340   3
   7  -2  12 1810.08 638.371  14
  -2  -7  12 348.822 232.516  17
   7   2 -12 635.917 271.610  14
   7  -2  12 1699.32 580.359   6
   2   7 -13 1329.49 436.268   3
  -2   7 -13 1572.98 545.229   3
  -2   7 -13 1159.70 519.697  13
   2   7 -13 1710.21 641.738  13
  -2  -7  13 666.460 310.904   6
   2  -7  13 926.119 376.994   6
  -2   7 -13 1406.34 413.870  12
   2   7 -13 1005.30 277.638  12
  -7  -2  13 1475.50 478.403   5
   7  -2  13 1952.54 369.504   2
   7   2 -13 1353.07 528.381  11
  -7   2 -13-266.844 334.727  10
   7   2 -13-165.144 388.850  10
  -2   7 -13 1800.09 377.845   4
   2  -7  13 807.581 236.670  14
  -2   7 -13 1593.39 469.956  18
  -7  -2  13 1375.27 346.668   4
   2   7 -13 1548.93 526.619  18
   7  -2  13 1763.54 565.942   8
   7   2 -13 1372.72 490.231  18
  -7   2 -13 264.608 252.646  19
   7   2 -13 359.763 259.541   9
   2  -7  13 800.990 355.708  17
  -2  -7  13 767.842 440.163  17
  -7  -2  13 1551.85 566.254  17
  -7   2 -13-1419.87 702.962   7
   7  -2  13 1656.84 553.719  16
  -7  -2  13 1261.92 385.268  16
  -7  -2  13 1469.98 546.904   2
   7   2 -13 986.019 422.244   1
  -7   2 -13-86.1664 504.633  15
   7  -2  13 1811.41 666.346  14
   7   2 -13 411.374 210.018  14
   7  -2  13 1542.99 568.871   6
   2  -7  14 768.368 251.702  14
   2   7 -14 1039.55 417.403   3
  -2   7 -14 1100.48 468.186   3
  -2   7 -14 733.635 423.411  13
  -2  -7  14 221.095 106.435   6
   2   7 -14 976.880 505.586  13
   2  -7  14 942.943 384.009   6
  -2   7 -14 1323.54 416.439  12
   2   7 -14 1051.62 311.282  12
   7  -2  14 1689.02 374.702   2
   7   2 -14 574.517 261.398  11
  -2  -7  14-214.589 418.612   2
  -7  -2  14 1079.99 358.429   5
   7   2 -14 45.1290 134.348   9
  -7   2 -14-675.493 487.704  10
   7   2 -14-551.345 682.120  10
  -7  -2  14 1157.87 313.704   4
  -2   7 -14 1373.95 399.364  18
   2   7 -14 1749.38 551.486  18
   7   2 -14 748.201 361.182  18
   7  -2  14 1397.50 502.768   8
   2  -7  14 949.413 410.130  17
  -2  -7  14 431.956 298.988  17
  -7  -2  14 998.136 451.134  17
  -2   7 -14 1218.05 303.376   4
  -2  -7  14 338.588 192.837  16
   2  -7  14 265.282 166.233  16
   7  -2  14 1451.24 588.840  16
  -7  -2  14 864.486 327.215  16
  -7  -2  14 803.221 388.715   2
  -7   2 -14 227.286 189.824  19
   7  -2  14 1008.32 510.163  14
   7   2 -14 917.318 409.761   1
   7  -2  14 1235.66 539.084   6
   7   2 -14 282.358 188.263  14
  -2  -7  15 686.646 330.916   6
   2  -7  15 669.146 401.423   6
  -2   7 -15 1164.36 548.325  13
  -2   7 -15 1532.61 581.585   3
   2   7 -15 1465.86 591.846  13
  -2   7 -15 1758.28 504.585  12
   2   7 -15 1546.20 398.703  12
   7   2 -15 894.320 396.085  18
  -7  -2  15 1659.12 480.420   5
   7  -2  15 2461.85 453.331   2
   7   2 -15 959.584 510.839  11
  -2  -7  15 476.522 310.511   2
  -7   2 -15-164.337 221.609  19
   7  -2  15 1827.79 566.689   8
  -2   7 -15 1668.40 437.568  18
   7   2 -15 594.805 414.688   9
  -2   7 -15 1660.05 409.413   4
  -7  -2  15 1758.32 381.772   4
  -7  -2  15 1779.56 594.163  17
   2   7 -15 1466.16 600.163  18
   2  -7  15 1626.15 532.016  17
  -2  -7  15 1055.13 481.206  17
  -2  -7  15 526.752 311.820  16
   2  -7  15 975.658 428.099  16
   7  -2  15 2007.86 677.405  16
  -7  -2  15 1399.25 412.250  16
  -7  -2  15 1523.82 523.786   2
   2   7 -15 1997.18 599.316   3
   2  -7  15 1530.42 344.622  14
   7  -2  15 1837.00 644.598   6
   7   2 -15 271.229 194.831  14
   7   2 -15 984.858 432.292   1
   2  -7  16 1161.58 297.065  14
   7   2 -16 770.626 436.469   1
  -2  -7  16 364.978 266.379   6
  -7   2 -16-76.9546 209.940  19
   2  -7  16 906.124 417.557   6
   2   7 -16 1287.88 525.372   3
  -2   7 -16 652.668 420.949  13
   2   7 -16 1077.78 566.850  13
  -2   7 -16 897.884 434.187   3
   2   7 -16 1069.57 346.162  12
  -2   7 -16 1129.19 391.335  12
  -2   7 -16 1605.06 489.673  11
   7  -2  16 1618.58 406.705   2
   7   2 -16 518.635 381.303  11
  -7  -2  16 1031.30 359.339   5
  -2  -7  16 326.941 194.364   2
  -2  -7  16 479.373 292.993  16
   7   2 -16 158.411 223.016   9
  -7  -2  16 1097.98 290.230   4
   2   7 -16 677.103 477.089  18
  -2   7 -16 1279.98 380.390  18
   7   2 -16 615.379 358.742  18
   7  -2  16 1387.12 541.522   8
  -2  -7  16 847.211 395.938  17
   2  -7  16 1259.97 427.942  17
  -7  -2  16 1253.46 496.359  17
   2  -7  16 687.402 425.756  16
   7  -2  16 1288.69 542.976  16
  -7  -2  16 803.831 326.925  16
  -7  -2  16 915.369 459.959   2
   7  -2  16 832.861 520.685   6
   7   2 -16 173.270 126.996  14
  -2  -7  17 34.2157 173.157   6
   2  -7  17 101.648 209.614   6
   7   2 -17 2.23583 86.2675   1
   2   7 -17 292.079 323.312   3
  -2   7 -17 82.7648 185.475  13
   2   7 -17 361.116 414.460  13
  -2   7 -17 371.536 324.627   3
  -2   7 -17 77.4568 153.654  12
   2   7 -17 151.825 178.667  12
   2   7 -17 163.762 56.4584  11
  -2   7 -17 170.564 130.358  11
   7   2 -17-291.590 282.329  11
  -7  -2  17 229.893 177.135   5
  -7   2 -17-52.4136 65.5735  19
   7  -2  17-25.9142 131.221   8
  -2  -7  17-114.013 186.077   2
  -2   7 -17 167.633 145.155  18
   7   2 -17 202.516 243.274  18
   2   7 -17 36.8854 327.556  18
   2  -7  17 247.045 300.107  17
  -7  -2  17 107.747 194.591  17
  -2  -7  17 128.751 199.508  16
   2  -7  17 1.74272 180.406  16
  -7  -2  17 127.017 79.6179   4
   7  -2  17 216.470 309.860  16
  -2  -7  17-169.682 155.782  17
  -7  -2  17 68.1049 92.6046  16
   2   7 -17 206.953 456.081   7
  -7  -2  17 276.733 266.354   2
   2   7 -17 251.359 379.662  15
   7  -2  17 156.618 365.017   6
   7   2 -17-308.652 466.328   9
   7   3   0 2202.62 561.852   8
   7   3   0 2498.10 757.362   1
  -7   3   0 2851.72 507.121   5
  -7   3   0 3414.71 589.580  19
   7  -3   0 2215.75 489.560   1
   7   3   0 2822.69 699.037  18
  -7   3   0 2561.16 511.176   4
  -7  -3   0 138.084 134.979  17
   7  -3   0 2351.70 498.557   8
   7  -3   0 1683.96 403.302   6
   7  -3   0 2563.16 512.848  14
   7  -3  -1 393.048 201.091   1
   7  -3   1 531.875 217.902  14
   7  -3  -1 347.845 205.864  14
   7  -3   1 452.325 182.263   6
   7  -3  -1 218.809 127.222   6
  -7   3  -1 534.181 214.505   5
  -7   3  -1 337.426 169.167  12
   7  -3   1 472.187 213.936   1
  -7   3   1 560.220 232.081  19
  -7   3   1 371.544 175.424   5
  -7   3  -1 753.872 279.135  19
   7   3  -1 670.851 369.906  18
   7   3  -1 775.208 446.849   1
   7   3   1 468.207 252.308   8
   7   3  -1 684.971 278.245   8
  -7  -3   1 48.5226 127.831  17
   7  -3   1 433.492 215.481   8
   7  -3  -1 282.510 160.149   8
  -7   3  -1 572.022 228.678   4
   7  -3  -2 709.554 274.269  14
  -7   3  -2 1008.39 348.116  12
  -7   3  -2 1216.79 337.661   5
   7  -3   2 1265.92 359.427   1
   7   3  -2 1443.90 533.904   1
   7  -3   2 1220.38 350.180   8
  -7   3  -2 1435.61 396.698  19
  -7   3   2 1119.97 335.898  19
  -7   3   2 816.694 253.773   5
   7   3  -2 1269.40 474.039  18
  -7   3  -2 1182.18 350.371   4
   7   3   2 570.732 294.164   8
  -7  -3   2 59.3721 124.620  17
   7   3  -2 962.653 346.072   8
  -7  -3   2 40.8578 144.524  19
   7  -3  -2 526.120 223.974   1
   7  -3  -2 208.134 65.3422   8
   7  -3   2 1273.20 364.435   6
   7  -3   2 1070.93 353.871  14
   7  -3  -3 682.216 260.383  14
   7   3  -3 1283.98 380.213   8
  -7   3  -3 1087.21 331.175  12
  -7   3  -3 1240.33 344.184   5
   7  -3   3 1479.84 385.627   1
  -7  -3   3-12.5540 241.118   2
  -7   3  -3 1293.86 365.637  19
   7   3  -3 1506.03 483.289  18
  -7   3  -3 1313.38 384.943   4
   7  -3  -3 583.725 269.224   1
   7  -3   3 1309.91 377.484   8
   7   3   3 206.107 129.537   8
  -7  -3   3 326.266 235.275  19
  -7  -3   3 467.645 348.558  17
   7   3  -3 1444.33 542.476   1
   7  -3   3 1421.63 377.501   6
   7  -3   3 1417.13 403.544  14
  -7   3  -3 429.212 236.967   3
   7  -3   4-0.16890 104.112  14
  -7   3  -4-10.0557 41.0870   3
   7   3  -4-35.7173 92.4876  13
   7  -3   4 56.1591 75.0098   6
  -7   3  -4 6.97601 50.8216  12
   7  -3   4-53.2622 82.3010   1
  -7  -3   4 36.0640 41.7463  19
  -7   3  -4-32.4111 96.0182   5
  -7   3  -4-4.88346 78.2424  19
   7   3  -4-115.974 125.780   8
   7   3  -4-95.3210 164.599  18
   7   3   4-186.454 379.900   8
  -7  -3   4-58.8309 114.940  17
   7  -3   4 50.6696 127.880   8
  -7   3  -4-103.956 139.149   4
   7   3  -4-158.107 216.999   1
  -7  -3   4-134.574 195.186   2
   7  -3   5 705.978 284.483  14
  -7   3  -5 414.548 218.822   3
   7   3  -5 700.926 262.975  13
   7  -3   5 597.404 269.573   6
  -7   3  -5 396.488 183.178  12
  -7  -3   5 4.98630 213.880   5
  -7  -3   5 189.048 210.988  19
  -7   3  -5 580.652 224.909   5
  -7   3  -5 575.365 248.685  19
   7   3  -5 746.587 241.131   8
  -7  -3   5 525.206 332.484  17
   7  -3   5 672.854 272.147   8
  -7   3  -5 477.562 237.189   4
   7   3  -5 733.717 343.941  18
   7   3  -5 449.728 210.584   1
  -7  -3   5 500.978 269.544   2
   7   3  -5 333.592 218.814  14
   7  -3   5 857.076 300.223   1
   7  -3   6 732.303 313.605  14
  -7   3  -6 304.478 204.325   3
   7  -3   6 525.836 304.664   6
  -7   3  -6 370.660 218.782  12
  -7  -3   6-147.751 208.671   5
  -7   3  -6 347.649 203.397   5
   7   3  -6 784.123 399.581  18
  -7  -3   6-116.509 136.865   4
   7  -3   6 618.503 278.191   1
  -7  -3   6 169.613 271.572  17
   7   3  -6 735.692 284.123   8
  -7  -3   6 235.149 210.790  19
   7  -3   6 538.049 256.831   8
  -7  -3   6 338.214 456.631   2
  -7   3  -6 357.029 236.699   4
   7   3  -6 230.927 300.385  14
   7   3  -6 686.223 464.501   1
  -7   3  -6 280.548 184.884  19
   7   3  -7 1475.29 553.070   1
   7   3  -7 1886.85 501.301  13
  -7   3  -7 995.152 406.994   3
  -7   3  -7 1181.27 413.686  12
  -7   3  -7 1484.83 447.865   5
   7   3  -7 2385.64 650.889  11
  -7  -3   7 1935.48 645.288   2
   7  -3   7 1957.95 473.628   1
  -7  -3   7 1202.15 521.790   5
  -7  -3   7 772.562 394.533   4
  -7   3  -7 1282.75 394.232  19
  -7   3  -7 1689.60 529.759   4
   7   3  -7 2010.66 393.572   8
   7  -3   7 1742.66 447.532   8
   7   3  -7 1636.64 499.601  18
  -7  -3   7 1370.80 618.363  17
   7  -3   7 1247.21 417.907  16
   7  -3   7 1611.59 463.530   6
   7  -3   7 1702.51 463.553  14
   7   3  -7 815.850 522.169  14
  -7   3  -8 51.8207 120.001  13
   7  -3   8 553.804 283.850   6
   7  -3   8 456.466 254.821   1
   7   3  -8 356.622 261.563   1
   7   3  -8 255.558 192.280  13
  -7   3  -8 177.538 164.877   3
  -7   3  -8 152.867 171.436  12
   3  -7   8 31.6960 97.5309   6
   7   3  -8 464.124 277.004  11
  -7  -3   8 43.9639 58.9697   5
  -7   3  -8 186.136 140.875   5
   7   3  -8 300.948 206.766  10
  -7  -3   8 21.8629 121.246  16
  -7   3  -8 280.483 211.522  19
  -7  -3   8 429.423 192.933  19
  -7  -3   8 128.982 59.1467   4
  -7  -3   8 264.986 236.072   2
  -7  -3   8 104.313 163.219  17
  -7   3  -8 123.403 106.092   4
   7  -3   8 528.986 267.663   8
   7   3  -8 390.730 149.706   8
   7  -3   8 312.900 185.681  16
   7   3  -8 128.632 127.498  14
  -3   7  -8 123.524 86.9283   3
   7   3  -8 334.029 204.619  18
   7   3  -8 163.698 80.9299   3
   7  -3   8 458.141 248.585  14
   3   7  -9 4595.87 1041.22  13
   7   3  -9 4578.66 776.114  13
  -7   3  -9 2404.28 588.206  12
  -7   3  -9 2801.83 585.932  19
  -3   7  -9 3825.36 685.317  12
   3  -7   9 790.033 397.668   6
  -7   3  -9 2197.38 573.869   5
  -7  -3   9 2338.47 609.401   5
   7  -3   9 3984.56 722.302   1
   7   3  -9 5408.25 1041.20  11
   7   3  -9 4240.02 933.521   1
  -7  -3   9 3556.09 805.619   2
  -7   3  -9 3239.92 568.797  10
   7   3  -9 3774.48 843.604  10
  -7  -3   9 3452.21 537.630  19
   3   7  -9 3422.29 868.286  18
   7   3  -9 4464.07 866.506  18
  -7  -3   9 1803.66 470.628   4
  -7   3  -9 2788.60 696.844   4
   7   3  -9 3942.71 478.359   8
  -7  -3   9 3522.99 822.807  17
  -7   3  -9 4034.77 591.838   9
  -7  -3   9 2908.20 483.341  16
   7  -3   9 4907.80 883.237  16
   7  -3   9 4072.57 724.237   8
  -3   7  -9 4056.65 879.621   3
   7  -3   9 4834.01 855.040   6
   7   3  -9 3293.27 409.498   3
   7  -3   9 4983.14 849.652  14
  -7   3  -9 1757.87 533.801   3
   7   3  -9 844.032 382.122  14
  -3   7 -10 231.637 225.784   3
   7  -3  10 106.009 69.2197   6
   3   7 -10 43.9860 156.775  13
  -7   3 -10 53.3985 76.9782  13
   7   3 -10 157.930 85.6192   3
  -7   3 -10 208.906 231.148  12
   7  -3  10 136.531 138.081  16
   3  -7  10-62.5932 40.3360   6
  -3  -7  10 111.618 122.885   6
  -7   3 -10 226.497 261.544   3
  -3   7 -10 146.068 103.378  12
   7   3 -10 106.055 167.581   1
   7   3 -10 252.566 331.348  11
  -7   3 -10-71.4944 201.939   5
  -7  -3  10-5.55963 83.9311   5
  -7   3 -10 70.5128 113.842  10
   7   3 -10 47.6140 184.977  10
   7   3 -10 617.376 514.240   9
  -7   3 -10 25.2596 100.190  19
   7   3 -10 93.2877 109.252  18
  -7   3 -10 118.438 148.481   9
  -7  -3  10 1.12695 75.9669   4
  -7   3 -10 150.096 216.777   4
   7  -3  10 116.192 153.121   1
  -7  -3  10 38.5589 38.5641  19
  -7  -3  10 242.376 215.653   2
  -7  -3  10 84.4541 136.240  17
   7  -3  10 198.094 181.858   8
   7   3 -10 77.3393 38.3693   8
  -7  -3  10 117.610 113.986  16
   3   7 -10 151.515 268.884  18
  -7   3 -10 196.172 375.095   7
  -7   3 -10 242.752 321.747  15
  -3  -7  10-225.436 148.042  17
   7   3 -10 38.8046 86.8323  14
   7  -3  10 251.302 220.717  14
  -3   7 -11 1483.14 556.737   3
   7  -3  11 1670.35 549.021   6
  -7  -3  11 1265.49 469.427  17
   3   7 -11 1703.67 653.353  13
  -7   3 -11 304.464 154.244  13
  -3   7 -11 1620.88 473.683  12
   3  -7  11 643.243 354.605   6
  -7   3 -11 680.136 357.914  12
  -3  -7  11 172.529 114.063   6
  -7   3 -11 1595.69 772.943   7
  -7   3 -11 759.919 390.787   3
   7   3 -11 1718.15 575.916  11
   7   3 -11 953.816 421.076   1
  -7  -3  11 1045.80 450.300   5
  -7   3 -11 1070.22 355.179  10
   7   3 -11 1364.24 544.781  10
  -7  -3  11 1048.31 280.812  19
   7  -3  11 198.781 174.831   1
  -7   3 -11 582.330 236.092  19
  -7   3 -11 763.205 303.344   9
  -3   7 -11 1058.56 321.954  18
   3   7 -11 1715.99 604.499  18
  -3   7 -11 1557.87 332.925   4
   7   3 -11 1474.64 526.583  18
  -7   3 -11 686.991 394.202   4
   7   3 -11 1922.72 710.674   9
  -7  -3  11 995.109 331.590   4
  -3  -7  11 180.127 254.536  17
  -7  -3  11 1277.76 487.539   2
   7  -3  11 1534.90 469.866   8
   3  -7  11 42.7257 69.1468  17
  -7  -3  11 1245.82 347.120  16
   7  -3  11 2062.82 637.036  16
   3   7 -11 1545.08 483.699   3
  -7   3 -11 1447.43 692.451  15
   7  -3  11 2146.84 605.162  14
   7   3 -11 1399.18 301.287   3
   7   3 -11 189.664 183.799  14
   7  -3  12 1826.84 582.792   6
   3  -7  12 707.655 241.080  14
  -3   7 -12 1507.03 551.186   3
  -3   7 -12 1190.48 602.493  13
   3   7 -12 1635.26 655.500  13
  -7   3 -12 301.120 220.905  13
  -3  -7  12 409.780 197.824   6
   3  -7  12 488.166 368.582   6
  -3   7 -12 1798.89 505.026  12
   7   3 -12 1748.32 609.173  11
   7   3 -12 1770.79 569.612   9
   3  -7  12 793.443 376.044  17
  -7  -3  12 1144.16 436.735   5
   7   3 -12 1481.87 541.318   1
  -7   3 -12 622.837 290.160  10
   7   3 -12 918.348 400.172  10
  -7  -3  12 818.600 244.550  19
  -3   7 -12 1461.27 414.316  18
   3   7 -12 1999.47 630.632  18
  -7   3 -12 650.502 280.765   9
   7  -3  12 1918.32 530.151   8
  -3   7 -12 1806.77 393.716   4
  -3  -7  12 325.917 245.642  17
   7   3 -12 1715.53 547.012  18
  -7  -3  12 1012.89 334.480   4
  -7  -3  12 1460.95 531.143  17
  -7  -3  12 1367.54 484.414   2
  -7   3 -12 755.379 309.406  19
  -7  -3  12 1574.58 403.908  16
   7  -3  12 2076.85 618.263  16
  -7   3 -12 492.508 309.041   4
  -7   3 -12 541.013 453.518   7
   3   7 -12 1650.63 519.067   3
  -7   3 -12 918.465 568.709  15
   7  -3  12 2064.63 616.814  14
   7   3 -12 1537.03 337.029   3
   7   3 -12 233.754 208.441  14
   7  -3  13 1353.96 521.515   6
   3  -7  13 812.554 257.558  14
  -3   7 -13 1357.02 532.995   3
  -3   7 -13 997.410 504.721  13
   3   7 -13 1501.09 610.439  13
  -3  -7  13 355.461 186.807   6
   3  -7  13 606.116 419.976   6
  -7   3 -13 577.795 339.106  13
  -3   7 -13 1061.91 393.047  12
  -3   7 -13 1196.29 197.938   5
   7   3 -13 1197.91 531.371  11
  -7  -3  13 1079.96 422.348   5
  -3  -7  13-330.747 643.757   2
  -7   3 -13 346.672 205.827  10
   7   3 -13 571.301 354.514  10
   3  -7  13 646.822 312.814  17
   7   3 -13 599.262 449.709   9
  -7   3 -13 467.197 243.061   9
  -7   3 -13 594.145 251.885  19
  -3   7 -13 1316.13 371.046  18
   3   7 -13 1175.99 476.225  18
  -3   7 -13 1585.03 386.261   4
   7   3 -13 1197.46 486.267  18
   7   3 -13 972.557 423.976   1
  -7  -3  13 983.792 340.335   4
  -3  -7  13 651.101 422.305  17
   7  -3  13 1389.24 440.294   8
  -7  -3  13 961.577 442.265  17
  -7  -3  13 1393.40 541.443   2
   7  -3  13 1602.97 567.381  16
  -7  -3  13 1288.25 393.662  16
  -7   3 -13 964.615 667.228   7
  -7   3 -13 849.426 560.982  15
   3   7 -13 1191.88 449.549   3
   7   3 -13 1330.39 336.351   3
   7   3 -13 167.332 138.224  14
   7  -3  13 1392.56 513.604  14
   7  -3  14 2272.35 720.496   6
  -7  -3  14 1685.42 583.359   2
  -3   7 -14 1635.98 573.796   3
  -3   7 -14 1345.78 596.161  13
  -3  -7  14 564.889 254.773   6
   3   7 -14 1759.12 681.618  13
   3  -7  14 1179.74 473.949   6
  -3   7 -14 1835.60 520.527  12
   3   7 -14 1161.16 279.063  12
   7   3 -14 547.054 416.444  10
   7   3 -14 1737.01 593.212  11
  -7  -3  14 1531.28 508.551   5
  -3  -7  14 326.221 152.682   2
  -7   3 -14 481.415 216.730  10
   7  -3  14 998.011 302.542   2
  -7   3 -14 703.517 299.573  19
   7   3 -14 1354.75 536.740   1
  -7   3 -14 333.817 65.6095   9
  -3   7 -14 2148.81 475.541  18
  -3  -7  14 1359.47 576.262  17
   7  -3  14 2154.32 591.819   8
   7   3 -14 1678.84 557.731  18
   7   3 -14 1491.79 700.797   9
   3  -7  14 1425.17 423.610  17
  -7  -3  14 1124.05 335.142   4
  -7  -3  14 2095.28 651.869  17
  -7  -3  14 1870.58 480.579  16
   3  -7  14 503.115 267.375  16
  -3   7 -14 1960.90 469.231   4
   7  -3  14 2420.44 710.441  16
  -7   3 -14 688.944 531.275   7
   3   7 -14 2194.11 658.249  18
  -7   3 -14 998.404 683.303  15
   3   7 -14 1605.32 492.453   3
   3  -7  14 1606.60 373.236  14
   7   3 -14 91.9293 87.8499  14
   7  -3  14 2119.94 662.263  14
   3  -7  15 903.880 287.553  14
   3   7 -15 728.717 332.535   3
  -3  -7  15 129.011 89.2619   6
  -3   7 -15 121.083 124.234  13
   3  -7  15 284.116 318.210   6
   7   3 -15 377.193 373.566  10
  -3   7 -15 699.021 409.825   3
   3   7 -15 897.384 454.820  13
  -3  -7  15 134.373 209.223  16
  -3  -7  15 666.631 401.239  17
  -3   7 -15 886.709 372.040  12
   3   7 -15 759.117 242.018  12
   7   3 -15 557.996 328.085  11
  -7  -3  15 759.880 341.485   5
  -7   3 -15 180.638 155.436  10
  -3  -7  15 348.136 328.586   2
  -7   3 -15 205.489 177.675  19
   7  -3  15 818.635 287.349   2
   7   3 -15 224.886 194.981   9
   7   3 -15 544.143 341.947   1
  -7   3 -15 159.549 158.071   9
   3   7 -15 314.033 407.894  18
  -3   7 -15 998.706 324.464  18
   7   3 -15 851.726 414.504  18
   3  -7  15 674.673 282.945  17
  -7  -3  15 757.560 285.573   4
   7  -3  15 913.685 384.371   8
  -3   7 -15 932.264 375.316   4
  -7  -3  15 799.028 425.727  17
  -7  -3  15 872.373 460.693   2
   3  -7  15 550.442 263.818  16
   3  -7  15 147.653 159.172   8
   7  -3  15 1120.50 420.516  16
  -7  -3  15 891.230 355.291  16
  -7   3 -15-542.265 684.340   7
  -7   3 -15-94.6018 376.166  15
   7  -3  15 875.175 445.254  14
   7   3 -15-38.2867 123.691  14
   7  -3  15 914.692 534.443   6
   3  -7  16 880.323 298.007  14
  -3  -7  16 653.330 372.497   6
   3   7 -16 1066.38 434.604   3
   3  -7  16 1167.76 496.932   6
  -3   7 -16 513.161 274.599  13
   3   7 -16 823.592 495.443  13
  -3   7 -16 531.740 308.688   3
  -3   7 -16 820.399 338.012  12
   7   3 -16 559.135 353.026   1
   3   7 -16 684.484 221.731  12
   3   7 -16 742.831 336.566  11
  -3   7 -16 1423.31 444.036  11
   7   3 -16 455.767 253.397  11
  -7  -3  16 685.783 301.003   5
   7   3 -16-148.891 495.804  10
  -3  -7  16 560.335 480.238   2
   7   3 -16 548.025 365.030   9
  -7   3 -16 101.988 115.430   9
  -7   3 -16 31.7880 123.280  19
   3   7 -16 815.488 428.037  18
  -3   7 -16 968.053 290.009  18
   7   3 -16 730.731 379.536  18
   7  -3  16 1108.72 524.330   8
  -3  -7  16 930.169 433.968  17
   3  -7  16 825.792 313.686  17
  -7   3 -16 177.459 187.220  10
  -7  -3  16 252.693 69.4516  17
  -7  -3  16 885.844 403.442   2
  -3  -7  16-3.05754 62.9023  16
   3  -7  16 763.843 396.262  16
  -7  -3  16 655.192 224.255   4
   3  -7  16 196.505 105.863   8
   7  -3  16 1439.09 731.887  16
  -7  -3  16 623.180 328.114  16
  -7   3 -16-1757.07 855.008   7
   3   7 -16 827.674 499.125   7
   3   7 -16 783.694 512.215  15
  -3   7 -16 622.698 265.203   4
   7  -3  16 895.208 521.217  14
   7  -3  16 802.164 465.174   6
  -7   3 -17-313.422 399.231  10
   3  -7  17 608.257 463.524   6
   3   7 -17 1553.48 536.781   3
  -3   7 -17 1108.60 564.009  13
   3   7 -17 1286.53 665.029  13
  -3   7 -17 1062.01 487.832   3
   3   7 -17 1169.76 338.969  12
  -3   7 -17 1016.46 408.998  12
   3   7 -17 1460.78 556.602  11
  -3   7 -17 1991.97 519.081  11
   7   3 -17 657.600 411.914  11
  -7  -3  17 1089.35 428.850   5
  -7   3 -17 109.542 110.780  19
   7   3 -17-231.646 465.320  10
  -3  -7  17 605.633 259.826   2
   7   3 -17 904.214 585.874   9
   3   7 -17 1075.30 453.463  18
  -3   7 -17 1196.71 320.408  18
   7   3 -17 605.737 356.193   1
   7   3 -17 736.720 416.899  18
   7  -3  17 1391.03 531.868   8
  -3  -7  17 1057.97 473.705  17
   3  -7  17 1476.46 412.891  17
  -7  -3  17 773.934 437.579  17
  -3  -7  17 428.932 396.359  16
  -7  -3  17 1032.90 501.651   2
   3  -7  17 1032.41 501.939  16
   3  -7  17 440.414 156.194   8
   7  -3  17 1910.90 750.194  16
  -7  -3  17 1047.38 433.888  16
   3   7 -17 1634.10 839.623   7
   3   7 -17 1464.20 657.077  15
   7  -3  17 1368.55 626.600   6
   7  -4   0-10.2257 22.4884  14
  -7   4   0-118.749 188.925  19
   7   4   0-394.499 391.198   8
   7  -4   1 674.686 263.628   6
   7  -4   1 956.500 307.117   1
  -7   4  -1 1475.09 354.353   5
  -7   4  -1 1856.82 443.207  19
   7   4  -1 711.801 249.557   8
   7   4  -1 1459.91 424.358  18
   7  -4   1 914.956 301.795   8
   7  -4   1 1009.62 342.188  14
  -7  -4   1-292.825 274.305  17
   7  -4   2 97.9750 102.413  14
  -7   4  -2 166.656 123.963  19
   7  -4   2 69.0381 95.2746   6
   7  -4   2 129.231 117.806   1
  -7   4  -2 59.4992 115.249  12
   7   4  -2 341.925 176.050   1
  -7   4  -2 124.029 28.0040   5
   7   4  -2 180.739 89.1094  18
   7   4  -2 299.161 218.476   8
  -7  -4   2 71.6446 170.294  17
   7  -4   2 96.6171 112.868   8
  -7   4  -2 214.308 96.8322   4
   7  -4   3 350.462 209.505  14
  -7   4  -3 413.755 184.100   5
   7  -4   3 325.445 207.357   6
  -7   4  -3 363.503 213.633  12
  -7   4  -3 400.383 211.503  19
   7   4  -3 342.544 220.516  18
   7  -4   3 199.046 138.096   1
   7   4  -3 226.232 144.207   8
  -7  -4   3-102.105 212.241  17
   7  -4   3 233.194 166.274   8
   7   4  -3 33.2665 269.687   1
  -7   4  -3 407.833 219.876   4
   7  -4   4 475.904 232.428  14
   7  -4   4 389.710 200.549   6
   7   4  -4 348.778 193.247   8
  -7   4  -4 398.348 217.442  12
  -7   4  -4 536.172 222.834   5
  -7   4  -4 482.589 222.333  19
   7   4  -4 563.344 370.559  18
   7   4  -4 287.403 299.590   1
   7  -4   4 450.205 228.792   1
  -7  -4   4 169.805 263.297  17
   7  -4   4 582.859 256.818   8
  -7   4  -4 432.895 222.008   4
  -7   4  -4 148.115 127.323   3
  -7   4  -5-1.20311 45.2307   3
   7  -4   5-3.66744 94.2228  14
   7   4  -5 99.2634 112.820  13
   7  -4   5-86.5156 150.946   6
  -7   4  -5-61.0174 119.028  12
  -7  -4   5-279.984 515.899   2
  -7  -4   5 400.714 191.937  19
   7   4  -5 30.8286 111.837  18
  -7  -4   5 612.117 405.594  17
   7   4  -5 175.057 166.434   8
   7   4  -5 109.730 171.978   1
  -7   4  -5-17.0394 35.8435   5
   7  -4   5-111.595 117.141   8
  -7   4  -5 40.7702 64.8664   4
   7  -4   5 8.08327 64.3647   1
  -7   4  -5 41.0081 107.556  19
   7  -4   6 380.531 226.419  14
  -7   4  -6 198.989 182.093   3
   7   4  -6 318.134 150.226  13
   7  -4   6 304.633 185.631   6
  -7   4  -6 384.337 224.930  12
  -7  -4   6-82.2405 170.404   2
  -7   4  -6 418.226 200.266   5
   7  -4   6 450.022 188.873   1
  -7   4  -6 381.665 194.678  19
   7   4  -6 540.494 327.379  18
   7   4  -6 386.993 200.153   8
  -7  -4   6 243.045 248.603  17
  -7  -4   6 73.1727 153.023  19
   7  -4   6 435.886 225.039   8
   7   4  -6 65.0909 159.627   1
  -7   4  -6 546.167 274.932   4
   7  -4   7 575.989 240.973   1
   7  -4   7 536.770 253.763  14
  -7   4  -7 341.294 230.623   3
   7   4  -7 597.816 282.861  13
   7  -4   7 425.948 241.466   6
  -7   4  -7 410.224 240.904  12
  -7   4  -7 526.902 241.826   5
  -7   4  -7 560.807 244.446  19
   7   4  -7 486.607 311.260  18
   7   4  -7 546.195 220.139   8
  -7  -4   7 86.3553 219.305  17
  -7  -4   7 285.667 207.949  19
   7  -4   7 484.504 246.665   8
   7   4  -7 629.044 365.799   1
  -7   4  -7 508.147 242.750   4
  -7  -4   7 284.782 277.300   2
  -7   4  -8 957.165 396.615   3
   7   4  -8 1333.48 449.086  13
   7  -4   8 1479.45 456.794   6
  -7   4  -8 986.488 341.217  19
  -7   4  -8 1031.60 380.693  12
   4  -7   8 279.829 193.440   6
  -4   7  -8 944.130 353.259  12
   7  -4   8 1717.44 403.895   1
  -7  -4   8 856.762 294.428  19
  -7   4  -8 1115.48 358.526   5
  -7  -4   8 1112.99 500.795   2
   4   7  -8 1091.62 472.018  18
   7   4  -8 1647.85 338.717   8
   7   4  -8 1580.52 524.645  18
   7  -4   8 1125.59 384.374   8
  -4  -7   8 101.418 167.119  17
  -7  -4   8 512.210 275.139  17
  -7   4  -8 1087.78 396.339   4
   7   4  -8 1128.76 516.473   1
   7  -4   8 1326.80 416.925  14
  -4   7  -8 848.989 417.988   3
   7  -4   9 41.9947 35.3410  14
  -7  -4   9 59.2784 156.894   2
   4   7  -9-82.0439 216.198  13
   7  -4   9-97.4567 171.216   6
   7   4  -9-43.8262 46.9065  13
  -7   4  -9 129.375 151.501   3
   4  -7   9 265.682 237.645   6
  -7   4  -9-10.2179 69.7937  12
  -4  -7   9 50.0398 101.800   6
  -4   7  -9 41.6481 125.170  12
   7   4  -9 63.7324 294.232  11
   7  -4   9 102.215 133.689   1
  -7   4  -9-52.4359 93.1703   5
  -7  -4   9 45.1023 57.5492  19
   4   7  -9-151.776 213.078  18
   7   4  -9 29.5346 97.4072  18
  -4  -7   9 45.7188 276.110  17
  -7   4  -9 2.62055 61.0313  19
  -7  -4   9 36.2512 82.4204  17
   7   4  -9-25.4961 48.0469   8
  -7   4  -9 27.7542 116.504   4
   7  -4   9-97.9863 120.796   8
   7  -4   9-170.900 321.119  16
   7   4  -9 225.540 287.945   1
  -4   7  -9 21.3248 127.635   3
   7   4 -10 1921.19 548.948  13
  -7   4 -10 59.1355 104.769  13
   4   7 -10 1665.65 646.944  13
   7  -4  10 1669.97 514.263   6
  -7   4 -10 804.925 413.220   3
  -4   7 -10 1570.92 472.284  12
   4  -7  10 697.296 368.629   6
  -7   4 -10 1002.55 383.246  12
  -4  -7  10-22.2348 99.7333   6
   7  -4  10 1513.45 438.252   1
   7   4 -10 1740.23 610.967  11
  -7  -4  10 432.255 208.541   5
  -7   4 -10 1212.78 413.637   5
  -7   4 -10 192.173 71.2516  11
  -7  -4  10 1116.27 324.013  19
   4   7 -10 1449.37 604.330  18
  -7   4 -10 1051.44 341.658  19
   7   4 -10 1597.60 288.228   8
   7  -4  10 1451.71 439.185   8
   7   4 -10 1767.79 568.857  18
  -7  -4  10 1074.89 469.726   2
  -4  -7  10-95.9395 201.785  17
  -7  -4  10 835.483 443.487  17
  -7   4 -10 1185.33 483.846   4
  -7  -4  10 519.191 167.586  16
   7  -4  10 1590.76 571.802  16
   7   4 -10 1204.18 297.431   3
  -4   7 -10 1645.26 586.653   3
   7  -4  10 1650.80 493.249  14
   7   4 -10 1305.34 541.549   1
  -4   7 -11 622.247 381.960   3
   4  -7  11 368.380 209.349  14
   7   4 -11 654.627 222.173   3
   7  -4  11 1034.21 418.769   6
   4   7 -11 804.147 460.468  13
  -7   4 -11 235.772 261.300  13
   7   4 -11 706.706 351.612  13
   4  -7  11 275.352 271.400   6
  -4  -7  11 157.775 167.352   6
  -7   4 -11 221.826 174.876   3
  -7   4 -11 469.626 274.938  12
  -4   7 -11 720.927 303.502  12
   7   4 -11 827.359 391.124  11
  -7  -4  11 165.901 75.4822   5
  -7   4 -11 703.644 340.653   5
  -7   4 -11 938.917 370.819  10
   7   4 -11 798.318 412.514  10
  -7  -4  11 526.269 211.381  19
   4   7 -11 783.392 417.668  18
   7   4 -11 870.835 405.922  18
  -7  -4  11 676.030 434.542   2
  -4  -7  11 425.498 394.633  17
  -7   4 -11 712.972 345.084   4
  -7  -4  11 804.787 373.079  17
   7  -4  11 697.861 294.412   8
   7  -4  11 464.566 282.971   1
   7   4 -11 505.688 151.660   8
  -7  -4  11 508.265 256.773  16
   7  -4  11 815.229 390.951  16
  -4   7 -11 806.339 282.915   4
  -7   4 -11 440.905 229.316  19
   4   7 -11 566.295 207.430   3
   7   4 -11 823.168 449.394   1
   7  -4  11 1059.93 396.598  14
   7   4 -12 103.799 79.2411   1
   4  -7  12 189.609 131.170  14
  -4   7 -12 306.093 215.548   3
   7  -4  12 412.853 259.004   6
  -4   7 -12-392.697 467.708  13
   4   7 -12 314.514 357.908  13
   7   4 -12 274.689 143.445   3
  -7   4 -12 318.159 255.502  13
   7   4 -12 462.732 270.979  13
  -4  -7  12 81.8931 76.7404   6
  -7  -4  12 231.348 148.231  19
   4  -7  12 175.035 221.230   6
  -7   4 -12 243.655 180.862  12
  -7   4 -12 228.609 216.475   3
  -4   7 -12 394.000 242.227  12
   7   4 -12 279.691 234.532  11
  -7  -4  12 196.059 148.394   5
  -7   4 -12 450.509 231.051  10
   7   4 -12 518.757 368.454  10
  -7   4 -12 601.108 371.799   9
   7  -4  12-55.9219 210.116   1
  -7   4 -12 192.492 156.716  19
  -4   7 -12 318.805 125.366   5
  -4   7 -12 280.374 179.279  18
   4   7 -12 240.380 246.781  18
  -7  -4  12 279.649 210.184   2
   4  -7  12 104.594 108.540  17
  -7   4 -12 405.788 337.950   4
  -7  -4  12 435.295 309.610  17
   7  -4  12 452.027 249.880   8
   7   4 -12 236.950 180.218  18
  -7  -4  12 155.718 139.365  16
  -4   7 -12 390.554 209.464   4
  -7   4 -12 683.964 546.191   7
  -7   4 -12 270.731 347.738  15
   7  -4  12 443.079 301.418  16
   4   7 -12 311.201 218.210   3
   7  -4  12 540.233 331.423  14
   4   7 -13 3140.19 876.020  13
   7   4 -13 3510.96 781.893  13
   7   4 -13 1593.92 620.593   1
  -4   7 -13 1251.34 598.319  13
  -4  -7  13 667.728 255.985   6
  -7   4 -13 385.568 269.207  13
   4  -7  13 1570.88 538.434   6
  -4   7 -13 2580.12 635.142  12
  -7   4 -13 1575.24 606.722  12
  -7   4 -13 1346.95 524.452   3
   7   4 -13 3279.93 858.326  11
  -4   7 -13 3210.10 398.530   5
  -7  -4  13 2285.05 746.608   2
   7   4 -13 3153.98 1109.04   9
  -7  -4  13 1611.61 530.897   5
   4  -7  13 1146.96 185.139   1
  -7   4 -13 2360.54 582.151  10
   7   4 -13 2491.56 761.238  10
  -4  -7  13-892.667 548.531   2
  -7  -4  13 1293.97 298.402  19
  -7   4 -13 2474.14 554.005   9
  -7   4 -13 1512.47 432.305  19
  -4   7 -13 2596.57 495.092  18
   4   7 -13 3144.43 805.672  18
   7   4 -13 2728.08 714.380  18
  -4   7 -13 3183.65 590.019   4
   7  -4  13 2947.12 632.568   8
  -7   4 -13 1148.29 491.833   4
   4  -7  13 1847.64 496.828  17
  -4  -7  13 617.213 388.723  17
  -7  -4  13 2326.42 704.214  17
  -7  -4  13 2233.30 528.005  16
   7  -4  13 3279.27 849.627  16
   4  -7  13 577.298 167.848   8
  -7   4 -13 2063.92 841.346   7
   7  -4  13 3183.99 774.876   6
   4   7 -13 2664.60 622.513   3
  -7   4 -13 2542.41 908.868  15
  -4   7 -13 2452.65 753.014   3
   7  -4  13 3299.32 744.808  14
   7   4 -13 2660.57 466.469   3
   4  -7  13 2109.71 450.327  14
   4   7 -14 183.260 92.0619   3
   4  -7  14 356.850 189.740  14
   7  -4  14 310.315 240.195   6
   4   7 -14 209.299 271.610  18
  -4  -7  14 191.295 184.980   6
  -4   7 -14 144.063 234.135  13
  -4   7 -14 196.612 155.280   3
   4   7 -14 192.153 247.407  13
   4  -7  14 22.0994 52.3931   6
   7   4 -14 384.489 307.486   1
  -7   4 -14 344.910 304.876  13
   7   4 -14 305.517 161.091   3
  -7   4 -14 232.478 234.661  12
  -4   7 -14 284.815 220.154  12
  -7   4 -14 182.987 258.390   3
  -7   4 -14 269.694 164.484  19
   7   4 -14 236.388 215.926  11
  -7  -4  14 354.229 265.772   5
  -7   4 -14 314.470 299.372  10
   7   4 -14 94.4795 249.323  10
  -4  -7  14-464.488 577.631   2
   7   4 -14 895.801 597.323   9
  -7   4 -14 378.523 311.257   9
  -4   7 -14 327.701 160.801  18
  -7   4 -14-62.3953 342.033   4
  -7  -4  14 497.755 385.549   2
   4  -7  14 313.859 190.759  17
  -4  -7  14 135.458 153.595  17
  -7  -4  14 425.786 328.526  17
   7  -4  14 279.645 231.115   8
  -4   7 -14 233.104 124.538   4
   4  -7  14-189.802 492.366  16
  -7  -4  14 316.031 221.505  16
   7  -4  14 333.749 293.361  16
   4  -7  14-42.9747 178.732   8
  -7   4 -14 7.20129 305.892   7
  -7   4 -14 168.992 215.470  15
   7   4 -14 281.161 219.739  18
   7  -4  14 384.383 290.221  14
   4  -7  15 951.611 326.327  14
   7  -4  15 1366.50 674.089   6
   4   7 -15 1126.24 395.951   3
  -4  -7  15 171.407 303.745   6
  -4   7 -15 606.960 366.839  13
   4  -7  15 917.355 462.813   6
  -4   7 -15 956.816 456.501   3
   4   7 -15 1207.49 524.368  13
  -7   4 -15 132.466 284.885  13
   7   4 -15 850.331 543.932   1
  -7   4 -15 567.288 427.122  12
  -4   7 -15 946.799 379.502  12
  -7   4 -15 413.347 393.526   3
   7   4 -15 1574.41 662.285  11
  -7  -4  15 1107.73 520.413   5
  -7   4 -15 799.084 447.735  10
   7   4 -15 194.995 486.952  10
  -4  -7  15 70.9795 91.9309   2
  -7   4 -15 461.461 271.941  19
   7   4 -15 1498.15 938.225   9
  -7   4 -15 501.930 272.545   9
  -4   7 -15 1249.73 327.088  18
  -7  -4  15 1093.83 634.702   2
   4   7 -15 600.594 480.992  18
   7   4 -15 1242.74 479.475  18
  -7  -4  15 1811.99 783.695  17
  -4  -7  15 930.349 590.547  17
   4  -7  15 1052.51 317.381  17
  -4   7 -15 1061.52 408.006   4
   7  -4  15 1326.31 448.141   8
  -4  -7  15-595.382 669.065  16
   4  -7  15 541.216 319.047  16
   4  -7  15 452.539 233.213   8
   7  -4  15 1329.54 594.298  16
  -7   4 -15 1338.51 806.545   7
  -7   4 -15 1517.85 870.285  15
   4   7 -15 1472.45 647.237  15
   7   4 -15 1306.69 387.382   3
   7  -4  15 1611.61 643.223  14
   7  -4  16 453.032 329.379   6
  -4  -7  16-74.8196 101.875   6
   4   7 -16 511.946 242.551   3
   4  -7  16 309.699 287.992   6
  -4   7 -16-26.5425 39.8610  13
   4   7 -16 233.329 174.930  13
  -4   7 -16 404.289 362.152   3
  -7   4 -16 10.6247 84.8788  13
  -7   4 -16 341.388 357.950  12
   7   4 -16 339.581 336.496   1
  -4   7 -16 543.729 309.173  12
   7   4 -16 227.661 146.205   3
   4   7 -16 63.1837 164.353  12
  -7   4 -16 96.1833 230.083   3
   4   7 -16 603.687 342.837  11
  -4   7 -16 488.873 270.440  11
   7   4 -16 249.709 71.9468  11
  -7  -4  16 101.434 113.190   5
  -7   4 -16 120.320 116.260  10
   7   4 -16 132.509 181.971  10
  -7   4 -16 137.033 141.171  19
   4   7 -16 679.653 392.037  18
  -4   7 -16 441.702 184.598  18
  -7   4 -16 98.9696 237.083   9
   7   4 -16 269.638 242.182  18
  -4   7 -16 486.972 330.227   4
  -4  -7  16 120.544 232.249  17
  -7  -4  16 271.105 166.371   2
   4  -7  16 559.087 231.595  17
   7  -4  16 574.593 294.339   8
  -7  -4  16 690.042 401.917  17
   7   4 -16 79.3997 395.741   9
  -4  -7  16-338.010 338.462  16
   4  -7  16 43.2970 184.386  16
   4  -7  16 219.201 149.258   8
  -7  -4  16 767.682 344.831  16
   7  -4  16 956.248 550.714  16
  -7   4 -16 86.7267 393.665   7
   4   7 -16 198.797 304.772   7
  -7   4 -16 102.324 275.789  15
   4   7 -16 467.859 436.724  15
  -4  -7  16 45.1443 107.368   2
   7  -4  16 513.557 309.740  14
   4  -7  16 439.383 220.781  14
   7  -5   2-176.279 281.715   8
   7  -5   3-23.2788 63.4587  14
   7  -5   3 3.35789 93.9273   6
  -7   5  -3-95.2072 140.105  19
   7   5  -3-134.685 278.382  18
  -7  -5   3-34.9049 173.200  17
   7  -5   3-79.5267 200.071   8
   7  -5   4 81.5806 65.5750   1
   7  -5   4 25.2952 36.7762  14
   7  -5   4 24.3556 106.995   6
  -7   5  -4 79.4130 116.017  12
  -7   5  -4 104.489 66.9112  19
  -7   5  -4 17.0574 53.4370   5
   7   5  -4 59.3510 151.071  18
   7   5  -4-61.5494 166.743   8
  -7  -5   4 39.7723 276.839  17
   7  -5   4 80.9321 72.8663   8
  -7   5  -4-90.5188 143.886   4
   7  -5   5 91.6629 130.996  14
   7   5  -5-135.628 175.348  18
   7  -5   5-16.6727 101.067   6
  -7   5  -5-26.7265 72.6886  12
   7   5  -5 247.666 262.076   1
  -7   5  -5 8.59114 30.6748  19
  -7   5  -5 42.9234 55.5380   5
   7   5  -5 88.8776 148.399   8
  -7  -5   5 318.662 390.218  17
   7  -5   5-7.50968 42.6608   1
   7  -5   5 93.8650 115.646   8
  -7   5  -5 30.3619 31.3490   4
  -7   5  -5-154.653 326.952   3
   7  -5   6 188.956 138.232  14
   7   5  -6 9.06654 216.088  13
   7  -5   6-11.9051 74.8688   6
  -7   5  -6 176.992 145.679  12
  -7   5  -6 155.421 132.864   5
  -7   5  -6 198.555 141.273  19
   7   5  -6 235.520 212.376  18
   7   5  -6 223.829 152.868   8
   7  -5   6 148.580 143.778   8
  -7   5  -6 177.574 138.867   4
   7  -5   6 184.044 144.319   1
   7   5  -6-169.258 309.625   1
  -7   5  -6 82.8781 110.293   3
  -7  -5   6-525.425 376.361  17
  -7   5  -7 87.8648 88.6029   3
   7  -5   7 111.808 152.928  14
   7  -5   7 60.0224 96.1670   1
   7   5  -7-33.3547 84.3395  13
   7  -5   7-53.5024 108.003   6
  -7   5  -7 109.211 148.598  12
  -7  -5   7-209.446 417.161   2
  -7  -5   7 34.9390 95.0103  19
  -7   5  -7 128.575 137.987   5
  -7   5  -7 135.468 121.962  19
   7   5  -7 20.8246 82.6380   1
   7   5  -7 110.413 185.892  18
   7   5  -7 63.0476 89.6782   8
  -5  -7   7 79.6518 225.453  17
  -7  -5   7-81.0976 217.363  17
   5   7  -7-60.5950 306.144  18
   7  -5   7 58.1422 77.0653   8
  -7   5  -7 60.3255 89.8755   4
   7  -5   8 82.2104 98.5015  14
  -7   5  -8 36.2878 126.994   3
   7   5  -8 154.271 121.238  13
   7  -5   8 150.106 96.8890   6
   5  -7   8-40.4759 93.6993   6
  -7   5  -8 172.528 151.912  12
  -5   7  -8 105.400 100.977  12
   7  -5   8 202.287 170.234   1
  -7  -5   8-214.702 394.383   2
  -7  -5   8-30.5326 126.013  19
  -7   5  -8 191.550 161.116  19
   5   7  -8-45.3551 286.646  18
   7   5  -8 104.111 127.444  18
   7   5  -8 54.1271 164.442   1
  -5  -7   8-131.673 256.161  17
   7   5  -8 150.751 120.785   8
  -7   5  -8 103.941 80.9932   5
  -7  -5   8 228.587 316.232  17
   7  -5   8 33.0510 79.9982   8
  -7   5  -8 121.065 99.2509   4
  -5   7  -8-103.782 257.740   3
   7  -5   9 323.370 215.433  14
   5   7  -9 165.690 98.0146  13
  -7   5  -9 184.798 155.041   3
   7   5  -9 344.921 259.507  13
   7  -5   9 482.614 291.060   6
   5  -7   9-5.60161 58.1878   6
  -7   5  -9 359.355 223.363  12
  -5  -7   9-20.8229 69.8058   6
  -5   7  -9 352.802 206.745  12
  -7  -5   9-20.6480 38.9337   2
  -5  -7   9 87.2695 260.021  17
  -7   5  -9 407.516 223.679   5
  -7  -5   9 251.037 191.766  19
  -7   5  -9 296.034 191.387  19
   7   5  -9 444.869 336.639  18
   5   7  -9 354.641 322.921  18
  -7  -5   9 240.842 286.382  17
   7   5  -9 260.557 216.765   1
   7   5  -9 466.112 194.452   8
   7  -5   9 261.472 151.520   8
  -7   5  -9 396.361 226.565   4
   7  -5   9 326.490 166.449   1
  -5   7  -9 327.687 280.705   3
  -5   7 -10 178.320 194.306   3
   7  -5  10 228.038 183.552  14
   5  -7  10 57.7416 76.7038  14
   5   7 -10 407.466 311.782  13
  -7   5 -10 150.673 179.717   3
   7   5 -10 303.149 226.442  13
   7   5 -10 243.534 120.282   8
   7  -5  10 202.209 203.716   6
   5  -7  10 150.086 198.347   6
  -5  -7  10 53.2578 87.0388   6
  -7   5 -10 202.642 146.116  12
  -5   7 -10 282.549 215.235  12
  -7   5 -10 95.0749 75.4894   5
   7  -5  10 152.960 120.221   1
  -7  -5  10 161.475 171.347  19
  -7   5 -10 136.110 125.332  19
  -7  -5  10-26.4819 175.290   2
   5   7 -10 145.918 224.539  18
   7   5 -10 102.357 113.263  18
   7   5 -10 26.5635 224.404   1
  -7   5 -10 201.202 185.526   4
   7  -5  10 221.845 197.039   8
  -7  -5  10 213.605 173.612  17
  -5   7 -10 232.308 161.791   4
  -5  -7  10-353.039 349.157  17
   7  -5  11 36.1180 120.409  14
  -5   7 -11-32.1765 136.279   3
   5  -7  11-68.0959 147.489  14
  -7   5 -11-262.351 354.012  13
   5   7 -11 19.4299 117.682  13
   7  -5  11 128.951 182.125   6
   7   5 -11-48.3013 121.468  13
  -7   5 -11 21.4536 72.4003   3
   7  -5  11 157.694 176.818   1
   5  -7  11-4.49648 152.996   6
  -5  -7  11-34.9386 36.7554   6
  -7   5 -11 51.7849 96.6679  12
  -5   7 -11-35.8658 76.4802  12
   7   5 -11 178.536 297.469  11
  -7   5 -11-19.9948 27.9304  11
  -7   5 -11 134.852 164.421   5
  -7  -5  11-30.9118 73.5267  19
  -7  -5  11-144.291 109.956   2
   5   7 -11-31.5905 181.579  18
   7   5 -11 131.234 164.458  18
  -5  -7  11-560.197 417.170  17
  -7  -5  11-23.2245 123.449  17
  -7   5 -11 58.5189 166.786   4
   7   5 -11-1.77553 227.195   1
   7   5 -11 25.6130 38.7971   8
   7  -5  11 169.810 221.287   8
   7  -5  11-179.505 345.632  16
  -5   7 -11 49.5983 69.4465   5
  -5   7 -11 17.5639 104.133   4
  -7   5 -11-6.15150 15.8442  19
   7   5 -11 97.7552 66.6929   3
  -7  -5  12 914.803 484.999   2
   5  -7  12 682.426 280.706  14
  -5   7 -12 624.308 363.886   3
  -7   5 -12 260.897 347.734  13
   7  -5  12 1127.32 486.608   6
   5   7 -12 1408.87 517.644  13
   7   5 -12 1336.88 480.441  13
  -5  -7  12 232.155 190.118   6
  -7   5 -12 620.546 330.726   3
   5  -7  12 364.066 295.291   6
  -7   5 -12 723.068 355.602  12
  -5   7 -12 1085.83 391.762  12
  -7   5 -12 864.024 207.249  11
  -5   7 -12 1193.21 290.706   5
   7   5 -12 1348.11 589.498  11
  -7   5 -12 606.685 272.825   5
  -5  -7  12 221.126 77.1184  19
  -7  -5  12 626.492 212.024  19
  -7   5 -12 946.633 302.008  19
  -5   7 -12 1039.42 276.836  18
   5   7 -12 1301.85 553.564  18
   7   5 -12 1420.70 539.963  18
   5  -7  12 643.404 294.183  17
  -5  -7  12 54.1391 191.553  17
  -7  -5  12 795.033 466.065  17
  -7   5 -12 927.519 415.814   4
   7  -5  12 1291.19 420.791   8
   7   5 -12 726.818 441.990   1
  -7  -5  12 220.288 121.076  16
   7  -5  12 838.072 380.154  16
  -5   7 -12 1299.75 394.404   4
   5  -7  12 270.788 32.6438   8
   7  -5  12 660.479 230.467   1
   7   5 -12 1030.52 306.367   3
   5   7 -12 683.543 311.853   3
   5  -7  12 584.915 168.741   1
   7  -5  12 1365.25 442.011  14
   5  -7  13 85.3523 66.2415  14
   7   5 -13-32.3694 109.972   3
  -5   7 -13 29.3354 93.9094   3
   7  -5  13 205.133 275.851   6
  -5   7 -13-254.987 400.189  13
  -5  -7  13 38.5342 74.4652   6
  -7   5 -13-96.6503 216.312  13
   5   7 -13 56.7125 132.222  13
   7   5 -13-112.102 121.336  13
   5  -7  13 38.3317 44.2914   6
  -7   5 -13-55.9114 159.288   3
  -7   5 -13 206.085 156.577  12
  -5   7 -13 131.181 162.562  12
   7   5 -13-106.457 295.822  11
  -7   5 -13-172.702 239.291   5
   7   5 -13 135.491 285.582  10
  -5  -7  13-496.840 602.817   2
  -5   7 -13 63.1034 68.0852   5
  -7  -5  13-74.2078 87.8646  19
  -7   5 -13 148.794 138.492  19
   7  -5  13 32.7552 7.81278   1
   5   7 -13 12.6558 111.199  18
  -7  -5  13-7.66697 136.448   2
   7   5 -13 146.499 198.258  18
  -7   5 -13 81.2603 155.368   4
  -5  -7  13 6.38172 194.210  17
  -7  -5  13 326.410 345.678  17
   7  -5  13-18.5375 70.2782   8
   5  -7  13-34.8749 84.9973  17
  -5   7 -13 35.3688 104.956   4
  -7  -5  13-100.499 154.647  16
   7  -5  13 273.998 356.561  16
  -5   7 -13 77.2759 96.8902  18
   5  -7  13 13.9496 79.3621   8
   7   5 -13-96.5996 262.179   1
   5   7 -13 4.05274 51.9415   3
   7  -5  13 45.4695 31.2920  14
   5  -7  14 1144.58 382.163  14
  -5  -7  14-19.4657 177.588   6
   7  -5  14 1710.81 623.160   6
  -5   7 -14 828.822 526.403  13
  -5   7 -14 1138.18 589.131   3
  -7   5 -14 187.819 286.132  13
   5   7 -14 1808.77 686.680  13
   5  -7  14 977.828 391.644   6
  -5   7 -14 1633.63 558.667  12
  -7   5 -14 409.991 229.254   3
  -7   5 -14 636.683 341.678  12
   7   5 -14 1951.46 879.726  11
  -7  -5  14 1848.32 1084.51   2
  -7   5 -14 1249.41 430.536  10
   7   5 -14 1185.75 785.002  10
   7   5 -14 1733.38 666.821  18
  -5  -7  14-141.334 255.321   2
  -7   5 -14 924.553 339.072  19
   5   7 -14 1596.78 608.869  18
  -7   5 -14 631.462 346.921   4
   5  -7  14 1238.83 346.193  17
  -5  -7  14 264.150 404.876  17
  -5   7 -14 1495.52 528.638   4
   7  -5  14 1217.76 397.978   8
   7  -5  14 1218.59 550.924  16
   5  -7  14 719.063 312.112   8
   7   5 -14 923.971 677.972   1
  -7   5 -14 1269.95 815.591   7
   5   7 -14 1473.37 491.368   3
  -7   5 -14 1070.88 665.933  15
   7  -5  14 1729.24 563.575  14
   5  -7  15-48.4082 159.656  14
   5   7 -15-12.1880 47.7666   3
  -5  -7  15 9.52537 197.897   6
   7  -5  15-29.7848 164.509   6
  -5   7 -15 54.8230 217.731  13
   5  -7  15-116.478 166.811   6
  -5   7 -15-247.566 277.942   3
  -7   5 -15-261.604 299.325  13
   5   7 -15-196.055 164.697  13
   7   5 -15 838.844 520.236  13
  -7   5 -15-26.6447 190.932   3
  -7   5 -15 34.8155 127.071  12
  -5   7 -15 35.2613 120.323  12
  -5   7 -15 138.001 39.2435  11
   7   5 -15-80.0323 316.197  11
  -7   5 -15 137.318 196.833  10
   7   5 -15 762.252 658.108  10
  -5  -7  15 126.661 344.862   2
  -7   5 -15-26.1722 142.069   9
  -7   5 -15-2.00165 42.8028  19
   7   5 -15 2282.46 1292.00   9
   5   7 -15-105.908 171.845  18
   7   5 -15 65.3434 267.834  18
  -7  -5  15 822.671 703.688   2
  -7   5 -15-145.982 254.047   4
  -5  -7  15 378.348 272.227  17
  -5   7 -15-59.0855 54.2648   4
  -7  -5  15 743.639 539.097  17
   7  -5  15-32.7513 143.938   8
  -7  -5  15 1685.30 652.296  16
   5  -7  15-385.747 446.889  16
   5  -7  15 77.3531 125.991   8
   7  -5  15-125.406 267.303  16
  -7   5 -15 22.8228 362.259   7
   7   5 -15 214.063 407.597   1
  -7   5 -15 64.2813 260.608  15
   7   5 -15 1142.03 448.318   3
   7  -5  15-50.9208 32.2377  14
  -7   5 -16 299.716 238.977  10
   7   5 -16 361.577 520.019  10
   7   5 -16 1174.94 827.863   9
  -7   5 -16-149.904 257.273   9
   5   7 -16 212.985 121.247  18
   7   5 -16 507.805 325.415  18
  -5   7 -16 371.706 276.507   4
  -5  -7  16 675.237 466.610  17
  -7  -5  16 794.291 517.770  17
  -5  -7  16-681.902 475.400  16
   5  -7  16 255.288 194.430   8
  -7  -5  16 583.226 387.183  16
  -7   5 -16 352.252 475.491   7
  -7   5 -16-200.572 369.330  15
   7   6  -4-149.103 285.093  18
  -7  -6   4-3.72020 231.695  17
   7  -6   5 313.113 253.155   6
  -7   6  -5 22.8213 197.653  12
   7   6  -5 106.447 140.921  18
  -7  -6   5-42.1216 133.384  17
   7  -6   5-241.169 274.901   8
   7  -6   6 25.7503 63.2853  14
   7  -6   6 3.51190 50.1709   6
  -7   6  -6-169.843 160.434  12
  -7   6  -6-112.723 135.567   5
   6   7  -6-215.965 449.716  18
   7   6  -6 50.0231 152.377  18
   7   6  -6-27.4139 197.675   8
  -6  -7   6-64.1155 376.958  17
  -7  -6   6 105.694 369.288  17
   7  -6   6-92.8472 209.400   8
  -7   6  -6-5.64945 124.176   4
   7  -6   7 304.513 211.756  14
   7  -6   7 340.817 296.414   6
   6  -7   7 263.477 271.323   6
  -7   6  -7 691.608 346.509  12
  -6   7  -7 418.804 171.007  12
  -7   6  -7 623.059 225.400   5
   6   7  -7 503.980 368.800  18
   7   6  -7 844.746 471.271  18
   7   6  -7 426.854 223.288   8
  -6  -7   7 304.683 311.853  17
  -7  -6   7 20.9197 223.628  17
  -7   6  -7 474.361 205.454  19
   7  -6   7 201.870 123.085   8
  -7   6  -7 743.096 294.346   4
  -7   6  -7 311.516 246.699   3
   7  -6   7 346.141 183.831   1
   7  -6   8 66.1831 119.555  14
   7   6  -8 63.2122 186.342  13
   7  -6   8-26.8269 180.388   6
   6  -7   8 32.0491 143.794   6
  -7  -6   8-2.91822 30.9299   6
  -7   6  -8-66.3898 71.8276  12
  -6   7  -8 11.6628 78.3563  12
  -7   6  -8 114.577 133.673   5
  -7   6  -8 40.9405 34.7096  19
   7   6  -8 4.86349 27.4599  18
   6   7  -8-41.8048 39.9647  18
   7   6  -8 93.8819 167.204   8
  -7  -6   8-77.7905 79.0591  17
  -6  -7   8-88.1252 193.400  17
   7  -6   8-4.87755 50.8465   8
  -7   6  -8 12.8774 28.0100   4
   7  -6   8 2.76917 86.6800   1
  -6   7  -8-116.468 161.282   4
  -6   7  -8-608.218 381.758   3
  -7   6  -8 45.7339 205.107   3
  -7   6  -9-12.5697 124.130   3
   7  -6   9 136.735 152.068  14
   6  -7   9 40.6647 87.9735  14
   6   7  -9-225.406 347.967  13
   7   6  -9 124.950 137.219  13
  -7  -6   9 4.01830 22.0302   6
   7  -6   9 207.741 221.931   6
   6  -7   9 55.0755 66.4780   6
  -6  -7   9-35.3008 97.2097   6
  -7   6  -9 223.888 215.088  12
  -6   7  -9 61.2937 87.7167  12
   6   7  -9-93.7662 211.290  18
  -7  -6   9 122.280 213.033  19
   7   6  -9 100.817 187.945   1
  -7   6  -9 75.8668 132.215   5
   7   6  -9 222.514 224.645  18
   7   6  -9 85.8607 100.276   8
  -6  -7   9-80.4952 216.563  17
  -7  -6   9 219.390 233.488  17
   7  -6   9 71.2294 99.7515   8
  -7   6  -9 205.955 233.084   4
  -6   7  -9-54.3060 122.862   4
   7  -6   9 76.3085 92.6620   1
  -6   7  -9-1.42671 164.220   3
  -7   6  -9 85.5861 55.8598  19
  -6   7 -10-50.6533 58.7275   3
   7  -6  10-142.557 115.832  14
   6  -7  10 7.40291 66.8829  14
  -7   6 -10-24.1382 50.8401   3
  -7  -6  10-40.1917 62.5630   6
   6   7 -10-102.335 128.333  13
   7   6 -10-100.236 119.921  13
   7  -6  10-51.7008 132.966   6
   6  -7  10-107.221 108.571   6
  -6  -7  10 59.2031 103.142   6
  -7   6 -10-31.0397 75.5014  12
  -6   7 -10 45.6576 176.367  12
   7  -6  10 42.1461 102.606   1
  -7  -6  10-347.832 567.916   2
  -7  -6  10-30.8774 99.8728  19
  -7   6 -10-5.48722 56.1472  19
  -6   7 -10-3.11638 59.7399   5
   6   7 -10-136.641 78.9988  18
   6   7 -10-245.556 218.780   8
   7   6 -10 15.4076 48.0534   8
   6  -7  10-47.1912 118.156   1
  -6  -7  10-331.994 246.736  17
   7   6 -10-59.6927 207.472  18
  -7  -6  10-49.7757 197.953  17
  -7   6 -10-66.3373 143.125   5
   7  -6  10 70.7255 140.501   8
  -7   6 -10 103.505 112.863   4
   6  -7  10-160.400 249.212   8
  -6   7 -10 37.7469 111.221   4
   7   6 -10-66.5685 200.527   1
   7  -6  11 113.874 142.459  14
  -6   7 -11 0.37036 104.594   3
   6  -7  11 83.3400 132.653  14
  -7   6 -11-16.2528 22.7415   3
   6   7 -11 225.934 303.069  13
   7   6 -11 1.12051 213.003  13
   7  -6  11 110.869 49.9798   6
  -6  -7  11-48.6791 102.133   6
   6  -7  11-79.3102 79.6094   6
  -7   6 -11 13.7956 68.0994  19
  -7   6 -11 199.615 247.239  12
  -6   7 -11 26.6374 35.1430  12
  -7   6 -11 56.3969 152.967   5
  -7  -6  11-794.713 492.539   2
  -7  -6  11-8.72394 47.3345  19
  -6   7 -11 34.9506 34.6886   5
   6   7 -11 172.720 269.504  18
   7   6 -11 147.323 205.404  18
  -6  -7  11 74.4546 226.881  17
  -7  -6  11 241.831 258.634  17
   6  -7  11 1.66102 39.1395   1
   7  -6  11 69.3397 103.339   1
  -7   6 -11 24.9167 18.8786   4
   7  -6  11 35.8156 79.4230   8
   6  -7  11-91.9735 199.119   8
  -6   7 -11 74.2357 117.951   4
   7   6 -11-45.9586 192.079   1
  -7  -6  11 39.8523 59.8892   6
   7  -6  12-9.31548 54.6896  14
   6  -7  12 177.300 189.067  14
  -6   7 -12 87.8259 137.927   3
  -7   6 -12-21.1352 135.554   3
   6   7 -12 79.5378 201.356  13
  -6  -7  12-47.3441 88.7255   6
   7   6 -12-50.9687 216.354  13
   7  -6  12 106.554 206.102   6
   6  -7  12-40.8234 94.2712   6
  -7   6 -12-21.9763 50.0827  12
  -6   7 -12 65.6835 117.866  12
   7  -6  12 73.6227 126.946   1
  -7   6 -12 8.51704 97.6446   5
  -6  -7  12 100.600 129.681  19
  -7  -6  12 125.077 148.602  19
  -7  -6  12 184.775 300.147   2
  -7   6 -12 32.1459 74.0074  19
   6  -7  12 94.3040 49.9596   1
   6   7 -12 114.727 213.638  18
   7   6 -12-362.998 372.510   1
   7   6 -12 54.4053 204.755  18
  -6  -7  12-15.7778 54.9867  17
  -7  -6  12-395.978 376.754  17
  -6   7 -12 24.9386 61.8179   5
  -7   6 -12-39.8522 75.4978   4
   7  -6  12 55.2883 70.8457   8
  -6   7 -12 81.5339 170.530   4
   6  -7  12 3.21316 102.933   8
   7  -6  13 988.498 374.267  14
   6  -7  13 533.153 268.846  14
  -6  -7  13 14.1770 191.005   6
   7   6 -13 2208.63 870.034  13
  -6   7 -13 523.210 368.906   3
  -7   6 -13-373.668 441.751  13
   7  -6  13 480.774 409.509   6
   6   7 -13 829.739 426.135  13
  -7   6 -13 533.548 302.526   3
   6  -7  13 223.011 251.903   6
  -7   6 -13 299.111 198.935  12
  -6   7 -13 682.964 362.617  12
   7   6 -13 433.717 579.038   1
   7   6 -13 1098.88 386.444  11
  -7   6 -13 588.669 318.482   5
  -6  -7  13-710.820 779.789   2
  -7  -6  13 777.211 260.092  19
  -7  -6  13 940.414 689.914   2
   7   6 -13 1127.46 571.722  18
   6   7 -13 571.410 376.706  18
  -6  -7  13 464.461 476.923  17
  -7  -6  13 727.302 677.874  17
  -7   6 -13 523.732 291.173   4
  -6   7 -13 572.562 259.571   4
   7  -6  13 557.003 293.466   8
   7  -6  13 75.5406 564.863  16
   6  -7  13 352.664 183.210   8
  -7   6 -13 518.161 232.127  19
   7   6 -13 1068.13 460.504   3
   6   7 -13 40.7220 160.874   3
   6  -7  14-76.8972 178.075  14
  -6   7 -14-316.784 479.104  13
  -6   7 -14-30.7307 83.1870   3
  -7   6 -14 274.557 294.389  13
   7  -6  14 54.9378 183.530   6
   6   7 -14-62.5217 201.432  13
   6  -7  14-86.5830 74.8429   6
   7   6 -14-153.644 122.711  13
  -7   6 -14-99.0098 120.946   3
  -7   6 -14 0.11731 183.925  12
  -6   7 -14 18.5545 93.0047  12
   7   6 -14-275.665 335.160  11
  -6  -7  14-587.547 560.032   2
  -7  -6  14 252.245 192.072  17
  -7  -6  14 175.334 326.914   2
   6   7 -14 121.134 217.911  18
   7   6 -14-93.0004 172.074  18
   7   6 -14-155.476 233.238   1
  -7   6 -14 64.9659 197.164   4
  -6  -7  14 490.623 402.288  17
  -7   6 -14-58.3506 92.0569  19
  -6   7 -14 83.9963 45.5722   4
   7  -6  14 56.6243 147.862   8
   7  -6  14-993.604 514.462  16
   6  -7  14 75.9362 152.432   8
   6   7 -14-160.281 178.100   3
   7  -6  14 75.2087 158.805  14
   7   6 -14 41.0812 49.1231   3
   7   6 -15 634.487 587.392  10
   7   7  -5-446.413 561.125  18
  -7  -7   5-112.932 360.273  17
   7   7  -6 812.437 514.700  18
  -7  -7   6-158.735 223.507  17
   7  -7   7 132.121 188.367   6
  -7   7  -7-281.537 217.242  12
   7   7  -7-11.7769 172.044  18
  -7  -7   7 153.949 196.742  17
  -7   7  -7-79.7647 174.184   4
   7  -7   8 328.031 217.181  14
  -7   7  -8 1416.95 489.578  12
   7  -7   8 561.137 339.198   6
  -7   7  -8 1029.03 281.122   5
   7   7  -8-183.559 380.280   8
  -7  -7   8-78.6972 317.738  17
   7   7  -8 1110.73 607.414  18
   7  -7   8 103.542 266.784   8
  -7   7  -8 1047.20 369.449   4
  -7   7  -8 383.921 172.887   3
   7  -7   9 44.7976 126.322  14
   7  -7   9 75.0976 140.582   6
  -7  -7   9 37.6201 42.0192   6
  -7   7  -9-124.552 185.161  12
   7   7  -9 158.210 252.382  18
   7   7  -9 164.603 205.337   8
  -7  -7   9 98.5917 239.219  17
   7  -7   9 23.7426 72.0664   1
   7  -7   9-197.636 222.691   8
  -7   7  -9 50.6285 106.794   4
  -7   7  -9 49.2589 54.2520   5
  -7   7  -9 12.6095 86.8841   3
   7  -7  10 154.716 146.844  14
   7   7 -10 264.677 224.641  13
   7  -7  10 199.607 226.532   6
  -7  -7  10 21.4587 67.0097   6
  -7   7 -10 177.546 183.683  12
  -7   7 -10 345.371 196.679   5
   7   7 -10 158.440 171.848  18
   7  -7  10 119.923 88.1228   1
   7   7 -10 123.359 165.497   8
  -7  -7  10-76.0457 117.225  17
   7  -7  10 34.0083 64.3978   8
  -7   7 -10 257.382 224.235   4
  -7   7 -10 113.447 261.069   3
  -7   7 -11-77.0775 212.883   3
   7  -7  11 93.8013 142.487  14
   7   7 -11 46.1952 133.798  13
   7  -7  11 92.6617 179.132   6
  -7   7 -11-33.9996 65.1154  12
  -7  -7  11-231.512 212.926  19
  -7   7 -11 128.187 117.539   5
   7  -7  11 50.1161 106.539   1
  -7  -7  11 104.242 267.413  17
   7   7 -11-49.3887 105.828  18
   7  -7  11-17.1114 86.7844   8
  -7   7 -11 77.5948 135.019   4
   7  -7  12 15.6776 154.560  14
  -7   7 -12-20.1001 162.591   3
   7   7 -12-101.216 199.334  13
   7  -7  12-27.8678 91.4092   6
  -7   7 -12-4.80679 177.864  12
  -7   7 -12-20.3696 58.5089   5
  -7  -7  12 154.234 88.3628  19
   7   7 -12-129.083 267.726  18
  -7  -7  12 100.305 270.396  17
  -7   7 -12-157.897 218.028  19
  -7   7 -12 77.9249 148.870   4
   7  -7  12-30.2726 88.0538   8
   7  -7  13 53.0272 118.365  14
  -7   7 -13-45.9847 152.240   3
   7   7 -13 5.49462 109.886  13
   7  -7  13-71.5531 74.1092   6
  -7   7 -13 124.221 185.372  12
  -7   7 -13-21.1110 128.366  19
  -7  -7  13-268.262 370.169  17
  -7   7 -13 34.0965 33.4849   4
   7  -7  13 96.6574 181.373   8
   7   7 -13 145.509 230.080  18
   8   0   0 162.538 89.2726   6
   8   0   0 253.955 123.765  11
   8   0   0 252.414 199.479   1
  -8   0   0 106.667 105.121   5
  -8   0   0 131.389 131.213  19
   8   0   0 213.216 145.462  18
  -8   0   0 157.113 111.099   2
  -8   0   0 168.418 154.979   4
  -8   0   0 49.3850 69.0924  17
   8   0   0 307.601 201.431   8
  -8   0   0 316.444 248.400   7
  -8   0   0 279.870 225.190  15
  -8   0   0-50.9116 91.6779   3
   8   0   0 201.904 152.834  14
   8   0   1-38.9792 117.971   6
   8   0  -1-80.5698 101.727   6
  -8   0  -1-21.1933 27.1302   3
   8   0  -1-36.1584 41.0590  13
  -8   0  -1 77.2372 76.6754  12
  -8   0   1-10.9186 55.4627  12
   8   0   1-30.6337 50.1497   1
   8   0   1 96.3595 102.748  11
   8   0  -1-40.8289 75.2731  11
  -8   0  -1-119.597 195.280   5
  -8   0   1 26.2794 134.540   5
  -8   0  -1-113.737 146.831  19
  -8   0   1 9.49314 59.5573  19
  -8   0  -1-26.8384 77.5856   2
   8   0  -1-88.8077 98.2821   1
   8   0   1-28.6983 69.5815  18
   8   0  -1-47.0051 80.4014  18
  -8   0   1 7.24064 22.6772   2
  -8   0  -1-4.57252 74.6792   4
   8   0   1-30.6759 87.4886   8
  -8   0  -1-48.9115 108.808  17
  -8   0   1 58.5321 54.7520  17
   8   0  -1 11.5675 46.0610   8
  -8   0   1 11.8081 77.5403   4
  -8   0  -1 22.7483 91.6185   7
  -8   0  -1 57.8793 41.6794  15
   8   0   1 6.75398 63.1222  14
   8   0  -1 3.16182 70.8268  14
   8   0   2 678.514 261.374   6
   8   0   2 995.787 420.064   1
   8   0  -2 894.134 215.487   6
  -8   0  -2 353.973 213.970  12
  -8   0  -2 199.145 86.7071   3
  -8   0   2 169.777 110.950  12
   8   0   2 1167.73 252.242  11
   8   0  -2 621.439 222.887  11
  -8   0  -2 481.540 281.286   5
  -8   0   2 411.158 272.654   5
  -8   0  -2 283.318 189.586  19
  -8   0   2 746.802 295.842  19
   8   0   2 981.197 264.105  18
   8   0  -2 701.771 273.423  18
   8   0  -2 894.772 371.650   1
  -8   0  -2 343.226 268.371   4
   8   0   2 770.129 315.673   8
  -8   0  -2 345.079 149.755  17
  -8   0   2 645.815 258.999  17
  -8   0   2 628.858 229.489   2
   8   0  -2 934.941 310.029   8
  -8   0   2 652.182 297.956   4
  -8   0  -2 423.832 219.147   7
  -8   0  -2 633.188 319.354  15
   8   0   2 887.573 350.722  14
   8   0  -2 687.394 309.082  14
   8   0   3-111.438 89.1350   6
   8   0  -3-90.3218 79.7416   6
   8   0   3 1.35308 115.743  11
  -8   0  -3-120.334 227.906   5
   8   0  -3-173.321 25.1240  11
  -8   0   3-203.658 162.549   5
  -8   0   3-11.5009 76.7293  19
   8   0   3-6.19122 128.445   8
   8   0   3-83.3111 56.5558  18
   8   0  -3-221.066 147.505  18
  -8   0  -3 52.4776 35.3298   4
  -8   0  -3-114.783 142.065  19
  -8   0  -3 8.81223 93.7886  17
  -8   0   3-37.8595 35.6114  17
   8   0  -3-101.781 115.354   8
   8   0  -3-119.686 171.168   1
  -8   0   3-44.4458 82.1797   4
  -8   0   3-102.250 145.723   2
   8   0   3-64.5201 72.1171  16
  -8   0  -3-67.8013 131.623   7
  -8   0  -3-20.4107 80.7675  15
   8   0   3-122.724 57.8297   1
   8   0   3-109.935 152.987  14
   8   0  -3-111.935 85.2169  14
   8   0  -4 337.141 114.564   6
   8   0   4 332.888 157.335  11
  -8   0  -4-76.2416 93.5642   5
   8   0  -4 152.019 308.181  11
  -8   0   4 302.675 284.150   5
  -8   0  -4 195.624 225.768  19
  -8   0   4 742.457 340.809  19
   8   0   4 223.043 146.820  18
   8   0   4 115.740 195.276   8
   8   0  -4 232.791 245.356  18
  -8   0  -4 34.1748 174.587   4
  -8   0  -4 224.378 178.101  17
  -8   0   4 575.123 395.942  17
   8   0  -4 419.409 271.406   8
  -8   0   4 247.067 221.767   4
   8   0   4 256.600 116.657  16
  -8   0   4 227.971 191.236   2
  -8   0  -4 492.315 407.442   7
   8   0   4 78.5043 131.470   1
  -8   0  -4 288.990 250.435  15
   8   0  -4 159.917 171.945   1
   8   0   4 117.082 213.038  14
   8   0  -4 494.298 254.711  14
   8   0   4 107.089 159.904   6
   8   0  -5 225.255 164.388  14
   8   0  -5 134.805 230.874   1
   8   0  -5 209.496 93.9397   6
   8   0  -5 185.792 111.682  11
  -8   0   5 130.162 104.451  17
  -8   0   5-187.981 150.021   5
  -8   0  -5 29.3787 102.234  19
  -8   0   5 194.368 190.088  19
   8   0   5 209.056 129.660  18
  -8   0  -5 42.7690 128.545   4
   8   0  -5 135.605 95.7164  18
   8   0   5 91.4740 229.597   8
  -8   0  -5 149.916 136.290  17
   8   0   5 401.386 281.620   1
  -8   0   5 34.0959 97.7673   2
   8   0  -5 455.418 229.100   8
  -8   0   5-20.4801 19.7209   4
   8   0   5 287.634 169.311  16
  -8   0  -5-53.4333 246.338   7
  -8   0   5 14.2483 25.1746  16
  -8   0  -5-511.505 332.342  15
   8   0   5 515.126 479.956  14
   8   0   5 133.380 70.9594   6
   8   0  -6 239.058 127.841  14
   8   0  -6 435.115 119.130   6
   8   0  -6 208.390 202.376   1
  -8   0  -6-199.172 262.313  19
   8   0  -6 113.580 122.272  11
  -8   0   6 312.645 152.733   5
  -8   0   6 494.961 222.757  19
   8   0   6 449.773 150.978  18
  -8   0  -6-103.007 288.884   4
   8   0   6 281.466 262.221   1
   8   0  -6 230.004 123.307  18
   8   0   6 245.500 191.530   8
  -8   0   6 191.772 190.561  17
   8   0  -6 287.933 177.302   8
  -8   0   6 373.190 194.314   4
   8   0   6 479.416 181.078  16
  -8   0   6 180.955 92.8816  16
  -8   0  -6-145.563 133.586  17
  -8   0   6 251.533 173.049   2
   8   0   6 135.105 95.6726  14
   8   0   6 279.428 251.047   6
   8   0  -7 43.6056 56.1237  14
  -8   0  -7 131.885 98.3574  19
   8   0  -7 17.5241 21.1424   6
   8   0  -7-29.1699 51.9267   1
   8   0  -7-44.8207 62.9367  11
  -8   0   7-17.0593 94.7795   5
   8   0   7 51.6570 167.384   1
  -8   0   7-67.4467 76.2551  19
   8   0  -7-13.2747 34.7036  18
   8   0   7-35.9768 119.659   8
  -8   0  -7 92.2158 106.269  17
   8   0   7 5.41339 49.5073  18
  -8   0   7 36.6655 77.2871  17
  -8   0   7 14.3496 42.8253   4
   8   0   7 81.9025 123.641  16
  -8   0   7-14.9406 27.6941  16
  -8   0   7 18.7954 84.9254   2
   8   0   7-2.77748 24.7048  14
   8   0   7-98.9259 141.584   6
   8   0  -8-61.2459 48.2788  14
   8   0  -8 59.1993 110.944  11
   8   0  -8 41.4741 105.418   1
  -8   0   8-62.5449 80.0632  19
   8   0   8 35.2881 66.8561  18
  -8   0   8 82.9154 133.449   5
  -8   0  -8 28.5854 55.5440  19
   8   0  -8 0.76265 46.7850  18
  -8   0  -8 234.097 150.918  17
   8   0   8 54.4234 123.948   8
  -8   0   8 19.4366 54.5231  17
  -8   0   8 83.6361 111.135   4
   8   0   8 124.074 191.938  16
  -8   0   8-12.7896 35.6750  16
  -8   0   8 20.3427 88.6002   2
   8   0   8-69.3768 49.4545  14
   8   0   8-18.2846 73.8157   6
   8   0  -9-155.158 146.767  14
   8   0  -9 59.5972 159.401  11
  -8   0  -9 137.856 165.596  19
  -8   0   9 66.6648 128.988   5
  -8   0   9-118.995 135.890  19
   8   0  -9 49.0791 59.1766   1
   8   0  -9 94.3716 157.117  18
  -8   0  -9 102.703 62.3858  17
   8   0   9-134.633 193.438   8
  -8   0   9 2.40170 25.6126  17
  -8   0   9-9.98520 23.4248   4
   8   0   9-12.1350 101.871  16
  -8   0   9 14.7261 67.3021  16
   8   0   9-47.2660 183.366  14
   8   0   9-35.4594 182.665   6
  -8   0   9-28.2020 25.5092   2
   8   0 -10 112.919 69.4283  14
   0  -8  10 55.3753 151.139   6
   8   0 -10 3.17631 111.648  11
  -8   0 -10-57.5867 77.8146  19
  -8   0  10 259.519 198.786   5
   8   0 -10 251.836 217.756  18
   8   0  10 237.253 241.928   8
   8   0 -10 195.518 183.729   1
  -8   0  10 80.7212 149.298  17
  -8   0  10 248.029 168.389   4
   8   0  10 311.203 250.684  16
  -8   0  10 41.0801 51.6922  16
   8   0  10 117.800 21.9597   6
  -8   0  10 220.898 153.516   2
   8   0 -11-12.8924 56.1100  14
   0  -8  11 113.413 172.095   6
   8   0 -11 117.688 273.931  11
  -8   0  11 45.9791 101.332   5
   0   8 -11-52.2887 328.498  18
   8   0 -11 5.33117 82.3886  18
   8   0  11 19.8741 169.962   8
   0  -8  11-73.0455 340.221  17
  -8   0  11 28.9195 163.041  17
  -8   0 -11-2.92591 160.210  19
   8   0 -11 36.1914 117.437   1
   8   0  11-94.8750 111.874  16
  -8   0  11-71.4279 101.505   4
  -8   0  11-56.3169 118.894  16
   8   0  11 161.087 235.260   6
   0   8 -11-4.15436 84.2823   3
  -8   0  11-110.353 173.847   2
  -8   0  12 924.538 373.262   2
   8   0 -12 492.629 228.976  14
   0   8 -12 871.560 496.550  13
   0  -8  12 314.744 224.799   6
  -8   0  12 1275.67 406.002   5
   8   0 -12 231.505 153.394  11
  -8   0 -12-43.2650 178.987  19
   0   8 -12 1097.75 470.528  18
   8   0 -12 322.188 208.521  18
   8   0  12 1193.47 514.279   8
   0  -8  12 34.4603 230.395  17
  -8   0  12 1116.93 468.415  17
   8   0  12 1260.72 493.888  16
  -8   0  12 916.177 276.639   4
  -8   0  12 443.662 199.355  16
   8   0 -12 487.106 247.050   1
   8   0  12 962.799 496.651   6
   0   8 -12 1344.54 520.198   3
   0   8 -13 250.466 272.153   3
  -8   0  13-57.2004 41.1879   2
   8   0 -13 44.9684 80.5805  14
   0   8 -13-12.7597 143.712  13
   0  -8  13 28.9439 82.4876   6
   0   8 -13-76.7772 199.264  12
  -8   0 -13-397.243 458.604  19
  -8   0  13 70.5824 124.462   5
   0  -8  13 19.9977 364.949  17
   8   0  13-38.4499 125.992   8
  -8   0  13-12.1692 113.390  17
   8   0  13 5.89526 63.7126  16
  -8   0  13 50.3601 72.6421  16
  -8   0  13-90.4081 143.961   4
   0   8 -13 51.3504 138.921  18
   8   0  13-352.104 401.732   6
   8   0 -13-93.8524 120.890   1
  -8   0  14 1130.17 470.652   2
   8   0 -14 437.872 219.177  14
   0   8 -14 1636.82 731.521  13
   8   0 -14 550.313 292.130   1
   0  -8  14 717.932 312.162   6
   0   8 -14 1531.18 424.992  12
  -8   0  14 1277.09 409.442   5
   0   8 -14 1771.83 560.802  18
   8   0  14 1173.04 549.013   8
   0  -8  14 543.127 373.594  17
  -8   0  14 1406.33 571.504  17
   8   0  14 1652.87 637.792  16
  -8   0  14 745.336 316.963  16
   0   8 -14 1771.09 604.570   3
   8   0  14 1161.73 414.685   6
  -8   0  15-136.780 169.651   2
   8   0 -15 61.8363 21.1806  14
   0   8 -15 18.4370 91.7113   3
   0   8 -15-25.1145 62.1001  13
   0  -8  15 48.3208 118.441   6
   8   0 -15-34.1142 102.211   1
   0   8 -15 49.8948 181.809  12
   0   8 -15-19.6397 153.543  18
   8   0  15 74.6649 175.223   8
   0  -8  15-10.7652 60.3066  17
  -8   0  15 45.8212 145.494   5
  -8   0  15-422.028 296.241  17
   8   0  15-19.1308 71.3579  16
  -8   0  15 244.656 221.766  16
   8   0  15-497.184 813.259   6
  -8   0  16 219.850 223.357   2
   8   0 -16 157.497 153.114  14
   0   8 -16 323.984 261.426   3
   0   8 -16 242.717 132.857  13
   0  -8  16 98.4875 70.3080   6
   8   0 -16 351.182 299.507   1
   0   8 -16 558.690 302.003  12
   0   8 -16 617.839 354.452  18
  -8   0  16 460.216 269.598   5
   0  -8  16 317.863 188.423  17
   8   0  16 338.587 320.976   8
  -8   0  16-435.443 306.634  17
   8   0  16 268.415 239.582  16
   8   1   0 214.795 208.899   1
   8   1   0 187.353 149.664  18
   8  -1   0 192.225 114.400   6
  -8  -1   0-31.3445 45.5379   3
  -8  -1   0 209.260 167.714  12
  -8   1   0 16.5359 34.9338  12
   8   1   0 260.331 109.812  11
  -8  -1   0 114.279 151.938   5
   8  -1   0-175.951 154.618  11
  -8   1   0 189.606 160.549   5
  -8  -1   0-198.455 233.893   2
  -8  -1   0 74.4706 146.793  19
   8   1   0 287.854 202.047   8
  -8   1   0 187.349 111.314  19
   8  -1   0 75.8331 63.3079  18
  -8  -1   0 26.1991 121.065   4
  -8  -1   0 117.133 119.685  17
  -8   1   0 109.972 89.7922  17
   8  -1   0 227.434 172.109   8
  -8   1   0 135.156 75.4575   4
   8   1   0 145.228 103.493   9
  -8   1   0 232.208 128.531   2
   8  -1   0 145.001 122.101   1
   8   1   0 66.3283 54.9179  14
   8   1   0 61.3591 36.5812   6
   8  -1   0 221.130 151.722  14
   8  -1  -1 1008.93 354.978  14
   8  -1   1 640.100 204.001  18
   8  -1   1 900.729 285.027   6
   8   1  -1 1454.80 520.061   1
  -8  -1   1 476.581 173.648  12
  -8   1  -1 532.310 232.105  12
  -8   1   1 366.311 180.322  12
   8   1  -1 1442.35 367.811  11
  -8   1  -1 915.225 243.638   2
  -8  -1  -1 285.171 247.449   5
  -8   1   1 885.202 245.308   2
  -8  -1   1 408.945 301.049   5
   8  -1   1 20.1832 90.2278  11
   8  -1  -1 33.0279 90.0222  11
  -8   1  -1 815.388 328.015   5
  -8   1   1 782.954 337.508   5
  -8  -1  -1 242.552 99.7352  19
  -8   1  -1 663.818 303.261  19
  -8   1   1 753.662 293.761  19
  -8  -1   1 573.438 253.495   2
   8   1   1 1328.16 361.634  18
   8   1  -1 1322.00 369.032  18
   8   1  -1 1159.97 271.788   9
  -8  -1   1 412.370 270.042  19
   8  -1  -1 558.231 211.787  18
  -8  -1  -1 197.960 165.301   4
   8  -1   1 1129.76 393.064   1
  -8  -1   1 542.031 288.527   4
   8   1   1 1003.19 368.785   8
  -8  -1  -1 366.553 186.427  17
  -8  -1   1 507.374 244.827  17
   8   1  -1 1122.76 376.306   8
   8  -1   1 791.596 300.024   8
  -8   1  -1 378.946 172.456  17
  -8   1   1 323.195 178.572  17
  -8   1  -1 723.165 315.551   4
   8  -1  -1 936.892 334.130   8
  -8   1   1 868.404 322.868   4
   8  -1  -1 854.043 256.293   6
   8   1   1 1205.58 486.325   1
   8   1   1 1016.13 427.032  14
   8   1  -1 937.174 385.884  14
   8   1   1 368.184 157.596   6
  -8   1  -1-31.2668 101.330   3
   8  -1  -1 788.029 331.818   1
   8   1  -1 670.615 203.432   6
   8  -1   1 962.779 363.058  14
   8  -1  -2 0.95161 74.4461  14
  -8  -1   2 574.683 345.015  19
  -8   1  -2-76.3091 137.678   3
   8  -1   2-67.8072 137.278   6
   8   1  -2-37.2476 100.748  13
   8  -1  -2 75.4088 45.2444   6
   8  -1  -2 101.563 66.9689   1
  -8   1  -2-43.9882 110.728  12
  -8  -1   2 226.189 155.101  12
   8   1  -2 138.136 199.344   1
   8   1  -2 333.879 273.456  11
  -8  -1   2 93.6346 255.726   5
   8  -1   2-278.711 161.941  11
   8  -1  -2-203.156 174.203  11
  -8   1  -2-61.3454 129.894   5
  -8   1   2 90.9899 116.416   5
  -8  -1  -2-59.3784 154.069  19
   8  -1   2-3.93750 52.9146   1
  -8   1   2 5.39744 67.4796  19
  -8   1  -2 81.0545 77.5826   2
   8   1   2 88.4977 96.8897  18
   8   1  -2-7.35402 42.5230  18
  -8  -1   2 492.878 322.133   2
   8  -1   2 26.9263 5.52085  18
  -8  -1  -2-92.1373 168.501   4
   8  -1  -2 54.7578 80.1896  18
  -8   1  -2-39.9398 92.2431  19
   8   1   2-72.1086 160.639   8
  -8  -1  -2-69.8494 141.305  17
  -8  -1   2-62.0103 67.0951   4
  -8  -1   2 780.119 410.027  17
   8   1  -2 96.1668 157.748   8
   8  -1   2 62.4989 111.333   8
  -8   1  -2 66.7589 41.0541   4
  -8   1  -2 5.59207 45.7473  17
  -8   1   2-11.5546 81.8403  17
   8  -1  -2 59.4465 74.7379   8
  -8   1   2 130.675 159.146   4
   8   1   2 94.4034 204.326   1
  -8  -1   2 302.215 196.371   7
   8   1   2-22.8206 52.4487  16
  -8  -1   2 167.830 135.885  15
  -8   1   2 86.1772 97.9487   2
   8   1   2-8.64906 134.445  14
   8   1   2-4.09474 63.1498   6
   8   1  -2 254.817 306.673  14
   8  -1   2 15.5177 63.4402  14
   8   1  -2 361.324 177.735   6
   8  -1  -3 295.605 186.683  14
   8  -1   3 515.530 277.848   6
  -8   1  -3 49.4345 44.6521   3
   8  -1  -3 566.415 185.931   6
  -8   1  -3 282.797 263.837  12
  -8  -1   3 887.380 625.774   5
   8   1  -3 1413.03 662.140   1
   8  -1   3 537.665 350.651   1
   8  -1  -3 500.955 237.120   1
  -8   1  -3 289.369 194.316   5
  -8  -1  -3 40.4486 204.869  19
  -8   1   3 312.602 224.798   5
  -8   1  -3 95.2947 162.504  19
  -8   1   3 328.875 208.582  19
   8   1  -3 987.315 442.959  18
  -8  -1   3 670.675 531.676   4
   8   1   3 431.876 211.586  18
  -8  -1  -3-231.855 405.645   4
   8  -1   3 331.292 163.487  18
   8  -1  -3 121.966 103.727  18
   8   1   3 370.336 290.846   8
  -8  -1  -3 89.9480 138.705  17
  -8   1  -3 219.335 196.750   4
   8   1   3 409.563 451.407   1
   8  -1   3 613.413 310.926   8
   8   1  -3 462.065 387.326   8
  -8   1  -3 59.2747 124.347  17
  -8   1   3 40.0463 79.4042  17
   8  -1  -3 337.581 180.998   8
  -8   1   3 334.108 206.368   4
   8   1   3 380.120 134.763  16
   8   1  -3 479.220 281.170   6
  -8   1   3 335.464 158.429   2
   8   1   3 377.697 346.282  14
   8   1   3 167.160 246.967   6
   8  -1   3 402.958 289.088  14
   8  -1  -4 262.388 183.391  14
   8  -1   4 677.869 339.120   6
   8  -1  -4 343.086 154.904   6
   8  -1   4 1068.58 599.279   1
  -8   1  -4 671.216 453.569  19
  -8   1  -4 649.185 409.478   5
  -8   1   4 250.548 204.550   5
  -8   1   4 684.824 290.008  19
   8   1   4 837.284 396.140  18
   8  -1   4 671.990 265.864  18
   8  -1  -4 109.874 105.136   1
   8   1   4 848.396 594.866   1
   8  -1  -4 76.0559 96.6693  18
  -8   1  -4 1156.76 304.877  17
   8   1   4 730.134 432.287   8
  -8  -1  -4 430.077 268.355  17
  -8   1  -4 568.164 421.935   4
   8  -1   4 1071.66 429.650   8
  -8  -1  -4 393.666 379.842  19
  -8   1   4 47.0412 70.2116  17
   8   1   4 834.834 332.321  16
   8  -1  -4 405.975 230.486   8
  -8   1   4 115.797 128.253   4
  -8   1  -4 772.624 468.593   7
  -8   1  -4 468.986 405.906  15
  -8   1  -4 744.939 391.417   3
   8   1   4 937.958 594.433  14
   8   1   4 794.707 457.157   6
   8  -1   4 569.352 455.514  14
  -8   1   4 228.160 136.077   2
   8  -1  -5 82.2215 129.029  14
  -8   1   5 184.763 172.345   2
   8  -1   5-222.789 200.147   6
  -8   1  -5 620.639 480.975  12
  -8  -1  -5-50.8776 64.6977  19
   8  -1  -5 168.416 130.129   6
  -8   1  -5 348.289 264.164   3
  -8   1  -5 349.362 284.001   5
  -8   1  -5 214.974 376.831  19
   8   1   5-193.403 341.517   1
  -8   1   5 263.754 240.320  19
   8   1   5 113.339 176.277  18
   8  -1   5 10.6366 111.830  18
   8  -1  -5 66.8391 86.5557  18
   8   1   5-7.63308 276.382   8
  -8   1  -5 641.700 357.459   4
   8  -1   5 264.686 244.435   8
  -8   1  -5 55.5207 178.325  17
  -8  -1  -5-91.4844 123.243  17
  -8   1   5 133.716 195.507  17
   8  -1  -5 85.8274 106.465   1
   8  -1   5 128.931 166.107  16
   8  -1  -5 104.715 101.422   8
  -8   1   5 80.9872 94.4969   4
   8   1   5 90.7805 138.148  16
  -8   1  -5 70.1374 337.954   7
  -8   1   5 128.101 150.226   5
  -8  -1   5-293.947 67.6345  15
  -8   1  -5 77.0815 225.835  15
   8   1   5 85.7456 248.212   6
   8   1   5-64.7043 264.811  14
   8  -1   5 133.158 197.547   1
   8  -1   5-0.04860 87.5705  14
   8  -1   6 104.442 105.535   6
   8  -1  -6 103.403 108.466  14
  -8   1   6 134.549 109.681   2
   8   1  -6 34.1784 18.4142   6
  -8   1  -6-177.955 298.951   5
   8   1  -6 346.457 283.206  11
  -8  -1   6 292.548 205.835   5
  -8  -1  -6-25.0720 190.357  19
  -8   1  -6-69.8488 42.7313  19
  -8  -1   6 258.518 234.607  19
  -8   1   6 103.709 121.675  19
   8   1  -6 245.676 357.301   9
   8   1   6-26.8925 128.259  18
  -8   1   6 203.359 161.336   5
   8  -1   6 46.3440 42.0579  18
   8   1  -6 179.375 232.169  18
   8  -1  -6 83.5263 129.286  18
   8   1   6 71.6108 136.366   8
  -8   1  -6 10.0629 39.9605   4
  -8  -1  -6-14.9607 107.130  17
   8   1  -6 133.877 193.779   1
  -8   1  -6-125.462 95.3702  17
  -8  -1   6 194.448 222.355  17
  -8  -1   6 161.192 142.978   4
  -8   1   6 42.5703 104.602  17
   8   1  -6 191.439 150.436   8
   8  -1   6 121.036 85.0114   8
  -8  -1   6 142.287 202.666   2
  -8  -1   6 111.278 62.5436  16
   8  -1   6 68.7203 99.6027  16
   8  -1   6-8.32392 196.701   1
  -8   1   6 183.445 155.299   4
  -8   1  -6 202.657 184.058   7
   8   1   6 188.977 170.656  16
  -8   1  -6-35.8287 200.395  15
   8  -1  -6-5.03020 63.1455   1
   8   1   6-29.7994 124.703   6
   8   1   6-53.6907 66.8074  14
   8  -1   6 134.280 155.628  14
   8   1  -6 93.9452 142.397  14
   8  -1   7 388.182 230.395   6
   8  -1  -7 202.676 168.479  14
  -8   1   7 232.481 172.782   2
   8   1  -7 196.004 62.7795   6
  -8   1  -7 38.9958 55.9633  13
   8  -1  -7 19.5757 43.5346   1
   8   1  -7 275.749 212.684  11
  -8  -1   7 188.845 169.845   5
  -8  -1  -7-189.224 313.762  19
  -8   1  -7 121.185 164.961  19
  -8  -1   7 202.536 152.097  19
  -8   1   7 354.271 184.317   5
  -8   1   7 92.0902 70.6065  19
   8   1  -7 110.027 234.848   9
   8  -1   7 290.840 103.675  18
  -8   1  -7 113.475 68.6056   4
   8   1   7 258.118 200.626   8
   8  -1   7 345.177 216.556   8
   8  -1   7 451.048 337.013   1
  -8   1  -7 31.7307 34.0566  17
  -8  -1   7 253.014 199.714  17
   8   1  -7 401.014 244.354   1
  -8   1   7 124.585 159.065  17
  -8  -1   7 206.089 142.348   4
   8   1  -7 204.241 137.875   8
  -8  -1   7 46.6717 111.883   2
   8  -1   7 299.093 201.817  16
  -8  -1   7 303.105 115.026  16
   8   1  -7 360.959 198.461  18
  -8   1  -7 91.6064 290.543   7
  -8   1   7 245.582 158.255   4
   8   1   7 257.985 179.591  16
  -8   1  -7 229.208 157.200  15
   8   1   7-4.96205 168.310   6
   8  -1   7 397.514 276.729  14
   8   1  -7 223.667 171.055  14
   8  -1   8 681.155 357.463   6
   8  -1  -8 456.975 203.904  14
  -8   1   8 433.844 214.038   2
  -8  -1   8 553.987 236.978  19
   8   1  -8 484.813 292.639  11
   8  -1  -8 210.813 163.141   1
  -8  -1   8 530.756 298.922   5
  -8   1  -8 220.756 200.271  19
  -8   1   8 536.810 245.612   5
   8   1  -8 6.67019 163.527   9
   8  -1   8 578.174 135.541  18
   8  -1   8 289.204 265.080   1
  -8   1  -8 81.9668 106.329   4
   8   1  -8 314.147 262.228  18
   8   1   8 271.750 217.757   8
   8  -1   8 886.596 390.442   8
  -8   1  -8 67.9754 44.3876  17
  -8  -1   8 419.386 306.214  17
  -8   1   8 183.117 208.435  17
  -8  -1   8 518.962 228.740   4
   8   1  -8 329.807 163.558   8
   8  -1   8 660.035 256.410  16
  -8  -1   8 438.536 258.349   2
  -8  -1   8 453.277 151.898  16
  -8   1  -8 120.329 164.442   7
   8   1  -8 456.259 270.925   1
   8   1   8 283.818 160.069  16
  -8   1   8 300.753 149.726   4
  -8   1  -8 70.3552 113.245  15
   8   1  -8 384.610 91.9659   6
   8   1   8 93.4109 215.817   6
   8  -1   8 909.087 444.597  14
   8   1  -8 339.308 209.891  14
   8  -1  -9 111.692 120.559  14
  -8   1   9 60.2265 81.8473   2
   8   1  -9 74.0329 35.8174   6
   8   1  -9-10.7462 74.8357  11
  -8   1  -9 61.0600 126.041  19
  -8  -1   9 140.666 119.366  19
  -8   1   9 223.448 158.791   5
   8   1  -9-42.0262 227.600   9
   8  -1  -9 60.6760 110.291   1
   8  -1   9 165.528 69.5389  18
   8   1  -9 194.685 173.838  18
   8   1   9 319.066 316.813   8
   8  -1   9 215.322 203.093   8
  -8  -1   9 30.4651 141.753  17
  -8   1   9-162.811 160.729  17
  -8  -1   9 144.289 138.453   4
  -8  -1   9 76.4404 136.568   5
   8  -1   9 79.3785 94.4524  16
  -8   1  -9-620.122 418.991   7
  -8  -1   9 87.0156 52.0309  16
  -8  -1   9 189.704 151.164   2
   8   1   9 202.765 142.487  16
  -8   1  -9-456.447 357.260  15
   8   1   9-317.160 442.145   6
   8  -1   9 245.361 221.816  14
   8   1  -9 198.816 126.882   1
   8   1  -9 24.9385 48.2796  14
   8  -1   9 307.584 310.174   6
   8  -1 -10 132.150 134.425  14
   8   1 -10 527.543 311.897   1
  -8   1  10 198.797 182.022   2
   1  -8  10-4.85795 121.832   6
   8   1 -10 78.8920 65.6825  11
  -8  -1  10 247.068 187.587   5
  -8   1 -10 11.5739 94.6993  19
  -8  -1  10 246.494 165.641  19
  -8   1  10 280.918 176.083   5
   8   1 -10-398.559 354.044   9
   8   1 -10 408.323 294.345  18
   8   1  10 363.946 301.587   8
   8  -1  10 352.707 300.410   8
   8  -1 -10 57.4738 120.097   1
  -8  -1  10 112.828 236.271  17
  -8   1  10-5.48710 164.529  17
  -8  -1  10 254.952 168.061   4
   8  -1  10 418.959 219.326  16
  -8  -1  10 358.473 182.080  16
  -8  -1  10 451.314 285.120   2
   8   1  10 175.815 70.0872  16
   8   1  10-225.053 427.167   6
   8  -1  10 426.578 287.874  14
  -1   8 -10 243.883 112.559   3
   8  -1  10 368.284 255.023   6
   8   1 -10 231.674 186.898  14
   8  -1 -11 313.054 199.333  14
  -8   1  11 610.741 314.478   2
   8   1 -11 675.246 355.360   1
  -1  -8  11 68.6329 143.241   6
   8   1 -11 529.854 385.912  11
   8   1 -11-571.378 529.185   9
  -8  -1  11 581.270 286.042   5
  -8   1 -11-150.701 109.483  19
  -8   1  11 610.306 264.053   5
   1   8 -11 149.923 310.778  18
   8   1 -11 451.778 315.655  18
   8   1  11 886.375 438.396   8
  -1  -8  11-261.989 312.509  17
   8  -1  11 551.884 275.149   8
  -8  -1  11 665.207 330.148  17
  -8   1  11 150.132 184.174  17
  -8  -1  11 762.017 276.139   4
   8  -1  11 926.544 384.568  16
  -8  -1  11 505.768 231.049  16
   8  -1 -11 226.628 187.273   1
   8   1  11 381.860 150.963  16
  -8  -1  11 841.908 376.983   2
   8  -1  11 799.489 449.473  14
   1   8 -11 578.036 271.841   3
   8  -1  11 943.985 389.023   6
  -1   8 -11 1030.68 425.736   3
   8   1 -11 395.696 237.000  14
   8  -1 -12 211.423 182.703  14
  -1   8 -12-102.390 395.044  13
   1   8 -12 413.024 330.607  13
  -8   1  12 331.412 293.132   2
   1  -8  12 71.8053 49.1738   6
  -1  -8  12 7.81017 107.809   6
   8   1 -12 192.757 209.124   1
   1   8 -12 221.626 362.870  18
  -1   8 -12 242.748 65.7826  12
   8   1 -12 265.903 213.728  11
  -1   8 -12 427.852 280.656  18
   8   1 -12-681.479 688.021   9
   8   1 -12 186.763 147.474  18
   8   1  12 654.531 446.031   8
   1  -8  12 125.491 255.498  17
  -1  -8  12 176.544 120.755  17
   8  -1  12 308.116 241.459   8
  -8  -1  12 488.306 304.687  17
  -8   1 -12-153.177 165.430  19
  -8  -1  12 370.010 202.412   4
   8  -1  12 531.221 280.825  16
  -8  -1  12 328.556 185.482  16
   8   1  12 264.093 172.048  16
  -8  -1  12 388.242 289.462   2
   8  -1  12 323.434 115.324   2
   8  -1  12 234.516 113.887  14
   8  -1 -12 221.868 240.114   1
   8  -1  12 194.496 231.478   6
  -8  -1  12 198.443 106.761   5
   1   8 -12 369.858 261.978   3
  -1   8 -12 473.795 309.129   3
   8   1 -12 164.454 133.774  14
  -1   8 -13 1409.03 672.940  13
   1   8 -13 1596.67 710.982  13
   1  -8  13 584.627 355.956   6
  -1  -8  13 219.298 172.039   6
  -1   8 -13 1424.70 411.577  12
   8   1 -13 669.669 337.268   1
   8   1 -13 505.834 334.368  11
   8  -1  13 1803.37 305.313   2
  -8   1 -13 236.184 299.650  19
   8   1 -13-1389.44 960.754   9
  -1   8 -13 1521.56 523.088  18
   1   8 -13 1461.28 644.759  18
  -8  -1  13 1534.98 379.886   4
   8   1  13 1520.69 635.449   8
   8   1 -13 1090.92 451.906  18
   1  -8  13 100.344 192.719  17
   8  -1  13 1614.80 581.210   8
  -1  -8  13 189.669 317.279  17
  -8  -1  13 1467.39 582.011  17
   8  -1  13 2065.16 678.268  16
  -8  -1  13 1230.87 375.658  16
   8   1  13 1272.81 582.088  16
   1   8 -13 1742.81 598.258   3
  -1   8 -13 1934.88 647.548   3
  -8  -1  13 1553.19 515.666   2
   8  -1  13 2087.77 684.443   6
  -8  -1  13 1426.60 435.335   5
   8   1 -13 675.111 281.433  14
   8   1 -14 64.0836 60.5054  14
   8  -1  14 184.453 113.571   2
   1   8 -14 137.898 154.111   3
  -1   8 -14 238.071 246.627   3
  -1   8 -14 330.901 370.953  13
   1   8 -14 345.234 388.590  13
  -1  -8  14-21.4225 138.284   6
   1  -8  14 5.25817 213.358   6
  -1   8 -14 73.7885 110.727  12
   1   8 -14-59.0619 217.804  12
   8   1 -14 119.367 151.827   1
   8   1 -14 106.942 128.625  11
  -8   1 -14 272.556 290.858  19
  -1   8 -14 169.317 215.464  18
   1   8 -14 169.058 241.945  18
  -8  -1  14 242.020 166.845   5
   8   1  14 31.1016 163.947   8
   8   1 -14 37.3369 84.1504  18
   8  -1  14 363.497 318.857   8
   1  -8  14-1.99812 160.672  17
  -1  -8  14 31.3422 151.402  17
  -8  -1  14 88.8938 152.012  17
  -8  -1  14 49.6151 47.7339   4
  -1   8 -14 94.2496 72.2535   4
   8  -1  14 231.745 241.577  16
  -8  -1  14 90.3733 87.3846  16
  -8  -1  14 172.236 220.823   2
   8  -1  14 218.187 187.538   6
   8   1 -15 375.574 192.823  14
   1   8 -15 1291.50 490.830   3
  -1   8 -15 1305.35 532.377   3
   1  -8  15 482.840 182.390  14
  -1   8 -15 1393.89 660.538  13
   1   8 -15 1197.18 515.435  13
  -1  -8  15 294.296 118.721   6
   1  -8  15 753.515 374.647   6
  -1   8 -15 1443.51 457.995  12
   1   8 -15 1202.40 363.918  12
  -8  -1  15 1513.68 494.594   5
   8   1 -15 372.554 330.633  11
   8   1 -15 583.232 355.836   1
  -8   1 -15-24.7487 144.404  19
  -1   8 -15 1533.79 513.867  18
   1   8 -15 1173.98 531.240  18
  -8  -1  15 1192.37 343.856   4
   8   1  15 983.739 563.593   8
   8   1 -15 701.184 370.351  18
   8  -1  15 1542.21 633.553   8
   1  -8  15 608.722 394.882  17
  -1  -8  15 846.437 403.065  17
  -8  -1  15 1169.53 512.463  17
   8  -1  15 1540.11 641.442  16
  -8  -1  15 991.782 360.850  16
  -8  -1  15 1363.44 532.038   2
   8  -1  15 1374.27 650.794   6
   8   1 -16 13.0752 38.9866  14
   1   8 -16-21.7661 30.0277   3
  -1   8 -16 217.902 238.570   3
  -1   8 -16 263.756 305.018  13
  -1  -8  16 12.9900 56.6881   6
   1   8 -16 59.7941 117.684  13
   1  -8  16-7.66212 91.6585   6
  -1   8 -16 85.2427 130.447  12
   1   8 -16 114.730 157.451  12
  -8   1 -16 87.2311 257.635  19
   8   1 -16 96.2832 209.331  11
  -8  -1  16 195.475 196.744   5
   8   1 -16 142.143 176.921   1
  -1   8 -16 62.0195 134.909  18
   1   8 -16 205.084 319.387  18
   8   1 -16 144.032 217.302  18
   8  -1  16-43.3434 152.961   8
   1  -8  16 33.1810 58.2017  17
  -1  -8  16 18.3049 160.594  17
  -8  -1  16 11.3685 109.664  17
   8  -1  16 442.927 485.880  16
  -8  -1  16 182.288 126.536   4
  -8  -1  16 30.6089 47.5085  16
  -8  -1  16 12.4249 62.8373   2
   8  -1  16-190.657 251.472   6
  -8   2   0 1504.92 393.366  12
   8   2   0 3752.39 896.840   1
  -8   2   0 2752.35 551.922   5
   8  -2   0 3338.34 646.225   1
  -8   2   0 2611.75 375.342   2
  -8   2   0 3558.02 651.901  19
  -8  -2   0 1057.29 461.558  19
   8   2   0 3368.84 703.954   8
   8   2   0 3756.08 719.389  18
  -8   2   0 3163.11 604.252   4
   8  -2   0 2924.71 601.658   8
  -8  -2   0 986.954 400.765  17
   8  -2   0 3311.54 535.390   6
   8   2   0 2717.00 770.012  14
   8  -2   0 2955.08 610.354  14
   8  -2   1 504.077 277.138  14
   8  -2  -1 520.083 250.051  14
  -8   2   1 422.706 165.990   2
   8  -2   1 631.670 234.206   6
   8  -2  -1 558.646 219.508   6
   8  -2   1 638.626 291.900   1
  -8   2  -1 338.342 178.932  12
  -8   2   1 565.293 252.395  19
  -8   2  -1 489.344 220.631   5
  -8  -2   1 574.813 404.094  19
  -8   2   1 484.616 229.914   5
  -8   2  -1 509.989 239.626  19
   8   2   1 909.589 363.074  18
   8   2  -1 745.626 259.492  18
  -8  -2   1-367.578 306.466   4
   8   2   1 635.964 335.999   8
  -8  -2  -1-135.805 166.793  17
   8   2  -1 536.874 290.311   8
   8   2   1 716.267 502.365   1
  -8  -2   1 365.580 339.897  17
  -8  -2  -1-10.8482 173.134  19
   8  -2  -1 402.985 218.232   1
   8  -2   1 724.641 313.251   8
   8  -2  -1 432.729 198.707   8
  -8   2  -1 329.528 179.317   4
  -8   2   1 478.101 228.721   4
   8   2  -1 1641.52 622.686   1
  -8   2  -1 490.163 152.107   2
   8   2   1 782.450 574.115  14
   8   2  -1 408.867 348.723  14
   8  -2  -2 850.748 308.769  14
  -8   2   2 1067.07 337.048  19
   8  -2  -2 766.967 259.148   6
   8   2   2 1556.30 780.678   1
  -8   2  -2 651.179 259.802  12
  -8   2   2 960.949 325.442   5
  -8  -2   2 1245.08 685.112   2
  -8  -2   2-185.208 183.963   5
   8  -2   2 1417.89 444.702   1
  -8   2  -2 1127.49 222.991   2
  -8   2   2 804.634 237.690   2
  -8  -2   2 1693.47 699.873  19
  -8   2  -2 1260.81 401.066  19
  -8   2  -2 895.936 331.496   5
  -8  -2  -2-143.714 269.506  19
   8   2   2 1414.06 449.983  18
   8  -2   2 1340.52 403.317   8
  -8   2   2 997.354 328.561   4
   8  -2  -2 997.864 335.301   8
  -8  -2   2 478.469 513.112   4
   8   2   2 1087.30 493.019   8
  -8  -2  -2 143.678 178.863  17
  -8   2  -2 841.975 315.004   4
   8  -2   2 1425.42 373.931   6
   8  -2   2 1436.21 446.851  14
   8   2   2 1166.32 674.067  14
   8  -2  -2 1085.94 391.583   1
  -8   2  -2 44.5421 105.829   3
   8  -2   3 133.515 140.604  14
  -8   2  -3 557.851 309.705   3
   8  -2  -3 794.791 301.381  14
   8  -2   3 190.385 180.013   6
  -8   2   3 91.5316 76.4773   2
  -8   2  -3 625.757 368.488  12
   8  -2  -3 171.700 133.113   6
   8  -2  -3 598.034 335.833   1
  -8   2   3 40.4482 59.7405  19
  -8   2  -3 412.603 362.624   5
  -8  -2  -3-333.124 498.051  19
   8   2   3 447.616 492.101   1
  -8   2   3 78.7246 104.535   5
   8   2   3 96.4265 91.0987  18
   8   2   3 176.319 200.322   8
  -8  -2  -3-20.1944 66.6595  17
  -8   2  -3 263.943 128.310   2
   8  -2   3 150.329 92.3010   1
   8  -2   3 167.835 103.698   8
  -8   2  -3 279.673 225.931   4
   8  -2  -3 121.342 129.070   8
  -8   2   3 73.0621 90.8337   4
  -8   2  -3 738.581 355.442  19
   8  -2  -4 56.6028 100.802  14
   8  -2   4 438.938 259.824   1
  -8   2  -4 184.554 203.515   3
   8  -2   4 386.061 178.248   6
  -8   2   4 211.078 129.163   2
  -8   2  -4 446.902 284.711  12
   8  -2  -4 24.3400 77.7180   6
  -8   2  -4 338.583 148.988  10
  -8   2  -4 466.121 259.701   5
  -8   2  -4 146.175 80.8165   2
  -8   2  -4 245.501 193.253  19
   8   2   4 543.085 272.515  18
   8  -2  -4 174.009 115.091   1
  -8   2   4 340.969 198.917   5
   8   2   4 1067.34 544.502   8
  -8  -2  -4 63.5626 218.181  17
   8  -2   4 373.088 221.363   8
  -8   2  -4 380.066 254.685   4
   8  -2  -4 34.4692 135.693   8
  -8   2   4 244.402 126.956   4
  -8   2   4 190.446 151.780  19
   8  -2   4 424.280 226.774  14
   8  -2  -5 355.620 213.281  14
   8  -2   5 555.746 235.836   6
   8   2  -5 745.773 313.023  13
  -8   2  -5 144.436 124.346   3
  -8   2  -5 201.802 221.723  12
  -8   2   5 274.826 167.572   2
   8   2  -5 1009.82 508.533   1
   8   2  -5 1400.63 639.315  11
   8  -2   5 623.266 256.970   1
  -8  -2   5 363.127 278.592   5
  -8   2  -5 432.053 231.693   5
  -8   2  -5 267.752 93.9588  10
   8   2  -5-651.832 239.444  10
   8   2  -5 1294.39 786.987   9
  -8   2   5 509.489 214.939   5
  -8   2   5 417.068 216.384  19
  -8   2  -5 159.895 182.248  19
   8   2  -5 1035.79 383.673   8
   8   2  -5 645.924 378.117  18
  -8  -2   5 312.434 363.757   2
   8   2   5 282.092 300.027   8
  -8  -2   5 182.735 228.526   4
  -8  -2   5 328.135 364.137  17
  -8   2  -5 388.283 297.147   4
   8  -2   5 463.060 255.680   8
  -8  -2   5 379.519 310.132  19
  -8   2   5 288.193 145.307   4
   8  -2  -5 357.645 225.596   1
   8   2  -5 627.842 461.592  14
   8  -2   5 484.897 230.098  14
   8  -2  -6 103.168 123.830  14
   8  -2   6 173.913 153.850   6
   8  -2   6 267.618 236.437   1
   8   2  -6 209.761 143.466  13
  -8   2  -6 36.9589 49.0361   3
  -8   2  -6 24.2465 50.5100  12
  -8   2   6-47.3120 114.231   2
   8  -2  -6 71.4855 91.7437   1
   8   2  -6 284.141 233.933   1
   8   2  -6-85.2783 152.580  11
  -8   2  -6-64.8914 178.100   5
  -8  -2   6 46.0361 102.931   5
  -8   2  -6 149.886 111.553  10
   8   2  -6-117.603 178.292  10
  -8   2  -6-21.9318 74.0753  19
   8   2  -6 305.884 267.934   9
  -8  -2   6 67.4436 64.8912  19
  -8   2   6 66.1392 26.0496   5
   8   2  -6 88.3520 88.9021  18
   8   2   6-62.6517 160.456   8
  -8  -2   6 117.596 154.110   4
  -8   2  -6 172.229 153.816   4
  -8  -2   6 15.8513 74.2797  17
   8  -2   6 212.817 164.100   8
   8   2  -6 30.8889 45.0655   8
   8  -2   6 222.305 156.948  16
   8   2  -6 39.5127 94.7242  14
  -8  -2   6 108.684 130.233   2
   8  -2   6 170.319 201.163  14
   8  -2  -7 390.657 197.915  14
   8  -2   7 867.368 335.826   6
   8   2  -7 1301.44 383.259  13
  -8   2  -7 501.790 290.793  12
  -8   2  -7 459.109 279.918   3
   8   2  -7 1315.83 462.082  11
  -8   2  -7 457.450 301.507   5
  -8   2  -7 524.529 319.565   4
  -8  -2   7 607.743 318.905   5
   8   2  -7 840.898 387.241   1
  -8   2  -7 250.453 87.9407  10
   8   2  -7 424.821 258.544  10
  -8   2  -7 317.035 200.615  19
  -8  -2   7 775.325 288.019  19
   8   2  -7 1036.87 461.224   9
  -8   2   7 610.387 250.832   5
   8  -2  -7 323.371 223.223   1
   8   2  -7 1029.22 295.886   8
   8   2  -7 1154.29 372.720  18
   8   2   7 416.455 337.363   8
  -8  -2   7 631.059 303.170   4
  -8  -2   7 837.179 372.986   2
   8  -2   7 1147.40 395.430   8
  -8  -2   7 528.851 303.403  17
  -8  -2   7 619.265 161.184  16
   8  -2   7 1141.88 394.713  16
  -8   2  -7 1151.07 581.884   7
  -8   2  -7 727.855 464.205  15
   8  -2   7 1295.65 482.383   1
   8   2  -7 679.725 328.755  14
   8  -2   7 1095.04 423.750  14
   8   2  -8 6.92547 15.8673   3
   8  -2   8-115.104 138.558   6
   8  -2  -8-28.6973 32.4691  14
  -8   2  -8 9.92785 78.9044  13
  -8   2  -8 128.665 197.190  12
  -8   2  -8 116.132 176.656   3
   8   2  -8 96.7309 181.023  11
  -8   2  -8-39.7478 200.555   5
  -8  -2   8 0.45004 72.3335   5
  -8   2  -8 130.686 117.596  10
   8   2  -8 139.366 158.649  10
   8   2  -8-47.1630 135.385   1
  -8   2  -8-28.5244 194.720  19
   8   2  -8 69.5943 106.387   9
  -8   2   8-87.8223 152.794   5
   8   2  -8-93.0634 91.4687  18
   8   2   8-112.758 176.097   8
  -8   2  -8 55.8333 211.079   4
   8  -2  -8 112.406 162.947   1
  -8  -2   8-22.3205 48.3724   4
   8  -2   8 67.2424 122.284   8
  -8  -2   8 69.7891 140.067   2
  -8  -2   8 160.281 161.440  17
   8   2  -8-22.4966 83.5445   8
   8  -2   8-60.4474 142.122   1
  -8  -2   8 41.9963 55.1382  16
   8  -2   8-26.2925 33.4349  16
  -8  -2   8-14.9767 92.3084  19
  -8   2  -8 164.041 301.872   7
  -8   2  -8 13.8426 184.283  15
   8   2  -8 53.8876 110.884  14
   8  -2   8-28.0566 47.6127  14
   8  -2   9 1330.37 472.465   6
  -8   2  -9 514.198 316.499   3
   8   2  -9 1127.57 456.561  11
  -8  -2   9 745.493 338.141   5
  -8   2  -9 152.528 122.365  10
   8   2  -9 234.624 193.514  10
  -8   2  -9 487.163 287.742  19
  -8  -2   9 823.958 296.782  19
   8   2  -9 799.589 469.041   9
   8   2  -9 821.746 383.802   1
   8   2  -9 919.814 384.108  18
   8   2   9 483.076 373.686   8
  -8   2  -9 246.574 145.469   4
   8  -2   9 792.415 408.090   1
   8  -2   9 1163.46 403.679   8
  -8  -2   9 715.297 299.840   4
  -8  -2   9 741.766 440.612  17
  -8  -2   9 594.601 330.902   2
  -8  -2   9 940.339 255.428  16
   8   2  -9 677.605 236.291   8
   8  -2   9 1314.18 431.806  16
  -8   2  -9 688.537 523.577   7
  -8   2  -9 444.811 379.310  15
   8   2  -9 853.748 176.321   3
   8  -2   9 1268.45 500.695  14
   8   2  -9 659.391 318.616  14
   8  -2  10 947.676 381.243   6
  -8   2 -10 43.5422 21.3717  13
   2  -8  10 2.08294 30.7793   6
  -8   2 -10 334.863 273.865  19
   8   2 -10 620.856 378.703  11
  -8  -2  10 382.099 218.813   5
  -8   2 -10 10.1771 89.5714  10
   8   2 -10-285.852 369.013  10
   8  -2  10 200.693 239.006   1
  -8  -2  10 469.848 220.994  19
   8   2 -10 13.7596 210.643   9
   2   8 -10 2.91162 303.360  18
   8   2 -10 611.920 348.294   1
   8   2 -10 514.277 288.996  18
   8   2  10 432.111 416.021   8
  -8   2 -10 132.686 30.4895   4
  -2  -8  10 168.910 211.729  17
   8  -2  10 689.235 347.191   8
  -8  -2  10 532.998 264.948   4
  -8  -2  10 434.250 286.929  17
  -8  -2  10 520.081 314.154   2
  -8  -2  10 413.471 158.771  16
   8  -2  10 643.417 317.828  16
  -8   2 -10 241.496 292.278   7
  -8   2 -10 135.619 222.574  15
   8   2 -10 604.793 170.527   3
  -2   8 -10 376.392 277.747   3
   8  -2  10 769.516 390.519  14
   8   2 -10 132.150 121.769  14
   8  -2  11 1134.72 431.451   6
   2   8 -11 506.249 306.331  13
  -8   2 -11 395.481 237.124  13
   2  -8  11 392.276 316.828   6
  -2  -8  11-3.92251 99.9449   6
  -2   8 -11 647.437 234.207  12
  -8   2 -11-366.925 315.486  10
   8   2 -11 953.954 457.634  11
  -8  -2  11 579.434 303.842   5
   8   2 -11-517.605 527.084  10
  -8   2 -11 61.9444 143.533  19
  -8  -2  11 574.625 239.204  19
   8   2 -11 617.372 389.075   9
   2   8 -11 476.694 360.557  18
   8   2 -11 702.716 377.406  18
   8   2 -11 838.874 396.954   1
  -2  -8  11 141.420 71.2756  17
   8  -2  11 1021.75 418.397   8
  -8  -2  11 887.570 460.633  17
  -8  -2  11 601.639 293.377   4
  -8  -2  11 849.070 381.813   2
   8  -2  11 1026.17 430.966  16
  -8  -2  11 757.156 271.470  16
  -8   2 -11 576.930 435.335   7
  -8   2 -11 750.517 533.217  15
   8  -2  11 942.760 454.628  14
   8   2 -11 387.062 244.607  14
  -2   8 -11 851.494 423.536   3
   2   8 -12 1762.73 750.391  13
  -2   8 -12 1449.76 433.525  12
   2  -8  12 560.020 322.588   6
  -2  -8  12 242.606 236.785   6
   8   2 -12 1239.69 527.221  11
  -8  -2  12 1486.27 484.083   5
  -8   2 -12-492.882 386.914  10
   8   2 -12-373.573 573.320  10
  -8   2 -12 330.501 244.908  19
  -8  -2  12 652.147 213.458  19
   8   2 -12 561.149 361.502   9
  -2   8 -12 1404.08 475.262  18
   2   8 -12 993.440 582.315  18
  -8  -2  12 1292.14 410.507   4
   8   2 -12 1571.70 554.018  18
  -2  -8  12 35.3021 87.3261  17
   8  -2  12 2045.23 596.366   8
   8   2 -12 1332.90 506.004   1
  -8  -2  12 1404.91 611.335  17
  -8  -2  12 1681.68 407.716  16
  -8  -2  12 1762.00 569.349   2
   8  -2  12 2277.83 629.275  16
  -8   2 -12 65.8025 168.482   7
   2   8 -12 1824.03 571.820   3
   8  -2  12 2193.21 672.617   6
  -8   2 -12-215.953 434.107  15
  -2   8 -12 2064.66 681.331   3
   8  -2  12 2393.27 722.053  14
   8   2 -12 487.831 279.807  14
  -2   8 -13 342.472 266.941   3
  -2   8 -13 42.6251 164.292  13
   2   8 -13 559.280 452.662  13
   2  -8  13 39.6324 46.5418   6
  -2  -8  13 69.2588 118.276   6
  -2   8 -13 382.897 244.261  12
   8   2 -13 148.101 109.739  11
  -8  -2  13 121.554 131.863   5
  -8   2 -13 75.1755 64.3722  19
   8   2 -13-60.9530 103.795   9
  -2   8 -13 445.308 288.225  18
   2   8 -13 380.868 414.410  18
   8   2 -13 172.903 195.794  18
   2  -8  13 22.4387 70.2668  17
  -2  -8  13 29.6531 227.091  17
   8  -2  13 506.605 252.008   8
  -8  -2  13 279.724 222.666  17
   8   2 -13 253.553 203.878   1
  -8  -2  13 319.293 168.505   4
  -8  -2  13 298.029 255.161   2
   8  -2  13 525.021 365.587  16
  -8   2 -13-1095.41 629.189   7
  -8  -2  13 282.863 190.357  16
  -2   8 -13 300.441 39.0913   4
  -8   2 -13-1048.33 611.771  15
   8  -2  13 418.692 293.657  14
   8   2 -13 308.808 212.938  14
   8  -2  13 584.338 435.375   6
   2   8 -13 477.065 314.845   3
   2  -8  14 592.735 232.547  14
  -2   8 -14 1456.61 701.289  13
   2   8 -14 2460.38 877.492  13
  -2  -8  14 461.763 227.944   6
   2  -8  14 699.587 455.949   6
  -2   8 -14 2234.85 570.275  12
  -8  -2  14 1603.77 529.330   5
   8   2 -14 1319.37 492.146  11
  -8   2 -14 226.779 142.427  19
   8   2 -14 472.026 397.548   9
  -2   8 -14 2251.95 595.797  18
  -8  -2  14 1647.96 414.314   4
   8  -2  14 2928.71 746.786   8
   2   8 -14 1514.68 721.086  18
  -2   8 -14 2867.41 480.936   4
   8   2 -14 1493.83 562.077  18
   2  -8  14 578.421 307.550  17
  -2  -8  14 280.206 348.189  17
  -8  -2  14 1778.49 642.247  17
   8  -2  14 2779.96 774.592  16
  -8  -2  14 1697.56 442.502  16
   8   2 -14 1461.05 545.172   1
  -8  -2  14 1522.92 564.173   2
   8  -2  14 2737.59 792.857   6
   2   8 -14 2194.78 643.115   3
  -2   8 -14 2464.39 764.544   3
   8  -2  14 2288.51 733.981  14
   8   2 -14 696.368 313.566  14
   2   8 -15 323.100 248.353   3
   2  -8  15 201.453 128.813  14
  -2   8 -15 343.334 277.885   3
  -2   8 -15 266.279 324.417  13
   2   8 -15 125.999 55.9771  13
  -2  -8  15 178.383 65.2473   6
   2  -8  15 416.532 388.828   6
  -2   8 -15 559.968 319.229  12
   8   2 -15 116.837 153.388  11
  -8   2 -15 221.126 193.014  19
  -8  -2  15 416.557 268.037   5
   8   2 -15 215.939 233.198   9
  -2   8 -15 635.523 341.763  18
   2   8 -15 69.6285 366.173  18
   8   2 -15 434.044 299.046  18
   2  -8  15 291.976 299.526  17
   8  -2  15 610.424 484.724   8
  -2  -8  15 27.4605 215.490  17
  -8  -2  15 625.504 387.641  17
  -8  -2  15 335.367 182.546   4
   8  -2  15 617.504 402.332  16
  -8  -2  15 356.111 223.313   2
  -8  -2  15 246.036 160.693  16
   8   2 -15 336.647 217.960   1
   8  -2  15 1127.96 685.187   6
   8   2 -15 173.043 217.959  14
   2   8 -16 893.777 393.707   3
  -2   8 -16 1172.83 520.782   3
  -2  -8  16 144.731 105.490   6
  -2   8 -16 724.862 517.156  13
   2   8 -16 1126.85 593.177  13
   2  -8  16 472.864 281.831   6
  -2   8 -16 1190.92 418.607  12
  -8   2 -16 243.003 223.870  19
   2   8 -16 802.341 266.814  12
   8   2 -16 388.269 331.635  11
  -2   8 -16 1339.33 431.336  18
   2   8 -16 1217.88 492.503  18
   8   2 -16 802.328 410.928  18
   8  -2  16 1369.22 495.050   8
   2  -8  16 815.048 408.960  17
  -2  -8  16 556.123 347.969  17
  -8  -2  16 958.767 504.173  17
  -8  -2  16 1077.17 339.171   4
   8  -2  16 1379.56 577.990  16
  -8  -2  16 810.971 315.868  16
  -8  -2  16 1023.73 470.404   2
  -8  -2  16 962.402 407.683   5
   8   2 -16 525.061 345.109   1
   8  -2  16 1630.75 693.116   6
   8   2 -16 142.284 105.564  14
   8  -3   0 432.270 243.512  14
   8  -3   0 161.157 110.310   6
   8  -3   0 252.837 152.940   1
  -8   3   0 311.944 192.273   5
   8   3   0 1190.56 443.293  18
   8   3   0 1187.07 670.396   1
   8   3   0 547.723 370.479   8
  -8  -3   0 169.347 252.639  17
  -8   3   0 388.564 212.601  19
   8  -3   0 237.658 160.959   8
  -8   3   0 313.840 183.558   4
  -8   3  -1 1876.22 474.408  12
   8   3   1 2958.37 929.403   1
   8   3  -1 4317.28 1067.59   1
  -8   3  -1 3328.47 595.802   5
  -8   3   1 3005.89 566.547   5
   8  -3   1 3399.87 648.385   1
   8  -3  -1 2335.05 535.779   1
  -8   3  -1 3909.16 675.889  19
  -8   3   1 3884.63 671.866  19
   8   3   1 3549.45 798.775  18
   8   3  -1 3869.86 775.529  18
   8   3   1 3450.79 807.444   8
   8   3  -1 3830.16 740.267   8
  -8   3  -1 3680.23 666.360   4
   8  -3   1 3262.73 637.484   8
  -8   3   1 3181.00 576.946   4
   8  -3  -1 2374.18 529.317   8
  -8  -3  -1-28.1950 177.827  17
  -8  -3   1 443.142 328.468  17
   8  -3   1 3289.75 588.040   6
   8  -3  -1 1853.35 423.595   6
   8  -3   1 3309.09 632.239  14
   8  -3  -1 2524.95 545.370  14
   8  -3   2-56.0344 152.294  14
   8  -3  -2 5.58494 53.3128  14
   8  -3   2 86.8624 127.406   6
  -8   3  -2-68.3038 81.4891   2
   8  -3  -2 75.2877 95.0015   6
  -8   3  -2 5.17480 47.2251  12
   8  -3  -2-18.4411 134.799   1
  -8  -3   2 55.6498 453.777  19
   8   3  -2 584.408 436.291  18
  -8   3  -2 0.36648 25.0659   5
  -8   3  -2-5.91107 73.0871  19
  -8   3   2-67.2693 142.357  19
  -8   3   2-57.2154 90.1338   5
   8   3   2-209.290 335.796  18
   8   3   2 0.41296 146.191   8
  -8  -3  -2-169.189 260.781  17
   8   3  -2 801.964 405.385   8
  -8  -3   2 475.528 502.097  17
   8   3  -2 824.480 623.179   1
   8  -3   2-77.3653 142.550   8
   8  -3  -2-116.206 204.417   8
  -8   3  -2-3.71492 39.9330   4
  -8   3   2-56.8084 164.165   4
   8  -3   2 22.1754 65.4878   1
   8  -3  -3 771.873 280.221  14
  -8  -3   3 776.007 460.483  17
  -8   3  -3 1154.93 366.712  12
  -8   3  -3 1288.14 382.568   5
  -8   3   3 1047.98 336.700   5
   8  -3   3 1762.97 454.871   1
  -8   3  -3 1082.53 185.900   2
  -8  -3   3-675.673 456.182   2
  -8  -3   3 713.928 509.810  19
   8   3  -3 2146.77 632.676  18
   8   3  -3 2139.76 501.104   8
  -8   3  -3 1558.28 446.022   4
   8  -3   3 1442.11 428.794   8
   8   3   3 789.694 417.794   8
   8  -3  -3 721.421 294.021   1
  -8   3   3 1429.76 397.514  19
   8   3  -3 2015.02 702.440   1
   8  -3   3 1442.43 387.429   6
  -8   3  -3 1671.63 453.535  19
   8  -3   3 1421.17 420.331  14
  -8   3  -4 107.304 82.8909   3
   8  -3   4 262.756 188.569  14
   8  -3  -4 92.5210 116.558  14
   8  -3   4 247.307 151.783   1
   8   3  -4 141.831 130.110  13
   8  -3   4 248.002 185.451   6
  -8  -3   4 155.959 80.1357  12
  -8   3  -4 179.411 169.258  12
   8  -3  -4 159.088 182.253   1
  -8   3  -4 121.574 123.822   5
  -8  -3   4 123.799 168.629  19
  -8  -3   4-252.645 223.240   2
  -8   3  -4 251.944 147.639  19
  -8   3   4 35.4859 75.0639   5
   8   3  -4 297.359 200.783  18
   8   3   4 247.045 223.919   8
   8   3  -4 292.625 155.791   8
  -8  -3   4 116.817 199.889  17
   8  -3   4 271.453 210.096   8
  -8   3  -4 256.236 200.005   4
   8   3  -4 25.6678 25.1856   1
   8   3  -4 65.7334 98.6606  14
  -8   3  -4 116.521 53.4844   2
   8  -3   5 80.1949 80.7196  14
  -8   3  -5 38.1628 25.6991   3
   8   3  -5-53.4097 103.152  13
   8  -3   5 36.5746 47.6039   6
  -8   3  -5 146.224 196.143  12
  -8  -3   5-110.258 185.120   5
  -8   3  -5 138.609 215.851   5
  -8  -3   5-51.4052 114.546  19
  -8   3  -5 81.4154 134.733  19
  -8  -3   5-30.6410 75.7011   2
   8   3  -5-21.3666 106.756  18
   8   3   5-62.4816 235.537   8
  -8  -3   5 10.4353 93.7191  17
   8   3  -5 50.0526 88.2230   8
   8  -3   5-13.5550 94.0936   8
  -8   3  -5 256.860 263.170   4
   8  -3   5 28.6868 100.758   1
   8   3  -5 144.520 143.182   1
   8   3  -5 75.3903 167.883  14
   8  -3   6 218.828 181.706  14
  -8  -3   6 75.2769 120.745  19
  -8   3  -6 181.490 195.072   3
   8  -3   6 271.492 217.805   6
   8   3  -6 277.137 172.262  13
  -8   3  -6 266.141 232.407  12
   8   3  -6 767.142 370.942  11
  -8  -3   6 105.738 158.251   5
  -8   3  -6 219.014 181.794   5
   8   3   6 3.78793 194.078   8
   8  -3   6 296.647 215.445   1
  -8  -3   6 234.981 246.096   2
   8   3  -6 179.786 213.709  18
  -8  -3   6 42.1043 147.934   4
  -8  -3   6 141.252 104.501  17
   8   3  -6 386.523 189.238   8
  -8   3  -6 122.758 193.817  19
   8  -3   6 203.324 153.279   8
  -8   3  -6 214.800 220.866   4
   8   3  -6 147.590 155.385  14
   8   3  -6 255.774 247.915   1
   8   3  -7 220.017 225.086   1
   8  -3   7-35.2471 59.5570   6
   8   3  -7 83.0496 65.1640  13
  -8   3  -7 53.4454 177.804   3
  -8   3  -7 0.65320 86.3696  12
   8   3  -7 166.457 199.234  11
  -8  -3   7-22.8800 117.897   5
   8  -3   7-75.8456 146.603   1
  -8   3  -7 110.842 147.370   5
   8   3  -7 34.0663 100.250  10
  -8  -3   7 31.4524 66.0076  19
  -8   3  -7 9.44848 72.9124  19
   8   3  -7 169.907 228.046  18
  -8  -3   7 77.6015 168.341   2
  -8  -3   7-121.586 238.307   4
  -8  -3   7-29.4673 119.757  17
  -8   3  -7-43.6278 93.3779   4
   8   3  -7 14.6944 22.0654   8
   8  -3   7 57.1197 96.0323   8
   8  -3   7-245.632 385.073  16
   8   3  -7 44.5630 159.438  14
   8  -3   7-115.781 155.730  14
   8  -3   8 1343.53 455.278   6
   8  -3   8 1648.34 470.445   1
   8   3  -8 1522.10 578.020   1
   8   3  -8 1306.84 399.992  13
  -8   3  -8 635.611 330.221   3
  -8   3  -8 792.216 304.839  12
   8   3  -8 1908.56 621.335  11
  -8  -3   8 622.283 309.954   5
  -8   3  -8 978.600 378.089   5
  -8   3  -8 1268.92 342.194  10
   8   3  -8 1236.66 481.328  10
  -8   3  -8 1492.29 324.254   9
  -8  -3   8 843.771 328.072  19
  -8   3  -8 1100.78 380.336  19
   8   3  -8 1273.31 319.016   8
   8   3  -8 1341.73 514.777  18
  -8  -3   8 1115.77 470.217   2
  -8  -3   8 347.558 175.830   4
  -8   3  -8 972.932 436.212   4
  -8  -3   8 492.681 438.049  17
   8  -3   8 1295.15 439.089   8
   8  -3   8 1049.11 405.362  16
   8   3  -8 404.010 307.921  14
   8  -3   8 1399.80 467.240  14
   8  -3   9 264.043 228.357   6
  -8   3  -9-168.144 230.731  13
   8   3  -9 291.760 187.587  13
   8   3  -9 93.9478 193.735   1
  -8   3  -9 211.403 262.059  12
  -8   3  -9 48.1920 220.429   3
  -8   3  -9 124.559 127.655  19
   8   3  -9 324.547 282.436  11
  -8   3  -9 326.172 277.779   5
  -8  -3   9 20.5113 102.263   5
  -8   3  -9 123.609 107.715  10
   8   3  -9 224.959 249.590  10
   8   3  -9 599.528 552.111   9
  -8  -3   9 202.333 149.484  19
   8   3  -9 100.433 82.1594  18
  -8  -3   9 37.6694 109.778   4
  -8  -3   9 252.134 212.398   2
  -8   3  -9 157.911 136.999   9
  -8   3  -9 34.7759 130.996   4
  -8  -3   9 227.304 325.449  17
   8  -3   9 267.193 198.722   8
   8   3  -9 239.948 133.156   8
  -8  -3   9-28.0238 109.583  16
   8  -3   9 187.059 211.255  16
   8  -3   9 199.802 143.673   1
  -8   3  -9 151.565 268.620  15
   8   3  -9 104.411 103.259  14
   8   3  -9 112.943 67.2156   3
   8  -3   9 196.559 196.188  14
   8   3 -10 367.437 139.154   3
   8  -3  10 781.880 370.447   6
  -8   3 -10 152.349 126.338  13
   8   3 -10 506.300 290.517  13
  -8   3 -10 111.605 170.189  12
   3  -8  10 55.7456 155.641   6
  -8   3 -10 162.223 184.925   3
   8   3 -10 403.020 285.948   1
   8   3 -10 501.056 281.662  11
  -8   3 -10 154.472 172.413   5
  -8  -3  10 262.061 272.426   5
  -8   3 -10 529.293 257.599  10
   8   3 -10 362.268 284.057  10
   8   3 -10 636.998 496.462   9
  -8  -3  10 198.256 121.585  19
  -8   3 -10 343.975 199.221   9
   3   8 -10 132.187 364.975  18
  -8   3 -10 393.137 275.036  19
   8   3 -10 455.212 279.526  18
  -8  -3  10 298.210 221.907   4
  -3  -8  10 130.598 321.839  17
  -8   3 -10 287.173 261.368   4
  -8  -3  10 335.887 266.789   2
   8  -3  10 462.263 271.864   1
  -8  -3  10 28.6363 100.066  17
   8  -3  10 502.919 288.413   8
   8   3 -10 390.309 174.384   8
  -8  -3  10 327.589 172.606  16
   8  -3  10 623.850 345.936  16
  -8   3 -10 759.872 575.189   7
  -8   3 -10 495.135 449.038  15
   8   3 -10 129.388 139.890  14
  -3   8 -10 370.514 240.145   3
   8  -3  10 816.986 364.651  14
   3   8 -11 1820.20 685.612  13
  -8   3 -11-140.212 169.532  13
  -3   8 -11 1713.81 485.606  12
  -8   3 -11 646.067 388.620  12
   3  -8  11 410.467 328.374   6
  -3  -8  11 121.826 192.027   6
  -8   3 -11 537.000 346.858   3
   8   3 -11 1884.66 617.543   1
   8   3 -11 2117.97 678.033  11
  -8  -3  11 1103.06 444.718   5
  -8   3 -11 1043.09 297.852  10
   8   3 -11 750.451 271.051  10
  -8  -3  11 1443.07 381.294  19
  -8   3 -11 853.038 349.265  19
   8   3 -11 2169.42 770.824   9
  -8   3 -11 736.967 261.057   9
   8  -3  11 823.264 401.930   1
   3   8 -11 1506.88 614.707  18
   8   3 -11 1965.23 631.281  18
  -8   3 -11 841.671 438.620   4
  -8  -3  11 863.126 331.182   4
  -3  -8  11-30.7534 85.4993  17
  -8  -3  11 1567.64 568.855   2
   8  -3  11 2106.82 527.905   8
  -8  -3  11 1069.33 580.525  17
  -8  -3  11 1409.31 357.993  16
   8  -3  11 2669.13 700.600  16
  -8   3 -11 1511.08 730.880   7
  -3   8 -11 1747.57 657.093   3
   8  -3  11 2218.10 637.315   6
  -8   3 -11 1375.46 626.234  15
   8   3 -11 1620.39 309.493   3
   8  -3  11 2522.91 681.227  14
   8   3 -11 338.618 246.601  14
  -3   8 -12 332.615 268.275   3
   8  -3  12 484.062 331.778   6
   3   8 -12 308.067 297.187  13
  -8   3 -12-143.614 24.7896  13
   8   3 -12 862.132 569.391   9
   8   3 -12 289.542 124.711   3
  -8   3 -12 465.380 374.469  12
   3  -8  12 74.1555 238.708   6
  -3  -8  12 108.768 175.805   6
  -3   8 -12 302.929 201.090  12
  -8   3 -12 396.207 387.948   3
   8   3 -12 265.090 194.610  11
   8   3 -12 321.411 247.819   1
  -8  -3  12 229.591 182.727   5
  -8   3 -12 25.9819 119.725  10
   8   3 -12 18.2919 226.113  10
  -8  -3  12 238.768 163.869  19
  -3   8 -12-3.89623 276.500  18
   3   8 -12 73.8540 334.976  18
   8   3 -12 414.354 300.937  18
  -8   3 -12 161.003 191.400   4
   3  -8  12 63.0483 65.0126  17
  -8  -3  12 195.577 166.555   4
  -3  -8  12 96.9959 143.656  17
  -8   3 -12 150.295 180.084  19
  -8  -3  12 309.987 243.908   2
   8  -3  12 546.849 336.898   8
  -8  -3  12 282.619 236.378  17
  -8  -3  12 357.430 207.440  16
   8  -3  12 674.049 438.275  16
  -8   3 -12 494.784 526.237   7
  -8   3 -12 506.675 481.499  15
   8   3 -12 157.603 193.744  14
   3   8 -12 9.63087 225.531   3
   8  -3  12 409.464 324.649  14
  -8   3 -12 330.916 267.571   9
   3  -8  13 625.789 254.115  14
   3   8 -13 3410.60 1031.49  13
  -8   3 -13 295.053 221.344  13
  -3  -8  13 272.584 204.572   6
   3  -8  13 886.466 405.940   6
  -3   8 -13 2816.34 655.240  12
  -8   3 -13 1377.69 586.751  12
  -8  -3  13 2039.98 637.723   5
   8   3 -13 3351.36 878.894  11
  -8   3 -13 892.162 472.590   3
   8   3 -13 2440.81 733.185   1
  -8  -3  13 2508.88 732.645   2
  -8   3 -13 808.832 288.511  10
  -8  -3  13 1383.10 342.668  19
   8   3 -13 1523.92 673.039  10
  -8   3 -13 1158.41 439.759  19
  -3   8 -13 2413.84 613.686  18
   3   8 -13 3134.48 920.652  18
  -8   3 -13 523.584 187.128   9
   8   3 -13 2964.35 765.642  18
  -8  -3  13 1931.71 511.281   4
   8  -3  13 3958.97 827.938   8
  -3   8 -13 3290.70 544.943   4
  -8  -3  13 2551.89 750.714  17
   3  -8  13 346.821 327.691  17
  -3  -8  13-112.057 345.732  17
  -8  -3  13 2523.14 542.015  16
   8  -3  13 4004.74 920.606  16
   8   3 -13 2326.59 866.078   9
  -8   3 -13 1802.29 813.332   7
   3   8 -13 2697.36 696.754   3
   8  -3  13 3693.35 859.512   6
  -8   3 -13 1535.63 742.366  15
  -3   8 -13 3134.48 851.150   3
   8  -3  13 3733.62 889.367  14
   8   3 -13 2862.73 443.521   3
   8   3 -13 568.578 335.493  14
   8  -3  14 93.5585 180.987   6
  -3   8 -14 395.695 352.590   3
   3  -8  14 140.860 108.955  14
  -3   8 -14 449.493 401.428  13
   3   8 -14 391.160 428.164  13
  -3  -8  14 205.247 197.537   6
  -8   3 -14-178.965 137.323  13
   3  -8  14 71.4326 143.340   6
   8   3 -14 324.303 183.004   3
  -3   8 -14 297.643 265.652  12
   8   3 -14-74.5874 148.281  10
   8   3 -14 167.607 139.720  11
  -8  -3  14 38.8470 106.510   5
   8   3 -14-66.2364 185.943   1
  -8   3 -14-192.069 235.333  10
  -8   3 -14 189.609 199.474  19
   8   3 -14 23.1413 276.957   9
  -8   3 -14-282.644 346.473   9
  -3   8 -14 364.792 249.635  18
   3   8 -14 287.706 150.954  18
   8   3 -14 201.852 182.227  18
   3  -8  14 131.753 85.5829  17
  -3  -8  14-124.322 149.143  17
  -8  -3  14 153.547 191.191   4
   8  -3  14 156.367 208.717   8
  -8  -3  14 218.460 251.662  17
  -8  -3  14 60.4725 62.2332   2
  -3   8 -14 343.818 202.527   4
  -8  -3  14 262.822 146.339  16
   8  -3  14 227.733 200.084  16
  -8   3 -14 49.7779 95.6990   7
  -8   3 -14-172.190 458.492  15
   8   3 -14 47.3093 138.507  14
   8  -3  14 245.520 95.6518  14
   3   8 -14 265.632 252.495   3
  -3   8 -15 1410.49 663.480  13
   3   8 -15 2517.64 878.763  13
  -3  -8  15 217.636 90.7569   6
   3  -8  15 500.288 374.797   6
  -8   3 -15 216.694 207.400  13
  -3   8 -15 2247.96 604.785  12
  -8   3 -15 427.034 215.069  10
   8   3 -15 1785.59 635.002  11
  -8  -3  15 1615.26 543.305   5
   8   3 -15-153.259 536.332  10
   8   3 -15 1870.48 662.221   1
  -8   3 -15 222.196 198.076  19
  -3   8 -15 2303.33 538.920  18
  -8   3 -15-423.470 483.972   9
  -3   8 -15 2998.44 593.467   4
   8  -3  15 3201.58 746.026   8
   8   3 -15 2069.35 667.468  18
   3  -8  15 1276.37 493.423  17
  -3  -8  15 258.409 151.130  17
  -8  -3  15 1581.07 437.497   4
  -8  -3  15 2025.98 695.633  17
  -8  -3  15 2047.86 663.800   2
  -8  -3  15 1853.67 479.693  16
   3   8 -15 1609.14 752.031  18
   8  -3  15 2696.33 785.183  16
  -8   3 -15 485.486 133.434   7
  -8   3 -15 384.938 496.906  15
   3   8 -15 2102.29 643.494   3
  -3   8 -15 2275.88 735.398   3
   3  -8  15 1447.65 379.741  14
   8   3 -15 531.845 113.932   9
   8  -3  15 2561.55 805.317  14
   8   3 -15 49.5411 138.473  14
   8  -3  15 2597.81 741.312   6
   3  -8  16 306.771 208.059  14
   3   8 -16 206.571 235.029   3
  -3   8 -16 174.243 198.147   3
  -3  -8  16 57.4847 238.341   6
  -3   8 -16 442.040 355.433  13
   3   8 -16 194.480 77.4530  13
   3  -8  16 27.3785 187.530   6
  -3   8 -16 185.428 134.907  12
   8   3 -16 157.808 12.8487  11
  -8  -3  16 362.022 342.153   5
  -8   3 -16-467.572 371.735  10
   8   3 -16-370.273 578.128  10
  -8   3 -16 76.4963 169.364  19
   8   3 -16 429.579 395.016   9
  -3   8 -16 455.368 226.137  18
   3   8 -16 473.058 328.999  18
   8   3 -16 224.065 277.078  18
   3  -8  16 342.986 274.476  17
  -3  -8  16-127.328 177.812  17
  -8  -3  16 164.513 185.308   4
   8  -3  16 307.491 299.437   8
  -8  -3  16 248.825 225.068  17
  -8  -3  16-8.86298 209.966   2
   8  -3  16 329.983 262.861  16
  -8  -3  16 297.803 179.106  16
  -8   3 -16-412.406 633.711  15
   8  -3  16 491.326 368.322  14
   8  -3  16 247.750 291.747   6
  -8   4   0 2939.05 544.511   5
   8  -4   0 1790.10 464.072   1
  -8   4   0 3906.04 687.004  19
   8   4   0 3476.68 763.642  18
   8   4   0 2522.93 661.549   8
  -8   4   0 3121.94 573.115   4
   8  -4   0 1417.50 386.878   8
  -8  -4   0 137.303 220.730  17
   8  -4   0 1273.41 384.902   6
   8  -4   0 1627.64 436.383  14
   8  -4   1 28.6967 113.658  14
   8  -4  -1 6.44922 125.187  14
   8  -4   1 53.0348 55.3351   6
   8  -4   1-32.5660 88.4391   1
  -8   4  -1-33.5322 120.067  19
  -8   4   1-119.717 223.642  19
  -8   4  -1 34.9277 80.7772   5
  -8   4   1-136.947 190.319   5
   8   4  -1 242.835 367.531  18
   8   4   1-80.4877 200.337   8
   8   4  -1 324.381 309.828   8
  -8  -4   1-126.181 83.6270  17
   8  -4   1 35.1770 37.5137   8
  -8   4  -1-89.0707 144.905   4
  -8   4  -2 1575.16 455.326  12
  -8   4  -2 2810.23 537.983   5
   8  -4   2 2005.78 486.145   1
  -8   4  -2 3114.85 623.224  19
   8   4  -2 3245.46 783.531  18
   8   4  -2 2405.65 590.095   8
  -8   4  -2 2805.91 569.169   4
   8  -4   2 2186.79 531.171   8
   8   4   2 849.301 379.290   8
  -8  -4   2 54.0582 205.884  17
   8   4  -2 2488.40 840.521   1
   8  -4   2 1698.12 463.334   6
   8  -4   2 1870.26 485.379  14
   8  -4   3-56.5018 78.5497  14
   8  -4   3-97.8874 87.4222   6
  -8   4  -3-14.5213 53.8142  12
   8  -4   3-45.7610 96.2110   1
  -8  -4   3 13.4857 147.787  19
  -8   4  -3 69.7285 94.5178   5
  -8   4  -3-78.4440 133.728  19
   8   4  -3 465.267 362.823  18
   8   4  -3 1233.78 831.721   1
   8   4  -3 1129.18 430.861   8
  -8  -4   3-133.449 282.788  17
   8  -4   3 2.72753 104.746   8
  -8   4  -3-34.4997 55.7176   4
   8  -4   4 429.865 224.212  14
   8  -4   4 319.995 233.908   6
  -8   4  -4 368.956 234.770  12
  -8  -4   4 118.952 174.174  19
  -8   4  -4 433.784 227.813   5
  -8   4  -4 413.209 224.987  19
   8   4  -4 712.831 376.024  18
   8   4  -4 418.254 368.222   1
   8   4  -4 603.233 282.934   8
  -8  -4   4 6.94161 112.668  17
   8  -4   4 396.695 214.452   8
  -8   4  -4 286.674 168.280   4
   8  -4   4 353.117 200.430   1
  -8   4  -4-63.8849 296.971   3
   8  -4   5-66.2367 162.860  14
   8   4  -5-59.3508 175.013  13
   8  -4   5-110.312 133.604   6
  -8   4  -5 11.2654 85.7224  12
  -8  -4   5-236.422 353.020   2
  -8  -4   5 51.7892 76.8749  19
   8  -4   5 35.1185 89.7984   1
   8   4  -5 12.5077 77.6107  18
  -8   4  -5-55.1439 41.3155  19
   8   4  -5 12.1535 46.0080   8
  -8  -4   5-45.8137 140.964  17
   8   4  -5 54.2563 104.254   1
   8  -4   5-26.5679 75.6556   8
  -8   4  -5-77.3092 105.277   4
  -8   4  -5 20.1917 52.3611   3
  -8   4  -5-62.4282 130.032   5
   8  -4   6 67.4949 145.194  14
  -8   4  -6-47.6730 96.7355   3
   8   4  -6 35.2458 139.209  13
   8  -4   6-52.1891 139.283   1
   8  -4   6 29.8741 120.929   6
  -8   4  -6 13.2018 64.5935  12
  -8  -4   6-128.740 293.626   2
  -8  -4   6 78.5348 49.7809  19
  -8   4  -6 60.8445 142.744   5
  -8   4  -6 76.4438 64.7017  19
   8   4  -6-35.8683 133.914  18
   8   4  -6-20.8024 67.6441   8
  -8  -4   6-185.844 30.5365  17
   8   4  -6 73.6936 180.968   1
   8  -4   6 51.3196 97.1064   8
  -8   4  -6-42.2660 118.501   4
   8  -4   7 294.701 230.312  14
  -8   4  -7 151.652 149.624   3
   8   4  -7 167.187 132.607  13
   8  -4   7 251.989 193.877   6
  -8   4  -7 274.879 238.450  12
  -8   4  -7 169.831 152.427   5
  -8  -4   7 61.4345 61.4424  19
   8   4  -7 244.336 253.645  18
  -8   4  -7 59.9556 65.8727  19
  -8  -4   7 81.5395 158.829   2
  -8  -4   7 67.3724 152.908  17
   8  -4   7 245.871 192.715   8
  -8   4  -7 42.8352 60.6686   4
   8  -4   7 50.6842 32.8637   1
   8   4  -7 205.694 243.903   1
   8   4  -7 212.157 137.626   8
   8  -4   8 19.7569 42.8339  14
  -8   4  -8-32.2074 137.735   3
   8   4  -8 180.354 221.443  13
   8  -4   8-131.642 186.021   6
  -8   4  -8 16.3195 18.5650  12
  -8  -4   8 37.4944 135.611  19
  -8   4  -8-1.69786 32.0777   5
  -8   4  -8-6.42262 81.6877  19
   8  -4   8 106.205 155.965   1
  -8  -4   8 179.455 215.674   2
   8   4  -8-34.0484 124.438  18
  -8  -4   8 183.463 273.969  17
   8   4  -8 15.8503 61.2751   8
  -8   4  -8 91.5481 107.842   4
   8  -4   8-25.8051 80.9173   8
   8   4  -8-9.01692 4.27297   1
   8  -4   9 115.704 179.301   6
   8   4  -9 276.226 262.556  13
  -8   4  -9-6.01452 54.5322   3
  -8   4  -9 22.3760 69.3870  12
   8  -4   9 31.2002 117.388   1
   8   4  -9 18.9911 40.4714  11
  -8   4  -9 105.219 141.183   5
  -8  -4   9 181.182 162.992  19
  -8   4  -9 123.237 134.828  19
  -8  -4   9 139.440 127.296   2
   8   4  -9 6.31107 79.2510  18
  -4  -8   9-100.637 338.566  17
  -8  -4   9 288.050 271.143  17
  -8   4  -9 58.2982 63.9027   4
   8   4  -9 108.738 115.136   8
   8  -4   9 85.5435 113.906   8
   8  -4   9-313.130 452.710  16
   8   4  -9 72.0546 152.460   1
   8  -4   9 204.856 204.276  14
   8  -4  10 1045.99 458.466   6
   8   4 -10 1285.85 452.102  13
  -8   4 -10 558.682 310.876   3
  -8   4 -10 258.580 167.471  12
   4  -8  10 122.722 89.8161   6
  -4   8 -10 783.516 303.776  12
   8   4 -10 1072.35 508.773  11
  -8  -4  10 46.4374 235.250   5
  -8   4 -10 565.880 278.108   5
  -8   4 -10 1102.16 357.525  10
   8   4 -10 1067.07 507.642  10
  -8  -4  10 476.150 285.884  19
  -8   4 -10 547.627 292.094  19
   4   8 -10 899.089 545.941  18
  -8  -4  10 525.188 414.859   2
   8   4 -10 945.857 456.169  18
  -4  -8  10 314.661 363.542  17
  -8   4 -10 527.467 265.778   4
  -8  -4  10 386.585 381.979  17
   8  -4  10 937.001 362.570   8
   8   4 -10 849.307 246.727   8
   8  -4  10 704.013 373.948  16
   8   4 -10 864.670 409.377   1
   8   4 -10 85.7443 120.039   3
  -4   8 -10 762.424 390.005   3
   8  -4  10 1032.79 373.853   1
   8  -4  10 868.844 354.526  14
   8  -4  11 158.620 250.318   6
   4   8 -11-177.848 413.164  13
  -8   4 -11 106.596 165.681  13
   8   4 -11-157.803 186.237  13
  -8   4 -11-4.09724 139.953   3
   4  -8  11-12.8940 148.861   6
  -8   4 -11 67.0014 65.8125  12
  -4  -8  11 38.4287 81.2435   6
  -4   8 -11 6.66629 56.1327  12
   8   4 -11 111.463 100.822  11
  -8  -4  11-17.2682 173.114   5
  -8   4 -11 103.322 125.770   5
  -8   4 -11 123.936 102.302  10
   8   4 -11 178.478 286.329  10
  -8   4 -11-11.5207 6.93419  19
  -8  -4  11 31.1162 84.4460  19
   4   8 -11 33.0513 153.739  18
   8   4 -11 159.479 214.074  18
  -8  -4  11 80.0931 184.022   2
  -4  -8  11 239.606 323.638  17
  -8   4 -11 148.285 152.403   4
  -8  -4  11 79.8839 147.313  17
   8  -4  11 82.0685 135.517   8
   8  -4  11 80.4006 171.305   1
   8   4 -11 106.782 105.493   8
  -8  -4  11-179.739 206.567  16
   8  -4  11 185.084 224.483  16
  -8   4 -11 383.796 272.088   9
   8   4 -11 42.6393 60.9622   1
  -4   8 -11-19.1951 185.264   3
   8  -4  11 63.7048 125.309  14
   8   4 -11 68.7923 75.4866   3
   8   4 -12 1992.65 677.284   1
   4   8 -12 2817.86 914.258  13
   8   4 -12 2513.29 654.036  13
  -8   4 -12 334.191 355.212  13
  -4   8 -12 2427.62 628.393  12
   4  -8  12 486.452 384.990   6
  -4  -8  12 205.309 145.725   6
  -8   4 -12 1118.77 484.163   3
  -8   4 -12 1157.96 490.864  12
   8   4 -12 3381.09 942.744  11
  -8  -4  12 1134.89 465.884   5
  -8   4 -12 2065.53 515.980  10
   8   4 -12 2512.22 775.809  10
  -8  -4  12 1542.91 369.888  19
   8   4 -12 3835.70 1181.43   9
  -8   4 -12 2141.91 521.980   9
  -8   4 -12 1192.49 421.669  19
   4   8 -12 1795.66 884.019  18
  -8  -4  12 1603.53 604.812   2
   8   4 -12 2836.47 750.770  18
  -4   8 -12 1332.39 347.727  18
   8  -4  12 979.555 403.851   1
   8  -4  12 2865.96 671.009   8
  -4   8 -12 2578.76 524.905   4
   4  -8  12-123.043 225.624  17
  -8   4 -12 1251.26 510.949   4
  -4  -8  12 290.969 367.660  17
  -8  -4  12 1453.30 572.926  17
  -8  -4  12 1670.62 439.516  16
   8  -4  12 2682.87 741.468  16
  -8   4 -12 2993.02 1012.79   7
   8  -4  12 2891.06 751.348   6
  -4   8 -12 2553.80 792.596   3
   8   4 -12 2066.66 393.167   3
  -8   4 -12 2190.16 840.481  15
   8  -4  12 3252.25 777.183  14
  -4   8 -13-20.9559 160.934   3
   8  -4  13-117.264 82.7443   6
   4  -8  13 56.1817 37.9498  14
   8   4 -13-149.337 107.122   1
   8   4 -13-39.2277 71.3853   3
   4   8 -13 13.0425 52.7139  13
  -8   4 -13-4.30044 69.5866  13
   8   4 -13 73.9587 50.8957  13
  -4  -8  13 94.6551 113.882   6
   4  -8  13-161.670 182.637   6
  -8   4 -13-116.097 148.024  12
  -8   4 -13 77.6432 67.5740   3
  -4   8 -13-51.3447 99.6096  12
   8   4 -13 244.891 264.173  11
  -8  -4  13-133.374 206.124   5
  -8   4 -13 143.248 223.422  10
   8   4 -13-189.586 241.990  10
   8   4 -13 803.080 629.272   9
  -8  -4  13-81.5709 109.213  19
  -4   8 -13 89.6364 177.847  18
   4   8 -13 37.3812 166.555  18
  -8   4 -13 280.840 298.721   9
   8   4 -13 107.984 135.717  18
  -8   4 -13-133.307 236.977   4
  -8  -4  13-199.099 307.473   2
   4  -8  13 53.9659 68.4546  17
  -4  -8  13 233.391 383.884  17
  -8  -4  13 67.6027 135.319  17
   8  -4  13-217.243 216.400   8
  -8  -4  13-51.0924 121.597  16
   8  -4  13 226.148 273.334  16
  -4   8 -13 9.21459 24.2866   4
  -8   4 -13 646.808 624.351   7
  -8   4 -13-114.271 178.861  15
   4   8 -13-219.863 333.771   3
   8  -4  13 3.23684 100.499  14
  -8   4 -13-45.5318 121.717  19
   4   8 -14 3734.07 1043.28  13
   8   4 -14 3668.01 778.718  13
  -4   8 -14 530.102 269.817  13
   8   4 -14 2442.10 782.496   1
  -8   4 -14 1151.39 483.563  13
  -4  -8  14 257.562 154.950   6
   4  -8  14 818.904 492.340   6
  -4   8 -14 2997.32 724.829  12
  -8   4 -14 2061.87 736.806  12
  -8   4 -14 1629.33 610.787   3
   8   4 -14 3589.28 974.270  11
  -8  -4  14 2912.71 867.961   2
  -8  -4  14 1790.45 599.793   5
  -8   4 -14 2564.73 684.047  10
   8   4 -14 2897.26 851.752  10
  -8  -4  14 1163.97 310.261  19
  -8   4 -14 1973.48 559.284  19
  -8   4 -14 1895.74 555.272   9
  -4   8 -14 2718.39 571.697  18
   4   8 -14 3153.36 877.178  18
   8   4 -14 3193.72 850.428  18
  -4   8 -14 3991.30 709.528   4
   8  -4  14 3484.13 748.416   8
  -8   4 -14 2037.76 788.917   4
  -8  -4  14 3197.85 911.024  17
   4  -8  14 1146.90 376.281  17
  -4  -8  14 611.759 383.299  17
   8   4 -14 4918.57 1345.40   9
  -8  -4  14 2745.95 619.295  16
   8  -4  14 4449.01 1063.10  16
  -8   4 -14 2426.68 1082.71   7
   4   8 -14 2819.25 695.798   3
   8  -4  14 4930.33 1042.94   6
  -8   4 -14 2751.31 1093.82  15
  -4   8 -14 2905.18 826.288   3
   8  -4  14 3776.79 921.430  14
   8   4 -14 2842.77 487.785   3
   4  -8  14 1552.55 406.092  14
   8  -4  15 49.6210 235.819   6
   4  -8  15 82.9826 84.2194  14
  -4   8 -15 91.0902 158.705   3
  -4   8 -15-54.5485 258.997  13
  -4  -8  15 65.1615 42.8633   6
   4   8 -15-82.9147 100.900  13
  -8   4 -15 74.8490 161.182  13
   4  -8  15-46.1681 164.293   6
   8   4 -15 137.787 224.810   1
   8   4 -15 218.852 242.105  13
   8   4 -15 142.504 124.557   3
  -8   4 -15 296.142 311.559  12
  -4   8 -15 40.2840 72.3027  12
  -8   4 -15 243.654 315.584   3
   8   4 -15-60.1471 268.179  11
  -8  -4  15 54.7054 35.1338   5
  -8   4 -15-171.970 247.437  10
   8   4 -15-215.781 410.756  10
  -8   4 -15 51.3928 133.852  19
   8   4 -15-197.016 72.9276   9
  -8   4 -15 76.5512 152.027   9
  -4   8 -15-23.9643 105.144  18
   4   8 -15 100.578 199.227  18
   8   4 -15 70.1205 143.837  18
  -8  -4  15-73.0379 131.988   2
   4  -8  15-24.6076 177.272  17
  -4  -8  15-129.312 293.315  17
   8  -4  15-2.60926 161.267   8
  -8  -4  15 72.7736 170.884  17
  -4   8 -15 14.3926 61.4374   4
  -8  -4  15-69.7098 127.430  16
   8  -4  15 150.938 133.746  16
  -8   4 -15 286.590 398.321   7
  -8   4 -15 591.863 612.880  15
   8  -4  15 21.6482 73.5620  14
   4   8 -15 38.5031 156.032   3
   8   5  -1 278.346 104.088   8
  -8  -5   1 4.84545 167.812  17
   8  -5   2 230.749 172.015  14
   8  -5   2 219.513 192.152   6
  -8   5  -2 447.797 194.440  19
  -8   5  -2 351.780 162.181   5
   8   5  -2 591.723 286.905  18
   8   5  -2 307.415 222.363   8
  -8  -5   2-18.0594 122.353  17
   8  -5   2 70.6503 173.106   8
  -8   5  -2 439.838 185.388   4
   8  -5   3 175.147 139.612  14
   8  -5   3 225.264 193.962   6
  -8   5  -3 483.895 221.842  19
  -8   5  -3 321.531 171.622   5
   8   5  -3 476.754 429.369  18
   8   5  -3 456.224 228.954   8
  -8  -5   3 94.4541 281.666  17
   8  -5   3 304.022 174.496   8
   8  -5   3 215.383 164.421   1
  -8   5  -3 358.647 182.394   4
   8  -5   4 258.459 173.194  14
  -8  -5   4-155.618 239.919  17
   8  -5   4 163.651 185.901   6
   8  -5   4 81.8143 43.8855   1
  -8   5  -4 221.180 118.401  12
  -8   5  -4 175.261 138.999   5
  -8   5  -4 274.652 186.430  19
   8   5  -4 510.444 348.760  18
   8   5  -4 116.552 166.373   8
   8  -5   4 103.206 101.392   8
  -8   5  -4 251.850 183.381   4
   8  -5   5-88.5004 104.405  14
   8  -5   5 24.3348 110.585   6
  -8   5  -5-2.74197 73.0589  12
   8   5  -5-168.318 173.135   1
  -8   5  -5 53.5759 105.897   5
  -8   5  -5 40.1753 49.9949  19
   8  -5   5 58.4341 120.207   1
   8   5  -5 37.6704 125.671  18
   8   5  -5 79.0867 87.6756   8
  -8  -5   5-292.229 288.935  17
   8  -5   5-75.1836 127.015   8
  -8   5  -5 42.7154 114.685   4
   8  -5   6 263.126 195.053  14
   8  -5   6 149.419 137.203   6
  -8   5  -6 101.222 126.808  12
  -8  -5   6 146.095 242.482  19
  -8   5  -6 277.246 176.537   5
  -8   5  -6 162.768 156.135  19
   8   5  -6 208.820 255.053   1
   8   5  -6 155.770 164.633  18
   8   5  -6 141.384 90.5095   8
  -8  -5   6-26.1407 288.285  17
   8  -5   6 102.498 112.851   8
  -8   5  -6 149.612 111.871   4
   8  -5   6 155.775 155.332   1
  -8   5  -6 16.9957 225.565   3
  -8   5  -7 75.1889 183.810   3
   8  -5   7 18.4822 62.1213  14
   8   5  -7 142.725 224.866  13
   8  -5   7 2.05631 79.0196   6
  -8   5  -7 108.117 99.2103  12
  -8   5  -7 163.643 132.476  19
  -8  -5   7-407.090 576.943   2
  -8  -5   7 83.2044 82.3756  19
  -8   5  -7 5.96295 121.238   5
   8  -5   7 123.053 129.598   1
   8   5  -7 127.850 172.846  18
   8   5  -7-95.0133 270.017   1
   8   5  -7 98.5787 92.5229   8
  -8  -5   7-69.5879 281.189  17
   8  -5   7 184.948 147.662   8
  -8   5  -7-35.5613 117.204   4
   8  -5   8-40.8687 82.9535  14
  -8   5  -8 47.5907 44.6862   3
   8  -5   8 61.3550 16.4198   1
   8   5  -8-22.6985 97.2526  13
   8  -5   8 142.799 179.768   6
  -8   5  -8 70.1255 82.5299  12
  -8   5  -8 20.6493 49.3311   5
  -8  -5   8-33.1154 172.647  19
  -8  -5   8-79.5463 323.731   2
  -8   5  -8 84.0724 140.013  19
  -5  -8   8 142.202 278.804  17
   8   5  -8 62.2026 120.232  18
   8   5  -8 9.53487 187.082   1
   8   5  -8 85.7357 125.532   8
  -8  -5   8-12.2581 176.510  17
   8  -5   8-30.7030 107.598   8
  -8   5  -8 19.1554 91.0013   4
   8  -5   9 38.6925 126.653  14
  -8   5  -9-6.50412 122.261   3
   8   5  -9 5.71316 126.232  13
   8  -5   9-123.024 153.703   6
   5  -8   9 184.414 296.520   6
  -8   5  -9 34.4450 139.997  12
  -8   5  -9 83.5482 149.187   5
  -8  -5   9-143.875 190.716  19
  -8  -5   9-190.041 235.089   2
  -8   5  -9 53.4231 121.034  19
   5   8  -9-88.8536 235.483  18
   8   5  -9-155.365 84.2845  18
  -5  -8   9 433.112 472.196  17
   8   5  -9-69.5873 89.8945   1
  -8  -5   9-127.238 173.948  17
   8   5  -9-27.8389 80.7718   8
   8  -5   9-107.789 117.254   1
  -8   5  -9 106.241 147.289   4
   8  -5   9 100.682 135.579   8
   8  -5  10 22.9214 91.1067  14
  -8   5 -10 76.5995 155.413   3
   8   5 -10 143.324 214.312  13
   8  -5  10 131.207 176.603   6
  -8  -5  10-22.9526 123.227   2
   5  -8  10 27.9368 138.281   6
  -8   5 -10 15.5191 71.1927  12
  -5   8 -10-19.3012 127.936  12
  -8   5 -10 80.8563 102.781   5
   8  -5  10 46.9643 131.659   1
  -8  -5  10 44.8310 124.784  19
  -8   5 -10-15.6302 52.3208  19
   5   8 -10 117.033 262.357  18
   8   5 -10-30.4685 179.279  18
  -5  -8  10 124.260 329.913  17
  -8  -5  10-288.003 422.020  17
   8   5 -10 88.6266 68.8254   8
   8   5 -10 265.047 309.167   1
  -8   5 -10 206.012 258.684   4
   8  -5  10 136.243 148.281   8
  -5   8 -10-93.3430 304.521   3
   5   8 -11 1221.61 541.753  13
   8  -5  11 1273.00 401.057   1
   8  -5  11 1491.79 527.332   6
  -8   5 -11 880.310 487.658   3
   8   5 -11 1410.38 522.449  13
  -5   8 -11 1156.46 464.174  12
   5  -8  11 576.206 422.580   6
  -5  -8  11 35.9455 100.694   6
  -8   5 -11 852.598 416.277  12
   8   5 -11 1502.42 633.627  11
  -8   5 -11 1158.55 421.760   5
  -8  -5  11 785.509 283.023  19
  -8   5 -11 1036.99 361.486  19
  -8  -5  11 969.971 520.526   2
   5   8 -11 1371.91 638.400  18
   8   5 -11 1430.21 310.358   8
   8   5 -11 1169.72 520.622  18
  -5  -8  11-214.896 187.366  17
  -8  -5  11 431.653 306.981  17
  -8   5 -11 1061.21 491.484   4
   8  -5  11 1492.31 488.553   8
   8   5 -11 1036.25 597.451   1
   8  -5  11 274.296 218.131  16
  -5   8 -11 1076.13 335.117   4
  -5   8 -11 1089.02 556.878   3
   8  -5  11 1290.73 451.281  14
  -5   8 -12 73.3375 202.523   3
   5  -8  12 124.159 124.554  14
  -8   5 -12-564.284 552.614  13
   8  -5  12 119.803 162.950   6
   5   8 -12 43.4779 129.591  13
   8   5 -12-85.3264 139.191  13
  -8   5 -12 101.198 39.0693   3
   5  -8  12 104.625 176.847   6
  -5  -8  12 41.8942 118.022   6
  -8   5 -12 140.879 171.666  12
  -5   8 -12 217.053 222.712  12
   8   5 -12-141.824 309.026  11
  -8   5 -12 64.5805 89.2529   5
   8   5 -12-147.188 270.621  10
  -8   5 -12 40.2471 52.2340  19
  -5   8 -12 10.3126 119.501   5
  -8  -5  12 48.7277 198.655   2
   5   8 -12 285.308 256.334  18
   8   5 -12 125.797 221.784  18
  -8  -5  12-124.666 134.555  19
  -5  -8  12-26.5919 215.188  17
  -8   5 -12-99.1992 214.936   4
  -8  -5  12 71.3565 237.513  17
   8  -5  12 186.614 161.470   8
   8  -5  12-253.550 369.353  16
   8   5 -12-49.9060 238.584   1
  -5   8 -12 118.081 76.0116   4
   8  -5  12 118.215 122.166   1
   8   5 -12-153.121 172.439   3
   8  -5  12 99.5383 171.017  14
  -5   8 -13 1254.09 563.911   3
   5  -8  13 672.791 278.892  14
   8   5 -13 3069.99 844.323  13
   8  -5  13 1646.95 571.494   6
  -8   5 -13 172.889 182.760  13
   5   8 -13 1740.29 688.566  13
  -5  -8  13 211.656 194.060   6
  -8   5 -13 613.034 301.827   3
   5  -8  13 694.032 374.878   6
  -8   5 -13 857.412 422.488  12
  -5   8 -13 1478.81 530.673  12
   8   5 -13 2744.27 899.616  11
  -8  -5  13 2723.85 1017.23   2
  -8   5 -13 750.088 343.910   5
  -8   5 -13 993.474 345.053  10
   8   5 -13 2088.75 734.910  10
  -8  -5  13 1653.32 464.742  19
  -8   5 -13 971.020 384.642  19
   8   5 -13 2914.93 815.051  18
   5   8 -13 2027.33 719.143  18
  -5   8 -13 1716.90 482.541   4
   8  -5  13 548.198 325.407   1
  -8  -5  13 3535.47 1090.20  17
   5  -8  13 588.962 300.953  17
  -8   5 -13 931.520 427.543   4
  -5  -8  13 31.2673 260.540  17
   8  -5  13 1571.35 506.980   8
  -8  -5  13 1432.73 469.031  16
   8  -5  13 1137.61 524.811  16
   8   5 -13 1921.98 744.366   1
   8  -5  13 1780.79 542.466  14
   8   5 -14-39.6828 106.157   3
   5  -8  14 20.8033 115.514  14
  -5   8 -14 141.689 151.502   3
   8  -5  14 30.9183 126.824   6
  -8   5 -14-307.637 326.974  13
   5   8 -14 158.788 171.443  13
  -5  -8  14-83.1674 168.025   6
   8   5 -14 158.150 186.135  13
   5  -8  14 369.536 346.883   6
  -8   5 -14-5.43925 165.478   3
  -8   5 -14-368.624 271.414  12
  -5   8 -14 172.039 195.012  12
   8   5 -14 262.671 330.821  11
  -8   5 -14-28.1857 60.9465  10
   8   5 -14 51.2876 89.8531  10
   8   5 -14 450.819 635.942   9
  -8   5 -14 375.839 330.876   9
  -8   5 -14 86.6323 145.218  19
  -8  -5  14 90.3750 111.789  19
   5   8 -14 344.734 281.107  18
  -8  -5  14 3.27836 196.398   2
   8   5 -14 68.0250 111.680  18
  -8   5 -14-45.1280 196.515   4
  -5  -8  14-228.130 219.135  17
  -8  -5  14-89.6291 242.442  17
   8  -5  14 51.4609 155.523   8
  -5   8 -14 103.269 178.393   4
  -8  -5  14-268.637 221.187  16
   8  -5  14 350.181 377.003  16
   8   5 -14 14.7339 207.004   1
  -8   5 -14 110.259 336.264   7
  -8   5 -14 39.9916 293.867  15
   5   8 -14-135.990 295.201   3
   8  -5  14 103.659 178.317  14
   8   6  -3 513.009 217.698  18
  -8  -6   3-115.845 90.6155  17
   8  -6   4 348.588 291.373   6
   8   6  -4-64.9528 258.890  18
   8   6  -4-398.732 354.914   8
  -8  -6   4 79.5582 281.578  17
   8  -6   4-227.625 343.653   8
  -8   6  -4-16.0425 131.033   4
   8  -6   5 388.731 244.717  14
   8  -6   5 365.880 258.160   6
  -8   6  -5 180.776 70.8084  12
  -8   6  -5 282.596 158.682  19
  -8   6  -5 383.315 187.695   5
   8   6  -5 749.076 488.706  18
   8   6  -5 321.497 223.173   8
  -8  -6   5 59.4567 361.177  17
   8  -6   5-61.5929 199.282   8
  -8   6  -5 389.135 188.843   4
   8  -6   6 228.772 180.359  14
   8  -6   6 262.788 213.962   6
  -8   6  -6 249.310 226.803  12
   8  -6   6 161.673 109.725   1
  -8   6  -6 485.906 218.180   5
  -8   6  -6 316.308 169.077  19
   8   6  -6 474.530 377.587  18
   8   6  -6 219.120 198.348   8
  -8  -6   6-148.195 214.660  17
   8  -6   6 144.231 130.392   8
  -8   6  -6 357.554 211.469   4
   8  -6   7 27.9349 32.0461  14
   8  -6   7 76.3442 125.336   6
  -8   6  -7 142.297 222.441  12
  -8   6  -7 153.203 136.658   5
  -8   6  -7 160.682 87.2218  19
   8   6  -7 263.103 272.379  18
   8  -6   7 131.070 102.765   1
   8   6  -7 143.182 142.009   8
  -8  -6   7 17.7756 304.896  17
   8  -6   7 174.100 154.067   8
  -8   6  -7 103.693 116.633   4
  -8   6  -7-142.908 286.393   3
   8  -6   8 391.077 238.242  14
   8   6  -8 512.492 271.968  13
  -8   6  -8 664.721 265.045   5
   8  -6   8 444.801 294.933   6
  -8   6  -8 350.755 250.165  12
  -8  -6   8 81.5989 77.6568  19
   8   6  -8 518.108 330.106   1
  -8   6  -8 534.662 263.954  19
   6   8  -8 414.274 259.717  18
   8   6  -8 677.780 361.886  18
   8   6  -8 599.797 271.652   8
  -6  -8   8 109.701 299.480  17
  -8  -6   8-136.020 206.707  17
   8  -6   8 594.486 309.265   8
  -8   6  -8 643.947 335.385   4
   8  -6   8 583.180 244.972   1
  -8   6  -8 171.100 192.679   3
  -8   6  -9 192.714 218.705   3
   8  -6   9 341.742 210.645  14
   8   6  -9 471.223 332.915  13
   8  -6   9 96.0139 74.1939   6
   6  -8   9 268.294 301.880   6
  -8   6  -9 298.037 229.141  12
  -6   8  -9 210.007 176.889  12
   8  -6   9 236.307 143.360   1
  -8   6  -9 250.639 164.328  19
  -8   6  -9 94.4034 98.2610   5
   8   6  -9 201.224 240.671   1
   6   8  -9 289.107 302.177  18
   8   6  -9 344.016 281.463  18
  -8  -6   9-76.1069 146.598  19
  -6  -8   9 38.6293 426.209  17
   8   6  -9 322.559 155.348   8
  -8  -6   9-5.65755 208.302  17
   8  -6   9 272.799 214.889   8
  -8   6  -9 370.303 242.257   4
   8  -6  10-35.4066 72.8185  14
  -8   6 -10 21.9826 67.1996   3
   8   6 -10 117.498 230.297  13
   8  -6  10-61.9119 86.5422   6
   6  -8  10-86.7475 195.045   6
  -8   6 -10-122.801 192.917  12
  -6   8 -10-22.8468 147.176  12
  -8  -6  10-411.910 512.599   2
  -8  -6  10 66.4092 130.218  19
  -8   6 -10 13.9748 78.7236  19
   8   6 -10-82.1404 399.530   1
   6   8 -10-2.09798 125.789  18
   8   6 -10-31.8459 118.020  18
  -6  -8  10-46.3828 244.014  17
  -8  -6  10 20.7869 218.632  17
   8   6 -10-0.04946 39.6693   8
  -8   6 -10-20.9613 76.0165   4
   8  -6  10 25.1625 130.014   8
  -6   8 -10-62.8729 167.918   4
   8  -6  10 70.7181 20.0210   1
  -8   6 -10 54.9326 127.491   5
  -6   8 -10-161.946 314.690   3
   8  -6  11 231.164 196.992  14
   6  -8  11 18.8953 119.993  14
  -8   6 -11 350.413 349.996   3
   6   8 -11-172.489 349.894  13
   8   6 -11 182.754 339.440  13
   8  -6  11 60.3568 136.152   6
   6  -8  11 79.2808 133.219   6
  -6  -8  11 31.6533 84.9765   6
  -8   6 -11 280.612 269.046  12
  -6   8 -11 128.643 200.093  12
  -8   6 -11 119.345 103.096   5
  -8  -6  11-1225.51 621.096   2
  -8  -6  11-193.960 202.180  19
  -8   6 -11 101.310 116.272  19
  -6   8 -11 19.5944 68.3640   5
   8  -6  11 188.272 143.716   1
   6   8 -11 432.708 401.608  18
   8   6 -11 582.220 750.871   1
   8   6 -11 314.720 333.121  18
  -6  -8  11-719.307 519.616  17
  -8  -6  11-272.887 300.500  17
  -8   6 -11 156.802 228.861   4
   8  -6  11 156.240 127.924   8
  -6   8 -11 226.897 161.653   4
  -6   8 -11 66.8348 166.952   3
   8  -6  12 272.129 207.711  14
   6  -8  12 206.085 201.287  14
  -8   6 -12 342.688 318.290   3
   6   8 -12 173.240 173.139  13
   8   6 -12 628.457 403.448  13
   8  -6  12 16.1517 177.011   6
  -6  -8  12 36.8514 56.5785   6
   6  -8  12-11.9078 63.1787   6
   8  -6  12 372.965 243.539   1
  -8   6 -12 157.324 207.827  12
  -6   8 -12 162.262 195.617  12
  -8   6 -12 464.671 304.975   5
  -8  -6  12-64.2362 339.036   2
  -8  -6  12 250.072 248.362  19
  -6   8 -12 344.844 174.180   5
  -8   6 -12 391.296 254.570  19
   6   8 -12 338.021 366.946  18
   8   6 -12 328.391 305.926  18
   8   6 -12 16.8386 142.318   1
  -6  -8  12-91.9928 227.844  17
  -8  -6  12 214.435 409.117  17
  -8   6 -12 475.952 364.438   4
   8  -6  12 252.994 212.978   8
  -6   8 -12 205.940 161.446   4
  -6   8 -12 323.883 379.769   3
  -6   8 -13 541.324 384.265   3
   6  -8  13 132.284 178.122  14
   6   8 -13 509.893 394.419  13
   8  -6  13 90.0082 241.925   6
  -8   6 -13 267.157 302.653   3
   8   6 -13 358.805 284.469  13
   6  -8  13 168.288 267.060   6
  -8   6 -13 267.818 275.703  12
  -6   8 -13 315.112 246.325  12
   8   6 -13 848.027 536.713  11
  -8   6 -13 344.331 267.841   5
  -8  -6  13 66.2585 54.9163  19
  -8  -6  13 272.736 222.814   2
   6   8 -13 624.182 429.672  18
   8   6 -13 525.984 337.764  18
   8   6 -13 628.290 501.009   1
  -6  -8  13 105.869 349.471  17
  -8  -6  13 184.716 330.624  17
  -8   6 -13 216.624 176.538   4
   8  -6  13 330.896 250.883   8
  -6   8 -13 535.463 287.488   4
   6  -8  13-187.848 349.336   8
  -8   6 -13 336.564 209.184  19
   8  -6  13 361.145 256.108  14
   8   7  -5 1041.34 569.347  18
  -8  -7   5-57.3830 108.570  17
   8   7  -6 378.859 397.499  18
  -8  -7   6-40.0435 124.098  17
   8  -7   7 473.753 309.905   6
  -8   7  -7 1053.82 446.502  12
  -8   7  -7 1564.42 391.371   5
   8   7  -7 1808.34 726.267  18
  -8   7  -7 1592.11 475.623   4
   8   7  -7 607.432 278.026   8
  -7  -8   7 307.904 507.885  17
  -8  -7   7 432.632 498.660  17
   8  -7   7 172.510 256.591   8
   8  -7   8 203.322 195.440  14
   8  -7   8 149.654 144.233   6
  -8   7  -8 116.858 174.694  12
   8  -7   8 97.1766 130.832   1
  -8   7  -8 141.159 162.832   5
   7   8  -8 304.474 495.455  18
   8   7  -8 42.3266 107.814  18
   8   7  -8 115.152 176.711   8
  -7  -8   8 189.494 309.364  17
  -8  -7   8-546.461 450.027  17
  -8   7  -8 37.8256 105.155   4
   8  -7   9 737.040 303.125  14
   8  -7   9 699.323 377.110   6
   7  -8   9 244.962 271.002   6
  -8   7  -9 1329.65 507.071  12
  -7   8  -9 1111.33 416.104  12
   8  -7   9 680.154 239.727   1
  -8  -7   9-166.690 252.704  19
  -8   7  -9 1226.75 346.792   5
   7   8  -9 1113.65 577.908  18
   8   7  -9 1225.36 599.075  18
   8   7  -9 885.574 342.870   8
  -7  -8   9 327.357 508.666  17
  -8  -7   9 4.46324 178.382  17
   8  -7   9 485.857 217.118   8
  -8   7  -9 1245.16 438.539   4
  -7   8  -9 986.764 357.789   4
  -8   7  -9 846.656 463.521   3
   8  -7  10 75.9099 161.229  14
   8   7 -10-90.1116 362.711  13
   8  -7  10 61.6763 48.8947   6
   7  -8  10 203.140 233.407   6
  -8   7 -10 156.839 192.190  12
  -7   8 -10 210.418 159.025  12
  -8  -7  10-94.7897 159.756  19
  -8   7 -10 107.894 128.869   5
  -8   7 -10-61.3768 197.173  19
  -7   8 -10-10.4722 96.6939   5
   7   8 -10 31.2334 242.302  18
   8   7 -10 111.140 195.352  18
  -7  -8  10-150.921 236.910  17
  -8  -7  10 187.217 329.423  17
   8  -7  10 264.695 177.970   1
   8  -7  10 135.689 159.473   8
  -8   7 -10 186.777 160.637   4
  -7   8 -10 67.3382 61.9531   4
  -7   8 -10-152.160 369.978   3
  -8   7 -10 208.125 251.793   3
  -8   7 -11 91.8278 169.749   3
   8  -7  11-0.04740 156.370  14
   7  -8  11 185.913 202.130  14
   8   7 -11-51.2565 184.459  13
   8  -7  11 56.2102 119.855   6
   7  -8  11 75.7458 112.332   6
   8  -7  11 138.768 114.999   1
  -8   7 -11 34.0356 56.4860  12
  -7   8 -11 64.9020 87.9290  12
  -8  -7  11 74.1197 194.417  19
  -8   7 -11 153.571 115.053   5
  -7   8 -11 184.235 144.458   5
  -8   7 -11-20.3299 164.995  19
   7   8 -11 160.347 266.543  18
   8   7 -11 277.927 280.535  18
  -7  -8  11-118.477 100.732  17
  -8  -7  11 22.5354 146.247  17
  -8   7 -11 212.747 219.373   4
   8  -7  11 250.252 204.598   8
  -7   8 -11 111.366 118.858   4
  -7   8 -11 94.7971 199.035   3
   8   8  -7 168.230 221.456  18
  -8  -8   7 67.1567 551.453  17
   8   8  -8 2521.62 974.365  18
  -8  -8   8 77.6370 257.313  17
   8  -8   9 277.223 307.005   6
  -8   8  -9-331.073 257.817  12
   8   8  -9-34.2992 104.732  18
  -8  -8   9 249.732 458.114  17
  -8   8  -9 23.3896 30.8794   4
   9   0   0 50.0121 73.3157   6
  -9   0   0 13.7800 24.6187  12
   9   0   0 5.52712 194.827   1
   9   0   0-127.051 80.9641  11
  -9   0   0 29.9949 80.0430   5
  -9   0   0-104.354 169.602  19
  -9   0   0 1.16661 93.0983   2
   9   0   0 45.0095 55.7846  18
  -9   0   0-177.700 222.568   4
  -9   0   0-96.2938 79.6278  17
   9   0   0 1.27348 37.8183   8
  -9   0   0-57.6987 64.4493   7
  -9   0   0 33.1086 78.5292  15
   9   0   0 6.59253 52.3228  14
   9   0   1 287.706 164.380   6
  -9   0  -1-21.8133 67.9222   3
   9   0  -1 385.755 190.200   6
   9   0  -1 170.106 87.4759  13
   9   0   1 570.128 361.156   1
  -9   0  -1 73.3740 102.439  12
  -9   0   1 174.787 126.980  12
   9   0   1 517.393 193.262  11
   9   0  -1 493.602 230.854  11
  -9   0  -1 120.809 181.406   5
  -9   0   1 286.928 249.381   5
   9   0  -1 305.201 245.308   1
  -9   0  -1 86.3990 110.797   2
  -9   0  -1 233.371 198.847  19
  -9   0   1 178.963 144.495  19
   9   0   1 187.883 143.914  18
   9   0  -1 360.577 201.659  18
  -9   0   1 220.969 151.000   2
  -9   0  -1 277.446 217.113   4
   9   0   1 363.321 243.380   8
  -9   0  -1 263.087 184.557  17
  -9   0   1 240.876 204.593   4
  -9   0   1 220.749 176.001  17
   9   0  -1 372.820 225.040   8
  -9   0  -1 174.828 154.666   7
  -9   0  -1 315.436 230.933  15
  -9   0   1 333.097 256.096  15
   9   0   1 138.330 123.915  14
   9   0  -1 503.215 318.660  14
   9   0   2 34.6230 70.5711   6
   9   0   2 165.576 260.633   1
   9   0  -2 72.7952 82.4039   6
   9   0  -2-9.30810 53.3661  13
  -9   0  -2 19.1385 55.0702   3
  -9   0  -2-2.11182 6.44594  12
  -9   0   2-54.5898 74.5486  12
   9   0   2 141.913 114.016  11
   9   0  -2-32.7805 83.1889  11
  -9   0  -2 19.7373 119.540   5
  -9   0   2-31.9838 96.7676   5
  -9   0  -2-42.4827 117.777  19
  -9   0   2 55.7617 160.454  19
   9   0  -2 50.5012 121.267   1
   9   0   2-59.1585 117.610  18
   9   0  -2 20.1108 86.0125  18
  -9   0  -2 39.3347 107.066   4
  -9   0   2 42.6717 94.9156   2
   9   0   2-5.19487 63.1902   8
  -9   0  -2 74.6001 49.8699  17
  -9   0   2-65.7543 42.8140  17
  -9   0   2-23.2483 67.5740   4
   9   0  -2 19.5762 113.801   8
  -9   0  -2 15.9523 11.0115   7
  -9   0  -2-13.6875 63.3780  15
   9   0   2 58.0818 130.299  14
   9   0  -2 62.6169 67.9112  14
   9   0   3-39.1144 32.6056   6
   9   0  -3-4.65133 46.0716   6
  -9   0  -3 76.8891 192.815  12
  -9   0  -3-33.4320 57.2186   3
   9   0   3 66.8121 81.2790  11
  -9   0  -3 40.8711 49.6701   5
   9   0  -3-37.4993 118.131  11
  -9   0   3 16.3367 69.1417   5
  -9   0  -3 69.7461 41.9160  19
  -9   0   3 25.5096 35.7729  19
   9   0   3-46.7706 66.5185  18
   9   0  -3-67.6287 80.0225  18
   9   0  -3 102.555 108.254   1
  -9   0  -3 41.6603 112.402   4
   9   0   3 71.1218 128.361   8
  -9   0  -3-16.2923 55.7337  17
  -9   0   3-17.0944 41.6316  17
  -9   0   3 33.0887 52.6585   2
  -9   0   3-50.1272 53.6262   4
   9   0  -3 37.8377 75.0518   8
   9   0   3-54.9482 97.5695  16
  -9   0  -3-112.599 127.114   7
  -9   0  -3 138.591 178.460  15
   9   0   3 66.6240 156.295   1
   9   0   3 33.0415 83.0771  14
   9   0  -3 6.19563 7.32977  14
   9   0  -4-38.5411 50.6112   6
   9   0   4-22.0188 54.9511  11
  -9   0  -4 16.4841 46.9676   5
   9   0  -4-31.1142 109.103  11
  -9   0   4 32.5059 110.242   5
  -9   0  -4 95.1149 162.745  19
  -9   0   4 44.3167 145.407  19
   9   0   4-51.2824 84.7606  18
   9   0  -4-10.0061 62.6308  18
  -9   0  -4-166.667 247.986   4
   9   0   4 43.1622 95.0801   8
  -9   0  -4 171.845 141.301  17
  -9   0   4-56.4422 90.1343  17
   9   0  -4 80.1975 92.6789   1
  -9   0   4-19.2400 77.9131   4
   9   0  -4-26.9573 60.1576   8
  -9   0   4 5.29139 70.3972   2
   9   0   4 99.8088 110.772  16
  -9   0  -4-145.179 306.937   7
   9   0   4 73.9885 154.945   1
  -9   0  -4-95.3290 264.294  15
   9   0   4 118.735 210.040  14
   9   0  -4-29.4408 62.6608  14
   9   0   4 189.029 183.409   6
   9   0  -5 378.349 127.829   6
   9   0   5 575.052 159.738  11
   9   0  -5 151.679 142.200  11
  -9   0   5 199.768 209.987   5
  -9   0  -5 204.148 214.656  19
  -9   0   5 241.171 175.566  19
   9   0   5 592.877 207.477  18
   9   0  -5 410.707 265.608  18
  -9   0  -5-56.6804 222.495   4
   9   0   5 321.095 249.136   8
  -9   0  -5 250.123 152.394  17
   9   0   5 688.145 410.090   1
  -9   0   5 145.738 194.004  17
  -9   0   5 182.604 148.506   4
   9   0  -5 210.715 151.505   8
   9   0   5 395.098 166.480  16
  -9   0   5 181.143 156.302   2
  -9   0  -5-167.318 460.751   7
   9   0  -5 203.387 211.125   1
  -9   0  -5-243.092 422.395  15
   9   0   5 423.037 351.937  14
   9   0   5 411.739 273.703   6
   9   0  -5 202.466 179.489  14
   9   0  -6-12.1130 32.5240   6
   9   0  -6-67.6454 110.232  11
  -9   0   6 54.5108 119.431   5
  -9   0  -6-59.1793 201.187  19
   9   0   6-14.6333 74.3863  18
  -9   0  -6-22.8795 296.525   4
   9   0  -6-148.916 143.535  18
   9   0   6 33.2672 148.620   1
  -9   0   6-48.1643 81.0530  19
   9   0   6 23.4208 56.8336   8
  -9   0  -6 46.5703 89.9854  17
  -9   0   6-23.0948 92.5475  17
  -9   0   6 47.0128 120.093   4
   9   0  -6 57.5035 105.714   8
   9   0   6 9.71681 63.8479  16
  -9   0   6 38.4782 36.1824  16
  -9   0   6-45.1924 78.0171   2
   9   0   6 10.0350 140.646  14
   9   0  -6-23.8496 102.725   1
   9   0   6-94.8923 95.5480   6
   9   0  -6-48.6431 81.0051  14
   9   0  -7 256.065 182.580  14
   9   0  -7 271.343 227.712   1
   9   0  -7 392.232 123.227   6
   9   0  -7 116.026 143.191  11
  -9   0  -7-0.66324 127.769  19
  -9   0   7 265.930 203.305  19
   9   0   7 397.079 267.695   1
   9   0   7 493.686 193.795  18
  -9   0   7 461.838 256.799   5
   9   0  -7 185.129 175.765  18
   9   0   7 302.268 237.743   8
  -9   0  -7 34.3701 31.4711  17
  -9   0   7 190.396 209.902  17
  -9   0   7 206.971 174.863   4
   9   0  -7 140.011 108.132   8
   9   0   7 412.782 194.060  16
  -9   0   7 162.110 83.9839  16
  -9   0   7 309.211 217.110   2
   9   0   7 259.214 239.236  14
   9   0   7 280.777 222.228   6
   9   0  -8-42.2458 70.2395  14
   9   0  -8-62.0235 102.386   1
   9   0  -8-57.3227 53.1598   6
   9   0  -8-166.136 202.737  11
  -9   0  -8-47.1352 200.671  19
  -9   0   8-68.7829 126.103   5
  -9   0   8 16.2867 74.9857  19
   9   0   8 25.7726 68.8594  18
   9   0  -8-10.5141 146.797  18
   9   0   8-62.9264 172.782   8
  -9   0  -8 4.35185 29.8642  17
  -9   0   8 145.512 166.412  17
  -9   0   8-92.4590 103.914   4
   9   0   8 0.40238 52.9236  16
  -9   0   8 65.4359 66.6771  16
  -9   0   8 110.308 163.441   2
   9   0   8-75.0439 110.607  14
   9   0   8-101.119 227.537   6
   9   0  -9 101.203 134.949  14
   9   0  -9-51.8785 78.7108   6
   9   0  -9 182.330 204.499   1
   9   0  -9 194.127 191.943  11
  -9   0  -9 26.5807 142.320  19
  -9   0   9 71.5510 72.9275   5
  -9   0   9 226.365 154.916  19
   9   0   9 195.338 105.540  18
   9   0  -9-49.8642 111.567  18
   9   0   9 265.881 185.551   8
  -9   0  -9-14.4384 90.5990  17
  -9   0   9 77.7916 179.704  17
  -9   0   9 93.5789 135.761   4
   9   0   9 210.746 117.540  16
  -9   0   9 87.2186 114.303  16
  -9   0   9 39.1836 96.0098   2
   9   0   9 15.9881 28.6424  14
   9   0   9 132.922 136.852   6
   9   0 -10 90.9007 125.327  14
   9   0 -10 56.1980 191.205  11
   9   0 -10-58.7864 83.2791   1
  -9   0 -10 13.7538 171.385  19
  -9   0  10-37.3186 80.0433   5
   9   0  10 8.10040 6.17296  18
   9   0 -10-57.2259 62.6578  18
  -9   0 -10 10.3012 105.858  17
   9   0  10 19.7398 164.222   8
  -9   0  10-101.080 137.164  17
  -9   0  10-3.34990 48.4372   4
   9   0  10 72.5066 119.493  16
  -9   0  10 60.4747 97.3896  16
  -9   0  10 105.535 165.037   2
   9   0  10 193.882 244.204  14
   9   0  10 37.5971 88.4395   6
   9   0 -11 164.265 133.240  14
   9   0 -11 84.0443 196.525  11
  -9   0 -11 63.8243 191.962  19
  -9   0  11 96.3901 146.065   5
   9   0 -11 158.819 188.283   1
   9   0  11-13.5663 146.677  18
   9   0  11-430.664 310.443   8
   9   0 -11-92.9268 131.606  18
  -9   0  11 27.4895 91.9627  17
  -9   0  11 162.820 156.298   4
   9   0  11 253.270 145.058  16
  -9   0  11 160.717 135.501  16
  -9   0  11 171.681 216.435   2
   9   0  11 21.0861 129.716   6
   9   0 -12 84.8367 100.339  14
   0  -9  12 328.996 282.476   6
   9   0 -12-104.627 76.6798  11
  -9   0 -12 64.9041 122.678  19
  -9   0  12 78.8345 147.785   5
   0   9 -12-12.0379 256.944  18
   9   0 -12 77.5844 106.638   1
   9   0 -12 70.1145 127.395  18
   0  -9  12-31.5660 103.108  17
   9   0  12 189.127 161.900   8
  -9   0  12-1.64192 70.3281  17
  -9   0  12-3.14459 18.3644   4
   9   0  12-40.2817 139.392  16
  -9   0  12 220.489 182.457  16
   9   0  12-54.2912 172.783   6
  -9   0  12 99.3613 189.830   2
   9   0 -13 359.553 180.032  14
   0  -9  13 225.005 176.455   6
  -9   0 -13-195.542 244.192  19
   0   9 -13 711.445 483.827  18
   9   0 -13 509.612 302.606   1
   9   0  13 886.026 483.167   8
   0  -9  13-243.952 361.104  17
  -9   0  13 687.389 412.290  17
   9   0  13 880.307 437.654  16
  -9   0  13 932.058 326.718   4
  -9   0  13 686.601 297.635  16
   9   0  13 237.418 201.390   6
  -9   0  13 799.233 348.522   2
   0   9 -13 836.380 392.573   3
  -9   0  13 889.542 371.264   5
   9   0 -14 29.7311 33.1010  14
   0   9 -14-48.1637 322.294  13
   0  -9  14-63.0649 20.9198   6
  -9   0 -14-223.885 273.277  19
  -9   0  14 6.84675 123.698   5
   0   9 -14 39.9523 68.3535  18
   9   0  14 70.4633 128.828   8
   0  -9  14 193.213 346.198  17
   9   0 -14 9.81225 148.427   1
  -9   0  14-163.014 188.393  17
   9   0  14 184.826 286.634  16
  -9   0  14 14.4618 81.4808   4
  -9   0  14 52.9464 112.955  16
  -9   0  14 33.6705 91.1429   2
   0   9 -14-39.4928 84.3715   3
   9   0 -15 137.355 158.868  14
   0   9 -15 243.290 220.561  13
   0  -9  15 42.9187 83.6765   6
  -9   0 -15 44.5462 217.102  19
  -9   0  15 195.808 187.553   5
   0   9 -15 160.720 153.937  18
   9   0  15 326.832 282.063   8
   0  -9  15 200.370 420.339  17
  -9   0  15 6.60144 72.1634  17
   9   0 -15 428.969 336.871   1
   9   0  15 459.492 355.065  16
  -9   0  15 315.364 185.181   4
  -9   0  15 381.906 262.241  16
  -9   0  15 346.442 271.193   2
   0   9 -15 424.918 297.149   3
  -9  -1   0-20.0317 37.0554   3
   9  -1   0 730.694 275.251   6
  -9  -1   0 294.198 167.786  12
  -9   1   0 420.805 209.066  12
   9   1   0 1651.90 389.201  11
  -9  -1   0 418.806 318.998   5
  -9  -1   0-36.4082 244.220   2
  -9   1   0 636.716 333.167   5
  -9  -1   0 522.284 272.247  19
  -9   1   0 720.618 351.391  19
   9   1   0 455.292 184.966   9
   9   1   0 1250.39 407.185  18
   9  -1   0 566.569 241.931  18
  -9  -1   0 401.243 268.896   4
   9  -1   0 995.093 412.967   1
   9   1   0 911.405 346.568   8
  -9  -1   0 350.993 179.276  17
  -9   1   0 838.947 274.887   2
  -9   1   0 322.068 171.539  17
   9  -1   0 895.788 339.411   8
  -9   1   0 702.742 366.174   4
   9   1   0 1154.81 475.445  14
   9   1   0 615.477 249.932   6
   9   1   0 1065.69 499.855   1
   9  -1   0 908.656 380.956  14
   9   1  -1-63.8207 158.969   1
   9  -1   1-6.87755 60.5893   6
   9  -1  -1-10.4133 36.1803   6
  -9  -1  -1-0.76075 62.8913   3
  -9  -1   1 7.90632 64.5990  12
  -9   1  -1 7.17771 32.8552  12
  -9   1   1-72.1466 105.601  12
   9   1   1-249.671 189.506  11
   9   1  -1 69.1391 92.6291  11
  -9  -1  -1-53.9096 152.917   5
  -9  -1   1-150.504 143.415   5
  -9   1  -1 23.7448 35.6844   5
  -9   1   1-54.1748 93.1560   5
  -9  -1  -1-199.108 250.802  19
  -9   1  -1-23.3210 89.2167  19
  -9  -1   1-80.1776 119.031   2
  -9   1   1 14.0062 120.801  19
   9   1   1-15.8157 56.0126   9
   9  -1   1-34.6782 90.5200   1
   9   1  -1-80.7677 110.453   9
   9   1   1-91.0344 93.7935  18
   9   1  -1-51.5191 91.4282  18
   9  -1   1-9.46030 57.6739  18
   9  -1  -1-32.4852 94.3686  18
  -9   1  -1 28.1118 74.9230   2
  -9  -1  -1 91.0688 114.751   4
  -9  -1   1 14.4067 108.382   4
   9   1   1 21.8829 38.2166   8
  -9  -1  -1-65.5833 79.7683  17
  -9  -1   1 21.5187 99.2640  19
  -9  -1   1-35.2087 22.0499  17
   9   1  -1 121.533 158.011   8
  -9   1  -1 2.73357 80.5900   4
   9  -1   1-135.262 152.336   8
  -9   1  -1-33.5346 54.2998  17
  -9   1   1 82.5676 102.986  17
   9  -1  -1-29.6502 37.6918   8
  -9   1   1-8.77170 30.1136   4
  -9   1   1 5.85308 60.4099   2
   9  -1  -1 6.00097 120.202   1
   9   1   1 32.5158 25.9835   1
   9   1   1 19.9123 146.648  14
   9   1   1-71.4204 123.444   6
   9   1  -1 100.410 182.746  14
   9   1  -1 69.5690 120.005   6
   9  -1   1-3.69630 45.2587  14
   9  -1  -1 151.336 151.931  14
   9  -1  -2 247.613 151.141  14
  -9   1  -2 51.3702 84.0402   3
   9  -1   2 273.577 183.275   6
   9   1  -2 142.136 89.8475  13
   9  -1  -2 259.207 127.367   6
   9   1  -2 238.244 221.606   1
  -9   1  -2 198.045 147.536  12
  -9  -1   2 129.287 98.9475  12
   9   1  -2 592.564 282.281  11
  -9  -1   2 37.6279 95.3580   5
  -9   1  -2 76.8207 78.7766   5
   9  -1   2 204.085 227.943   1
  -9  -1   2 119.859 85.2548  19
  -9   1   2 258.186 200.423   5
  -9  -1  -2 213.438 264.717  19
  -9   1  -2 207.869 211.565  19
  -9   1   2 410.997 211.220  19
  -9   1  -2 174.218 112.085   2
   9   1  -2 175.822 202.999   9
  -9  -1   2 353.386 237.163   2
   9   1   2 320.146 206.277  18
   9   1  -2 350.834 180.696  18
   9  -1   2 264.277 146.575  18
  -9  -1  -2 111.316 41.4760   4
   9  -1  -2 44.9127 50.9967  18
  -9  -1   2 252.296 213.612   4
   9   1   2 288.775 205.274   8
  -9  -1  -2 33.5640 45.2975  17
  -9  -1   2 125.880 120.166  17
   9   1  -2 392.098 235.646   8
  -9   1  -2 231.102 176.225   4
   9  -1   2 251.353 180.304   8
  -9   1  -2 98.3652 83.8763  17
  -9   1   2 112.288 107.343  17
   9  -1  -2 285.480 180.393   8
  -9   1   2 201.452 156.470   4
   9   1   2 271.583 119.318  16
   9   1   2 313.754 264.068   1
  -9  -1   2-160.287 261.752   7
  -9   1   2 280.918 144.626   2
  -9  -1   2-243.300 278.268  15
   9  -1  -2 187.627 104.983   1
   9   1   2 386.273 285.319  14
   9   1   2 234.695 131.395   6
   9   1  -2 340.976 237.020  14
   9   1  -2 165.000 95.8115   6
   9  -1   2 271.451 198.153  14
   9  -1  -3 75.7158 67.2487  14
   9  -1   3 3.01984 74.9740   6
  -9   1  -3 59.3767 104.180   3
   9   1  -3 122.118 96.3916  13
   9  -1  -3 67.9945 91.6593   1
   9  -1  -3-48.3824 86.3056   6
  -9   1  -3-2.39976 65.6134  12
   9  -1   3-38.5863 204.803   1
  -9  -1   3-37.5487 65.5444  12
   9   1  -3-34.7712 78.5740   1
   9   1  -3 157.302 161.276  11
  -9   1  -3 63.7498 109.858   5
  -9  -1   3 16.4512 96.6556   5
  -9   1   3 165.313 121.205   5
  -9  -1  -3-37.7415 102.567  19
  -9   1  -3-35.8193 118.301  19
  -9  -1   3-69.0693 114.241  19
   9   1  -3 17.2821 88.1897   9
   9   1   3 144.067 150.643  18
   9   1  -3 63.5420 104.379  18
  -9  -1  -3-217.454 399.741   4
   9  -1   3 81.2861 115.470  18
  -9  -1   3 18.5868 74.9171   2
   9  -1  -3 133.452 172.298  18
  -9   1   3 91.0314 163.322  19
   9   1   3 135.562 149.009   8
  -9  -1  -3 164.141 182.868  17
  -9  -1   3-1.49782 6.29568   4
  -9   1  -3 0.31725 30.1145   4
  -9  -1   3 0.61841 47.5356  17
   9  -1   3-12.8734 121.786   8
   9   1   3-24.0509 80.5662   1
   9   1  -3 55.1151 63.9144   8
  -9   1  -3 87.8266 78.0604  17
  -9   1   3 201.159 182.170  17
   9  -1  -3 8.79821 39.0417   8
  -9   1   3 131.293 181.909   4
   9   1   3 113.257 81.7581  16
  -9  -1   3-78.1902 160.051   7
  -9   1   3 163.285 142.431   2
  -9  -1   3-161.205 152.647  15
  -9   1  -3 182.318 251.280  15
   9   1   3 146.333 140.874   6
   9   1   3 37.5457 50.9332  14
   9   1  -3-56.0807 95.3632  14
   9  -1   3 79.4237 136.506  14
   9   1  -3 7.08151 35.7317   6
   9   1  -4 51.4772 56.2484   6
   9  -1  -4 62.7287 103.571  14
   9  -1   4 21.2006 44.0579   6
   9  -1   4 81.4337 147.393   1
   9   1  -4-39.1392 32.8566  13
  -9   1  -4-50.0691 129.161   3
   9  -1  -4 89.2232 102.024   6
  -9   1  -4 3.22105 46.1137  12
   9  -1  -4-97.5973 143.436   1
   9   1  -4 21.0287 73.7210  11
  -9   1  -4 59.2383 209.372   5
  -9  -1   4 113.506 150.833   5
   9   1  -4-6.72928 110.611   1
  -9  -1  -4 16.2740 146.423  19
  -9   1  -4 71.3911 99.4157  19
  -9  -1   4 10.8121 49.8829  19
  -9   1   4 21.9538 62.0044  19
   9   1  -4 99.7692 45.0235   9
  -9   1   4-33.2553 105.278   5
   9   1   4-109.614 139.176  18
   9   1  -4-205.617 142.230  18
   9  -1   4 22.2556 22.5300  18
   9  -1  -4-24.8800 30.3580  18
   9   1   4 42.0318 63.4299   1
  -9  -1   4 39.2447 66.5328   2
   9   1   4-35.5793 70.1029   8
  -9  -1  -4 15.0763 39.5579  17
  -9   1  -4-38.9970 149.689   4
  -9  -1   4 63.7999 122.479   4
   9  -1   4-21.5080 68.3995   8
  -9  -1   4 84.9536 172.558  17
  -9   1  -4-113.149 92.5088  17
   9   1  -4-10.7898 46.1859   8
  -9   1   4-40.4723 84.9169  17
   9  -1  -4-135.826 161.617   8
  -9   1   4 60.5336 114.745   4
  -9  -1   4-0.45475 66.6527   7
   9   1   4-13.0640 51.5941  16
  -9   1  -4 49.5010 227.530   7
  -9  -1   4 46.4811 51.7082  15
  -9   1  -4 41.8957 190.231  15
  -9   1   4 60.1311 63.6648   2
   9   1   4 47.2425 18.4690   6
   9   1   4-25.1553 48.4094  14
   9   1  -4 230.273 212.509  14
   9  -1   4 35.5500 43.1120  14
   9  -1  -5 39.3656 75.3517  14
   9   1  -5 11.4372 30.6618   6
   9  -1   5 95.3839 102.775   6
  -9   1  -5 90.0275 170.673  12
  -9   1  -5-42.1988 53.0642   3
   9  -1  -5-8.15781 25.3877   6
   9   1  -5 19.4933 69.6300  11
  -9   1  -5 11.9860 16.8139   5
  -9  -1   5-153.354 196.402   5
   9  -1  -5 138.999 166.961   1
  -9  -1  -5-19.0618 56.6965  19
  -9   1   5 60.5234 43.8580   5
   9   1  -5-56.3236 48.6286   1
  -9   1  -5 99.2939 157.595  19
  -9  -1   5 4.56487 40.0428  19
  -9   1   5 50.4230 83.2706  19
   9   1  -5-283.060 313.086   9
   9   1   5 113.645 178.068   1
   9   1   5 110.194 113.874  18
   9   1  -5 12.2777 102.433  18
   9  -1   5 17.7344 60.4709  18
   9  -1  -5 81.6547 88.3141  18
   9   1   5 157.561 216.220   8
  -9   1  -5 85.6595 202.226   4
  -9  -1  -5 155.744 167.855  17
  -9  -1   5 8.39404 31.4915   2
   9  -1   5-38.7600 56.6791   8
  -9  -1   5 34.8628 56.4079   4
  -9  -1   5 87.8057 131.233  17
  -9   1  -5-37.6751 73.9185  17
   9   1  -5 6.32556 22.6102   8
  -9   1   5 52.5321 110.804  17
   9  -1   5-13.6357 94.4431  16
   9  -1  -5 10.2086 65.4421   8
  -9   1   5 29.3224 40.3425   4
   9   1   5 4.85043 40.1303  16
  -9  -1   5-18.9878 40.9350   7
  -9   1  -5-49.3786 90.5001   7
  -9  -1   5-63.9744 73.6541  15
  -9   1  -5-28.4110 160.837  15
   9   1   5 81.8106 147.661   6
   9   1   5 55.6740 139.049  14
  -9   1   5-57.9214 63.0175   2
   9  -1   5 68.7608 136.434   1
   9  -1   5 7.88551 99.8467  14
   9   1  -5 63.0586 75.1984  14
   9  -1  -6 165.712 148.125  14
   9  -1   6 314.320 236.993   6
   9   1  -6 244.369 97.7151   6
  -9   1  -6 325.879 285.397  12
   9  -1  -6 194.225 103.957   6
  -9   1  -6 214.618 205.299   3
  -9   1  -6 86.2306 86.8243   5
   9   1  -6 393.290 307.315  11
  -9  -1   6 176.016 211.304   5
  -9   1  -6-19.5283 121.046  19
  -9  -1   6 258.473 190.860  19
   9   1   6 148.405 145.008   1
  -9   1   6 100.532 127.655  19
   9   1  -6-410.871 332.867   9
   9   1   6 375.859 208.599  18
   9   1  -6 174.539 185.415   1
   9  -1  -6 141.727 173.817   1
   9  -1   6 219.227 102.028  18
   9   1  -6 72.1231 118.772  18
   9  -1  -6 113.117 147.492  18
  -9   1  -6 45.2098 91.6640   4
   9   1   6 271.714 249.254   8
  -9  -1  -6-93.1565 144.108  17
  -9   1   6 85.8984 164.594   5
   9  -1   6 326.264 258.217   8
  -9  -1   6 108.565 170.004  17
  -9   1  -6 56.8628 49.4050  17
  -9  -1   6 106.661 64.7409   4
  -9  -1   6 175.035 200.155   2
  -9  -1  -6 14.5392 33.1388  19
  -9   1   6 135.929 192.682  17
   9   1  -6 142.430 111.115   8
  -9  -1   6 49.1005 8.80131  16
   9  -1   6 233.920 149.769  16
   9  -1  -6-105.666 221.083   8
  -9   1   6 380.095 199.040   4
   9  -1   6 259.833 219.950   1
  -9   1  -6 213.114 227.478   7
   9   1   6 61.2196 25.0157  16
  -9  -1   6 288.496 171.151   7
  -9   1  -6 345.003 298.692  15
  -9  -1   6 174.174 111.076  15
   9   1   6 190.198 191.886   6
   9   1   6 109.243 61.1885  14
   9  -1   6 271.180 209.510  14
   9   1  -6 314.947 203.049  14
  -9   1   6 183.030 131.689   2
   9  -1   7 111.383 155.448   6
  -9   1   7 63.6182 87.9712   2
   9  -1  -7 81.8301 135.846  14
   9   1  -7 59.2353 43.2395   6
  -9  -1   7 82.5134 110.292  19
   9  -1  -7-5.25302 46.2973   6
   9   1  -7-12.7318 145.667  11
  -9  -1   7 111.359 175.246   5
  -9  -1  -7-170.771 275.081  19
  -9   1  -7 53.5714 84.4391  19
  -9   1   7 167.709 182.606   5
  -9   1   7 125.051 138.746  19
   9   1  -7-518.422 399.398   9
   9   1   7 245.760 167.273  18
   9  -1   7 51.4223 54.3356  18
   9   1  -7 39.7666 10.3081  18
  -9   1  -7-67.4510 178.823   4
   9   1  -7-72.3547 159.605   1
   9   1   7 60.3730 210.362   8
  -9  -1  -7 146.856 194.684  17
   9  -1  -7 167.782 165.429   1
   9  -1   7 264.716 274.448   8
   9  -1   7 274.522 230.901   1
  -9   1  -7 120.376 81.6610  17
  -9  -1   7-150.684 179.361  17
  -9  -1   7 171.659 184.855   4
  -9   1   7-82.7205 114.493  17
  -9  -1   7 254.911 224.127   2
   9   1  -7 44.8334 53.4577   8
  -9  -1   7 81.2647 61.3561  16
   9  -1   7 230.512 145.278  16
  -9   1   7 4.25918 39.6254   4
  -9   1  -7 79.8496 60.9764   7
   9   1   7-12.2457 122.987  16
  -9   1  -7-51.0076 151.653  15
   9   1   7 27.2701 208.148   6
   9  -1   7 194.489 133.939  14
   9   1  -7 182.796 138.324  14
   9  -1  -8 208.592 192.499  14
  -9   1   8 205.197 140.871   2
   9   1  -8 127.093 54.5237   6
  -9   1  -8 9.73291 58.0306  13
   9   1  -8 190.019 206.085  11
  -9  -1   8 281.094 205.886   5
  -9  -1  -8-70.9594 144.810  19
  -9   1  -8 49.3022 132.987  19
  -9   1   8 167.195 178.452   5
  -9  -1   8 256.046 192.147  19
  -9   1   8-120.578 120.259  19
   9   1   8-40.5158 192.170  18
   9   1  -8-1018.21 482.103   9
   9  -1   8 346.063 300.634   1
   9  -1   8 240.526 105.614  18
  -9   1  -8-145.828 326.162   4
   9   1  -8 101.265 72.6172  18
   9   1   8 267.582 230.296   8
  -9  -1  -8 96.5285 30.1716  17
   9  -1   8 418.461 304.850   8
   9   1  -8 234.118 212.489   1
  -9   1  -8 82.7885 67.5297  17
  -9  -1   8 129.451 198.320  17
  -9  -1   8 182.351 162.075   4
  -9   1   8 224.510 199.864  17
  -9  -1   8 128.480 158.118   2
   9   1  -8 213.241 160.985   8
   9  -1   8 388.589 201.179  16
  -9  -1   8 185.598 95.8848  16
  -9   1  -8 41.9107 73.5399   7
   9  -1  -8 93.6468 126.028   1
  -9   1   8 172.493 152.591   4
   9   1   8 216.351 181.062  16
  -9   1  -8-50.4314 303.234  15
   9   1   8-70.5338 325.558   6
   9  -1   8 402.289 203.397  14
   9   1  -8 163.067 161.860  14
   9  -1   8 219.110 217.441   6
   9  -1  -9 98.7522 137.794  14
  -9   1   9-18.6525 120.946   2
  -9   1  -9 115.166 130.310  13
   9   1  -9 61.3285 39.2588   6
   9   1  -9 26.4240 90.8238  11
  -9  -1   9 62.7425 128.076   5
  -9   1   9 154.877 135.591   5
  -9  -1   9 146.918 142.786  19
   9   1  -9-1068.21 671.645   9
  -9  -1  -9 6.94560 176.127  19
   9  -1   9 78.8266 61.4464  18
   9   1  -9 112.832 167.675  18
   9   1   9 28.6106 135.532   8
   9  -1   9-68.8425 181.349   8
  -9   1  -9 8.79696 14.8419  17
  -9  -1   9 66.6616 97.7885  17
  -9   1  -9 138.536 235.603  19
  -9   1   9-42.5213 140.849  17
  -9  -1   9 16.5963 22.7891   4
   9   1  -9-336.029 246.994   1
  -9  -1   9-32.6201 101.950   2
   9  -1   9 78.5406 113.315  16
  -9  -1   9-23.3152 71.5362  16
  -9   1  -9-947.611 531.595   7
  -9   1   9 16.5392 40.5057   4
   9   1   9 73.5556 87.5800  16
  -9   1  -9-897.145 514.055  15
   9   1   9-452.484 470.996   6
   9  -1   9 29.3235 148.024  14
   9  -1  -9 64.9456 106.219   1
   9  -1   9-160.045 243.025   1
   9   1  -9 231.382 177.031  14
   9  -1   9 319.295 282.587   6
   9  -1 -10 8.09980 47.6857  14
  -9   1  10 86.9548 105.018   2
   9  -1 -10 95.6448 115.969   1
   9   1 -10 64.1433 199.364  11
  -9  -1  10-102.982 101.079   5
  -9  -1 -10-462.104 358.830  19
  -9   1  10 111.967 140.978   5
  -9  -1  10 49.3306 58.9710  19
   9  -1  10 88.3099 62.9719  18
   9   1 -10 118.078 161.847  18
   9   1  10 81.2066 220.471   8
   9  -1  10 233.522 165.447   8
  -9  -1  10-52.5332 102.129  17
  -9   1  10-438.728 282.868  17
  -9  -1  10-57.1020 147.018   4
   9  -1  10 61.8398 144.511  16
  -9  -1  10-34.7018 126.641   2
  -9  -1  10-18.6498 60.2381  16
  -9   1 -10 107.062 182.114  19
   9   1  10 29.5142 197.305  16
  -9   1  10-58.9045 130.049   4
   9   1 -10-6.05190 88.8345   1
   9   1  10-595.818 539.454   6
   9  -1  10 173.231 246.946  14
   9  -1  10 10.9887 106.969   6
   9   1 -10 66.1238 119.288  14
   9  -1 -11 31.6632 24.5445  14
  -9   1  11 152.652 154.488   2
   9  -1 -11 110.991 134.879   1
   9   1 -11 12.4421 148.196  11
  -9  -1  11 95.5636 181.323   5
  -9   1 -11 1.46373 118.049  19
  -9   1  11 138.783 171.331   5
  -9  -1  11-50.0807 134.831  19
   9   1 -11-39.0405 110.189  18
   9   1  11 72.5785 148.513   8
   9  -1  11 80.3489 118.945   8
  -9  -1  11 1.45223 125.837  17
  -9   1  11-595.285 336.452  17
  -9  -1  11 149.341 148.148   4
   9  -1  11 174.728 151.773  16
  -9  -1  11 46.7562 26.6481  16
  -9  -1  11 106.188 175.893   2
   9   1  11 40.9196 137.191  16
  -9   1  11-39.6488 138.459   4
   9  -1  11 459.571 391.698  14
   9   1 -11 73.8914 120.620   1
   9  -1  11 168.067 125.890   6
   9   1 -11 118.268 175.116  14
   9   1 -12 494.099 336.267   1
   9  -1 -12 298.796 221.087  14
  -9   1  12 764.074 368.477   2
   1  -9  12 91.4339 139.614   6
  -1  -9  12-64.3622 203.842   6
   9   1 -12 208.288 123.310  11
   9  -1 -12 236.087 194.714   1
  -9  -1  12 595.037 303.136   5
  -9   1 -12-210.427 261.177  19
  -9   1  12 674.746 323.064   5
   1   9 -12 168.235 302.293  18
   9   1 -12 465.642 284.540  18
   9   1  12 556.970 391.207   8
  -1  -9  12 238.172 401.439  17
   9  -1  12 510.797 307.686   8
  -9  -1  12 328.053 319.385  17
  -9   1  12-517.902 320.285  17
  -9  -1  12 817.380 318.214   4
   9  -1  12 739.425 351.274  16
  -9  -1  12 579.476 236.175  16
  -9  -1  12 674.221 361.326   2
   9   1  12 894.735 519.430  16
   9  -1  12 864.431 511.304  14
  -1   9 -12 700.353 306.910   3
   9  -1  12 401.259 323.780   6
   9   1 -12 206.076 115.778  14
   9  -1 -13 1.87407 40.5455  14
   9   1 -13 58.2777 153.320   1
   1  -9  13 48.2686 204.483   6
  -1  -9  13 55.2609 220.855   6
   9   1 -13 260.808 301.566  11
  -9  -1  13 111.533 63.6204   5
  -9   1 -13 29.0058 114.597  19
   9  -1 -13-7.41812 152.998   1
  -1   9 -13 195.258 162.588  18
   1   9 -13 122.584 309.576  18
   9   1 -13 257.479 244.157  18
   9   1  13 44.6459 153.987   8
   1  -9  13 232.171 323.710  17
  -1  -9  13-92.9026 148.467  17
   9  -1  13-121.680 204.088   8
  -9  -1  13 16.0026 121.435  17
  -9  -1  13 84.0690 122.613   4
   9  -1  13-57.5588 204.305  16
  -9  -1  13 72.8814 33.2186  16
   9   1  13-75.6891 76.6409  16
  -9  -1  13 257.441 285.351   2
   1   9 -13-24.0388 332.450   3
   9  -1  13-73.8259 95.8809   6
  -1   9 -13 203.593 183.767   3
   9   1 -13 96.3200 116.457  14
   1   9 -14 841.936 568.992  13
   9   1 -14 563.110 318.371   1
   1  -9  14 107.965 142.510   6
  -1  -9  14 245.262 260.082   6
   9   1 -14 331.621 297.937  11
  -9  -1  14 869.647 392.427   5
  -9   1 -14 117.543 231.816  19
  -1   9 -14 1221.99 519.991  18
   1   9 -14 862.991 654.053  18
   9   1 -14 323.521 274.331  18
   9   1  14 644.513 499.331   8
   1  -9  14 74.7768 227.788  17
  -1  -9  14 129.807 303.715  17
   9  -1  14 1385.06 558.101   8
  -9  -1  14 1001.94 515.177  17
  -9  -1  14 987.191 344.538   4
   9  -1  14 1112.33 474.679  16
  -9  -1  14 965.398 336.163  16
   9   1  14 1277.88 611.683  16
  -9  -1  14 958.070 444.641   2
   9  -1  14 1595.84 613.402   6
   1   9 -14 1100.72 502.327   3
  -1   9 -14 1050.48 504.056   3
   9   1 -14 364.901 228.304  14
  -1   9 -15 46.9291 149.110   3
  -1   9 -15 63.7557 29.3687  13
   1   9 -15-52.6574 148.071  13
  -1  -9  15-138.483 201.665   6
   1  -9  15 311.702 318.629   6
   9   1 -15-108.929 157.513   1
  -1   9 -15-130.158 220.400  12
   9   1 -15-76.9265 86.3934  11
  -9   1 -15-55.0962 127.461  19
  -9  -1  15-150.037 219.487   5
  -1   9 -15 10.9649 134.444  18
   1   9 -15 70.1889 34.3544  18
   9   1  15 193.356 304.683   8
   9   1 -15 103.763 177.406  18
   9  -1  15 69.7776 119.016   8
   1  -9  15 125.859 240.132  17
  -1  -9  15 313.253 367.089  17
  -9  -1  15 137.593 124.796  17
  -9  -1  15 33.2085 120.032   4
   9  -1  15 249.361 227.516  16
  -9  -1  15-12.4290 36.1504  16
  -9  -1  15-14.8817 148.311   2
   9  -1  15 183.848 264.967   6
   1   9 -15 28.1333 25.0848   3
   9   1 -15 113.420 187.493  14
   9  -2   0 83.4296 120.715  14
   9  -2   0 71.3079 57.9606   6
   9  -2   0 94.4938 89.5176   1
  -9   2   0 17.2517 65.6151  12
  -9   2   0 46.5078 41.4191   5
  -9  -2   0-1.42986 28.7053  19
  -9   2   0 248.907 193.609  19
   9   2   0 443.088 274.568  18
   9   2   0 124.957 145.130   8
  -9  -2   0-9.29421 107.582  17
   9  -2   0 134.724 109.485   8
   9   2   0 344.826 321.871   1
  -9   2   0 123.624 125.819   4
  -9   2   0 113.471 90.2289   2
   9   2   0 55.2873 94.4390  14
  -9   2  -1 1172.88 377.538  12
   9   2  -1 2496.91 758.192   1
  -9   2  -1 2091.66 553.304   5
  -9   2   1 1691.35 463.564   5
   9  -2   1 2305.00 617.390   1
  -9   2  -1 2142.33 362.547   2
   9  -2  -1 2219.79 575.005   1
  -9   2   1 1712.81 353.718   2
  -9   2  -1 1936.99 515.971  19
  -9   2   1 2484.71 580.777  19
  -9  -2  -1 30.1673 180.565  19
  -9  -2   1 351.433 286.305  19
   9   2   1 2549.18 626.167  18
   9   2  -1 2681.20 608.094  18
   9   2   1 2197.82 601.751   8
  -9   2  -1 2107.98 563.242   4
   9   2  -1 2701.10 621.227   8
  -9   2   1 2069.26 518.882   4
   9  -2   1 2221.45 564.526   8
   9  -2  -1 1811.43 474.274   8
  -9  -2   1 288.043 200.994   4
  -9  -2  -1 238.319 213.434  17
   9   2   1 2388.95 758.077   1
  -9  -2   1 308.330 216.964  17
   9  -2   1 2408.47 483.762   6
   9  -2  -1 2115.24 432.297   6
   9  -2   1 1881.13 529.404  14
   9  -2  -1 1839.49 504.602  14
   9   2   1 1453.54 574.052  14
   9   2  -1 1616.76 577.384  14
   9  -2   2-19.3366 96.5354  14
   9  -2  -2-35.2320 57.9397  14
  -9   2   2 29.0553 17.4051   2
   9  -2   2-20.6112 79.1405   6
  -9  -2   2 7.17920 48.8475  12
   9  -2  -2 99.5033 129.714   6
  -9   2  -2 42.9433 63.2870  12
  -9  -2   2 157.659 49.2106   5
   9   2  -2 122.013 114.591  10
  -9   2  -2-52.4873 113.059   5
  -9  -2   2-163.073 252.481   2
  -9  -2  -2 62.8825 183.148  19
  -9  -2   2 69.8450 142.382  19
  -9   2   2-56.3721 83.3674   5
  -9   2  -2 34.1647 47.7450  19
  -9   2   2 47.7729 83.5253  19
   9  -2  -2 125.312 156.524   1
   9   2   2 32.7573 113.097  18
   9   2  -2-66.8709 161.658  18
   9   2   2-2.49401 95.2741   1
  -9  -2   2-103.269 163.226   4
   9   2   2 98.5589 145.935   8
  -9  -2  -2 128.286 138.863  17
   9   2  -2 100.401 165.338   8
  -9  -2   2-76.1105 114.669  17
  -9   2  -2 2.63264 51.4104   2
   9  -2   2 38.1566 19.5364   1
   9  -2   2-86.2081 132.771   8
  -9   2  -2 1.59896 55.2168   4
   9  -2  -2 90.1740 103.210   8
  -9   2   2 74.7437 162.219   4
   9   2   2-6.78205 48.7826  16
   9   2  -2-244.569 230.665   1
   9   2   2-15.7328 119.540  14
   9   2  -2-47.0898 118.747  14
  -9   2  -3 9.58687 36.7818   3
   9  -2  -3 278.212 231.131  14
  -9   2   3 410.816 189.118   2
   9   2  -3 322.463 157.253  13
   9  -2   3 525.387 245.333   6
  -9  -2   3-12.5567 43.3882  12
   9  -2  -3 305.393 167.916   6
  -9   2  -3 224.157 223.566  12
   9   2  -3 563.571 298.727  11
  -9  -2   3 86.4227 70.7690   5
  -9   2  -3 252.803 95.9171  10
  -9   2  -3 399.771 248.247   5
   9   2  -3 352.547 173.442  10
  -9  -2  -3-106.922 249.368  19
  -9  -2   3 200.272 164.688  19
  -9   2   3 390.664 233.787   5
  -9   2  -3 223.781 172.135  19
  -9  -2   3 228.282 198.348   2
  -9   2   3 445.755 253.087  19
   9   2   3 448.331 333.381   1
   9   2   3 423.625 219.318  18
   9  -2   3 482.859 300.764   1
   9   2  -3 623.058 257.099  18
  -9   2  -3 327.983 130.714   2
  -9  -2   3 146.484 159.077   4
   9   2   3 261.061 224.859   8
  -9  -2  -3 31.0711 101.970  17
  -9  -2   3 4.13145 71.7846  17
   9   2  -3 368.873 221.249   8
   9  -2   3 341.392 221.125   8
  -9   2  -3 290.624 225.313   4
   9  -2  -3 301.218 202.472   1
   9  -2  -3 328.376 215.271   8
  -9   2   3 370.151 215.459   4
   9   2   3 271.393 133.212  16
   9   2  -3 269.812 250.802  14
   9   2  -3 196.008 204.407   1
   9  -2   3 437.429 246.265  14
   9  -2  -4 58.7939 85.5714  14
  -9   2  -4-27.9888 107.288   3
   9   2  -4 88.1180 144.622   1
  -9   2   4-32.2356 64.1792   2
   9  -2   4 34.6319 85.5136   6
   9   2  -4-53.0899 30.8937  13
  -9   2  -4 63.8613 62.6633  12
   9  -2  -4 24.8835 11.5938   6
  -9  -2   4 22.4552 41.0116  12
   9   2  -4 162.385 169.127  11
  -9  -2   4-14.3483 124.729   5
  -9   2  -4 41.4377 82.8347   5
  -9   2  -4-129.609 149.189   2
  -9   2  -4-7.35163 23.0551  10
   9   2  -4 3.93834 55.2367  10
   9  -2   4 110.683 203.541   1
  -9  -2  -4-36.9335 156.224  19
   9   2   4 151.167 170.467   1
  -9  -2   4 65.0597 172.358  19
   9   2  -4 230.432 260.355   9
  -9   2  -4-81.5333 119.637  19
  -9   2   4 44.8814 98.5472   5
  -9   2   4-59.5721 85.6612  19
   9   2   4-59.1666 69.2892  18
  -9  -2   4-18.0807 58.9827   2
   9   2  -4-56.3082 109.389  18
  -9  -2   4-60.0492 214.958   4
   9   2   4 131.849 34.4896   8
  -9  -2  -4 114.761 175.157  17
  -9  -2   4-33.4805 84.4100  17
   9   2  -4 35.5408 76.9842   8
  -9   2  -4 74.1791 197.860   4
   9  -2   4 6.28644 90.8197   8
   9  -2  -4-93.0399 181.096   8
  -9   2   4 106.439 140.506   4
   9   2   4 18.4042 76.8513  16
   9  -2  -4-0.32604 84.2974   1
   9   2  -4 206.444 214.254  14
   9  -2   4-48.1291 133.714  14
   9  -2  -5-51.9557 69.9627  14
   9  -2   5-13.5927 69.2742   6
  -9   2  -5 146.523 189.691   3
   9   2  -5 79.2084 117.526  13
  -9   2   5-2.60378 15.2105   2
   9   2  -5-3.59383 63.4100   1
   9  -2  -5 17.1993 81.4707   1
  -9   2  -5-81.9524 128.461  12
   9  -2  -5 35.9906 78.0797   6
   9  -2   5 133.508 195.321   1
   9   2  -5 311.496 245.800  11
  -9  -2   5-33.2872 90.9047   5
  -9   2  -5-60.5083 126.997   5
  -9   2  -5 18.0086 50.4247  10
   9   2  -5 22.8156 66.8594  10
  -9  -2  -5 22.3070 208.490  19
  -9  -2   5 84.2235 106.297  19
  -9   2  -5 9.77910 37.3825  19
   9   2  -5 213.535 232.369   9
  -9   2   5 4.71428 10.0391   5
  -9   2   5-6.47871 45.7917  19
   9   2   5 81.7302 87.9338  18
   9   2  -5-37.7518 126.736  18
  -9  -2   5 94.4880 158.145   2
   9   2   5 3.92325 86.7115   8
  -9  -2  -5 138.470 163.115  17
  -9  -2   5 13.1454 118.367   4
  -9  -2   5 206.809 230.948  17
  -9   2  -5 11.5951 151.701   4
   9   2  -5-29.2202 87.7605   8
   9  -2   5 37.1202 95.5638   8
  -9   2   5 72.7482 117.262   4
   9   2   5-36.2722 91.8912  16
   9   2  -5 146.327 206.415  14
   9  -2   5 63.5750 106.527  14
   9  -2  -6 127.802 137.317  14
   9  -2   6 277.228 217.661   6
   9  -2   6 292.889 186.930   1
   9   2  -6 155.399 113.573  13
  -9   2   6 166.486 136.921   2
  -9   2  -6 5.76107 84.5443   3
  -9   2  -6 30.4283 22.8884  12
   9   2  -6 118.984 166.412   1
   9   2  -6 227.850 169.681  11
  -9   2  -6 43.3224 135.645   5
  -9  -2   6 55.5983 69.7454   5
   9  -2  -6 104.670 133.442   1
  -9   2  -6 67.7429 19.6529  10
   9   2  -6 93.9367 144.606  10
  -9   2  -6 187.639 177.129  19
  -9  -2   6 158.857 165.127  19
   9   2  -6 8.83230 33.2049   9
  -9   2   6 94.0400 104.148   5
  -9   2   6 15.0741 97.9300  19
   9   2  -6 159.228 208.519  18
  -9  -2   6-1.98026 16.1977   2
   9   2   6-81.2066 171.415   8
  -9  -2  -6-563.276 330.021  17
  -9  -2   6 12.3722 76.6845   4
  -9   2  -6 83.4944 186.352   4
  -9  -2   6-37.1638 64.4042  17
   9  -2   6 234.494 236.843   8
   9   2  -6 162.501 117.419   8
   9  -2   6-340.307 301.672  16
  -9   2   6 54.4616 80.9101   4
   9   2   6 152.297 178.983  16
  -9   2  -6 335.904 353.692  15
   9   2  -6 398.680 287.791  14
   9  -2   6 322.859 260.513  14
   9  -2  -7 23.3855 42.8566  14
   9  -2   7 0.71702 25.5229   6
   9   2  -7 220.109 183.703  13
  -9   2   7 29.6840 77.4854   2
  -9   2  -7-40.0756 84.6131   3
  -9   2  -7 37.0026 10.6462  12
   9   2  -7 201.441 260.782  11
   9   2  -7 94.7228 37.9355   1
  -9   2  -7 8.20002 157.134   5
  -9  -2   7-59.7229 96.1034   5
  -9   2  -7-109.316 156.305  10
   9   2  -7-91.2919 209.674  10
  -9   2  -7 16.7139 80.5915  19
  -9  -2   7-12.9086 110.972  19
   9   2  -7 211.954 280.975   9
  -9   2   7 36.4702 74.4012   5
   9   2  -7 129.202 170.161  18
   9  -2  -7-2.91938 57.4898   1
   9   2   7-8.96952 18.0720   8
  -9  -2   7 45.8827 162.729   2
  -9   2  -7-55.8027 152.946   4
  -9  -2   7 171.694 235.514   4
  -9  -2   7 108.020 186.995  17
   9  -2   7 18.9267 119.689   8
   9   2  -7 108.483 114.207   8
   9  -2   7 222.490 163.625  16
  -9   2  -7 288.526 394.280   7
  -9   2   7-101.395 147.910   4
   9   2   7 335.006 275.637  16
  -9   2  -7 173.419 231.163  15
   9  -2   7 178.624 145.456   1
   9   2  -7 12.5103 45.2504  14
   9  -2   7 214.216 244.980  14
   9  -2   8 98.4647 157.229   6
   9  -2  -8-7.91971 55.8163  14
  -9   2   8 169.251 181.549   2
  -9   2  -8 144.123 228.680  12
  -9   2  -8 85.9947 172.079   3
  -9   2  -8-158.089 232.467   5
   9   2  -8 27.9977 108.446  11
  -9  -2   8-74.0108 164.305   5
   9   2  -8-143.271 215.323   1
  -9   2  -8-325.652 260.060  10
  -9   2  -8 118.560 202.939  19
  -9  -2   8 85.9248 75.0679  19
   9   2  -8 1.97129 246.887   9
  -9   2   8 26.4540 116.535   5
   9   2  -8 10.5074 34.1247  18
   9   2  -8-475.054 388.860  10
   9   2   8 9.16993 130.148   8
  -9   2  -8 69.5421 101.783   4
  -9  -2   8-81.1869 155.194   4
  -9  -2   8 99.9062 152.570   2
   9  -2   8 16.9865 70.9397   8
  -9  -2   8 164.183 191.060  17
   9   2  -8 3.37481 54.0910   8
  -9  -2   8-64.8942 88.5299  16
   9  -2   8 30.4173 48.0933  16
   9  -2   8 123.694 199.949   1
   9  -2  -8 79.4611 137.658   1
  -9   2  -8 78.3062 226.833   7
  -9   2  -8 90.1765 227.398  15
   9   2  -8-93.8357 172.182  14
   9  -2   8 98.4013 140.382  14
   9   2  -9 6.53613 31.4241   3
   9  -2   9 27.1599 117.946   6
   9  -2  -9 253.617 201.071  14
  -9   2  -9-3.55913 72.6117  13
  -9   2  -9 209.594 255.171  12
  -9   2  -9 250.208 248.830   3
   9   2  -9 67.4375 43.5358  11
  -9  -2   9 42.9926 167.490   5
   9   2  -9 3.94293 52.5865   1
  -9   2  -9-485.357 331.155  10
   9   2  -9-915.368 573.987  10
  -9   2  -9 42.0525 107.422  19
  -9  -2   9 48.3875 6.09988  19
   9   2  -9 30.7897 221.162   9
   9   2  -9 28.8442 45.8665  18
   9   2   9-78.2063 148.830   8
  -9   2  -9-94.7860 256.796   4
   9  -2   9 333.910 260.823   1
  -9  -2   9 113.549 140.153   4
   9  -2   9 181.557 190.346   8
  -9  -2   9 33.7616 123.316   2
  -9  -2   9 45.8068 274.991  17
   9   2  -9 63.7378 103.422   8
  -9  -2   9 2.89592 23.0666  16
   9  -2   9 78.3053 81.2678  16
  -9   2  -9 3.42340 136.320   7
  -9   2  -9 139.913 247.016  15
   9   2  -9 48.5634 93.8360  14
   9  -2   9-98.8249 164.153  14
   9  -2  -9 292.679 245.014   1
   9  -2  10 92.3127 60.4041   6
  -9   2 -10-118.092 132.584  13
   9   2 -10 107.279 65.4296   3
  -9   2 -10 136.429 301.629   3
   9   2 -10-23.3126 179.403  11
  -9  -2  10 137.550 179.502   5
  -9   2 -10 150.522 181.746  19
   9   2 -10 186.183 252.468   1
  -9  -2  10 86.6163 107.525  19
   9   2 -10 651.362 492.935   9
   9  -2  10 127.026 117.048   1
   9   2 -10 129.105 223.947  18
  -9   2 -10 59.6687 106.310   4
   9   2  10 278.499 336.352   8
   9  -2  10 166.062 158.406   8
  -9  -2  10 118.125 155.035   4
  -9  -2  10 133.689 180.558  17
  -9  -2  10 219.110 210.417   2
  -9  -2  10 167.175 129.234  16
   9   2 -10-148.349 220.637   8
   9  -2  10 362.238 300.947  16
  -9   2 -10 74.1204 120.877   7
  -9   2 -10 400.292 362.743  15
   9  -2  10 402.065 273.068  14
   9   2 -10 91.2747 124.097  14
   9  -2  11 1045.65 459.754   6
  -9   2 -11 176.098 164.144  13
   9   2 -11 778.147 387.766  11
  -9  -2  11 634.161 337.075   5
  -9   2 -11 223.182 157.603  19
  -9  -2  11 763.729 326.560  19
   9   2 -11 653.046 486.334   9
   9   2 -11 780.753 407.408   1
  -9   2 -11-354.342 425.650   4
   9   2 -11 665.591 367.662  18
   9   2  11 627.306 451.690   8
   9  -2  11 1090.96 436.371   8
  -9  -2  11 638.222 309.933   4
  -9  -2  11 370.256 375.816  17
  -9  -2  11 720.407 384.249   2
  -9  -2  11 694.267 249.849  16
   9  -2  11 1362.61 468.034  16
  -9   2 -11-11.0671 213.114   7
  -9   2 -11 770.524 507.027  15
   9   2 -11 652.420 180.813   3
   9  -2  11 973.674 463.623  14
   9   2 -11 568.187 333.364  14
  -9   2 -12-51.7924 64.9973  13
   2  -9  12 159.312 311.755   6
  -2  -9  12 11.0004 126.322   6
   9   2 -12-205.235 296.692  11
  -9  -2  12-5.73020 118.893   5
  -9   2 -12 202.296 240.229  19
  -9  -2  12 35.7278 78.4063  19
   9   2 -12-184.951 197.066   9
   2   9 -12 1.55346 37.6985  18
   9   2 -12 28.2964 47.8090   1
   9   2 -12-150.348 228.227  18
  -2  -9  12-225.399 227.312  17
   9  -2  12 263.958 276.157   8
  -9  -2  12 2.76439 70.6181   4
  -9  -2  12 204.978 210.868  17
  -9  -2  12 73.9662 121.573   2
   9  -2  12-144.248 225.483  16
  -9  -2  12 34.8285 39.8717  16
  -9   2 -12-290.816 646.526   7
  -9   2 -12-319.727 545.180  15
   9  -2  12-0.73979 91.8754  14
  -2   9 -12-125.897 275.884   3
   9   2 -12 105.378 135.427  14
   9  -2  12 229.745 218.089   6
   2  -9  13 121.064 94.1071   6
  -2  -9  13 109.224 237.841   6
   9   2 -13 1074.25 495.609  11
  -9  -2  13 1023.41 451.320   5
  -9   2 -13 620.305 366.987  19
   9   2 -13 994.017 653.131   9
  -2   9 -13 1206.89 490.527  18
   2   9 -13 1809.16 730.890  18
   9  -2  13 2606.35 766.874   8
   9   2 -13 1018.56 460.382  18
   2  -9  13 131.671 299.321  17
   9   2 -13 915.050 433.446   1
  -2  -9  13 159.704 324.784  17
  -9  -2  13 947.757 507.959  17
  -9  -2  13 1039.27 395.391   4
  -9  -2  13 1492.28 589.063   2
   9  -2  13 1928.55 635.587  16
  -9  -2  13 1201.48 369.663  16
   9  -2  13 2600.41 806.700   6
   9  -2  13 2255.24 755.146  14
   9   2 -13 419.833 294.075  14
  -2   9 -13 1599.11 606.336   3
   2   9 -14 117.194 65.4096  13
   2  -9  14-315.717 259.229   6
  -2  -9  14-126.247 207.590   6
  -2   9 -14-118.810 203.850  12
   9   2 -14 26.6960 216.372  11
  -9  -2  14 144.965 163.997   5
  -9   2 -14-131.030 216.377  19
   9   2 -14 191.169 265.806   9
  -2   9 -14 100.319 205.407  18
   2   9 -14-35.3925 308.314  18
   9   2 -14-63.5465 164.360  18
   2  -9  14 165.187 311.185  17
  -2  -9  14-235.606 446.914  17
   9  -2  14 85.5591 218.855   8
   9   2 -14 42.2668 224.476   1
  -9  -2  14 21.3562 141.924  17
  -9  -2  14 41.3453 155.567   4
  -9  -2  14-107.886 251.530   2
   9  -2  14-20.5688 133.522  16
  -9  -2  14 25.2459 29.6843  16
   9  -2  14-20.3658 250.477  14
   2   9 -14-100.625 259.081   3
   9   2 -14-69.5899 158.985  14
   9  -2  14-34.5914 133.460   6
  -2   9 -14 9.33486 176.539   3
   9   3   0 5787.12 1271.58   1
  -9   3   0 4573.14 750.409   5
   9  -3   0 3845.83 741.433   1
  -9   3   0 3289.74 442.919   2
  -9   3   0 5422.67 858.223  19
   9   3   0 5942.44 1029.99  18
   9   3   0 4642.08 927.272   8
  -9   3   0 4552.73 768.149   4
   9  -3   0 4022.02 762.991   8
  -9  -3   0-51.1514 221.888  17
   9  -3   0 3941.76 640.769   6
   9  -3   0 3985.45 726.028  14
   9  -3   1-73.1512 127.666  14
   9  -3  -1-13.4253 44.0532  14
  -9   3  -1-129.643 126.185   5
  -9   3  -1-45.9623 47.2332   2
   9  -3  -1-6.23733 84.3322   1
   9  -3   1 23.0610 22.4969   6
  -9   3   1 15.7897 24.7748   2
   9  -3  -1-34.3512 74.0205   6
  -9   3  -1-44.8607 126.689  12
  -9  -3  -1-43.0375 127.072  19
  -9  -3   1-149.393 214.951  19
  -9   3   1-13.9584 35.3205   5
  -9   3  -1-39.3824 139.580  19
   9   3   1-109.771 177.372   1
  -9   3   1-53.5429 97.9407  19
   9  -3   1 76.9997 130.174   1
   9   3   1-103.777 218.669  18
   9   3  -1-61.0942 188.623  18
   9   3   1 84.8323 184.244   8
   9   3  -1 35.8369 175.474   1
   9   3  -1 124.391 106.582   8
  -9  -3  -1 9.94434 89.5113  17
  -9  -3   1 85.4304 132.856  17
   9  -3   1 24.3301 29.1841   8
   9  -3  -1 89.3394 114.114   8
  -9   3  -1 88.8047 101.673   4
  -9   3   1-32.2886 113.751   4
  -9   3  -2 1520.53 453.196  12
   9   3  -2 3072.13 926.105   1
  -9   3  -2 2236.79 541.867   5
  -9   3   2 2364.10 537.944   5
   9  -3   2 2702.28 607.082   1
  -9   3  -2 2270.04 312.975   2
   9  -3  -2 1548.66 481.738   1
  -9   3   2 1476.61 319.031   2
  -9   3  -2 2564.84 603.860  19
  -9   3   2 2630.35 585.565  19
   9   3   2 2679.80 727.226  18
   9   3  -2 3620.39 748.684  18
   9   3   2 2366.29 694.945   8
   9   3  -2 2816.93 658.530   8
  -9   3  -2 2734.55 624.804   4
   9  -3   2 2553.79 587.513   8
  -9   3   2 2452.45 538.304   4
   9  -3  -2 1344.71 439.776   8
  -9  -3  -2 237.571 285.167  17
  -9  -3   2 258.799 245.439  17
   9  -3   2 2815.58 565.222   6
   9  -3  -2 1076.57 330.983   6
   9  -3   2 2300.45 565.257  14
   9  -3  -2 1570.15 443.064  14
   9  -3   3 54.7520 98.1440  14
   9  -3  -3 110.065 120.303  14
   9  -3   3 105.258 165.958   1
   9  -3   3-16.3987 107.278   6
  -9   3  -3 80.0834 127.575  12
  -9   3  -3 118.825 128.622   5
  -9  -3   3 59.5929 122.328  19
  -9   3  -3 17.7231 80.0674  19
  -9   3   3 23.0713 35.0422   5
  -9   3   3-17.3719 58.3342  19
   9   3   3-86.0900 200.996  18
   9   3  -3 90.1844 143.903  18
   9   3   3 103.702 165.050   8
  -9  -3  -3 163.457 190.654  17
   9   3  -3 60.6785 104.574   8
  -9  -3   3-21.7799 171.597  17
   9  -3  -3 105.845 102.592   1
   9  -3   3 74.5299 171.083   8
   9   3  -3 300.074 344.163   1
  -9   3  -3 79.3830 140.296   4
   9  -3  -3-167.527 283.784   8
  -9   3   3 47.8213 77.7258   4
  -9   3  -3 68.1290 35.4820   2
   9   3  -3 288.381 266.510  14
  -9   3  -3-212.802 334.882   3
   9  -3   4 441.434 272.158  14
   9  -3  -4 246.467 169.339   1
   9  -3  -4 233.349 162.909  14
   9   3  -4 128.434 49.7920  13
   9  -3   4 563.241 282.714   6
  -9  -3   4 102.248 59.8725  12
  -9   3  -4 389.472 249.177  12
  -9   3  -4 391.301 127.041   2
  -9   3  -4 412.097 237.020   5
  -9  -3   4-25.9251 213.822   2
  -9  -3   4 316.627 147.464  19
  -9   3  -4 225.403 148.906  19
  -9   3   4 257.190 152.286  19
  -9   3   4 204.829 134.864   5
   9   3  -4 550.411 352.679  18
   9   3   4 351.620 337.888   8
  -9  -3  -4-308.641 272.719  17
   9   3  -4 616.145 289.059   8
  -9  -3   4 159.085 135.133  17
   9  -3   4 597.856 320.015   8
  -9   3  -4 230.694 154.692   4
   9  -3   4 385.100 179.221   1
   9   3  -4 456.029 365.794   1
  -9   3   4 175.101 81.4298   4
   9   3  -4 239.785 258.450  14
  -9   3  -4 61.9836 71.4629   3
   9  -3   5 2.09420 62.4128  14
  -9   3  -5-21.5393 170.596   3
   9  -3  -5 37.9613 69.7453  14
   9   3  -5 89.8124 92.2711  13
   9  -3   5 72.0403 48.2677   6
  -9   3  -5 37.3056 99.8515  12
  -9  -3   5 21.9685 27.6996  12
   9   3  -5 76.3973 164.384  11
  -9  -3   5-172.892 224.523   5
   9  -3  -5 141.497 136.434   1
  -9   3  -5 176.727 234.470   5
  -9  -3   5-105.527 144.728  19
  -9   3  -5-17.2879 59.0171  19
  -9  -3   5-159.734 215.346   2
  -9   3   5-60.4092 104.813   5
   9   3  -5 39.1268 107.415  18
   9  -3   5 115.833 122.673   1
   9   3   5 79.9938 89.1514   8
  -9  -3   5 172.885 210.463  17
   9   3  -5 47.0422 95.0698   8
   9  -3   5-64.8921 117.312   8
  -9   3  -5 54.4290 76.9751   4
   9   3  -5 86.6481 248.682   1
   9   3  -5-93.5931 184.451  14
  -9   3  -6 134.329 206.088   3
   9  -3   6-9.27767 53.4103   6
   9   3  -6 34.8746 83.1450  13
  -9   3  -6 125.011 157.356  12
   9   3  -6 17.9397 70.7157  11
  -9  -3   6-124.983 231.380   5
   9   3  -6 4.39844 117.569  10
  -9   3  -6-41.8316 139.475   5
   9  -3   6 127.467 170.938   1
  -9   3  -6 155.878 113.919   9
  -9  -3   6 53.0584 85.4394  19
  -9   3  -6-38.3408 112.874  19
  -9  -3   6 36.2028 136.026   2
   9   3  -6 152.818 238.243  18
  -9  -3   6-221.978 286.030   4
   9   3   6-30.0918 140.249   8
  -9  -3   6 46.9464 230.588  17
   9   3  -6 118.483 160.763   8
  -9   3  -6 133.626 187.442   4
   9  -3   6-44.1128 67.4281   8
   9   3  -6-50.8475 103.909  14
   9  -3   6-88.6506 133.534  14
   9   3  -7 1090.40 442.017  13
   9  -3   7-64.3528 106.861   6
  -9   3  -7-53.9501 140.156   3
  -9   3  -7-77.3775 128.337  12
   9  -3   7 79.3350 100.759   1
   9   3  -7 141.068 156.857  11
  -9  -3   7-19.7573 142.089   5
  -9   3  -7 131.807 192.125   5
  -9   3  -7 107.163 113.704  10
   9   3  -7-199.454 154.270  10
  -9   3  -7 166.278 114.384   9
  -9   3  -7-37.2962 79.8372  19
  -9  -3   7 115.677 219.998   2
   9   3  -7 149.471 148.079  18
   9   3   7 171.912 267.042   8
  -9  -3   7-53.2162 118.223   4
  -9   3  -7-224.473 209.332   4
   9   3  -7 120.718 99.1484   8
   9  -3   7-152.047 122.398   8
   9   3  -7 1446.26 552.922  14
   9  -3   7 53.9848 104.759  14
   9  -3   8 128.361 114.484   1
   9   3  -8 194.941 292.159   1
   9  -3   8 136.176 188.910   6
   9   3  -8 93.0018 125.282  13
  -9   3  -8 10.3761 78.9201   3
  -9   3  -8 77.6851 132.901  12
   9   3  -8 223.944 227.949  11
  -9  -3   8 21.3361 41.8848   5
  -9   3  -8 36.8747 87.3543   5
  -9   3  -8 159.595 176.480  10
   9   3  -8 82.4963 76.0781  10
   9   3  -8 710.380 476.507   9
  -9  -3   8 90.2160 95.5748  19
  -9   3  -8-2.91647 78.3974  19
  -9   3  -8 20.4067 16.9816   9
   9   3  -8-82.8366 60.3048  18
  -9  -3   8-20.4695 111.061   2
  -9  -3   8-0.27135 150.335   4
  -9  -3   8 567.607 857.998  17
  -9   3  -8-105.650 160.976   4
   9  -3   8 93.6092 154.111   8
   9   3  -8 80.6762 41.8029   8
   9  -3   8-245.516 390.159  16
   9   3  -8 280.599 260.869  14
   9  -3   8 251.190 259.691  14
   9  -3   9-26.5135 31.0276   6
   9   3  -9 199.394 253.725   1
   9   3  -9-57.6380 95.5936  13
  -9   3  -9-40.4199 60.9401   3
  -9   3  -9-0.47632 94.9440  12
   9   3  -9-10.2487 138.414  11
  -9   3  -9 181.120 194.744   5
  -9  -3   9-20.8664 113.932   5
  -9   3  -9 165.867 134.294  10
   9   3  -9-104.088 140.733  10
   9   3  -9 83.5138 174.765   9
  -9   3  -9 154.733 175.338  19
  -9  -3   9 165.434 174.800  19
  -9   3  -9 138.442 102.541   9
   9   3  -9-21.5725 130.724  18
  -9  -3   9 108.852 192.724   2
  -9  -3   9-101.374 203.447   4
  -9   3  -9 114.401 264.319   4
  -9  -3   9 143.039 182.271  17
   9  -3   9 84.0542 44.2131   8
   9   3  -9 10.9627 73.9958   8
   9  -3   9-135.584 229.138  16
  -9   3  -9 554.509 565.353   7
   9  -3   9 32.2538 147.991   1
  -9   3  -9 341.710 424.619  15
   9   3  -9-121.007 187.784  14
   9  -3   9 167.840 196.478  14
   9  -3  10 861.910 331.230   6
  -9   3 -10 18.3339 179.204  13
   9   3 -10 831.747 337.108  13
  -9   3 -10 320.779 284.390  12
   9   3 -10 692.794 400.697   1
  -9   3 -10 413.635 303.031   3
  -9   3 -10 172.697 50.6792   5
   9   3 -10 818.331 471.108  11
  -9  -3  10 453.694 295.629   5
  -9   3 -10 311.687 183.376  10
   9   3 -10 178.189 115.281  10
  -9   3 -10 515.264 301.226  19
   9   3 -10 807.970 476.866   9
  -9  -3  10 577.801 268.493  19
  -9   3 -10 162.457 72.9140   9
   9   3 -10 750.682 440.774  18
  -9  -3  10 226.766 173.005   4
  -9  -3  10 573.432 347.332   2
  -9   3 -10 397.360 280.790   4
  -9  -3  10 433.652 313.624  17
   9  -3  10 886.940 361.343   8
   9  -3  10 998.111 429.423   1
   9   3 -10 631.275 244.771   8
  -9  -3  10 283.069 93.6823  16
   9  -3  10 770.706 351.485  16
  -9   3 -10 1042.15 611.296   7
  -9   3 -10 970.998 554.388  15
   9   3 -10-23.1094 160.518  14
   9   3 -10 32.7480 66.5695   3
   9  -3  10 867.103 390.231  14
   9   3 -11 6.05552 10.8714   3
   9  -3  11-176.140 129.389   6
  -9   3 -11 60.0743 63.8005  13
   9   3 -11 138.575 165.006  13
  -9   3 -11 55.2682 161.616  12
  -9   3 -11 5.34106 84.5335   3
   9   3 -11-15.3013 167.481   1
   9   3 -11-167.324 286.693  11
  -9  -3  11-77.3301 201.508   5
  -9   3 -11-30.0161 142.289  10
   9   3 -11 541.720 474.443  10
   9   3 -11 604.699 549.753   9
  -9   3 -11 126.392 148.840  19
  -9  -3  11 19.0311 41.4716  19
  -9   3 -11-269.917 311.041   9
   3   9 -11-208.104 380.706  18
   9  -3  11 80.0109 210.208   1
   9   3 -11-88.5668 162.749  18
  -9   3 -11-231.078 307.174   4
  -9  -3  11-137.246 83.2183   4
  -3  -9  11 117.450 301.694  17
  -9  -3  11 82.2805 196.629   2
  -9  -3  11 94.1889 231.514  17
   9  -3  11-59.4450 86.4390   8
  -9  -3  11-74.6550 87.1660  16
   9  -3  11 245.718 269.691  16
   9   3 -11-127.771 207.541   8
  -9   3 -11-164.284 262.002   7
  -9   3 -11 101.227 191.689  15
   9   3 -11 107.010 193.972  14
   9  -3  11-13.4489 51.3641  14
  -9   3 -12 197.318 347.691  13
  -9   3 -12 710.493 553.553  12
   3  -9  12 266.865 236.589   6
  -9   3 -12 771.050 478.989   3
   9   3 -12 2032.00 676.549   1
   9   3 -12 2311.24 745.875  11
  -9  -3  12 1518.28 568.458   5
   9  -3  12 1047.13 642.659   1
  -9  -3  12 1321.79 387.077  19
  -9   3 -12 635.240 304.314  10
   9   3 -12 1073.50 591.298  10
  -9   3 -12 1093.94 530.222  19
   9   3 -12 1508.99 666.282   9
  -9   3 -12-493.082 379.229   9
   3   9 -12 1748.20 705.781  18
   9  -3  12 3126.11 766.326   8
   9   3 -12 1930.00 635.912  18
  -9   3 -12 433.391 392.481   4
  -9  -3  12 1158.07 442.635   4
  -3  -9  12 416.412 465.355  17
  -9  -3  12 1682.54 592.168   2
  -9  -3  12 1534.01 656.764  17
  -9  -3  12 1789.27 406.681  16
   9  -3  12 2924.61 781.454  16
  -9   3 -12 1116.47 686.344   7
  -3   9 -12 2156.11 713.021   3
   9  -3  12 2366.44 793.181   6
  -9   3 -12 1329.57 736.516  15
   9   3 -12 1719.37 319.664   3
   9  -3  12 3842.51 966.279  14
   9   3 -12 569.021 352.504  14
   9  -3  13 1158.74 644.690   6
   3   9 -13-765.746 502.118  13
  -9   3 -13 983.886 448.131  13
   9   3 -13 18.1332 7.31238   3
  -9   3 -13 2938.09 882.687  12
   3  -9  13 113.522 310.826   6
  -3  -9  13 90.1323 160.045   6
  -9   3 -13 766.597 527.792   3
  -3   9 -13-189.985 339.758  12
   9   3 -13 122.461 145.867  11
   9   3 -13 145.594 219.801   1
  -9  -3  13-137.348 225.406   5
  -9   3 -13 985.050 515.658  10
   9   3 -13 66.5104 340.120  10
  -9   3 -13 701.149 516.472  19
   9   3 -13 82.5416 69.8008   9
  -9  -3  13-174.399 191.553  19
  -3   9 -13-270.016 367.016  18
   3   9 -13 37.6974 231.585  18
  -9   3 -13 1016.43 612.880   4
   9   3 -13 90.5541 166.827  18
   3  -9  13-0.40168 82.4227  17
  -3  -9  13 244.847 370.592  17
  -9  -3  13 114.146 213.324   4
  -9  -3  13 19.2666 55.5727   2
   9  -3  13 1592.97 647.056   8
  -9  -3  13-160.055 231.415  17
  -9  -3  13-2.10664 19.9626  16
   9  -3  13 720.817 593.335  16
  -9   3 -13 709.065 647.111   7
  -9   3 -13 854.999 665.576  15
   9   3 -13-159.240 212.598  14
   9  -3  13 1299.08 691.046  14
  -3   9 -13 166.302 244.182   3
   3   9 -14 2878.85 929.002  13
  -9   3 -14-26.1325 120.478  13
  -3  -9  14 115.255 114.302   6
   3  -9  14 441.903 311.126   6
  -3   9 -14 2433.51 619.122  12
  -9   3 -14 907.586 550.034  12
  -9   3 -14 313.656 345.608   3
   9   3 -14 2420.93 802.806  11
  -9  -3  14 1880.96 610.367   5
   9   3 -14 2030.55 706.617   1
  -9   3 -14 180.376 108.624  10
   9   3 -14-40.3002 500.727  10
  -9   3 -14 795.150 340.740  19
   9   3 -14 1356.01 672.541   9
  -9  -3  14 505.848 120.436  19
  -3   9 -14 2344.98 661.727  18
   9   3 -14 2474.78 760.787  18
   3   9 -14 2563.15 841.629  18
   9  -3  14 3384.67 807.409   8
  -3   9 -14 2707.28 521.411   4
   3  -9  14 170.745 183.965  17
  -9  -3  14 1484.27 486.260   4
  -3  -9  14-194.650 268.543  17
  -9  -3  14 1977.52 693.330   2
  -9  -3  14 1475.22 697.567  17
  -9  -3  14 2395.05 508.626  16
   9  -3  14 3495.98 879.403  16
  -9   3 -14 479.246 180.432   7
   9  -3  14 2910.02 848.036   6
  -3   9 -14 2842.69 892.566   3
  -9   3 -14 888.846 411.826  15
   9  -3  14 3518.53 897.612  14
   9   3 -14 236.292 165.801  14
   9  -4   0 366.058 263.488  14
   9  -4   0 305.918 204.954   6
  -9   4   0 346.789 193.086   5
  -9   4   0 352.510 170.205  19
   9   4   0 287.014 298.655  18
   9   4   0 206.022 100.036   8
  -9  -4   0-75.1908 192.313  17
   9  -4   0 203.893 128.276   8
   9  -4   0 163.084 145.735   1
  -9   4   0 145.553 90.0161   4
   9   4  -1 4367.59 1153.51   1
  -9   4  -1 3793.19 684.900   5
  -9   4   1 3542.04 640.863   5
   9  -4   1 2616.56 605.337   1
   9  -4  -1 2070.80 538.477   1
  -9   4  -1 4590.49 792.371  19
  -9   4   1 4696.94 798.265  19
   9   4   1 3906.73 903.400  18
   9   4  -1 5545.65 1073.48  18
   9   4   1 2889.13 757.790   8
   9   4  -1 3567.67 819.163   8
  -9   4  -1 3850.60 700.092   4
  -9   4   1 3371.26 649.327   4
   9  -4   1 2674.55 616.721   8
   9  -4  -1 1525.13 399.389   8
   9  -4   1 2435.73 557.793   6
   9  -4   1 2562.96 601.236  14
   9  -4  -1 2103.48 538.263  14
   9  -4   2 81.8075 123.974  14
   9  -4  -2 137.837 165.104  14
   9  -4   2 103.559 174.378   1
   9  -4   2 149.411 150.749   6
  -9   4  -2-347.500 225.588  12
  -9  -4   2 79.9604 38.5503  19
  -9   4  -2 274.191 205.228   5
  -9   4  -2 143.842 121.510  19
  -9   4   2-113.734 242.591  19
   9   4  -2 136.728 175.114   1
  -9   4   2 39.9166 122.832   5
   9   4  -2 172.044 166.611  18
   9   4   2 45.6280 152.903   8
   9   4  -2 311.315 219.683   8
  -9  -4  -2-115.248 339.960  17
  -9  -4   2 80.5113 259.238  17
   9  -4   2 92.8300 27.8711   8
  -9   4  -2 154.066 125.802   4
   9  -4   3 1179.71 404.970  14
  -9   4  -3 1278.96 437.089  12
  -9   4  -3 1630.49 453.480   5
  -9   4  -3 1569.85 474.181  19
  -9  -4   3 64.5248 179.216  19
   9   4  -3 1585.78 605.888  18
  -9   4  -3 1478.38 452.939   4
   9   4  -3 1533.59 644.880   1
   9   4   3 558.282 420.594   8
   9   4  -3 2076.30 523.906   8
  -9  -4   3-337.314 291.406  17
   9  -4   3 1531.09 427.232   1
   9  -4   3 1194.80 433.556   8
   9  -4   3 1334.86 421.712   6
   9  -4   4 851.942 344.834  14
   9  -4   4 830.368 305.675   6
  -9   4  -4 619.556 305.393  12
   9  -4   4 1056.16 359.591   1
  -9  -4   4-125.477 200.867  19
  -9   4  -4 728.538 290.041   5
  -9   4  -4 1035.06 371.628  19
   9   4  -4 866.430 491.629  18
   9   4   4 318.621 225.227   8
   9   4  -4 1095.66 562.259   1
   9   4  -4 857.395 349.819   8
  -9  -4   4 116.114 219.897  17
   9  -4   4 848.562 341.041   8
  -9   4  -4 802.071 338.663   4
   9  -4   5 109.020 112.515  14
  -9   4  -5 35.3087 32.0789   2
   9  -4   5 207.673 166.547   1
   9  -4   5 129.481 126.439   6
  -9  -4   5 89.5522 57.5518  12
  -9   4  -5 51.0144 69.0394  12
  -9  -4   5-396.694 521.773   2
  -9   4  -5 148.608 86.4426   5
  -9  -4   5 95.5652 148.181  19
  -9   4  -5 16.3166 37.1790  19
   9   4  -5 128.634 205.262  18
   9   4  -5 210.369 141.192   8
  -9  -4   5-30.3293 95.0554  17
   9   4  -5 212.430 243.315   1
   9  -4   5 196.844 181.532   8
  -9   4  -5 141.022 50.0928   4
  -9   4  -5-58.3610 152.496   3
   9  -4   6 265.039 211.991  14
  -9   4  -6 86.3843 177.836   3
   9   4  -6 346.265 249.396  13
   9  -4   6 69.4997 91.6119   6
  -9   4  -6 50.9360 33.0545  12
  -9   4  -6 203.346 182.725   5
  -9  -4   6-272.770 386.545   2
  -9  -4   6 34.1974 57.7301  19
  -9   4  -6 62.6052 136.364  19
   9   4  -6 161.582 209.020  18
  -9  -4   6 152.278 220.858  17
   9   4  -6 305.287 201.304   8
   9   4  -6 352.850 263.280   1
   9  -4   6 210.087 179.935   8
  -9   4  -6 50.3068 114.628   4
   9  -4   6 45.7949 52.5871   1
   9  -4   7 39.6144 25.7537  14
  -9   4  -7-85.1307 109.107   3
   9   4  -7 160.375 186.978  13
   9  -4   7 14.3438 107.709   6
  -9   4  -7 13.1661 115.424  12
  -9   4  -7-11.5867 9.09598   5
  -9  -4   7 18.6681 87.6136  19
  -9  -4   7 67.5322 171.543   2
  -9   4  -7-70.0867 129.286  19
   9   4  -7-50.9485 129.688  18
   9  -4   7 28.8586 126.928   1
  -9  -4   7 81.1649 216.426  17
   9   4  -7-94.5120 106.905   8
  -9   4  -7 224.134 236.329   4
   9  -4   7 269.193 222.788   8
   9   4  -7 71.6645 202.825   1
  -9   4  -8-16.2923 125.843   3
   9  -4   8 367.200 206.577   6
   9   4  -8 204.426 167.301  13
  -9   4  -8 197.451 146.119  12
   9   4  -8 254.647 229.680  11
  -9   4  -8-5.49411 116.513   5
   9  -4   8 382.965 225.519   1
  -9  -4   8 120.300 177.374  19
  -9   4  -8 262.594 169.372  19
  -9  -4   8 186.488 268.193   2
   9   4  -8 233.214 241.726  18
  -9  -4   8 32.0832 112.070  17
   9   4  -8 262.250 172.657   8
  -9   4  -8 222.886 234.119   4
   9  -4   8 333.501 231.777   8
   9   4  -8 327.274 324.427   1
   9  -4   8 293.462 202.414  14
   9  -4   9 549.792 281.203   6
  -9   4  -9 204.120 231.200   3
   9   4  -9 561.630 285.853  13
   9  -4   9 659.869 309.083   1
  -9   4  -9 157.713 149.196  12
   9   4  -9 702.207 358.034  11
  -9   4  -9 433.749 283.298   5
   9   4  -9 201.517 236.134  10
  -9  -4   9 485.390 252.121  19
  -9   4  -9 287.625 213.327  19
  -9  -4   9 376.057 244.514   2
   9   4  -9 632.155 351.684  18
  -9  -4   9-5.06257 145.007  17
  -9   4  -9 303.177 206.463   4
   9   4  -9 587.528 247.539   8
   9  -4   9 413.896 194.843   8
   9   4  -9 491.399 366.204   1
   9  -4   9 518.994 295.505  14
   9  -4  10 229.936 198.817   6
   9   4 -10 335.876 219.266  13
  -9   4 -10 59.7507 126.471   3
  -9   4 -10 29.4950 48.0730  12
   9   4 -10 214.276 264.348  11
  -9  -4  10-142.998 361.518   5
  -9   4 -10 93.7036 139.780   5
  -9   4 -10 270.275 207.853  10
   9   4 -10 254.336 391.856  10
  -9   4 -10 434.749 294.290   9
  -9   4 -10 130.235 138.843  19
  -9  -4  10 177.292 242.532   2
   9   4 -10 126.402 103.413  18
  -9  -4  10-109.515 161.222  19
  -9   4 -10 21.6667 88.6928   4
  -9  -4  10 5.58047 138.470  17
   9  -4  10 227.817 169.736   8
   9   4 -10 208.577 137.904   8
   9  -4  10-262.032 424.608  16
   9   4 -10 140.766 77.7319   1
   9  -4  10 231.456 221.550   1
   9  -4  10 175.181 170.654  14
   9  -4  11 1804.59 605.986   6
   9   4 -11 1849.52 529.644  13
  -9   4 -11 432.405 351.174   3
  -9   4 -11 319.278 295.051  12
   9   4 -11 2278.20 765.020  11
  -9  -4  11 666.688 326.127   5
  -9   4 -11 716.343 349.592   5
  -9   4 -11 1063.28 328.861  10
   9   4 -11 1634.18 693.343  10
  -9   4 -11 1092.24 337.754   9
  -9   4 -11 968.939 394.848  19
  -9  -4  11 891.943 328.686  19
   4   9 -11 1796.57 779.212  18
   9   4 -11 1551.34 376.218   8
   9   4 -11 2054.73 670.940  18
  -9  -4  11 1359.29 596.273   2
  -4  -9  11 273.502 444.033  17
  -9   4 -11 856.345 418.181   4
  -9  -4  11 757.879 419.326  17
   9  -4  11 1820.69 518.357   8
   9  -4  11 1351.97 459.865   1
   9  -4  11 1118.05 346.052  16
  -9   4 -11 1714.49 751.996  15
   9   4 -11 1240.58 579.059   1
   9   4 -11 3125.14 1125.27   9
   9  -4  11 1950.86 588.915  14
   9   4 -12 382.507 333.182   1
   9  -4  12 664.814 435.608   6
  -9   4 -12 2255.38 643.977  13
   9   4 -12 455.421 296.251  13
  -9   4 -12 1017.23 512.625   3
   4  -9  12 76.5889 170.841   6
  -9   4 -12 1614.84 668.021  12
  -4  -9  12-25.9806 137.638   6
   9   4 -12 122.368 379.627  11
  -9  -4  12 78.7905 100.457   5
  -9   4 -12 213.841 188.008  10
   9   4 -12 365.070 217.668  10
   9   4 -12 911.081 591.212   9
  -9   4 -12 394.363 347.349  19
  -9  -4  12 344.740 197.563  19
  -9   4 -12 94.8761 133.377   9
   4   9 -12 75.1762 130.270  18
   9   4 -12 231.267 151.036  18
  -9  -4  12 283.039 354.996   2
   9  -4  12 377.007 156.797   1
  -9   4 -12 664.273 485.874   4
  -4  -9  12 93.7364 417.329  17
  -9  -4  12 334.817 398.773  17
   9  -4  12 543.231 373.955   8
  -9  -4  12 237.684 73.1223  16
   9  -4  12 594.783 430.060  16
  -9   4 -12 285.780 435.207   7
  -9   4 -12 296.761 278.029  15
  -4   9 -12-18.1267 292.103   3
   9   4 -12 283.243 150.772   3
   9  -4  12 472.551 244.931  14
   9   4 -13 2261.44 807.100   1
   9   4 -13 2598.67 667.618  13
   4   9 -13 1988.07 778.217  13
  -9   4 -13-48.9371 169.022  13
   4  -9  13 212.264 285.669   6
  -4   9 -13 2278.18 610.383  12
  -4  -9  13 86.4637 203.523   6
  -9   4 -13 635.738 376.714   3
  -9   4 -13 869.918 375.296  12
   9   4 -13 3738.72 1023.08  11
  -9  -4  13 1063.21 484.107   5
  -9   4 -13 1356.34 457.445  10
   9   4 -13 1750.99 676.265  10
   9  -4  13 315.492 232.299   1
  -9   4 -13 1190.67 402.473  19
   9   4 -13 2056.37 773.438   9
  -9  -4  13 1004.68 351.861  19
  -9   4 -13 742.229 258.600   9
   9   4 -13 2701.07 834.323  18
  -4   9 -13 1770.69 478.280  18
   4   9 -13 2808.68 934.924  18
   9  -4  13 3019.69 709.470   8
  -4   9 -13 2559.66 525.718   4
  -9  -4  13 1989.66 699.941   2
  -9   4 -13 747.124 473.317   4
   4  -9  13-95.3665 203.647  17
  -4  -9  13-70.5185 215.790  17
  -9  -4  13 1594.59 647.125  17
  -9  -4  13 1679.91 419.029  16
   9  -4  13 2702.84 834.977  16
  -9   4 -13 2107.15 936.932   7
  -4   9 -13 2488.78 830.042   3
   9  -4  13 2686.14 755.449   6
  -9   4 -13 1913.01 862.815  15
   9  -4  13 3207.37 846.035  14
   9   5   0 1529.67 622.221  18
   9   5   0 1501.41 566.604   8
  -9  -5   0-2.29067 157.552  17
   9  -5   1 420.523 274.524  14
  -9   5  -1 559.660 227.832  19
  -9   5  -1 509.369 233.174   5
   9   5  -1 613.489 375.563  18
   9   5  -1 449.497 357.083   8
  -9  -5   1 122.587 279.829  17
  -9   5  -1 426.640 198.062   4
   9  -5   2 788.050 319.596  14
   9  -5   2 501.627 249.708   6
   9  -5   2 890.566 327.947   1
  -9   5  -2 1162.50 373.400   5
  -9   5  -2 1412.26 436.217  19
   9   5  -2 1725.06 622.981  18
   9   5  -2 893.270 421.448   8
  -9  -5   2-210.314 257.221  17
   9  -5   2 476.955 232.778   8
  -9   5  -2 1110.05 377.697   4
   9  -5   3 788.048 348.151  14
   9  -5   3 691.127 323.415   6
  -9   5  -3 1179.27 365.662   5
  -9   5  -3 1141.87 376.819  19
   9   5  -3 1631.79 669.481  18
  -9   5  -3 1163.75 411.016   4
   9   5  -3 850.524 411.458   8
  -9  -5   3-233.123 266.796  17
   9  -5   3 882.362 312.119   1
   9  -5   3 893.154 351.086   8
   9  -5   4 278.116 167.906  14
   9  -5   4 277.796 206.061   6
   9  -5   4 200.286 124.712   1
  -9   5  -4 246.715 174.263  12
  -9  -5   4 18.3812 188.317  19
   9   5  -4 146.161 225.866   1
  -9   5  -4 304.683 194.536   5
  -9   5  -4 160.187 148.337  19
   9   5  -4 45.9289 135.375  18
   9   5  -4 58.5028 107.802   8
  -9  -5   4-74.0418 199.698  17
   9  -5   4 74.5736 104.354   8
  -9   5  -4 145.591 99.3589   4
   9  -5   5 853.988 368.269  14
   9  -5   5 539.384 269.956   6
  -9   5  -5 860.005 401.411  12
  -9  -5   5 28.1120 204.187  19
  -9   5  -5 819.434 304.589   5
  -9   5  -5 1185.13 388.205  19
   9   5  -5 865.050 449.708   1
   9   5  -5 811.909 472.831  18
   9   5  -5 795.257 403.791   8
  -9  -5   5-43.3072 148.031  17
   9  -5   5 693.255 327.558   8
   9  -5   5 918.559 333.853   1
  -9   5  -5 943.063 382.687   4
   9  -5   6 121.643 107.899  14
   9  -5   6-33.1220 113.628   6
  -9   5  -6 23.9283 97.9263  12
   9  -5   6 79.0298 99.4098   1
  -9  -5   6-118.057 192.325  19
  -9   5  -6 98.4497 97.7000   5
  -9   5  -6-23.9992 92.1512  19
   9   5  -6 52.9629 37.7987  18
   9   5  -6 327.638 344.475   1
   9   5  -6 138.688 159.471   8
  -9  -5   6-6.52677 136.499  17
   9  -5   6 82.3967 155.004   8
  -9   5  -6 88.8741 58.2598   4
  -9   5  -6-77.1330 284.694   3
   9  -5   7 556.641 273.687  14
   9   5  -7 708.755 317.587  13
   9  -5   7 734.693 281.098   1
   9  -5   7 660.662 287.844   6
  -9   5  -7 469.875 316.452  12
  -9  -5   7-649.798 619.171   2
  -9   5  -7 1092.94 358.524   5
  -9  -5   7-154.688 256.437  19
  -9   5  -7 646.596 306.603  19
   9   5  -7 998.581 478.176  18
   9   5  -7 1010.36 602.423   1
   9   5  -7 993.645 349.789   8
  -9  -5   7 122.760 322.867  17
   9  -5   7 644.163 293.495   8
  -9   5  -7 623.264 322.616   4
  -9   5  -7 378.043 302.671   3
   9  -5   8 115.669 165.987  14
  -9   5  -8 57.5413 219.872   3
   9   5  -8 98.7042 278.188  13
   9  -5   8-71.0254 84.6096   6
  -9   5  -8 4.29891 25.3049  12
  -9   5  -8-113.625 143.205   5
  -9  -5   8-280.313 386.630   2
  -9  -5   8-80.5165 119.314  19
  -9   5  -8 97.0107 156.829  19
   9   5  -8-264.067 252.544  18
   9   5  -8-72.2010 112.022   1
  -9  -5   8 133.091 312.819  17
   9   5  -8-9.81876 71.0284   8
  -9   5  -8-74.7508 129.923   4
   9  -5   8 5.36950 43.8059   8
   9  -5   8-129.020 158.207   1
   9  -5   9 742.038 361.363  14
  -9   5  -9 244.184 311.029   3
   9   5  -9 776.967 361.177  13
   9  -5   9 731.985 328.409   6
  -9   5  -9 610.626 297.556  12
  -9   5  -9 470.578 279.243   5
  -9  -5   9-74.3941 194.408   2
  -9  -5   9 44.4689 140.546  19
  -9   5  -9 610.437 279.979  19
   9  -5   9 643.433 236.548   1
   9   5  -9 519.856 308.434  18
   9   5  -9 732.375 500.092   1
  -9  -5   9-0.35214 80.9687  17
   9   5  -9 787.747 286.607   8
  -9   5  -9 509.758 336.873   4
   9  -5   9 571.470 293.546   8
  -9   5 -10 336.482 235.062   3
   9  -5  10 402.837 221.265   6
   9   5 -10 487.446 397.379  13
  -9   5 -10 383.751 292.189  12
   9   5 -10 203.493 385.501  11
   9  -5  10 276.707 184.220   1
  -9   5 -10 528.744 319.084   5
  -9  -5  10-41.5273 160.404  19
  -9  -5  10 231.203 229.828   2
  -9   5 -10 340.428 210.179  19
   9   5 -10 309.823 311.032  18
  -9  -5  10-17.8098 94.4672  17
   9   5 -10 247.272 131.155   8
  -9   5 -10 181.798 96.0277   4
   9   5 -10 797.412 546.716   1
   9  -5  10 389.706 265.906   8
   9  -5  10 376.985 162.723  14
   9  -5  11 515.816 230.014   1
   9   5 -11 2344.60 785.040  13
   9  -5  11 938.407 412.528   6
  -9   5 -11 402.025 349.147   3
  -9   5 -11 649.068 328.275  12
   9   5 -11 2207.18 926.176  11
  -9   5 -11 751.991 343.663   5
   9   5 -11 3464.40 1130.93  10
  -9  -5  11 781.617 329.231  19
  -9   5 -11 535.583 291.759  19
  -9  -5  11 522.111 488.798   2
   5   9 -11 998.265 643.271  18
   9   5 -11 1549.37 775.001  18
  -5  -9  11-190.311 126.142  17
  -9  -5  11 705.670 445.667  17
  -9   5 -11 772.973 397.581   4
   9  -5  11 1012.62 415.776   8
   9   5 -11 1721.24 878.984   1
   9  -5  11 765.482 318.676  14
   9  -5  12 1469.26 575.044   6
  -9   5 -12 672.831 427.246   3
   9   5 -12 1615.04 534.352  13
   5  -9  12 357.915 338.284   6
  -5  -9  12-3.79145 114.581   6
  -9   5 -12 671.357 368.669  12
  -5   9 -12 1204.60 452.785  12
   9   5 -12 1719.47 698.898  11
  -9   5 -12 898.210 410.193   5
  -9   5 -12 1373.91 423.816  10
   9   5 -12 1249.41 556.101  10
  -9  -5  12 540.207 192.600  19
  -9   5 -12 948.790 362.198  19
  -9  -5  12 790.980 508.465   2
   5   9 -12 1151.94 603.563  18
   9   5 -12 1409.12 565.745  18
  -5  -9  12-106.099 184.958  17
  -9   5 -12 999.501 484.037   4
  -9  -5  12 671.247 442.655  17
   9  -5  12 1633.79 546.823   8
   9  -5  12 53.7679 556.769  16
   9   5 -12 1266.83 637.238   1
   9  -5  12 1231.55 437.870   1
  -5   9 -12 1384.00 393.063   4
  -5   9 -12 1078.19 505.040   3
   9  -5  12 1590.91 505.464  14
   9   6  -2 539.616 339.473  18
  -9  -6   2-79.5448 324.605  17
   9   6  -3 190.743 296.980  18
   9   6  -3 219.966 186.384   8
  -9  -6   3 138.950 391.395  17
   9  -6   4 669.421 366.868  14
   9  -6   4 419.797 292.167   6
  -9   6  -4 1200.38 360.803   5
  -9   6  -4 879.501 320.718  19
   9   6  -4 1362.93 622.449  18
   9   6  -4 561.546 351.094   8
  -9  -6   4 494.622 468.743  17
   9  -6   4 195.700 171.906   8
  -9   6  -4 1148.79 392.924   4
   9  -6   5 248.744 209.706  14
   9  -6   5 542.542 286.746   6
  -9   6  -5 93.1778 135.186  12
  -9   6  -5 443.695 221.569   5
  -9   6  -5 182.018 16.8228  19
   9   6  -5 258.002 234.309  18
   9   6  -5 38.1234 203.674   8
  -9  -6   5 0.10901 53.5915  17
   9  -6   5 31.5840 152.756   8
  -9   6  -5 404.254 268.148   4
   9  -6   5 145.659 121.605   1
   9  -6   6 427.289 258.179  14
   9  -6   6 506.771 315.522   6
  -9   6  -6 777.609 390.730  12
   9  -6   6 612.119 281.421   1
  -9  -6   6 226.832 220.591  19
  -9   6  -6 797.906 303.621   5
  -9   6  -6 800.054 309.544  19
   9   6  -6 912.888 482.270  18
   9   6  -6 625.889 360.166   8
  -9  -6   6-61.3520 144.660  17
   9  -6   6 717.253 320.270   8
  -9   6  -6 905.495 368.137   4
   9  -6   7 400.385 225.748  14
   9  -6   7 330.633 274.912   6
  -9   6  -7 460.779 299.147  12
   9   6  -7 742.410 545.565   1
  -9  -6   7 82.3156 204.534  19
  -9   6  -7 903.336 348.249   5
  -9   6  -7 607.616 305.492  19
   9   6  -7 486.494 310.976  18
   9   6  -7 741.094 337.619   8
  -9  -6   7-251.527 288.393  17
   9  -6   7 582.678 308.742   8
   9  -6   7 727.782 303.949   1
  -9   6  -7 674.149 335.530   4
  -9   6  -7-16.8820 306.338   3
   9  -6   8 477.760 285.343  14
   9  -6   8 402.988 291.296   6
  -9   6  -8 480.480 270.903  12
   9  -6   8 767.233 296.573   1
  -9  -6   8-105.971 242.842  19
  -9   6  -8 465.079 193.263   5
   9   6  -8 165.093 247.380   1
  -9   6  -8 448.356 271.864  19
   9   6  -8 439.790 321.330  18
   9   6  -8 611.177 290.761   8
  -9  -6   8 29.3224 308.050  17
   9  -6   8 652.386 353.051   8
  -9   6  -8 696.830 330.854   4
  -9   6  -8 298.433 204.483   3
   9  -6   9 178.517 124.777   1
   9  -6   9 200.633 205.573  14
   9   6  -9 191.244 129.260  13
   9  -6   9 91.7013 104.658   6
  -9   6  -9 103.228 98.3970  12
  -9  -6   9-2.87832 31.8269  19
  -9   6  -9 189.885 175.763  19
   9   6  -9 405.528 458.581   1
   9   6  -9 515.291 501.691  18
  -9   6  -9 307.595 209.312   5
   9   6  -9 216.993 207.286   8
  -9  -6   9-45.7514 132.331  17
  -9   6  -9 138.471 194.110   4
   9  -6   9 164.781 184.803   8
  -9   6  -9 145.805 241.347   3
   9  -6  10 856.420 355.661  14
  -9   6 -10 570.125 448.743   3
   9   6 -10 897.766 457.870  13
   9  -6  10 687.779 418.245   6
  -9   6 -10 314.023 261.549  12
  -9  -6  10-462.678 554.747   2
  -9   6 -10 920.220 365.990   5
  -9  -6  10 21.8464 115.813  19
  -9   6 -10 885.802 369.824  19
   6   9 -10 1237.74 705.354  18
   9   6 -10 719.408 477.906   1
   9   6 -10 891.399 515.481  18
  -6  -9  10 528.590 710.844  17
   9  -6  10 803.767 296.184   1
  -9  -6  10-58.4879 268.813  17
  -9   6 -10 769.304 371.835   4
   9  -6  10 895.924 402.814   8
   9  -6  11 124.820 163.224  14
  -9   6 -11 112.161 165.128   3
   9   6 -11 298.452 279.024  13
   9  -6  11-97.2354 185.623   6
   6  -9  11 153.333 352.617   6
  -9   6 -11 131.035 62.9753  12
  -9   6 -11 1.69862 78.0301   5
   9  -6  11 34.1637 63.7575   1
  -9  -6  11-53.9257 278.895   2
  -9  -6  11 154.862 171.736  19
  -9   6 -11 58.6778 127.438  19
   6   9 -11 191.826 425.122  18
   9   6 -11 72.2805 150.180  18
   9   6 -11 40.3826 209.198   1
  -6  -9  11-405.740 285.349  17
  -9  -6  11 130.298 234.283  17
  -9   6 -11 90.7514 179.118   4
   9  -6  11 71.1149 78.4081   8
   9   7  -4 1350.13 733.776  18
  -9  -7   4 45.6130 264.857  17
   9   7  -5 589.240 423.575  18
   9   7  -5 247.182 203.904   8
  -9  -7   5 24.5876 352.530  17
   9  -7   6 299.984 275.634   6
   9   7  -6 2045.25 801.177  18
  -9   7  -6 1573.54 484.563   4
   9   7  -6 1224.14 473.911   8
  -9  -7   6 61.7377 472.259  17
   9  -7   6-20.8659 354.839   8
   9  -7   7 331.692 236.929  14
   9  -7   7 18.5593 79.8745   6
  -9   7  -7 8.99683 139.389  12
  -9   7  -7 544.258 244.785   5
   9   7  -7 422.196 314.885  18
   9   7  -7 181.264 182.821   8
  -9  -7   7-502.275 441.439  17
   9  -7   7-129.143 343.351   8
  -9   7  -7 351.611 231.896   4
   9  -7   7 351.822 210.682   1
   9  -7   8 464.504 258.282  14
   9  -7   8 725.365 393.722   6
   9  -7   8 692.003 272.809   1
  -9   7  -8 1311.24 517.916  12
  -9   7  -8 1777.85 450.975   5
  -9  -7   8 4.67105 172.412  19
  -9   7  -8 1029.35 358.598  19
   9   7  -8 1961.07 761.972  18
  -9   7  -8 1690.38 535.221   4
   9   7  -8 1200.66 426.692   8
  -9  -7   8 12.8536 70.0730  17
   9  -7   8 388.609 227.824   8
   9  -7   9 237.955 213.103  14
   9  -7   9 38.8862 95.8621   6
  -9   7  -9 462.973 328.024  12
  -9  -7   9 196.051 296.001  19
  -9   7  -9 320.381 220.238   5
  -9   7  -9-23.5903 170.431  19
   9   7  -9 395.715 351.687  18
   9  -7   9 214.006 113.903   1
  -9  -7   9 111.574 320.275  17
   9  -7   9 138.334 151.460   8
  -9   7  -9 377.372 243.697   4
  -9   7  -9-120.438 302.212   3
  -9  -8   6 539.213 728.731  17
  10   0   0 36.0196 54.9537   6
 -10   0   0 98.8782 137.600  12
  10   0   0 170.642 221.772   1
  10   0   0 25.3890 99.5764  11
 -10   0   0-11.7120 100.901   5
 -10   0   0 10.0984 72.8339  19
 -10   0   0 135.805 169.906   2
  10   0   0 66.2384 158.804  18
 -10   0   0-25.6158 81.1277   4
 -10   0   0 76.9506 115.550  17
  10   0   0 2.90707 47.9474   8
 -10   0   0 45.2027 220.731   7
 -10   0   0 34.1615 138.164  15
  10   0   0 40.6505 23.3248  14
  10   0   1 29.5360 93.7989   6
  10   0  -1 31.2901 58.5209   6
  10   0  -1-189.353 119.590  13
  10   0   1-69.7483 68.4659   1
 -10   0  -1-57.7137 124.714  12
 -10   0   1-49.5712 87.3593  12
  10   0   1-140.828 152.453  11
  10   0  -1 153.967 124.054  11
  10   0  -1-0.41687 44.9315   1
 -10   0  -1 49.6771 172.081   5
 -10   0   1 19.0415 167.566   5
 -10   0  -1-32.2690 221.662   2
 -10   0  -1 34.9389 117.153  19
 -10   0   1 81.1061 186.077  19
 -10   0   1 74.2243 122.275   2
  10   0   1-136.457 151.109  18
  10   0  -1-92.6593 130.170  18
 -10   0  -1 159.175 299.697   4
 -10   0   1 32.9598 158.804   4
  10   0   1-5.52312 122.261   8
 -10   0  -1-33.9314 93.0879  17
 -10   0   1 54.4538 69.8246  17
  10   0  -1-81.2020 143.809   8
 -10   0  -1-52.1670 94.9690   7
 -10   0   1 305.009 265.603   7
 -10   0  -1-12.6337 108.334  15
 -10   0   1 204.989 182.964  15
  10   0   1-116.877 137.094  14
  10   0  -1 231.768 234.699  14
 -10   0  -1-13.1219 45.5945   3
  10   0   2 305.706 205.459   1
  10   0   2-89.6381 143.835   6
  10   0  -2 91.0864 99.6201   6
 -10   0  -2 8.63406 47.9233   3
  10   0  -2 80.8473 68.2136  13
 -10   0  -2 55.0599 36.4249  12
 -10   0   2 74.8077 111.196  12
  10   0   2 350.970 170.174  11
 -10   0  -2 153.142 214.029   5
  10   0  -2-40.3012 116.495  11
 -10   0   2-17.4212 103.470   5
  10   0  -2 151.979 133.514   1
 -10   0  -2 72.2754 143.699  19
 -10   0   2 184.838 229.476  19
  10   0   2 61.8528 44.9874  18
  10   0  -2-12.1400 63.2978  18
 -10   0   2 82.6444 100.062   2
 -10   0  -2 282.962 308.311   4
  10   0   2 172.813 166.794   8
 -10   0  -2 131.868 153.659  17
 -10   0   2 159.546 212.527   4
 -10   0   2 276.848 229.137  17
  10   0  -2 120.874 166.765   8
 -10   0  -2 161.356 97.8158   7
 -10   0  -2-81.4604 71.0746  15
 -10   0   2 197.554 239.693  15
  10   0   2 22.7942 98.1388  14
  10   0  -2 189.257 192.423  14
  10   0  -3-45.7933 70.0097   6
  10   0  -3 42.2341 93.4913  13
 -10   0  -3-43.0806 103.107   3
 -10   0  -3 154.844 174.169  12
  10   0   3 56.2013 89.1667  11
 -10   0  -3 6.86075 166.577   5
  10   0  -3-102.315 98.1556  11
 -10   0   3-148.676 173.575   5
 -10   0  -3 52.6746 130.653  19
 -10   0   3-97.7490 89.9194  19
  10   0  -3 141.908 178.374   1
  10   0   3 101.206 126.301  18
  10   0  -3-55.3389 64.5717  18
 -10   0  -3-43.7766 15.8932   4
 -10   0   3 162.144 166.912   2
  10   0   3 9.71948 46.2955   8
 -10   0  -3 40.6856 28.9599  17
 -10   0   3 83.8252 179.476   4
 -10   0   3-81.8284 121.068  17
  10   0  -3-27.1769 27.4184   8
 -10   0  -3-159.553 341.442   7
 -10   0  -3-29.3840 159.583  15
  10   0   3 190.560 147.338   1
  10   0   3-25.0892 32.5291  14
  10   0  -3-38.1666 58.2452  14
  10   0   3 51.3744 139.859   6
 -10   0  -4 663.491 330.788  12
 -10   0  -4 352.931 224.810   3
  10   0   4 2163.56 359.525  11
 -10   0  -4 365.053 209.092   5
  10   0  -4 980.451 358.594  11
 -10   0   4 807.961 396.130   5
 -10   0  -4 393.326 321.282  19
 -10   0   4 1004.79 409.345  19
  10   0   4 1636.80 397.618  18
  10   0  -4 1057.91 401.829  18
  10   0  -4 1602.56 558.421   1
 -10   0  -4 381.939 226.453   4
  10   0   4 1587.39 548.846   8
 -10   0  -4 230.444 148.139  17
 -10   0   4 143.987 240.634  17
 -10   0   4 1210.62 402.028   2
 -10   0   4 911.730 401.889   4
  10   0  -4 1121.20 377.973   8
  10   0   4 1222.25 300.069  16
 -10   0  -4 79.0809 179.608   7
  10   0   4 1727.36 659.849   1
 -10   0  -4-57.9352 296.813  15
  10   0  -4 1493.73 301.160   6
  10   0   4 1517.33 632.762  14
  10   0  -4 1126.69 429.798  14
  10   0   4 1408.62 442.305   6
  10   0  -5 0.46523 24.1541   6
  10   0   5 90.3885 80.0406  11
  10   0  -5-118.993 106.915  11
 -10   0   5-35.2555 117.730   5
 -10   0  -5-150.639 143.672  19
 -10   0   5-37.5846 81.4834  19
  10   0   5-89.1097 98.3252  18
 -10   0  -5-159.697 245.170   4
  10   0  -5-113.971 172.382  18
  10   0   5-71.8561 173.725   8
 -10   0  -5 33.7874 43.3744  17
  10   0  -5 44.1117 32.8837   1
  10   0   5 241.485 287.002   1
 -10   0   5 37.4173 109.902  17
 -10   0   5-35.0024 105.060   4
  10   0  -5-108.501 137.154   8
 -10   0   5 58.1599 152.839   2
  10   0   5-50.0591 77.9460  16
  10   0   5 119.003 153.164  14
  10   0   5 21.0691 105.346   6
  10   0  -5 31.5171 86.2308  14
  10   0   6 2214.57 322.116  11
 -10   0   6 1595.64 455.488   2
  10   0  -6 725.035 332.910  11
 -10   0   6 1696.12 515.128   5
 -10   0   6 1566.74 497.091  19
 -10   0  -6 431.117 338.196  19
  10   0   6 2118.25 432.957  18
  10   0   6 2388.73 691.395   8
  10   0  -6 1693.20 468.403   8
 -10   0  -6-3.06526 346.905   4
  10   0  -6 1322.86 463.412  18
  10   0   6 1973.00 739.771   1
 -10   0  -6 336.609 165.893  17
 -10   0   6 699.312 398.996  17
 -10   0   6 1451.49 454.215   4
  10   0   6 2530.56 488.197  16
  10   0  -6 1678.15 560.649   1
  10   0  -6 1840.36 296.899   6
  10   0   6 2142.24 696.949  14
  10   0   6 1617.19 519.278   6
  10   0  -6 962.213 408.420  14
  10   0  -7 88.1779 52.8694   6
  10   0   7 11.8296 26.3232  11
  10   0  -7-118.627 174.104  11
 -10   0   7 99.6799 180.738   5
 -10   0  -7 328.015 320.764  19
 -10   0   7 18.5270 86.7328  19
  10   0   7 144.074 181.522   1
  10   0   7-43.9659 67.3138  18
  10   0  -7-27.7513 112.668  18
  10   0   7 1.53219 69.1230   8
 -10   0  -7 58.5250 129.013  17
 -10   0   7 77.6269 184.097  17
 -10   0   7 145.534 183.684   4
  10   0  -7 8.30531 50.2000   8
  10   0   7-51.2365 56.1399  16
 -10   0   7 60.0933 106.187   2
 -10   0   7 14.7342 16.6567  16
  10   0  -7 60.8604 121.099   1
  10   0   7-94.9447 262.298  14
  10   0   7-34.0921 123.143   6
  10   0  -7 16.0782 102.446  14
 -10   0   8 1392.34 479.641   2
  10   0  -8 391.066 334.360  11
 -10   0   8 1232.80 461.246  19
  10   0   8 992.217 444.485   1
 -10   0   8 1417.42 503.701   5
  10   0   8 1751.91 366.616  18
  10   0  -8 911.022 442.979  18
  10   0   8 1650.33 607.723   8
 -10   0  -8-40.2092 76.2804  17
 -10   0   8 820.856 436.929  17
  10   0   8 2256.68 508.247  16
 -10   0   8 954.566 207.947  16
 -10   0   8 1087.13 412.097   4
  10   0  -8 380.836 55.1647   8
  10   0  -8 1235.74 229.950   6
  10   0   8 1841.32 696.503  14
  10   0   8 1462.50 527.526   6
  10   0  -8 1435.32 539.960   1
  10   0  -8 1089.30 412.190  14
  10   0  -9 286.372 273.711   1
  10   0  -9 46.5587 140.601  11
 -10   0   9 114.473 187.919   5
 -10   0  -9-83.1063 248.540  19
 -10   0   9-112.607 144.266  19
  10   0   9 22.2577 89.4485  18
  10   0  -9-34.1194 58.4017  18
  10   0   9-124.717 172.226   8
 -10   0  -9 74.9683 106.022  17
 -10   0   9 54.3297 150.877  17
 -10   0   9-87.1275 134.903   4
  10   0   9-202.719 215.171  16
 -10   0   9 93.2923 90.1182  16
 -10   0   9 53.4921 102.997   2
  10   0   9-82.1521 170.881  14
  10   0   9 26.5715 16.2691   6
  10   0  -9-130.788 180.632  14
  10   0 -10 328.960 198.080  14
  10   0 -10 133.280 102.813   1
  10   0 -10-225.498 216.947  11
 -10   0 -10-273.839 377.259  19
 -10   0  10 488.422 279.350   5
 -10   0  10 290.734 195.316  19
  10   0 -10 239.501 212.786  18
  10   0  10 147.759 162.807   8
 -10   0  10 221.463 277.997  17
 -10   0  10 545.622 283.658   4
  10   0  10 691.071 315.763  16
 -10   0  10 417.620 173.153  16
 -10   0  10 339.161 247.902   2
  10   0  10 487.049 406.381  14
  10   0  10 469.431 344.338   6
  10   0 -11 98.4905 116.641  14
  10   0 -11-5.63027 40.9871   1
  10   0 -11-77.0065 207.355  11
 -10   0 -11-408.409 423.184  19
 -10   0  11-330.447 226.045   5
  10   0 -11 22.8530 112.482  18
  10   0  11-165.642 163.018   8
 -10   0  11-151.124 178.635  17
 -10   0  11 107.853 165.266   4
  10   0  11-236.156 244.438  16
 -10   0  11-89.1429 112.102  16
 -10   0  11 17.0602 97.0141   2
  10   0  11 0.49209 145.659   6
  10   0 -12 34.0961 101.002  14
  10   0 -12-229.031 214.133   1
 -10   0 -12 220.677 256.495  19
 -10   0  12-148.590 167.884   5
  10   0 -12 87.7522 136.751  18
  10   0  12 321.003 269.357   8
 -10   0  12-17.6135 33.6012  17
 -10   0  12-57.5689 168.034   4
  10   0  12-63.4986 212.449  16
 -10   0  12 2.76155 68.8280  16
 -10   0  12 12.6379 154.941   2
  10   0  12-80.4247 146.542   6
  10   0 -13-71.5363 141.233  14
  10   0 -13-118.184 133.406   1
 -10   0 -13 251.294 384.329  19
 -10   0  13 5.10928 184.135   5
  10   0  13 120.268 227.420   8
 -10   0  13 131.567 281.422  17
 -10   0  13-13.6635 39.5717   4
  10   0  13-14.5438 160.353  16
 -10   0  13-71.8378 53.0005  16
 -10   0  13 41.7537 134.124   2
  10   0  13-167.014 334.508   6
  10  -1   0-29.4045 28.7506   6
 -10  -1   0-24.0810 28.6664  12
 -10   1   0 46.3580 120.872  12
  10   1   0 267.300 231.241  11
 -10  -1   0-43.1171 113.103   5
 -10   1   0 89.4020 141.843   5
 -10  -1   0 196.429 259.546  19
 -10   1   0-25.7426 80.9644  19
  10  -1   0 150.202 137.469   1
  10   1   0-11.0696 65.1131  18
  10  -1   0-17.3495 90.6275  18
 -10  -1   0-1.67291 65.3118   4
 -10   1   0 29.9195 41.3970   2
  10   1   0 41.2449 97.4928   8
 -10  -1   0 112.292 201.236  17
 -10   1   0 72.9780 108.499   4
 -10   1   0 92.0635 117.920  17
  10  -1   0-15.6785 55.5144   8
  10   1   0-148.868 204.933  14
  10   1   0 28.8195 128.566   1
  10   1   0 89.2710 156.081   6
 -10  -1   0 25.5925 32.2572   3
  10  -1   0-68.9661 187.641  14
  10   1  -1 173.207 213.056   1
  10  -1   1 25.7677 68.0141   6
  10  -1  -1 140.444 93.1860   6
 -10  -1  -1 50.9461 65.0856   3
  10  -1  -1 105.270 64.2586  13
 -10  -1  -1 79.2587 113.013  12
 -10  -1   1 38.1902 73.2594  12
 -10   1  -1-9.13524 62.6391  12
 -10   1   1 88.9441 132.304  12
  10   1   1 304.007 164.785  11
  10   1  -1 209.293 92.0704  11
 -10  -1  -1 15.1939 103.539   5
 -10  -1   1 72.7904 129.335   5
 -10   1  -1 150.432 213.251   5
 -10   1   1 68.6679 96.5788   5
  10  -1   1 142.437 228.774   1
 -10  -1   1-14.7668 126.178   2
 -10  -1  -1 6.59165 95.5480  19
 -10  -1   1 119.209 192.462  19
 -10   1  -1 284.521 270.100  19
 -10   1   1 34.5494 105.584  19
 -10   1  -1 223.572 173.376   2
  10   1   1 219.887 190.318  18
  10   1  -1 185.706 140.202  18
  10  -1   1 53.6235 52.5794  18
  10  -1  -1 70.8580 141.860  18
 -10  -1  -1-71.3055 191.847   4
  10  -1  -1 155.541 205.517   1
 -10  -1   1 50.6358 131.611   4
  10   1   1 69.7822 73.5836   8
 -10  -1  -1 141.721 137.279  17
 -10  -1   1-208.428 180.805  17
  10   1  -1 101.805 143.074   8
 -10   1  -1 113.002 148.743   4
 -10   1   1 58.1030 91.3851   2
  10  -1   1 89.7478 179.003   8
 -10   1  -1 59.7890 85.5799  17
 -10   1   1 70.4286 123.351  17
 -10   1   1 17.8512 67.4398   4
  10  -1  -1 167.239 171.855   8
  10   1   1-62.3962 150.831   1
  10   1   1 88.7982 174.567  14
  10   1   1 104.583 87.2134   6
  10   1  -1 116.597 129.885  14
  10   1  -1 22.7470 56.1159   6
  10  -1   1 75.5549 51.5652  14
  10  -1  -1 89.8359 164.816  14
  10  -1   2 27.9740 100.878   6
  10   1  -2-326.668 201.922  13
  10  -1  -2-26.9466 22.9708   6
  10   1  -2 212.373 201.087   1
 -10  -1  -2 167.653 156.159   3
 -10   1  -2 32.9030 23.1833  12
 -10  -1   2-33.5712 36.8503  12
  10   1   2 109.065 123.809  11
  10  -1   2-59.9363 163.470   1
  10   1  -2-134.919 167.521  11
 -10  -1   2 75.3934 61.5159   5
 -10   1  -2 24.6213 89.6471   5
 -10   1   2-20.8996 23.4772   5
 -10  -1  -2-48.6229 94.8531  19
 -10   1  -2 87.2512 119.268   2
 -10  -1   2 18.5875 77.7443  19
 -10   1  -2-29.8109 68.3281  19
 -10   1   2 108.893 77.1945  19
 -10  -1   2 35.2545 99.5490   2
  10   1   2 23.3176 103.667  18
  10   1  -2 63.8278 101.355  18
 -10  -1  -2-254.934 292.885   4
  10  -1   2 37.4656 116.338  18
  10  -1  -2-80.1887 122.816  18
 -10  -1   2-12.2118 120.616   4
  10   1   2 70.5262 139.479   8
 -10  -1  -2-37.9368 118.818  17
 -10   1  -2-9.79803 64.4551   4
 -10  -1   2-121.140 179.243  17
  10   1  -2 37.6601 53.4608   8
  10  -1   2 1.35163 19.8435   8
 -10   1  -2-74.2706 126.675  17
 -10   1   2-36.2486 79.2682  17
 -10   1   2-73.1037 103.190   4
  10  -1  -2-88.8465 138.632   8
  10  -1  -2-39.5086 128.858   1
 -10   1   2 10.6658 68.4359   2
  10   1   2-90.9828 68.6295   1
 -10   1  -2 157.710 233.148  15
  10   1   2 76.2948 145.583  14
  10   1   2-88.0466 161.920   6
  10   1  -2-129.296 183.735  14
  10   1  -2 73.1612 90.4735   6
  10  -1   2-5.62861 56.3924  14
 -10   1  -2-32.6400 75.4721   3
  10  -1  -2 27.8412 120.171  14
  10  -1   3 175.310 122.183   6
 -10   1  -3-58.9086 134.473   3
  10   1  -3 139.505 91.4787  13
  10  -1  -3 156.472 116.714   6
  10  -1   3 446.186 338.422   1
 -10   1  -3 161.486 169.181  19
 -10   1  -3 117.935 85.7138  12
  10   1  -3 349.297 253.556   1
 -10  -1   3-65.7329 81.9931  12
  10   1  -3 538.110 286.864  11
 -10   1  -3 110.256 197.823   5
 -10  -1   3 74.5436 139.433   5
 -10   1   3 234.774 175.486   5
 -10  -1  -3-11.6249 147.590  19
 -10  -1   3 163.083 225.767  19
 -10   1   3 370.754 230.416  19
  10   1   3 359.721 210.723  18
 -10  -1   3 220.438 211.180   2
  10   1  -3 258.861 205.723  18
 -10  -1  -3-157.116 435.098   4
  10  -1   3 70.2559 110.557  18
  10  -1  -3 165.445 141.482  18
 -10  -1   3 312.346 285.048   4
  10   1   3 184.836 246.875   8
 -10   1  -3 56.0126 137.547   4
 -10  -1  -3-56.8648 111.074  17
 -10  -1   3 11.9561 117.756  17
  10  -1   3 309.867 237.188   8
  10   1   3 469.773 380.795   1
  10   1  -3 216.238 190.081   8
 -10   1  -3 80.3708 30.8038  17
 -10   1   3 8.66216 129.648  17
  10  -1  -3 129.286 145.439   8
 -10   1   3 82.9634 123.525   4
  10   1   3 255.054 127.212  16
 -10   1   3 100.665 80.5183   2
 -10   1  -3 276.315 275.518   7
  10  -1  -3 124.412 112.270   1
 -10   1  -3 392.643 311.212  15
  10   1   3 176.431 195.835   6
  10   1   3 335.331 334.264  14
  10   1  -3 203.024 203.166  14
  10  -1   3 470.297 315.325  14
  10   1  -3 187.948 118.130   6
  10  -1  -3 339.648 230.043  14
  10  -1  -4 17.2044 11.4587  14
  10  -1  -4 53.6377 112.923   1
  10  -1   4 100.099 159.363   6
  10  -1   4-54.3533 169.145   1
 -10   1  -4-6.47255 76.7534   3
  10   1  -4 110.824 61.9755  13
  10  -1  -4-17.6070 72.7328   6
 -10   1  -4-46.8013 106.053  12
  10   1  -4-11.9030 38.5136  11
  10   1  -4-107.295 203.180   1
 -10   1  -4 204.702 229.367   5
 -10  -1   4 56.8094 123.924   5
 -10   1   4 168.643 212.630   5
 -10  -1  -4 159.100 256.010  19
 -10   1  -4 19.2942 188.573  19
 -10  -1   4-82.1935 159.221  19
 -10   1   4 62.9098 91.1759  19
  10   1   4 47.3249 70.2408  18
  10   1  -4 38.8515 126.023  18
  10  -1   4 57.2354 95.8081  18
 -10  -1   4 79.9682 120.318   2
  10  -1  -4 38.9670 151.697  18
  10   1   4-202.862 212.596   1
 -10   1  -4 181.655 350.101   4
  10   1   4 83.7355 163.189   8
 -10  -1  -4 109.829 160.807  17
 -10  -1   4 64.4737 118.822   4
  10  -1   4 97.4893 119.218   8
 -10  -1   4-48.8786 137.886  17
 -10   1  -4-41.2282 105.496  17
  10   1  -4-83.4473 137.350   8
 -10   1   4 22.1433 44.9028  17
  10  -1  -4-6.74668 71.5342   8
 -10   1   4 134.230 182.151   4
  10   1   4 22.1311 58.6594  16
 -10  -1   4-201.072 234.347   7
 -10   1  -4 12.2173 204.565   7
 -10   1   4-43.1185 96.0493   2
 -10  -1   4-271.917 240.544  15
 -10   1  -4-93.0259 113.066  15
  10   1   4-38.0953 82.2569   6
  10   1   4-52.5081 91.1196  14
  10   1  -4-114.000 140.916  14
  10  -1   4 78.0410 41.3945  14
  10   1  -4 59.2475 68.8867   6
  10  -1  -5 916.070 353.480  14
  10  -1   5 1217.97 427.350   6
  10   1  -5 1373.63 330.237  13
 -10   1  -5 196.906 140.417   3
  10  -1  -5 796.010 404.350   1
 -10   1  -5 445.033 276.661  12
 -10   1  -5 426.684 260.217   5
  10   1  -5 1367.22 448.462  11
 -10  -1   5 675.732 335.776   5
  10   1  -5 1284.26 514.718   1
 -10   1   5 612.733 314.291   5
 -10  -1  -5 178.229 308.071  19
 -10   1  -5 475.058 270.190  19
 -10  -1   5 965.501 343.433  19
 -10   1   5 1085.64 395.813  19
  10   1   5 1439.49 406.083  18
  10   1   5 1269.63 562.192   1
  10   1  -5 1527.71 464.590  18
  10  -1   5 953.924 266.793  18
  10  -1  -5 398.024 260.256  18
 -10   1  -5 681.320 409.049   4
 -10  -1   5 1081.69 391.205   2
  10   1   5 1238.64 492.787   8
 -10  -1  -5 226.542 196.875  17
 -10  -1   5 726.089 354.064   4
  10  -1   5 1166.29 461.573   8
 -10  -1   5 292.543 228.796  17
 -10   1  -5 210.539 150.382  17
 -10   1   5 534.176 305.604  17
  10   1  -5 996.308 364.934   8
  10  -1  -5 902.013 357.173   8
 -10   1   5 900.751 357.049   4
  10   1   5 1350.09 328.514  16
 -10  -1   5 625.415 222.653   7
 -10   1  -5 624.077 406.562   7
 -10  -1   5 571.856 194.479  15
 -10   1   5 1129.53 350.969   2
 -10   1  -5 740.718 436.101  15
  10  -1  -5 977.734 257.212   6
  10  -1   5 1307.67 513.557   1
  10   1   5 697.781 334.399   6
  10   1   5 1168.97 566.490  14
  10  -1   5 1326.12 517.567  14
  10   1  -5 858.341 395.816  14
  10   1  -5 592.361 166.939   6
  10   1  -6 95.7860 67.0056   6
  10  -1  -6 182.539 183.382  14
  10  -1   6-80.9207 151.031   6
 -10   1  -6 11.9073 130.164  12
  10  -1  -6 47.0219 77.6113   6
 -10   1  -6 32.4012 85.8799   3
  10  -1  -6 52.7492 86.7807   1
 -10   1  -6-129.776 254.046   5
  10   1  -6-122.123 208.401  11
 -10  -1   6 245.433 223.449   5
 -10  -1  -6-48.8052 254.449  19
 -10   1   6-175.111 158.983   5
  10   1  -6 47.5289 47.4399   1
  10   1   6-211.926 335.902   1
 -10   1  -6 87.5680 183.088  19
 -10  -1   6-13.8081 95.1345  19
 -10   1   6 102.476 142.883  19
  10   1   6 60.5325 40.7280  18
  10   1  -6 66.7553 112.178  18
  10  -1   6 103.993 106.777  18
  10  -1  -6-42.1398 83.8475  18
 -10   1  -6 13.4280 125.361   4
  10   1   6 95.0039 131.180   8
 -10  -1  -6 43.6031 100.247  17
 -10  -1   6 107.296 162.293   2
  10  -1   6 33.3291 103.412   8
 -10  -1   6-19.0895 100.057   4
 -10  -1   6 138.857 250.809  17
 -10   1  -6-38.9351 40.6212  17
 -10   1   6 92.2172 71.5459  17
  10   1  -6 43.7008 88.8009   8
  10  -1   6 149.488 177.972  16
  10  -1  -6-80.1391 199.202   8
 -10   1   6 26.8108 73.4774   4
  10  -1   6-12.1756 183.620   1
  10   1   6 82.4252 123.935  16
 -10  -1   6 21.0568 88.6515   7
 -10   1  -6 416.834 388.881   7
 -10   1   6-81.9809 82.2839  16
 -10  -1   6 124.556 91.9046  15
 -10   1  -6 4.11267 148.728  15
 -10   1   6 92.6268 126.539   2
  10   1   6-42.1336 143.366   6
  10   1   6-18.3898 94.4867  14
  10  -1   6 16.0985 151.038  14
  10   1  -6 35.6041 92.4763  14
  10  -1   7 1696.60 531.357   6
  10  -1  -7 1172.60 416.399  14
 -10   1  -7 594.858 380.495  12
 -10   1  -7 413.443 313.533   3
  10   1  -7 1320.91 466.611  11
  10  -1  -7 1083.64 455.188   1
 -10  -1   7 965.394 434.444   5
 -10  -1  -7 30.3729 131.395  19
 -10   1   7 915.916 391.756   5
 -10   1  -7 327.730 317.980  19
 -10  -1   7 1063.24 403.280  19
 -10   1   7 1087.11 398.014  19
  10   1   7 1648.73 443.047  18
  10  -1   7 1247.79 284.099  18
  10   1  -7 1638.75 547.551   1
 -10   1   7 1200.98 412.983   4
  10   1  -7 1446.84 526.299  18
 -10   1  -7 383.805 275.938   4
  10   1   7 1505.98 585.391   8
 -10  -1  -7-118.842 152.330  17
  10  -1   7 1823.88 575.815   8
  10  -1   7 1911.32 660.469   1
 -10  -1   7 817.610 368.414   4
 -10  -1   7 1049.72 448.448   2
 -10  -1   7 757.356 374.234  17
 -10   1  -7 56.7949 84.8567  17
 -10   1   7 517.282 354.614  17
  10  -1   7 2235.82 505.320  16
  10   1  -7 1159.17 375.332   8
  10  -1  -7 85.1666 267.080   8
 -10   1  -7 381.017 355.887   7
  10   1   7 1598.54 413.675  16
 -10  -1   7 1011.90 277.566   7
 -10   1   7 184.758 80.8465  16
  10   1  -7 770.059 175.244   6
 -10   1  -7 365.687 325.276  15
 -10  -1   7 789.950 245.322  15
  10  -1  -7 922.123 237.598   6
  10   1   7 599.895 315.484   6
 -10   1   7 1127.76 403.959   2
  10   1   7 1406.06 658.374  14
  10  -1   7 1766.35 637.481  14
  10   1  -7 1367.00 497.490  14
  10  -1  -8-29.4556 110.381  14
  10  -1  -8 13.4409 47.6678   6
 -10   1  -8 367.139 323.348   3
  10   1  -8-350.621 317.880  11
 -10  -1   8-102.457 162.041   5
 -10  -1  -8-10.0726 197.846  19
 -10   1  -8-75.6183 116.680  19
 -10   1   8 82.2321 170.731   5
  10  -1  -8 7.84950 67.2206   1
 -10  -1   8 94.1505 157.334  19
 -10   1   8-74.2381 140.875  19
  10   1   8 30.8295 112.699  18
  10   1  -8 27.5026 154.303   1
  10  -1   8-70.1697 86.9550  18
 -10   1  -8-236.447 333.089   4
  10  -1   8 152.263 218.660   1
  10   1  -8-114.851 125.328  18
  10   1   8-20.5888 87.9832   8
 -10  -1  -8-87.4920 112.804  17
  10  -1   8-142.924 91.8637   8
 -10  -1   8-158.730 177.748  17
 -10  -1   8 14.9201 52.8439   4
 -10  -1   8-219.425 243.749   2
 -10   1   8-30.5941 119.698  17
  10   1  -8-6.01324 67.1866   8
  10  -1   8 158.379 214.880  16
 -10   1   8 152.715 142.935   4
 -10   1  -8-440.452 430.170   7
  10   1   8-45.6810 136.075  16
 -10  -1   8 240.293 148.751   7
 -10   1   8-65.2258 81.2658  16
 -10   1  -8-57.0298 274.697  15
 -10  -1   8 69.0961 79.7102  15
  10   1   8-298.505 336.807   6
  10  -1   8-93.7473 229.931  14
 -10   1   8-162.124 165.993   2
  10   1  -8-256.627 201.269  14
  10  -1   8-17.4326 70.8877   6
  10  -1  -9 286.141 216.914  14
  10   1  -9 532.515 325.536  11
 -10  -1   9 357.642 239.360   5
 -10  -1  -9 23.5098 309.776  19
 -10   1  -9-19.9402 79.6451  19
 -10   1   9 521.563 319.314   5
  10  -1   9 268.132 187.988   1
 -10  -1   9 474.724 281.309  19
  10   1   9 691.451 268.497  18
  10  -1  -9 396.014 285.649   1
  10   1  -9 490.802 320.897  18
  10   1   9 796.061 397.874   8
 -10  -1  -9 150.231 165.710  17
  10   1  -9 574.340 321.371   1
  10  -1   9 842.505 367.741   8
 -10  -1   9 282.194 295.886  17
 -10  -1   9 725.172 360.001   4
 -10   1   9 262.835 220.994  17
 -10  -1   9 670.635 339.667   2
  10   1  -9 206.625 63.4351   8
  10  -1   9 1221.71 404.041  16
 -10   1  -9-151.932 446.251   7
 -10   1   9 573.915 254.992   4
  10   1   9 793.593 356.569  16
 -10   1  -9-802.666 499.038  15
  10   1   9-38.6144 412.744   6
  10  -1   9 825.829 394.499  14
 -10   1   9 435.986 192.510   2
  10   1  -9 565.076 291.693  14
  10  -1   9 1141.43 427.494   6
 -10   1  10-87.5945 140.050   2
  10  -1 -10-67.9398 120.681  14
  10   1 -10 40.2724 78.9256  11
 -10  -1  10-83.1645 134.609   5
 -10  -1 -10-10.5101 49.0474  19
 -10   1 -10-109.857 191.854  19
 -10   1  10 129.236 183.366   5
 -10  -1  10-21.9605 2.31045  19
  10   1  10-112.131 192.075  18
  10   1 -10 143.797 172.714  18
 -10  -1 -10 23.2266 79.5847  17
  10   1  10-178.542 176.242   8
  10  -1 -10 61.2879 82.5362   1
  10  -1  10-98.1125 179.807   8
  10   1 -10 102.552 137.635   1
 -10  -1  10-1.59974 63.1222  17
 -10  -1  10 2.13195 39.7270   4
 -10   1  10-560.009 334.317  17
 -10  -1  10 8.66325 70.9166   2
  10  -1  10-96.2883 125.232  16
 -10   1  10 4.06578 35.6783   4
  10   1  10 22.5118 189.388  16
  10   1  10-688.496 586.000   6
  10  -1  10-331.844 290.070  14
  10  -1  10-93.3276 139.259   6
  10   1 -10 0.75751 113.366  14
 -10   1  11-81.7714 175.247   2
  10  -1 -11-18.0978 94.6054  14
  10   1 -11 63.4537 210.682  11
 -10  -1  11-172.213 203.750   5
 -10  -1 -11-124.222 337.166  19
 -10   1 -11 735.359 568.558  19
 -10   1  11-2.21969 86.8925   5
 -10  -1  11-80.9323 130.769  19
  10   1 -11-143.917 207.850  18
  10   1  11 35.9525 162.446   8
  10  -1  11 355.143 430.126   8
 -10  -1  11 191.297 278.402  17
 -10  -1  11-119.210 156.272   4
  10  -1 -11 88.4389 172.627   1
  10   1 -11-95.0060 220.247   1
 -10  -1  11-35.2557 49.4294   2
  10  -1  11 86.8646 229.328  16
 -10   1  11 1.39641 29.8123   4
  10   1  11 120.109 287.561  16
  10  -1  11 914.005 689.923  14
  10  -1  11 503.319 422.273   6
  10   1 -11 72.0077 151.002  14
 -10   1  12 114.683 136.480   2
  10  -1 -12 6.30590 69.6762  14
  10   1 -12-90.3198 195.257  11
 -10  -1  12 3.01148 86.7860   5
 -10  -1 -12-201.734 366.872  19
 -10   1 -12 188.663 267.734  19
 -10   1  12 101.398 204.129   5
 -10  -1  12-322.822 308.765  19
  10   1 -12 187.229 293.384  18
  10   1  12 659.534 398.546   8
  10  -1  12-1.54895 187.451   8
 -10  -1  12 65.8615 182.894  17
 -10  -1  12-95.5375 145.730   4
  10  -1  12 123.268 204.125  16
 -10  -1  12-31.4218 91.9255   2
  10   1  12-109.044 144.383  16
  10   1 -12-58.2664 86.3204   1
 -10   1  12-46.6943 119.386   4
  10  -1 -12 13.5139 128.843   1
  10  -1  12-120.737 42.9005  14
  10  -1  12-6.87960 172.512   6
  10   1 -12 150.405 186.156  14
  10  -1 -13 145.545 196.504  14
 -10   1  13 248.443 245.812   2
  10   1 -13-36.6418 127.986  11
 -10  -1  13-2.20709 97.5566   5
 -10  -1 -13-3.84867 102.945  19
 -10   1 -13 264.166 360.715  19
 -10   1  13 315.736 272.036   5
  10   1 -13-39.1469 161.500  18
  10   1  13 43.2145 154.858   8
  10  -1  13 376.369 299.217   8
 -10  -1  13 210.696 262.341  17
 -10  -1  13 103.478 149.933   4
  10  -1  13-172.222 252.675  16
 -10  -1  13-41.8871 121.624   2
  10   1  13-248.265 242.123  16
  10   1 -13 133.766 117.896   1
  10  -1 -13 652.992 450.088   1
  10  -1  13 234.893 253.813   6
  10   1 -13 110.090 82.3755  14
  10  -2   0 1100.08 415.291  14
 -10   2   0 382.263 231.153  12
 -10   2   0 1218.40 303.165   2
 -10   2   0 1270.18 464.320   5
 -10  -2   0 422.993 292.101  19
 -10   2   0 1287.21 455.905  19
  10   2   0 1970.21 576.607  18
  10  -2   0 1363.65 463.634   8
  10   2   0 1322.81 490.478   8
 -10  -2   0 20.1382 105.578  17
  10   2   0 1826.71 685.167   1
 -10   2   0 1008.09 403.792   4
  10  -2   0 1466.38 383.712   6
  10  -2   0 1357.32 458.923   1
  10   2   0 1372.37 543.610  14
  10  -2   1 182.013 156.021  14
  10  -2  -1 7.36922 50.8054  14
  10  -2  -1 3.41271 75.3421   1
  10  -2   1 145.081 113.063   6
  10  -2  -1 64.7636 92.8926   6
 -10  -2   1 228.850 169.223  12
 -10   2  -1 29.4090 90.8795  12
  10   2  -1-1.29486 106.851  11
 -10   2  -1-21.6320 125.665   5
 -10   2   1-83.4474 112.825   5
 -10  -2  -1 192.955 236.289  19
 -10  -2   1 32.0926 134.757  19
 -10   2  -1-22.9864 117.914  19
 -10   2   1 56.5809 121.570  19
  10   2   1-160.790 161.699  18
  10   2  -1-80.2154 187.067  18
 -10  -2   1-89.6034 233.281   4
  10   2   1-84.0480 161.871   8
 -10  -2  -1 0.11512 87.3357  17
  10   2  -1 53.6146 35.9331   8
 -10  -2   1 165.537 201.216  17
  10   2   1-186.115 181.543   1
 -10   2  -1 6.09034 52.4000   2
  10  -2   1 118.588 223.008   1
  10  -2   1-47.5175 121.516   8
 -10   2  -1-9.15383 41.3821   4
  10  -2  -1-40.4579 80.6898   8
 -10   2   1-40.7444 124.022   4
  10   2  -1-174.106 206.711   1
 -10   2   1 14.5242 82.0185   2
  10   2   1 85.4947 237.969  14
  10   2  -1 203.279 224.724  14
  10  -2  -2 157.833 162.447  14
  10  -2   2 175.888 134.145   6
  10  -2  -2 307.720 179.520   6
 -10  -2   2-36.7998 92.0718  12
 -10   2  -2 33.2668 49.0553  12
  10  -2  -2 255.644 200.238   1
  10   2  -2 572.778 266.660  11
 -10  -2   2-20.6668 190.829   5
 -10   2  -2 194.592 157.609   5
 -10  -2   2-32.2314 220.073   2
  10   2  -2-154.227 137.577  10
 -10  -2  -2-45.4187 76.4648  19
 -10   2   2 117.431 71.3126   5
 -10  -2   2 29.8461 99.2887  19
  10   2  -2 1234.08 451.419   9
 -10   2  -2 268.988 241.123  19
 -10   2   2 301.922 239.723  19
  10   2   2 211.723 154.236  18
  10   2  -2 391.590 255.299  18
  10  -2   2 449.130 342.745   1
 -10  -2   2 107.785 152.346   4
  10   2   2 414.976 371.672   1
 -10   2  -2 280.820 153.593   2
  10   2   2 250.328 190.131   8
 -10  -2  -2 197.763 246.285  17
 -10  -2   2 229.785 317.179  17
  10   2  -2 313.980 188.283   8
 -10   2  -2 286.386 240.526   4
  10  -2   2 219.265 189.698   8
  10  -2  -2 353.878 240.683   8
 -10   2   2 250.464 208.203   4
  10   2   2 202.000 106.184  16
  10   2  -2 681.493 445.444   1
 -10   2   2 231.979 128.040   2
  10   2   2 345.165 416.947  14
  10   2  -2 80.8687 39.2029  14
  10  -2   2 407.293 246.669  14
  10  -2  -3 35.4550 70.5359  14
  10  -2   3 154.362 172.389   6
  10  -2  -3 125.957 125.881   6
 -10  -2   3-13.8832 35.8113  12
 -10   2  -3 204.255 197.188  12
  10   2  -3 221.281 214.638  11
 -10  -2   3 263.228 242.984   5
 -10   2  -3 10.6630 105.260   5
  10  -2  -3 125.418 199.756   1
  10   2  -3-513.730 283.479  10
 -10  -2  -3 12.8390 42.8019  19
  10  -2   3 257.583 222.322   1
 -10   2   3-27.0896 128.503   5
 -10  -2   3 36.9227 97.9801  19
  10   2  -3 738.265 343.381   9
 -10  -2   3 105.462 41.6966   2
 -10   2  -3 37.3320 92.9759  19
 -10   2   3 116.368 200.918  19
 -10   2  -3 67.1790 104.175   2
  10   2   3 189.625 242.368   1
  10   2   3 122.210 102.950  18
  10   2  -3 106.742 159.798  18
 -10  -2   3 121.615 115.381   4
  10   2   3 199.591 246.459   8
 -10  -2  -3-114.672 127.219  17
 -10  -2   3 7.35090 91.9266  17
  10   2  -3 273.635 228.066   8
 -10   2  -3 162.919 220.098   4
  10  -2   3 118.452 112.774   8
  10  -2  -3 87.5559 156.610   8
 -10   2   3 136.288 108.395   4
  10   2   3 133.356 80.1573  16
  10   2   3 351.902 419.227  14
  10   2  -3 18.4287 98.8003  14
 -10   2   3 134.144 134.776   2
  10   2  -3 352.226 332.246   1
 -10   2  -3 69.9230 117.813   3
  10  -2   3 15.8823 65.0627  14
 -10   2   4 123.280 106.781   2
  10  -2  -4 42.8045 52.2546  14
 -10   2  -4 24.6332 147.451   3
  10   2  -4 206.370 222.365   1
  10  -2   4 214.518 151.904   6
  10   2  -4 51.1853 88.8340  13
  10  -2  -4 108.738 123.760   6
 -10   2  -4 45.1011 116.956  12
 -10  -2   4-18.4533 34.3054  12
  10   2  -4 194.939 254.621  11
 -10  -2   4 11.6527 54.5284   5
  10  -2   4 54.5896 123.781   1
 -10   2  -4 175.064 88.7606   5
 -10  -2  -4 185.488 348.160  19
  10   2   4-112.612 247.712   1
 -10   2   4 51.8039 39.5178   5
 -10  -2   4 128.310 174.908  19
 -10   2  -4 274.495 212.615  19
  10   2  -4 225.053 192.158   9
 -10   2   4 21.9862 23.4021  19
 -10  -2   4 192.140 221.953   2
  10  -2  -4 101.496 114.360   1
  10   2   4 196.006 177.129  18
  10   2  -4 317.500 293.483  18
 -10  -2   4 78.9264 178.765   4
  10   2   4 126.776 158.337   8
 -10  -2  -4-51.2358 220.039  17
 -10  -2   4 98.7534 141.228  17
 -10   2  -4 133.827 155.730   4
  10   2  -4 243.480 197.346   8
  10  -2   4-9.43694 115.482   8
  10  -2  -4 24.4149 28.5290   8
 -10   2   4 203.814 180.393   4
  10   2   4 184.709 136.431  16
  10   2  -4 61.7964 137.859  14
  10  -2   4-26.7688 37.8637  14
  10  -2  -5-59.1500 93.1157  14
 -10   2   5 132.458 125.742   2
  10  -2   5 235.116 188.726   6
 -10   2  -5 0.50838 64.1047   3
  10   2  -5 87.3362 59.7586  13
  10   2  -5 280.528 268.443   1
  10  -2   5 251.422 277.648   1
 -10   2  -5 97.0445 143.849  12
  10  -2  -5-46.2995 85.2761   6
  10   2  -5 266.282 178.328  11
 -10  -2   5 70.7565 154.380   5
 -10   2  -5 121.486 158.089   5
 -10  -2  -5 39.0315 48.6497  19
 -10  -2   5 8.82721 117.817  19
 -10   2   5-10.3002 30.4856   5
 -10   2  -5-17.2443 105.005  19
  10   2  -5 43.1132 115.244   9
 -10   2   5 8.48179 41.6986  19
  10   2   5 61.7555 138.336  18
 -10  -2   5 146.401 196.025   2
  10   2  -5 105.223 166.764  18
 -10  -2   5 68.2137 135.963   4
  10   2   5-71.3088 226.705   8
 -10  -2  -5-66.2230 114.848  17
 -10   2  -5-38.2166 163.476   4
  10  -2  -5 208.014 190.658   1
 -10  -2   5 73.6205 189.803  17
  10  -2   5 65.5646 97.5037   8
  10   2  -5-23.6809 78.9211   8
 -10   2   5 68.5325 112.695   4
  10   2   5 161.824 134.141  16
 -10   2  -5 336.742 347.311  15
  10   2  -5 161.575 135.241  14
  10  -2   5 103.048 185.127  14
  10  -2  -6 260.213 188.348  14
  10  -2   6 450.765 278.859   1
  10  -2   6 503.828 245.947   6
 -10   2   6 254.948 173.523   2
 -10   2  -6 67.1603 159.610   3
  10   2  -6 530.968 223.752  13
  10   2  -6 716.014 422.131   1
 -10   2  -6 145.087 176.932  12
  10  -2  -6 198.969 154.146   6
  10   2  -6 631.804 336.494  11
 -10   2  -6 346.020 299.619   5
 -10  -2   6 141.379 145.728   5
 -10  -2  -6 188.220 258.596  19
 -10   2  -6 100.068 178.886  19
 -10  -2   6 88.1364 107.112  19
 -10   2   6 396.551 243.271   5
  10   2  -6-65.8689 199.085   9
 -10   2   6 356.641 209.939  19
  10   2   6 500.652 308.402  18
  10   2  -6 513.720 294.689  18
 -10  -2   6 404.883 276.743   2
  10   2   6 547.356 431.998   8
 -10  -2   6 337.515 257.141   4
 -10   2  -6 170.742 248.021   4
 -10  -2   6 136.151 194.247  17
  10  -2   6 510.274 317.759   8
  10   2  -6 375.623 207.014   8
 -10   2   6 266.779 197.038   4
  10  -2  -6 212.166 201.289   1
  10   2   6 196.708 157.843  16
 -10   2  -6 327.367 397.199   7
 -10   2  -6 392.040 352.145  15
  10   2  -6 179.405 163.234  14
  10  -2   6 575.137 343.859  14
  10  -2  -7 186.214 199.316   1
  10  -2  -7 38.3830 119.124  14
  10  -2   7 242.701 252.715   6
 -10   2   7 54.3198 45.9809   2
  10   2  -7-53.3188 103.970  13
 -10   2  -7-29.5433 116.389   3
 -10   2  -7-21.7439 91.8509  12
  10   2  -7 217.971 248.062   1
  10   2  -7-64.0306 47.1697  11
 -10   2  -7 84.6374 87.8763   5
 -10  -2   7-32.1023 186.257   5
 -10  -2  -7-237.831 339.424  19
 -10   2  -7 94.1373 82.0761  19
 -10  -2   7 126.939 9.37822  19
 -10   2   7 156.824 147.150   5
  10   2  -7 58.0866 155.227   9
 -10   2   7-210.153 275.318  19
  10   2   7-135.579 262.674  18
  10   2  -7 113.258 180.601  18
 -10  -2   7-49.9123 134.603   2
  10   2   7 93.5378 174.971   8
 -10  -2  -7 258.690 270.447  17
 -10   2  -7 233.283 371.148   4
 -10  -2   7 133.946 226.674   4
 -10  -2   7 220.187 293.086  17
  10  -2   7 108.058 180.868   8
  10   2  -7 129.264 127.741   8
  10  -2   7-347.963 347.086  16
 -10   2   7 76.9254 139.894   4
 -10   2  -7-43.8273 59.5477   7
  10   2   7-18.6180 69.7249  16
 -10   2  -7 401.726 344.429  15
  10  -2   7 142.988 206.277   1
  10   2  -7 82.6173 121.086  14
  10  -2   7-1.75701 186.886  14
  10  -2   8 804.698 381.833   6
  10  -2  -8 243.007 187.300  14
 -10   2   8 518.183 265.750   2
  10   2  -8 805.794 342.671  13
 -10   2  -8 211.507 192.699   3
 -10   2  -8 339.405 263.857  12
  10  -2  -8 259.324 222.714   1
 -10   2  -8 184.475 93.9488   5
  10   2  -8 465.624 305.973  11
  10   2  -8 363.080 277.435   1
 -10  -2   8 344.831 280.515   5
 -10  -2  -8-298.451 465.904  19
 -10   2  -8 358.380 249.533  19
 -10  -2   8 271.314 187.850  19
 -10   2   8 413.956 229.597   5
  10   2  -8 205.338 301.098   9
  10   2  -8 477.968 329.970  18
  10   2   8 439.942 362.707   8
 -10  -2  -8-244.930 266.557  17
 -10   2  -8 190.214 219.110   4
 -10  -2   8 448.165 319.331   2
 -10  -2   8 386.805 222.799   4
  10  -2   8 478.059 324.762   8
 -10  -2   8 539.383 358.354  17
  10   2  -8 396.530 205.996   8
  10  -2   8 671.581 329.776  16
  10  -2   8 682.902 390.002   1
 -10   2  -8 150.968 245.683   7
 -10   2   8 309.877 206.416   4
  10   2   8 190.017 169.555  16
 -10   2  -8 256.498 327.116  15
  10   2  -8 402.380 269.870  14
  10  -2   8 549.302 358.503  14
  10  -2   9-133.245 172.939   6
  10  -2  -9 133.324 170.139  14
 -10   2   9 16.9033 97.1048   2
  10   2  -9 220.843 202.082  13
 -10   2  -9 19.5979 154.538  12
 -10   2  -9 44.2069 151.590   3
  10   2  -9-62.0535 201.358  11
  10  -2  -9-42.6722 56.9879   1
 -10  -2   9-67.0414 206.321   5
  10   2  -9-39.1131 119.160   1
 -10   2  -9-289.594 195.467  19
 -10  -2   9-71.5537 134.035  19
 -10   2   9 53.1544 92.0597   5
  10   2  -9 330.756 274.557   9
  10   2  -9 31.5182 174.050  18
 -10   2  -9-75.0085 161.942   4
  10   2   9 173.517 268.868   8
  10  -2   9 268.951 321.920   1
 -10  -2   9-75.2339 147.537   4
 -10  -2   9 18.5375 100.823   2
  10  -2   9 10.2205 120.720   8
 -10  -2   9 0.68825 171.741  17
  10   2  -9 7.83890 130.331   8
  10  -2   9-225.626 239.509  16
 -10   2  -9 32.5974 176.148   7
 -10   2   9-157.272 190.058   4
  10   2   9-137.915 190.294  16
 -10   2  -9-50.1855 163.052  15
  10   2  -9-8.86756 152.453  14
  10  -2   9 62.0163 216.447  14
 -10   2 -10-117.453 262.431  12
 -10   2 -10 71.9860 342.291   3
  10   2 -10 44.6595 173.020  11
 -10  -2  10 0.12386 72.9200   5
  10   2 -10 76.5983 183.268   1
 -10   2 -10 572.545 508.257  19
 -10  -2  10 34.5582 50.6362  19
  10   2 -10-252.235 300.301   9
  10  -2  10 609.212 739.556   1
  10   2 -10-107.214 172.453  18
 -10   2 -10-239.530 53.8494   4
  10   2  10 83.9306 183.213   8
 -10  -2  10 16.7694 49.5818   4
  10  -2  10 977.981 642.549   8
 -10  -2  10 100.979 192.306   2
 -10  -2  10-35.4227 166.890  17
  10  -2  10 184.744 411.945  16
  10   2 -10-144.721 206.914   8
 -10   2 -10 212.091 388.534   7
  10   2  10 273.876 346.646  16
 -10   2 -10 293.682 259.307  15
  10  -2  10 1122.36 808.629  14
  10   2 -10-56.8490 149.913  14
 -10   2 -11 1845.39 721.543   3
  10   2 -11-48.0412 139.955  11
 -10  -2  11-110.030 200.996   5
  10  -2  11 4463.32 1031.10   1
  10   2 -11-21.5902 146.213   1
 -10  -2  11 155.635 209.590  19
  10   2 -11-164.346 419.437   9
 -10   2 -11 3767.08 1061.11   4
  10  -2  11 9311.12 1417.72   8
  10   2 -11-14.6023 136.185  18
  10   2  11 172.403 282.556   8
 -10  -2  11-4.11010 75.0219   4
 -10  -2  11-10.9628 123.551   2
 -10  -2  11 64.9515 177.812  17
 -10   2 -11 663.950 398.589   7
 -10   2 -11 1147.62 581.837  15
  10  -2  11 12271.9 1855.25  14
  10   2 -11 29.3160 114.267  14
  10   2 -12-1.81723 179.081  11
 -10  -2  12 222.579 231.212   5
 -10   2 -12-48.4650 69.9431  19
  10   2 -12 399.270 294.022   1
 -10  -2  12 133.859 148.990  19
  10   2 -12-115.289 341.376   9
  10   2 -12 198.287 215.533  18
  10   2  12 345.265 316.453   8
  10  -2  12 682.369 375.161   8
 -10  -2  12 317.755 234.970   4
 -10  -2  12 86.9887 241.656  17
 -10  -2  12 307.018 250.159   2
  10  -2  12 537.462 306.678  16
 -10   2 -12-1402.91 717.701   7
 -10   2 -12-1150.31 645.913  15
  10  -2  12 413.126 340.218  14
  10   2 -12 149.460 179.241  14
  10  -2  12 427.868 381.793   6
  10  -3   0-22.1383 76.7872  14
 -10   3   0 28.4467 41.3059   2
  10  -3   0 29.1957 75.0589   6
  10  -3   0-59.7679 144.509   1
 -10  -3   0-130.026 262.672  19
 -10   3   0-72.7436 137.238   5
 -10   3   0 26.6392 84.7423  19
  10   3   0 9.19281 98.7327  18
  10   3   0-159.811 204.751   1
  10   3   0-44.6029 167.055   8
 -10  -3   0 312.095 297.983  17
  10  -3   0 2.43924 79.7102   8
 -10   3   0-114.984 151.391   4
 -10   3  -1 1179.03 403.996  12
  10   3   1 2833.33 964.439   1
  10   3  -1 3149.76 964.615   1
 -10   3  -1 1915.68 526.202   5
 -10   3   1 2091.16 564.592   5
  10  -3   1 2315.94 624.621   1
 -10   3  -1 2004.65 350.849   2
  10  -3  -1 1618.11 511.488   1
 -10   3   1 1942.90 387.943   2
 -10   3  -1 2787.73 656.967  19
 -10   3   1 2589.84 638.995  19
 -10  -3  -1 49.3381 165.457  19
 -10  -3   1 128.942 167.603  19
  10   3   1 2709.37 701.927  18
  10   3  -1 3130.16 742.191  18
  10   3   1 2471.46 747.323   8
  10   3  -1 2375.61 701.223   8
 -10   3  -1 2216.86 597.952   4
 -10   3   1 2225.88 592.253   4
  10  -3   1 2386.90 626.142   8
  10  -3  -1 1886.08 543.505   8
 -10  -3  -1-99.4156 168.095  17
  10  -3   1 2283.05 522.907   6
  10  -3  -1 1804.17 441.489   6
  10  -3   1 1963.33 548.743  14
  10  -3  -1 1817.68 522.843  14
  10  -3   2 216.995 143.574  14
  10  -3  -2 228.976 190.631  14
  10  -3   2 368.945 233.448   1
 -10   3   2 199.786 131.183   2
  10  -3   2 147.575 88.9234   6
  10  -3  -2 54.8411 55.2591   6
 -10   3  -2 55.7803 96.4070  12
 -10   3  -2 212.680 203.597   5
 -10  -3  -2 39.9267 74.5081  19
 -10  -3   2 157.945 254.689  19
  10   3   2 136.513 119.992   1
 -10   3   2 308.696 218.561   5
 -10   3  -2 238.477 142.026  19
 -10   3   2 244.852 197.036  19
  10   3   2 195.932 51.1944  18
  10   3  -2 186.247 198.205  18
  10   3   2 280.903 317.793   8
 -10  -3  -2-122.160 204.091  17
  10   3  -2 218.174 249.491   8
 -10  -3   2 23.6565 95.0059  17
  10   3  -2 179.392 272.703   1
  10  -3   2 246.814 171.819   8
 -10   3  -2 144.623 155.599   4
  10  -3  -2 222.943 148.147   8
 -10   3   2 198.781 167.435   4
  10  -3  -2 171.510 188.237   1
 -10   3  -2 238.031 123.380   2
  10  -3   3 493.062 301.961  14
  10  -3  -3 279.901 236.340  14
  10  -3  -3 208.941 169.989   1
  10  -3   3 488.979 284.108   6
 -10   3   3 260.216 157.780   2
 -10  -3   3 111.435 106.263  12
  10  -3  -3 186.768 147.579   6
 -10   3  -3 206.949 158.144  12
 -10   3  -3 368.238 249.823   5
 -10  -3  -3-69.4326 320.363  19
 -10  -3   3-23.7635 139.868  19
 -10   3   3 319.990 238.994   5
 -10   3  -3 294.981 232.062  19
 -10   3   3 345.329 204.849  19
  10   3   3 599.632 343.711  18
  10   3  -3 511.404 319.429  18
  10   3   3 256.348 305.368   8
 -10  -3  -3 378.189 329.184  17
  10   3  -3 455.062 312.811   8
 -10  -3   3-157.074 271.035  17
  10  -3   3 449.621 283.997   8
 -10   3  -3 163.992 119.650   4
 -10   3  -3 434.456 140.778   2
  10   3  -3 162.418 165.780   1
  10  -3  -3-43.0776 252.887   8
  10  -3   3 261.479 190.562   1
 -10   3   3 319.316 218.455   4
  10   3  -3 301.172 307.456  14
  10  -3   4 219.175 163.356  14
  10  -3  -4 198.841 202.402  14
  10  -3   4 363.884 219.672   6
 -10   3   4 249.120 172.636   2
 -10  -3   4 33.3679 39.6385  12
 -10   3  -4 211.610 202.970  12
  10   3  -4 500.067 357.990  11
  10  -3  -4 155.418 127.019   1
  10   3  -4 476.407 252.724  10
 -10   3  -4 135.536 165.131   5
 -10  -3   4-55.1776 283.656   2
 -10  -3  -4-471.025 451.090  19
 -10  -3   4-17.7780 64.5733  19
 -10   3  -4 142.659 32.0972  19
 -10   3   4 177.923 181.439   5
 -10   3   4 167.556 135.120  19
  10   3   4 366.075 225.985  18
  10   3  -4 332.303 223.976  18
 -10   3  -4 210.388 105.752   2
  10   3   4 160.591 288.247   8
 -10  -3  -4-170.603 296.702  17
  10  -3   4 316.746 168.507   1
 -10  -3   4 173.115 287.773  17
  10   3  -4 328.914 210.503   8
 -10   3  -4 239.314 193.237   4
  10  -3   4 288.081 221.958   8
  10   3  -4 154.196 170.333   1
 -10   3   4 177.442 177.532   4
  10   3  -4 211.558 225.754  14
 -10   3  -4-105.433 233.638   3
 -10   3  -5 82.7419 188.557   3
  10  -3  -5 132.808 136.476  14
  10   3  -5-50.2499 21.6497  13
  10  -3   5 68.4057 122.841   6
 -10   3  -5-18.7726 75.7505  12
 -10  -3   5-37.4457 63.7312  12
  10   3  -5 60.4233 157.485  11
 -10  -3   5-391.797 307.697   5
 -10   3  -5 191.607 142.413  10
  10   3  -5 43.0288 106.820  10
 -10   3  -5 97.5284 143.450   5
 -10  -3   5-85.3730 146.940  19
 -10  -3   5-103.496 94.1987   2
  10  -3   5 63.7794 137.931   1
 -10   3  -5 115.042 171.159  19
 -10   3   5-36.3088 41.5160   5
 -10   3   5-199.081 263.541  19
  10  -3  -5 28.2560 161.859   1
  10   3   5-72.4865 251.185  18
  10   3  -5 30.2757 125.760  18
  10   3   5 76.7740 217.562   8
 -10  -3  -5 190.632 104.071  17
 -10  -3   5-22.5303 119.443  17
  10   3  -5-37.4514 37.6213   8
 -10   3  -5 150.491 206.378   4
  10  -3   5-94.0418 198.314   8
 -10   3   5-49.0318 139.661   4
  10   3  -5 131.212 163.897   1
  10   3  -5 133.947 155.636  14
  10  -3   5-15.0439 116.829  14
  10  -3  -6 285.417 208.526  14
 -10   3  -6-4.18095 132.368   3
  10  -3   6 782.266 311.505   6
  10   3  -6 886.234 302.588  13
 -10   3  -6 666.439 359.566  12
  10   3  -6 1660.58 559.518  11
 -10  -3   6 267.450 213.791   5
  10  -3   6 1191.08 444.218   1
 -10   3  -6 540.993 301.409   5
 -10   3  -6 644.343 204.505  10
  10   3  -6 549.645 274.165  10
  10   3  -6 1666.87 672.599   9
 -10  -3   6 291.331 219.796  19
 -10   3  -6 417.744 280.426  19
 -10  -3   6 327.199 289.415   2
 -10   3   6 522.506 289.237   5
  10   3  -6 637.635 422.960  18
 -10  -3   6-49.9823 183.155   4
  10   3   6 568.272 306.877   8
 -10  -3   6 461.494 323.794  17
 -10   3  -6 374.448 251.248   4
  10   3  -6 830.379 311.706   8
  10  -3   6 636.478 321.964   8
  10  -3  -6 320.644 242.628   1
 -10   3   6 340.611 193.159   4
  10   3  -6 615.631 345.103   1
  10   3  -6 400.659 322.766  14
  10  -3   6 570.460 303.550  14
  10  -3   7 28.5337 98.6451   6
 -10   3  -7 49.8310 97.5507   3
  10   3  -7 175.795 178.092  13
  10  -3   7 161.582 201.415   1
 -10   3  -7-46.1588 94.4865  12
  10   3  -7 132.828 74.1430  11
 -10  -3   7 104.316 109.766   5
 -10   3  -7 92.6615 139.379   5
 -10   3  -7 73.4686 97.4997  10
  10   3  -7-114.952 119.768  10
  10   3  -7 555.721 460.209   9
 -10  -3   7 345.233 336.076  19
 -10   3  -7-75.8357 39.8167  19
 -10  -3   7-4.70695 172.564   2
  10   3  -7 33.8181 162.823  18
 -10  -3   7-186.610 207.458   4
  10   3   7 85.2451 196.544   8
 -10   3  -7 128.059 230.233   4
 -10  -3   7 391.546 336.261  17
  10   3  -7 80.0623 91.7973   8
  10  -3   7-23.6931 35.6920   8
  10   3  -7 99.1854 170.508  14
  10   3  -7 353.870 312.765   1
  10  -3   7-21.0958 121.892  14
  10   3  -8 40.1284 95.7110   1
  10  -3   8 16.4712 130.653   6
 -10   3  -8 53.5082 203.314   3
  10   3  -8 70.9838 126.933  13
 -10   3  -8 31.6389 100.012  12
  10   3  -8-17.4384 37.9340  11
 -10  -3   8 55.8270 201.739   5
 -10   3  -8 213.079 253.504   5
 -10   3  -8 46.0550 19.1402  10
  10   3  -8-241.308 240.380  10
  10   3  -8 399.841 360.335   9
 -10  -3   8-9.60751 138.371  19
 -10   3  -8 42.3842 49.8190  19
 -10  -3   8-116.493 184.842   2
  10   3  -8 5.81392 109.525  18
 -10  -3   8-100.313 255.710   4
  10   3   8 98.4646 274.919   8
 -10   3  -8-61.6397 176.086   4
 -10  -3   8-35.1354 76.7685  17
  10  -3   8-7.65084 97.2991   8
  10   3  -8 30.2137 67.0136   8
 -10   3  -8 192.973 304.934  15
  10   3  -8 8.71925 77.4972  14
  10  -3   8-59.5143 133.445  14
  10  -3   8 73.2689 154.330   1
  10  -3   9 171.864 296.308   6
  10   3  -9-87.8352 190.472   1
  10   3  -9 131.650 169.987  13
 -10   3  -9 115.006 301.986   3
 -10   3  -9-333.240 174.090  12
  10   3  -9-12.3735 69.1764  11
 -10   3  -9-97.0400 129.141   5
 -10  -3   9 3.92391 111.785   5
 -10   3  -9-126.165 135.887  10
  10   3  -9 198.258 264.616  10
 -10   3  -9 250.416 327.937  19
 -10  -3   9 41.5571 77.2311  19
  10   3  -9 884.174 554.905   9
  10   3  -9 342.971 329.699  18
 -10  -3   9 27.3033 53.5074   2
  10   3   9 354.900 408.394   8
 -10  -3   9-85.3237 231.358   4
 -10   3  -9-134.893 176.905   4
 -10  -3   9-91.0275 173.512  17
  10  -3   9-270.021 262.279   8
  10   3  -9 24.1638 43.5575   8
  10  -3   9-503.209 440.224  16
  10  -3   9 67.0988 267.936   1
 -10   3  -9-35.9323 123.359   7
 -10   3  -9-63.0732 330.100  15
  10   3  -9 329.814 283.729  14
  10  -3   9 114.004 203.502  14
  10   3 -10 167.630 85.5951  13
  10   3 -10 233.948 299.285   1
 -10   3 -10 1137.52 780.886   3
  10   3 -10 250.862 342.173  11
 -10  -3  10 64.7711 69.2568   5
  10   3 -10 484.497 473.098  10
 -10  -3  10 180.347 177.651  19
  10   3 -10 651.645 519.920   9
  10   3 -10 140.327 216.848  18
 -10  -3  10-50.8480 194.035   2
 -10  -3  10 169.475 199.656   4
 -10   3 -10 1211.15 646.523   4
 -10  -3  10 164.635 411.383  17
  10   3 -10 153.366 146.776   8
  10  -3  10 610.696 538.851  16
 -10   3 -10 896.929 948.984   7
 -10   3 -10 652.906 838.703  15
  10   3 -10-45.8421 166.845  14
  10  -3  11 1028.00 671.083   6
  10   3 -11 809.753 368.817  13
 -10   3 -11-102.795 404.257  12
 -10   3 -11 0.65408 348.108   3
  10   3 -11 298.661 167.490   1
  10   3 -11 499.769 205.026  11
 -10  -3  11 102.832 180.585   5
 -10   3 -11 1660.10 744.619  19
  10   3 -11-380.179 408.791  10
 -10  -3  11 417.959 263.599  19
  10   3 -11 319.306 215.749   9
  10  -3  11-210.399 150.231   1
  10   3 -11 861.144 482.709  18
 -10   3 -11 651.137 621.178   4
 -10  -3  11 333.335 201.066   4
 -10  -3  11 365.027 345.665   2
 -10  -3  11 521.787 362.396  17
  10  -3  11 1618.95 611.017   8
  10  -3  11 303.653 334.211  16
  10   3 -11 369.292 179.405   8
 -10   3 -11 1141.09 742.689   7
 -10   3 -11 1067.46 690.080  15
  10   3 -11 111.832 132.175  14
  10  -3  11 1214.03 671.070  14
  10  -3  12 52.6905 126.574   6
  10   3 -12 346.460 273.606  13
 -10   3 -12 251.595 366.506  12
 -10   3 -12-82.2797 162.416   3
  10   3 -12 213.940 233.768   1
  10   3 -12-18.2087 137.097  11
 -10  -3  12 186.370 290.599   5
 -10   3 -12-336.973 290.065  10
  10   3 -12-624.938 470.766  10
  10  -3  12-311.505 302.389   1
 -10   3 -12-17.5720 52.9158  19
 -10  -3  12 69.8134 115.769  19
  10   3 -12 284.378 477.543   9
  10   3 -12 72.7051 130.437  18
 -10   3 -12-92.4050 265.729   4
 -10  -3  12-26.1969 88.7265   4
 -10  -3  12 185.746 257.611   2
  10  -3  12 212.551 223.787   8
 -10  -3  12 325.209 413.409  17
  10  -3  12 108.584 246.176  16
 -10   3 -12 9.05565 275.965   7
 -10   3 -12 222.883 356.694  15
  10   3 -12-0.96700 155.560  14
  10  -3  12 290.390 374.419  14
 -10   4   0 2827.81 632.686   5
  10  -4   0 2154.07 591.967   1
 -10   4   0 3192.72 707.900  19
 -10  -4   0-84.7503 325.505  19
  10   4   0 4156.28 956.898  18
  10   4   0 2626.69 805.782   8
 -10   4   0 2935.41 648.060   4
  10  -4   0 2149.55 581.944   8
 -10  -4   0-120.989 212.293  17
  10  -4   0 1935.30 483.322   6
  10  -4   0 2140.71 554.519  14
  10  -4   1 218.448 159.251  14
  10  -4  -1 108.167 127.594  14
  10  -4   1 245.757 183.665   6
  10  -4  -1 124.647 146.740   6
  10  -4  -1 262.784 216.999   1
 -10  -4   1-24.6826 86.9272  19
 -10   4  -1 327.460 225.663   5
  10   4  -1 389.124 312.178   1
 -10   4   1 347.018 214.364   5
 -10   4  -1 370.361 235.937  19
 -10   4   1 328.765 215.908  19
  10   4   1 483.113 302.451  18
  10   4  -1 426.066 339.841  18
  10   4   1 399.284 271.395   8
  10   4  -1 514.050 321.387   8
 -10  -4  -1 557.757 474.955  17
 -10  -4   1 11.5977 106.668  17
  10  -4   1 247.372 184.682   8
  10  -4  -1-71.6564 268.492   8
 -10   4  -1 324.172 219.901   4
  10  -4   1 333.436 258.421   1
 -10   4   1 296.621 193.662   4
  10  -4   2 1528.63 481.885  14
  10  -4  -2 831.179 383.872  14
  10  -4   2 1354.82 427.206   6
 -10   4  -2 749.416 328.510  12
 -10   4  -2 1857.51 520.484   5
 -10   4   2 1407.86 440.797   5
 -10   4  -2 1244.77 245.829   2
 -10   4  -2 2051.52 554.668  19
 -10   4   2 1636.64 506.491  19
 -10  -4   2-122.935 95.9630  19
  10   4  -2 2008.67 812.761   1
  10   4   2 1698.10 630.271  18
  10   4  -2 2254.15 708.569  18
  10  -4   2 1396.42 472.285   1
 -10   4  -2 1577.14 510.020   4
 -10   4   2 1402.72 431.504   4
  10  -4   2 1468.61 485.894   8
  10   4   2 1428.45 621.855   8
 -10  -4  -2 185.281 397.297  17
  10   4  -2 1791.11 588.817   8
 -10  -4   2-43.5211 107.214  17
  10  -4  -2 866.263 368.645   1
  10  -4  -2 95.8237 311.153   8
  10  -4   3 489.610 295.584  14
 -10   4  -3 355.969 123.433   2
  10  -4   3 326.918 196.141   6
 -10   4  -3 324.132 234.510  12
  10  -4   3 674.691 315.685   1
 -10  -4   3 46.7608 63.8528  19
 -10   4  -3 323.483 192.790   5
 -10   4  -3 579.436 291.837  19
  10   4   3 148.195 307.900  18
  10   4  -3 530.766 331.535  18
  10   4  -3 492.727 355.066   1
  10   4   3 455.517 355.476   8
 -10  -4  -3-16.6109 169.671  17
  10   4  -3 350.981 230.938   8
 -10  -4   3-111.996 171.511  17
  10  -4   3 656.263 294.962   8
 -10   4  -3 390.989 244.596   4
  10  -4   4 196.762 158.780  14
  10  -4   4 463.048 284.391   1
  10  -4   4 189.505 182.794   6
 -10   4  -4 183.659 185.890  12
 -10   4  -4 285.886 188.821   5
 -10  -4   4 20.2876 152.567  19
 -10   4  -4 92.4527 174.013  19
  10   4  -4 510.924 346.138  18
  10   4   4 352.530 296.066   8
  10   4  -4 242.460 278.767   1
  10   4  -4 174.608 160.608   8
 -10  -4   4-190.761 255.280  17
  10  -4   4 53.1540 34.0204   8
 -10   4  -4 52.8802 132.808   4
  10  -4   5 1007.22 383.618  14
  10  -4   5 1013.80 415.436   6
 -10   4  -5 1069.39 405.599  12
 -10   4  -5 1069.10 409.447   5
 -10  -4   5 201.268 238.755  19
 -10   4  -5 925.664 382.880  19
  10   4  -5 1307.75 554.787  18
  10   4   5 435.539 402.246   8
  10   4  -5 1563.76 481.358   8
 -10  -4   5 352.686 295.656  17
  10   4  -5 1082.08 591.837   1
  10  -4   5 1283.49 436.495   8
 -10   4  -5 778.075 391.752   4
  10  -4   5 1261.81 410.673   1
 -10   4  -5 7.20687 209.012   3
  10  -4   6-74.7919 134.390  14
  10   4  -6-90.4335 195.635  13
  10  -4   6-48.0480 119.280   6
 -10   4  -6-84.5212 112.244  12
 -10   4  -6 11.2499 3.93504   5
 -10  -4   6-201.965 356.393   2
 -10  -4   6-67.9671 110.917  19
 -10   4  -6-24.5928 74.0296  19
  10   4  -6-17.0969 148.010  18
  10  -4   6 125.008 133.278   1
 -10  -4   6 21.9102 157.927  17
  10   4  -6 62.8841 132.272   8
  10   4  -6 163.641 178.216   1
 -10   4  -6 20.9189 21.1711   4
  10  -4   6 42.6736 107.103   8
 -10   4  -6 61.8838 123.206   3
 -10   4  -7 169.656 144.504   3
  10   4  -7 739.420 342.515  13
  10  -4   7 417.576 273.320   6
 -10   4  -7 363.816 251.586  12
  10   4  -7 1312.41 545.443  11
  10   4  -7 989.517 465.627  10
 -10   4  -7 622.532 327.066   5
 -10  -4   7-139.568 340.451   2
 -10  -4   7 224.653 173.261  19
  10  -4   7 807.699 351.328   1
 -10   4  -7 679.594 335.194  19
  10   4  -7 684.421 409.910  18
 -10  -4   7-16.8801 205.139  17
  10   4  -7 819.850 317.071   8
 -10   4  -7 537.648 270.111   4
  10  -4   7 828.218 368.171   8
  10   4  -7 658.632 477.210   1
  10  -4   7 490.818 308.640  14
 -10   4  -8-200.597 283.639   3
  10  -4   8-1.33977 94.4293   6
  10   4  -8-88.9688 142.829  13
 -10   4  -8 147.529 350.935  12
  10   4  -8 103.409 265.812  11
  10  -4   8-119.025 183.053   1
 -10   4  -8 68.3960 114.775   5
 -10   4  -8 63.4351 111.872  10
  10   4  -8-252.063 289.831  10
 -10  -4   8-36.2303 130.365  19
 -10  -4   8-100.803 154.943   2
 -10   4  -8 5.29542 93.9683  19
  10   4  -8-16.0122 121.939  18
 -10  -4   8-64.9557 130.241  17
 -10   4  -8 14.7669 145.448   4
  10   4  -8 81.8586 87.6467   8
  10  -4   8 25.8600 89.5203   8
  10   4  -8-258.845 300.961   1
  10  -4   8-218.906 254.635  14
  10  -4   9 1408.93 525.398   6
 -10   4  -9 993.318 598.610   3
  10  -4   9 1809.44 558.622   1
  10   4  -9 1296.84 526.194  13
 -10   4  -9 2002.33 686.730  12
  10   4  -9 1206.42 625.342  11
 -10   4  -9 1276.85 514.120   5
 -10   4  -9 675.867 289.735  10
  10   4  -9 828.250 549.918  10
 -10  -4   9 369.712 326.579  19
 -10   4  -9 1196.67 501.072  19
 -10  -4   9 565.416 498.809   2
  10   4  -9 752.809 470.247  18
 -10  -4   9 232.804 399.552  17
 -10   4  -9 884.893 537.214   4
  10   4  -9 576.730 301.528   8
  10  -4   9 1629.17 567.328   8
  10   4  -9 1141.19 594.661   1
  10  -4   9 1395.21 501.506  14
  10  -4  10 759.770 353.901   6
 -10   4 -10 50.5509 288.703   3
  10   4 -10 680.454 357.386  13
 -10   4 -10 647.135 447.239  12
  10   4 -10 794.802 483.195  11
 -10  -4  10-91.0403 321.702   5
 -10   4 -10 455.078 348.885   5
 -10   4 -10 576.861 295.511  10
  10   4 -10 321.786 327.909  10
  10   4 -10 1549.50 845.624   9
 -10  -4  10 428.664 242.658  19
 -10   4 -10 353.965 274.510  19
 -10  -4  10 174.928 216.287   2
  10   4 -10 669.509 422.051  18
 -10   4 -10-107.985 47.7583   4
 -10  -4  10 42.5126 178.349  17
  10  -4  10 929.445 447.913   8
  10   4 -10 787.803 318.228   8
 -10   4 -10 448.338 404.292  15
  10   4 -10 443.494 421.333   1
  10  -4  10 789.360 471.472   1
  10  -4  10 1048.37 484.583  14
  10  -4  11 272.462 230.895   6
  10   4 -11 325.976 229.285  13
 -10   4 -11 132.805 163.467   3
 -10   4 -11 71.4872 145.877  12
  10   4 -11 471.709 325.097  11
 -10  -4  11 20.8186 209.889   5
 -10   4 -11 144.606 99.1742   5
 -10   4 -11 414.183 226.775  10
  10   4 -11 316.987 391.055  10
  10   4 -11 513.377 527.691   9
 -10   4 -11 277.957 206.161  19
 -10  -4  11 172.855 196.581  19
 -10  -4  11 302.721 350.000   2
  10   4 -11 242.160 273.046  18
 -10   4 -11 158.042 142.770   4
 -10  -4  11 353.577 348.217  17
  10  -4  11 247.060 169.821   8
  10  -4  11-491.295 495.933  16
  10  -4  11 267.941 240.217   1
 -10   4 -11 384.895 434.775   7
 -10   4 -11 274.857 460.794  15
  10   4 -11 340.330 294.365   1
  10  -4  11 304.512 259.628  14
 -10   5   0 295.153 127.120  19
  10   5   0 758.723 458.058  18
  10   5   0 412.025 326.841   8
 -10  -5   0 9.50363 122.124  17
 -10   5   0 281.622 92.3774   4
  10  -5   1 675.390 339.510  14
  10  -5   1 375.242 245.547   6
 -10   5  -1 1226.15 412.020   5
 -10   5  -1 1318.48 424.731  19
  10   5   1 1109.76 503.557  18
  10   5  -1 1677.86 666.763  18
  10   5   1 746.243 510.125   8
  10   5  -1 994.537 533.563   8
 -10  -5  -1-187.914 363.999  17
 -10  -5   1 144.643 246.134  17
  10  -5   1 841.984 360.197   1
  10  -5   1 335.484 164.890   8
 -10   5  -1 1166.38 402.993   4
  10  -5   2 437.207 275.429  14
  10  -5   2 506.195 276.363   6
  10  -5   2 433.372 262.465   1
 -10  -5   2-46.2352 239.079  19
 -10   5  -2 955.707 367.561   5
 -10   5  -2 1004.03 396.704  19
  10   5  -2 1134.65 506.486  18
  10   5   2 810.721 572.138   8
  10   5  -2 505.118 338.271   8
 -10  -5   2-187.239 272.147  17
  10  -5   2 415.317 177.192   8
 -10   5  -2 762.327 333.077   4
  10  -5   3 479.795 284.944  14
  10  -5   3 291.263 220.886   6
  10   5  -3 403.604 365.743   1
 -10  -5   3-43.0698 234.931  19
 -10   5  -3 653.620 277.090   5
 -10   5  -3 641.408 292.545  19
  10   5  -3 755.764 475.099  18
  10   5  -3 626.769 363.205   8
 -10  -5   3 103.950 187.783  17
  10  -5   3 365.957 244.258   8
 -10   5  -3 581.926 337.814   4
  10  -5   3 303.478 196.932   1
  10  -5   4 505.921 283.333  14
  10  -5   4 476.605 276.101   6
 -10   5  -4 880.602 422.188  12
 -10  -5   4-88.4385 167.674  19
 -10   5  -4 1106.26 372.443   5
  10   5  -4 818.306 536.705   1
 -10   5  -4 1026.96 413.134  19
  10   5  -4 1175.82 505.386  18
  10  -5   4 776.281 326.971   1
  10   5  -4 952.825 460.555   8
 -10  -5   4-57.5378 264.651  17
  10  -5   4 912.206 372.244   8
 -10   5  -4 1114.57 435.199   4
  10  -5   5 31.4751 79.5474  14
  10  -5   5-1.33310 31.0796   6
 -10   5  -5 69.5984 131.108  12
  10  -5   5 60.2183 97.8115   1
 -10  -5   5-162.752 308.889  19
 -10   5  -5-156.447 161.416   5
 -10   5  -5 12.8550 78.8442  19
  10   5  -5 89.6455 123.607   1
  10   5  -5-343.620 323.103  18
  10   5  -5-153.640 156.273   8
 -10  -5   5-69.0915 172.487  17
  10  -5   5-5.73140 75.3650   8
 -10   5  -5-17.4643 116.344   4
  10  -5   6 853.774 356.841  14
  10  -5   6 1253.29 410.770   1
  10  -5   6 1009.63 414.353   6
 -10   5  -6 1435.82 520.051  12
 -10   5  -6 1467.73 456.751   5
 -10   5  -6 1459.04 471.931  19
  10   5  -6 1449.15 600.856  18
  10   5  -6 1265.33 634.785   1
  10   5  -6 1816.82 494.099   8
 -10  -5   6-142.763 205.658  17
  10  -5   6 1220.04 417.521   8
 -10   5  -6 1529.67 522.411   4
 -10   5  -6-107.066 345.745   3
  10  -5   7 170.631 137.523  14
  10  -5   7-69.7075 173.837   6
 -10   5  -7 205.604 137.061  12
 -10   5  -7 107.582 146.297   5
 -10  -5   7 54.6657 49.4362  19
 -10   5  -7-11.2773 71.0477  19
  10   5  -7-133.266 284.367  18
  10   5  -7-374.307 408.022   1
 -10  -5   7-37.1326 155.911  17
  10   5  -7 0.48994 169.956   8
 -10   5  -7-143.615 217.653   4
  10  -5   7 16.9859 25.9176   8
  10  -5   7 47.4533 12.7916   1
 -10   5  -7 55.9343 165.774   3
 -10   5  -8 290.909 219.563   3
  10  -5   8 834.609 373.741  14
  10   5  -8 1259.65 518.711  13
  10  -5   8 964.667 456.938   6
 -10   5  -8 556.636 335.380  12
 -10   5  -8 679.452 328.261   5
 -10  -5   8 18.6408 386.229   2
 -10  -5   8 306.173 286.526  19
 -10   5  -8 927.551 349.479  19
  10   5  -8 1272.44 609.884  18
  10  -5   8 1356.89 443.826   1
  10   5  -8 722.177 516.723   1
 -10  -5   8 269.709 428.566  17
  10   5  -8 1377.07 409.403   8
 -10   5  -8 1033.98 479.059   4
  10  -5   8 1068.51 434.698   8
  10  -5   9-97.1315 167.705  14
 -10   5  -9-14.4448 123.643   3
  10   5  -9 193.466 194.498  13
  10  -5   9-76.4706 143.251   6
 -10   5  -9 77.1123 180.762  12
  10   5  -9 115.119 290.516  11
 -10   5  -9-72.8319 66.0895   5
  10  -5   9 74.8078 73.6835   1
 -10  -5   9 8.61534 208.963   2
 -10  -5   9 39.9474 174.634  19
 -10   5  -9 27.8869 102.710  19
  10   5  -9-86.1717 113.993  18
  10   5  -9 173.907 257.049   1
 -10  -5   9 0.09300 107.994  17
  10   5  -9-185.569 198.127   8
 -10   5  -9 112.779 210.853   4
  10  -5   9-3.29873 110.122   8
 -10   5 -10 146.326 142.038   3
  10  -5  10 690.335 421.256   6
  10   5 -10 899.287 441.561  13
  10  -5  10 906.570 358.701   1
 -10   5 -10 806.666 382.475  12
  10   5 -10 1047.68 454.326  11
 -10   5 -10 685.822 383.490   5
  10   5 -10 1113.40 608.658  10
 -10  -5  10 360.312 368.103   2
 -10  -5  10 398.569 242.444  19
 -10   5 -10 888.584 386.929  19
  10   5 -10 799.111 487.594  18
 -10  -5  10 441.649 330.495  17
 -10   5 -10 713.005 402.523   4
  10   5 -10 815.433 523.146   1
  10  -5  10 894.425 404.002   8
  10  -5  10 1044.26 425.545  14
  10   6  -1 768.393 533.037  18
  10   6  -1 564.907 350.274   8
 -10  -6   1 156.831 502.314  17
  10   6  -2 150.176 250.684  18
  10   6  -2 166.938 286.939   8
 -10  -6   2 85.0093 301.044  17
  10  -6   3 444.161 274.457   6
 -10   6  -3 885.869 348.544   5
 -10   6  -3 464.879 242.716  19
  10   6  -3 1208.18 683.067  18
  10   6  -3 439.628 423.883   8
 -10   6  -3 1025.27 405.522   4
  10  -6   4 80.1458 194.253  14
  10  -6   4 292.868 213.513   6
  10  -6   4 80.5160 160.773   1
 -10   6  -4 30.5049 26.8108   5
 -10   6  -4-223.106 219.566  19
  10   6  -4 1.97783 63.2274  18
  10   6  -4-89.4915 213.027   8
 -10  -6   4-32.9908 217.651  17
  10  -6   4-298.885 281.771   8
 -10   6  -4 16.1852 109.940   4
  10  -6   5 716.864 365.568  14
  10  -6   5 681.508 309.017   1
  10  -6   5 841.398 392.713   6
 -10   6  -5 668.858 271.927  12
 -10  -6   5-180.894 259.126  19
 -10   6  -5 1152.88 371.961   5
 -10   6  -5 1105.69 383.069  19
  10   6  -5 1378.92 633.980  18
  10   6  -5 1347.12 525.106   8
 -10  -6   5 74.6295 73.0393  17
  10  -6   5 506.035 303.288   8
 -10   6  -5 979.304 438.907   4
  10  -6   6 486.847 269.755  14
  10  -6   6 135.599 148.552   6
 -10   6  -6 332.841 250.200  12
 -10  -6   6-116.497 37.6119  19
 -10   6  -6 680.438 297.257   5
 -10   6  -6 550.041 267.771  19
  10   6  -6 754.198 588.191  18
  10   6  -6 675.301 375.117   8
  10  -6   6 246.850 208.567   1
 -10  -6   6-32.4057 260.100  17
  10  -6   6 359.319 255.289   8
 -10   6  -6 485.416 293.197   4
  10  -6   7 680.047 345.281  14
  10  -6   7 344.443 262.640   6
 -10   6  -7 975.387 444.545  12
  10  -6   7 746.084 325.299   1
 -10  -6   7 77.3549 138.895  19
  10   6  -7 454.912 234.779   1
 -10   6  -7 723.620 300.220   5
 -10   6  -7 652.463 326.482  19
  10   6  -7 1056.47 575.081  18
  10   6  -7 884.303 374.174   8
 -10  -6   7-9.38140 286.319  17
  10  -6   7 865.839 368.240   8
 -10   6  -7 858.139 383.471   4
  10  -6   8 176.617 176.476  14
  10  -6   8 758.279 337.278   1
  10  -6   8 284.749 274.630   6
 -10   6  -8 397.807 265.446  12
 -10   6  -8 548.163 292.454   5
 -10  -6   8 128.602 198.740  19
  10   6  -8-41.4847 71.4749   1
 -10   6  -8 229.648 197.828  19
  10   6  -8 539.778 302.639  18
  10   6  -8 482.143 316.625   8
 -10  -6   8 192.887 363.181  17
 -10   6  -8 448.658 290.713   4
  10  -6   8 326.126 215.374   8
 -10   6  -8-51.7174 327.144   3
 -10  -7   3 151.734 478.140  17
  10   7  -4 995.891 629.167  18
  10   7  -4 537.536 365.253   8
 -10  -7   4 54.2122 493.155  17
  10   7  -5 1198.68 644.367  18
  10   7  -5 688.926 375.328   8
 -10  -7   5 148.429 452.486  17
  11   0   0-135.344 159.235   6
  11   0   0 8.19675 93.1824   1
 -11   0   0-33.4135 79.1782  12
  11   0   0 46.3684 100.332  11
 -11   0   0-148.275 203.558   5
 -11   0   0-16.1692 44.9629   2
 -11   0   0 34.8530 103.906  19
  11   0   0-2.61863 42.4522  18
 -11   0   0-93.4422 152.064   4
 -11   0   0 90.1388 150.270  17
  11   0   0 15.3779 110.634   8
 -11   0   0 3.95903 173.913   7
 -11   0   0 77.6802 87.3808  15
  11   0   0-67.5011 73.5229  14
  11   0   1 215.318 144.040   6
  11   0  -1 241.364 154.984   6
  11   0   1 349.464 336.546   1
 -11   0  -1 287.302 216.425  12
 -11   0   1 23.6797 27.0756  12
  11   0  -1 210.123 195.507   1
  11   0   1 324.846 170.498  11
 -11   0  -1 130.860 202.065   5
  11   0  -1 505.175 247.207  11
 -11   0   1 139.622 106.371   5
 -11   0  -1-314.408 372.088   2
 -11   0  -1 174.891 309.099  19
 -11   0   1 147.106 162.453  19
 -11   0   1 184.553 219.814   2
  11   0   1 306.794 199.919  18
  11   0  -1 287.616 180.731  18
 -11   0  -1 265.371 309.987   4
 -11   0   1 186.805 213.578   4
 -11   0  -1 160.622 178.089  17
  11   0   1 240.388 236.892   8
 -11   0   1 16.2364 97.1494  17
  11   0  -1 189.972 136.572   8
 -11   0  -1 30.8073 49.8590   7
 -11   0   1 106.467 187.471   7
 -11   0  -1-5.78492 215.393  15
 -11   0   1 111.315 82.9670  15
 -11   0  -1-172.212 248.087   3
  11   0   1 248.464 163.240  14
  11   0  -1 174.108 197.127  14
 -11   0  -2-27.3809 109.096   3
  11   0  -2 72.8881 53.1981   6
  11   0  -2 53.8933 44.8975  13
 -11   0  -2 165.722 173.482  12
 -11   0   2 15.3227 40.4071  12
 -11   0  -2-125.658 138.822   5
  11   0   2 46.5759 45.6399  11
  11   0  -2 86.7925 69.5934  11
  11   0  -2 83.2885 118.089   1
 -11   0   2 93.0250 182.631   5
 -11   0  -2-141.997 185.963  19
 -11   0   2 96.3285 94.1286  19
  11   0   2-16.8033 59.0033  18
 -11   0   2-6.79135 68.8797   2
  11   0  -2 47.5502 79.4629  18
 -11   0  -2-83.3390 223.932   4
 -11   0   2-34.5331 184.964   4
  11   0   2 55.5320 122.332   8
 -11   0  -2 94.6368 117.179  17
 -11   0   2-91.4679 196.591  17
  11   0  -2-69.9703 116.365   8
 -11   0  -2-240.630 381.901   7
 -11   0   2 273.681 282.420   7
 -11   0  -2-266.959 299.708  15
 -11   0   2 246.413 252.795  15
  11   0   2-8.62538 105.960  14
  11   0  -2 150.563 193.248  14
  11   0   2-49.5857 69.7223   1
  11   0   2 37.1220 159.086   6
  11   0  -3 1074.66 302.128   6
  11   0  -3 1174.41 261.510  13
 -11   0  -3 41.0607 100.790   3
 -11   0  -3 233.870 193.994  12
 -11   0  -3 278.226 257.486   5
  11   0   3 1223.73 304.479  11
  11   0  -3 776.792 320.030  11
 -11   0   3 816.002 414.728   5
  11   0  -3 1098.03 459.069   1
 -11   0  -3 507.834 257.680  19
 -11   0   3 838.197 383.597  19
  11   0   3 1337.20 389.776  18
  11   0  -3 869.168 366.926  18
 -11   0  -3 351.990 239.812   4
 -11   0   3 921.264 375.520   2
  11   0   3 1388.24 518.820   8
 -11   0   3 740.471 376.643   4
 -11   0  -3 252.402 176.618  17
 -11   0   3 204.771 246.504  17
  11   0  -3 1208.22 455.218   8
 -11   0  -3-187.941 397.588   7
 -11   0   3 1431.99 482.270   7
 -11   0  -3-62.9131 343.660  15
  11   0   3 1359.38 621.971   1
 -11   0   3 1217.20 448.503  15
  11   0   3 1555.87 607.720  14
  11   0  -3 1038.59 428.862  14
  11   0   3 1120.23 411.102   6
  11   0  -4-43.5779 52.1493   6
  11   0  -4 97.8430 96.6655  13
 -11   0  -4-48.7132 143.882   3
 -11   0  -4 221.083 248.909  12
 -11   0  -4-246.295 414.978   5
  11   0   4 126.202 132.821  11
  11   0  -4 114.057 114.387  11
 -11   0   4 21.7473 61.8698   5
 -11   0  -4 70.5052 188.022  19
 -11   0   4-47.3886 139.138  19
  11   0  -4 96.0911 186.374   1
  11   0   4 13.1324 46.1939  18
  11   0  -4 95.9494 164.770  18
 -11   0  -4-173.028 293.454   4
 -11   0   4 68.8813 124.284   2
  11   0   4-87.7771 163.003   8
 -11   0  -4 10.7876 63.2679  17
 -11   0   4-20.5236 198.831   4
 -11   0   4 84.3066 182.121  17
  11   0  -4-6.14281 94.6760   8
  11   0   4-127.239 183.601   1
  11   0   4-8.63465 175.226  14
  11   0   4-1.54291 128.795   6
  11   0  -4-163.982 183.958  14
 -11   0  -5 839.201 392.708  12
 -11   0  -5 375.334 240.202   3
  11   0   5 5424.65 1244.27   1
 -11   0   5 2778.60 741.570   5
  11   0  -5 4714.85 1013.66   1
 -11   0   5 3344.25 691.481   2
  11   0  -5 1568.46 498.293  11
 -11   0   5 3185.54 742.546  19
 -11   0  -5 895.590 439.837  19
  11   0   5 5027.60 709.743  18
  11   0  -5 2744.59 692.997  18
 -11   0   5 2925.68 698.449   4
  11   0   5 4933.52 997.599   8
  11   0  -5 3392.50 694.181   8
 -11   0  -5 906.363 449.210   4
 -11   0   5 1746.82 592.410  17
  11   0   5 3998.29 607.934  16
  11   0   5 4085.55 806.707   6
  11   0  -5 3881.43 513.458   6
  11   0   5 5384.97 1155.52  14
  11   0  -5 3476.71 783.722  14
  11   0  -6-136.339 103.666   6
 -11   0  -6 63.4160 126.652   3
  11   0  -6-67.8309 147.236  11
 -11   0   6 13.4043 38.3299   5
 -11   0  -6 72.9585 206.374  19
 -11   0   6 31.0496 60.3723  19
  11   0   6-35.9277 79.2034  18
 -11   0  -6-276.517 425.821   4
  11   0  -6 15.9133 101.674  18
  11   0   6 132.246 186.659   1
  11   0  -6-149.125 221.469   1
  11   0   6 100.201 127.918   8
 -11   0  -6-130.673 119.852  17
 -11   0   6-7.43530 88.9507  17
 -11   0   6 60.5371 173.011   4
 -11   0   6 104.068 118.386   2
  11   0  -6 18.0166 83.7754   8
  11   0   6 75.9897 89.5083  16
  11   0   6-57.7818 208.923  14
  11   0   6-141.223 209.123   6
  11   0  -6 92.4188 105.705  14
  11   0   7 3938.46 1045.69   1
 -11   0   7 2510.56 698.344   5
  11   0  -7 2866.77 761.587   1
 -11   0   7 3101.89 684.288   2
  11   0  -7 1364.87 518.842  11
 -11   0   7 3198.57 711.195  19
  11   0   7 4476.49 627.632  18
  11   0  -7 2361.63 703.891  18
 -11   0   7 2358.63 633.864   4
  11   0   7 4354.97 967.294   8
  11   0  -7 2291.30 604.174   8
 -11   0   7 1565.53 604.350  17
  11   0   7 5594.87 792.482  16
  11   0   7 3037.29 749.916   6
  11   0   7 4237.87 1073.73  14
  11   0  -8 31.6539 54.8236  11
 -11   0   8 0.28320 86.2389   5
  11   0   8 859.686 594.449   1
 -11   0  -8 602.785 453.298  19
 -11   0   8 44.8998 92.4500  19
  11   0  -8 41.6332 83.8730  18
  11   0   8 715.676 558.543   8
 -11   0   8 68.9458 125.635  17
 -11   0   8 52.7998 89.1201   4
  11   0  -8-178.973 308.552   8
 -11   0   8-131.986 177.786   2
  11   0   8 345.224 253.938  16
  11   0  -8-135.890 178.074   1
  11   0   8 1182.10 839.921  14
  11   0   8 820.972 530.145   6
  11   0  -8 95.9869 162.037  14
  11   0  -9 552.577 355.439  11
 -11   0   9 1841.74 555.988   5
 -11   0   9 1650.52 541.145  19
 -11   0  -9-3.10038 194.314  19
 -11   0   9 1949.56 553.130   4
  11   0   9 2801.10 835.776   8
  11   0  -9 1049.90 475.131  18
 -11   0   9 1110.06 474.039  17
  11   0   9 3403.46 677.686  16
 -11   0   9 1632.73 540.122   2
  11   0  -9 1309.00 549.743   1
  11   0   9 2904.93 940.168  14
  11   0   9 2231.45 685.475   6
  11   0  -9 1323.10 473.677  14
  11   0 -10-221.249 222.161  11
 -11   0  10 176.408 206.073   5
 -11   0 -10-116.025 193.244  19
 -11   0  10 88.6421 117.838  19
  11   0 -10-110.499 168.118  18
  11   0  10 75.8827 141.095   8
 -11   0  10-116.839 225.759  17
 -11   0  10 45.9249 123.015   4
  11   0  10-164.486 191.596  16
 -11   0  10-129.726 190.097   2
  11   0  10-8.94232 50.9143  14
  11   0  10 3.43276 154.477   6
  11   0 -10-110.587 224.418   1
  11   0 -10-14.2566 120.780  14
  11  -1   0 154.036 145.784   6
 -11  -1   0-29.5921 77.0730  12
 -11   1   0 59.5626 90.6040  12
  11   1   0-50.7627 157.956  11
 -11  -1   0 2.91605 38.8740   5
 -11   1   0 19.3799 199.394   5
  11  -1   0 81.8876 63.2163   1
 -11  -1   0 192.265 264.092  19
 -11   1   0 159.110 196.807  19
  11   1   0 20.9811 101.959  18
 -11   1   0 46.3296 104.250   2
  11  -1   0 30.9730 99.3687  18
 -11  -1   0-117.407 281.801   4
 -11  -1   0 102.791 160.413  17
  11   1   0 209.650 186.903   8
 -11   1   0 79.9443 197.111   4
 -11   1   0 15.2985 99.5669  17
  11  -1   0 78.0221 54.8560   8
  11   1   0 175.368 224.647   1
  11   1   0-6.74057 102.401  14
  11   1   0 25.5080 103.455   6
  11  -1   0 76.3712 185.650  14
  11   1  -1 257.551 241.433   1
  11  -1   1 181.132 168.343   6
  11  -1  -1 65.6535 90.9164   6
  11  -1  -1 99.1532 57.1461  13
 -11  -1  -1 114.511 139.718  12
 -11  -1   1-89.3251 97.0378  12
 -11   1  -1-99.6551 143.021  12
 -11   1   1-1.33620 62.1562  12
  11   1   1 170.543 143.623  11
 -11  -1  -1 38.7904 41.5682   5
  11   1  -1 185.372 150.170  11
 -11  -1   1 90.8590 205.685   5
  11  -1   1 144.823 157.154   1
 -11   1  -1 76.3132 152.855   5
 -11   1   1 32.1302 97.9582   5
 -11  -1   1 79.8876 100.047   2
 -11  -1  -1-45.9478 183.173  19
 -11  -1   1 125.170 171.727  19
 -11   1  -1 291.729 268.196  19
 -11   1   1-29.2872 98.5683  19
 -11   1  -1 77.6005 150.739   2
  11  -1  -1 174.206 195.732   1
  11   1   1 217.280 213.794  18
  11   1  -1 177.318 152.109  18
  11  -1   1 6.24289 73.0491  18
 -11  -1  -1-196.329 271.278   4
  11  -1  -1 84.1555 106.142  18
 -11  -1   1-20.2460 159.535   4
 -11   1   1-2.02394 5.11815   2
  11   1   1 114.365 168.941   8
 -11  -1  -1 120.454 155.972  17
 -11   1  -1 19.6687 47.4870   4
 -11  -1   1 0.59989 77.0070  17
  11   1  -1 196.237 199.564   8
 -11   1   1 16.8306 63.0365   4
  11  -1   1-20.1533 90.9730   8
 -11   1  -1 163.946 171.139  17
 -11   1   1 98.0582 143.193  17
  11  -1  -1 146.085 196.320   8
  11   1   1 224.329 303.338   1
 -11   1  -1 82.2616 234.004  15
  11   1   1 68.5337 96.1364   6
  11   1   1 157.642 188.250  14
  11   1  -1 175.150 137.480  14
  11   1  -1-10.3372 55.7489   6
  11  -1   1 52.8596 107.742  14
  11  -1  -1 88.0042 59.6346  14
  11  -1   2 204.852 171.686   6
  11   1  -2 171.630 194.242   1
  11  -1  -2 192.180 128.430   6
 -11  -1  -2 17.3239 21.7528   3
  11  -1  -2 299.497 120.068  13
 -11  -1  -2 155.362 178.812  12
  11  -1   2 302.928 281.600   1
 -11   1  -2 241.324 213.074  12
 -11  -1   2 12.9037 40.5492  12
  11   1   2 108.337 57.7178  11
  11   1  -2 353.654 212.560  11
 -11  -1   2 101.696 92.8896   5
 -11   1  -2-96.4712 192.568   5
 -11   1   2 188.471 236.079   5
 -11   1  -2-49.6322 203.068   2
 -11  -1  -2 162.147 231.178  19
 -11  -1   2 388.283 319.752  19
 -11   1  -2 257.180 259.077  19
 -11  -1   2 178.078 203.050   2
 -11   1   2 102.261 133.909  19
  11   1   2 189.610 175.163  18
  11   1  -2 197.596 195.774  18
 -11  -1  -2-9.46085 271.262   4
  11  -1   2 237.323 185.862  18
  11  -1  -2 136.370 154.667  18
  11  -1  -2 234.426 228.069   1
 -11  -1   2 172.784 214.484   4
 -11   1  -2-186.712 266.037   4
  11   1   2 166.821 134.027   8
 -11  -1  -2-9.24994 46.5092  17
 -11  -1   2 15.5658 89.5745  17
 -11   1   2 187.135 148.830   2
  11   1  -2 45.8365 126.380   8
  11  -1   2 80.1470 132.344   8
 -11   1  -2 135.654 150.465  17
 -11   1   2 213.154 253.036   4
 -11   1   2 45.4898 31.9423  17
  11  -1  -2 284.116 221.688   8
  11   1   2 108.064 215.594   1
 -11   1  -2 430.931 368.219   7
 -11   1  -2 209.400 191.619  15
  11   1   2 240.896 198.751   6
 -11   1  -2-172.448 277.869   3
  11   1   2 322.096 280.738  14
  11   1  -2 350.546 324.848  14
  11   1  -2 10.3037 65.4962   6
  11  -1   2 183.040 197.176  14
  11  -1  -2 200.613 147.620  14
 -11   1  -3 196.646 177.432   3
  11  -1   3-69.4706 129.105   6
  11   1  -3-86.5350 87.8477  13
  11  -1   3-1.72510 137.730   1
  11  -1  -3 42.2567 19.3574   6
  11   1  -3 175.820 247.544   1
 -11   1  -3-82.2161 87.3400  12
 -11  -1  -3 154.716 198.842   3
 -11  -1   3 9.67569 62.1994  12
  11   1   3 162.274 127.479  11
  11   1  -3-194.722 182.844  11
 -11   1  -3 136.837 207.322   5
 -11  -1   3 87.4542 189.893   5
 -11   1   3 69.5972 110.044   5
 -11  -1  -3-14.3401 190.560  19
 -11   1  -3 58.3282 152.743  19
 -11  -1   3 22.8529 145.325  19
 -11   1   3-52.0472 113.266  19
 -11  -1   3-76.7960 53.6431   2
  11   1   3 125.189 159.921  18
 -11  -1  -3-461.226 511.092   4
  11   1  -3 146.817 197.291  18
  11  -1   3-68.5382 134.700  18
  11  -1  -3 40.0449 91.8927  18
 -11  -1   3 184.302 179.603   4
 -11   1  -3 111.579 192.180   4
  11   1   3 190.885 324.326   8
 -11  -1  -3 223.795 220.507  17
  11  -1  -3 138.111 179.056   1
 -11  -1   3-46.3909 17.5881  17
  11   1   3-8.98218 147.903   1
  11  -1   3 94.2170 134.211   8
  11   1  -3-159.785 135.185   8
 -11   1  -3-5.72493 60.0953  17
 -11   1   3 93.4585 153.046  17
 -11   1   3-2.89069 74.2540   4
 -11   1   3 49.8675 99.5237   2
  11  -1  -3-51.2635 159.608   8
 -11   1  -3 169.827 187.809   7
 -11   1  -3 114.610 157.586  15
  11   1   3 75.1627 170.191   6
  11   1   3 6.02861 111.888  14
  11   1  -3-128.989 44.2054  14
  11   1  -3 73.6101 129.096   6
  11  -1   3 74.4632 112.449  14
  11  -1  -3-96.6033 146.261  14
  11   1  -4 1578.87 349.820  13
 -11   1  -4 34.9888 75.0089   3
 -11   1  -4 473.918 266.294  12
  11   1  -4 1672.18 650.096   1
  11   1   4 3071.49 521.564  11
  11   1  -4 1899.43 534.271  11
 -11   1  -4 971.420 529.886   5
 -11  -1   4 688.441 419.242   5
 -11   1   4 1246.54 472.434   5
 -11   1   4 1581.22 526.521  19
 -11  -1  -4 364.000 343.977  19
 -11   1  -4 858.328 462.926  19
 -11  -1   4 1032.68 427.749  19
  11   1   4 2011.22 510.757  18
  11  -1   4 1233.39 354.978  18
  11   1   4 2329.29 700.015   8
  11  -1   4 1879.67 592.422   8
  11   1  -4 1842.40 520.582   8
  11  -1  -4 1398.80 478.202   8
 -11  -1   4 1223.81 459.142   2
  11   1  -4 1564.80 509.428  18
  11  -1  -4 769.449 357.828  18
  11   1   4 1930.66 769.187   1
 -11   1  -4 985.960 496.625   4
 -11  -1   4 1007.15 431.076   4
 -11  -1  -4 153.483 145.025  17
 -11  -1   4 790.305 435.340  17
 -11   1   4 495.043 273.924  17
  11   1   4 1955.41 373.094  16
 -11   1   4 1257.03 449.926   4
 -11   1   4 1197.32 403.082   2
  11  -1  -4 1193.19 474.653   1
 -11   1  -4 1201.93 584.646   7
  11  -1   4 1822.92 496.624   6
  11  -1  -4 1499.76 344.376   6
 -11   1  -4 1029.80 463.614  15
  11   1   4 1362.65 508.526   6
  11   1   4 1762.90 686.833  14
  11   1  -4 1325.41 484.339  14
  11  -1   4 1752.14 629.395  14
  11   1  -4 798.387 264.397   6
  11  -1   4 2105.34 707.441   1
  11  -1  -4 1303.51 485.046  14
  11  -1   5 176.168 135.493   6
 -11   1  -5 117.384 137.954   3
  11   1  -5 91.6081 74.6520  13
  11  -1  -5-24.1250 31.6254   6
 -11   1  -5-117.569 153.967  12
 -11   1  -5 133.025 208.949   5
  11   1  -5 76.6547 80.6007  11
  11   1  -5 42.8817 72.0752   1
 -11  -1   5 29.0721 94.2917   5
 -11   1   5 132.340 138.507   5
 -11  -1  -5 136.786 235.297  19
 -11   1  -5-82.3364 217.861  19
 -11  -1   5-59.3139 148.352  19
 -11   1   5 90.9565 21.6881  19
  11   1   5 165.103 113.660   1
  11   1   5-4.76442 89.8425  18
  11   1  -5 101.673 168.445  18
  11  -1   5 60.5205 72.0840  18
  11  -1  -5-11.0155 63.5953  18
 -11  -1   5 26.3140 90.1503   2
 -11   1  -5-147.437 242.858   4
  11   1   5-60.0958 133.104   8
 -11  -1  -5-122.474 169.268  17
 -11  -1   5 49.2932 128.276   4
  11  -1   5 138.646 155.706   8
 -11  -1   5 38.1484 118.634  17
 -11   1  -5-39.8913 30.1610  17
 -11   1   5 18.1288 155.507  17
  11   1  -5 25.4790 101.999   8
 -11   1   5 38.2181 66.6098   4
  11  -1  -5 82.9539 158.075   8
  11   1   5 96.7226 63.5023  16
 -11   1   5 26.4761 99.1120   2
 -11   1  -5-150.074 259.911   7
 -11   1  -5-64.5041 162.249  15
  11  -1   5 88.3485 221.233   1
  11   1   5-15.3913 146.926   6
  11  -1  -5-39.8459 135.065   1
  11   1   5 124.632 170.756  14
  11  -1   5 137.714 173.992  14
  11   1  -5-32.3717 127.504  14
  11   1  -5 91.6748 96.4530   6
  11  -1  -5-45.3357 80.7870  14
  11   1  -6 4103.63 610.490  13
 -11   1  -6 866.131 357.977  12
  11   1   6 3379.59 1065.18   1
  11  -1   6 4886.63 1057.56   1
 -11  -1   6 2695.79 771.261   5
 -11   1   6 2921.12 714.187   5
  11   1  -6 3021.18 733.500  11
  11   1  -6 3350.85 917.529   1
 -11   1  -6 1251.64 483.370   5
 -11  -1   6 3030.99 727.238   2
  11  -1  -6 2652.87 734.423   1
 -11   1   6 3080.79 657.506   2
 -11  -1   6 3010.91 689.015  19
 -11   1   6 3623.92 756.116  19
 -11   1  -6 1486.16 507.296  19
  11   1   6 5006.60 794.960  18
  11   1  -6 3478.52 830.556  18
  11  -1   6 2970.33 490.723  18
  11   1   6 4249.59 990.032   8
 -11   1   6 3051.73 710.678   4
  11  -1   6 3982.04 872.430   8
  11   1  -6 3642.37 718.832   8
  11  -1  -6 1991.93 553.224   8
 -11   1  -6 1035.77 477.734   4
 -11  -1  -6 207.645 148.178  17
 -11  -1   6 2192.14 593.543   4
 -11  -1   6 1904.18 638.352  17
 -11   1   6 1458.33 512.072  17
  11   1   6 4733.66 671.998  16
 -11  -1   6 1198.46 299.571   7
 -11   1  -6 1471.67 582.345   7
  11   1   6 2435.59 684.009   6
 -11  -1   6 1004.92 279.816  15
  11  -1   6 4057.36 817.791   6
 -11   1  -6 1350.74 547.931  15
  11  -1  -6 3044.79 449.984   6
  11   1   6 4337.83 1103.84  14
  11  -1   6 4755.86 1032.16  14
  11   1  -6 2897.75 761.017  14
  11  -1  -6 2370.82 634.397  14
  11  -1  -7 90.9972 139.310  14
  11   1  -7 254.154 189.109  13
  11  -1  -7 329.932 279.019   1
  11  -1  -7 32.0010 15.1237   6
 -11   1  -7-22.2545 324.344  12
 -11   1  -7 50.3774 287.203   3
  11   1  -7-11.0403 119.437  11
 -11  -1   7 83.9124 232.411   5
 -11   1   7 137.101 187.576   5
  11   1  -7-263.694 226.897   1
 -11  -1  -7-206.015 282.048  19
 -11   1  -7 42.4240 318.465  19
 -11  -1   7-34.1976 75.9492  19
 -11   1   7-46.5859 121.470  19
  11   1   7 31.1648 88.3579  18
  11   1  -7 67.0008 103.579  18
 -11   1  -7-347.372 313.547   4
  11   1   7-119.679 232.716   8
 -11  -1  -7-68.4613 111.774  17
 -11  -1   7 6.83232 160.158   2
  11  -1   7-108.307 100.066   8
  11  -1   7 395.915 695.326   1
 -11  -1   7-107.929 137.473   4
 -11  -1   7 53.5561 169.068  17
 -11   1   7 100.521 128.775  17
  11   1  -7-90.1111 121.952   8
  11  -1   7-159.674 178.641  16
 -11   1   7-81.3499 100.390   4
  11   1   7-117.543 177.132  16
 -11   1  -7-84.7533 227.265   7
 -11   1  -7 39.9983 175.643  15
 -11   1   7-22.5084 8.81127   2
  11   1   7-441.595 410.947   6
  11   1   7-52.9712 191.234  14
  11  -1   7-23.8009 309.233  14
  11   1  -7 112.698 166.236  14
  11  -1   7 74.9712 283.546   6
  11  -1  -8 1143.33 441.976  14
 -11   1  -8 1938.83 592.526  12
  11  -1  -8 1319.74 527.450   1
 -11   1  -8 1187.52 489.184   3
 -11  -1   8 1992.03 610.905   2
  11   1  -8 1999.36 668.362  11
 -11   1   8 2180.37 571.454   2
 -11  -1   8 1226.99 523.235   5
 -11  -1   8 2042.52 593.080  19
 -11   1   8 2204.89 587.903  19
 -11  -1  -8-114.225 274.213  19
 -11   1   8 1490.08 513.709   5
  11   1  -8 1969.56 713.573   1
  11   1   8 3099.48 604.517  18
  11   1  -8 2014.27 646.763  18
  11  -1   8 7356.37 1310.76   8
 -11   1   8 1895.98 536.026   4
  11   1  -8 2273.60 569.798   8
 -11   1  -8 1282.80 519.236   4
  11   1   8 2927.48 834.940   8
 -11  -1  -8-134.975 200.048  17
 -11  -1   8 1718.34 540.463   4
 -11  -1   8 1190.62 490.434  17
 -11   1   8 813.555 442.467  17
  11  -1   8 6619.65 1065.00  16
  11   1   8 3418.03 664.900  16
 -11   1  -8 2625.03 1100.22   7
  11  -1   8 5014.28 1009.76   6
 -11   1  -8 1865.61 893.547  15
  11  -1   8 9826.42 1608.00  14
  11   1   8 1371.23 415.520   6
  11   1  -8 1374.21 520.641  14
  11  -1  -9 67.0127 105.512  14
 -11   1  -9 46.6319 419.790  12
 -11   1  -9-11.3588 253.788   3
  11  -1  -9-20.0675 105.175   1
  11   1  -9-140.795 230.618  11
 -11  -1   9-144.273 239.090   5
 -11  -1  -9-64.8728 197.650  19
 -11   1   9-165.834 236.236   5
 -11   1  -9 582.130 550.851  19
 -11  -1   9 187.917 212.353  19
  11  -1   9 1073.69 833.352   1
 -11   1   9-202.435 306.765  19
  11   1   9 61.4476 111.592  18
  11   1  -9 116.713 285.520   1
  11  -1   9 2360.53 924.052   8
  11   1  -9-11.4672 38.6086  18
  11   1   9 81.4954 167.745   8
 -11  -1   9-4.06505 116.178   4
 -11  -1   9-8.72071 153.550  17
 -11  -1   9-46.8208 145.168   2
 -11   1   9-402.563 290.519  17
  11  -1   9 571.517 480.276  16
  11   1  -9-171.706 255.895   8
 -11   1   9 195.546 161.812   4
  11   1   9-2.62168 57.2748  16
 -11   1   9 216.474 217.581   2
  11   1   9-545.020 571.803   6
  11  -1   9 1484.03 853.670  14
  11   1  -9 238.741 236.441  14
  11  -1   9 580.907 635.579   6
  11  -1 -10 482.557 280.915  14
  11   1 -10 719.615 478.865  11
 -11  -1  10 723.361 433.451   5
  11  -1 -10 472.439 329.488   1
 -11  -1 -10 287.410 365.998  19
 -11   1 -10 243.766 292.358  19
 -11   1  10 1166.68 416.069   5
 -11  -1  10 906.822 394.150  19
  11   1 -10 863.189 455.988   1
  11   1 -10 739.978 415.396  18
  11   1  10 849.818 494.565   8
  11  -1  10 846.669 442.860   8
 -11  -1  10 883.345 367.228   4
 -11  -1  10 321.310 361.936  17
 -11   1  10 402.135 153.800  17
 -11  -1  10 795.586 432.288   2
  11  -1  10 1552.70 495.720  16
 -11   1  10 1130.50 403.523   4
  11   1  10 1665.24 542.602  16
  11   1  10-164.232 572.487   6
 -11   1  10 719.625 376.668   2
  11  -1  10 1455.05 634.861  14
  11  -1  10 1452.70 468.275   6
  11   1 -10 720.898 354.911  14
  11  -2   0 94.4616 132.630   6
 -11  -2   0 273.209 224.521  12
 -11   2   0 167.048 128.118  12
  11   2   0 272.069 214.803  11
 -11   2   0 96.6070 146.084   5
 -11  -2   0 19.1208 96.1527  19
  11   2   0 68.4822 119.628   9
 -11   2   0 99.6676 141.434  19
  11   2   0 121.591 188.481  18
  11   2   0 55.3043 163.545   8
 -11  -2   0-37.5640 149.579  17
  11  -2   0 259.741 233.071   1
 -11   2   0 101.110 110.474   2
  11   2   0 149.155 193.564   1
 -11   2   0 137.448 150.767   4
  11  -2   0 106.024 106.486   8
  11   2   0 142.108 219.164  14
  11  -2   0 123.266 155.111  14
  11  -2  -1 9.72827 20.6042  14
  11  -2   1 82.9557 84.2256   6
  11  -2  -1 179.558 151.338   6
 -11  -2   1 108.356 115.962  12
 -11   2  -1 99.2700 123.344  12
  11   2  -1 186.437 156.370  11
 -11   2  -1 15.6212 38.6172   5
 -11   2   1 43.0144 99.6491   5
 -11  -2  -1 159.551 185.407  19
 -11  -2   1 280.767 282.020  19
  11   2  -1 218.420 167.074   9
 -11   2  -1 149.758 238.044  19
 -11   2   1 90.8544 199.094  19
  11   2   1 88.9668 62.3046  18
  11   2  -1 304.119 242.718  18
 -11  -2   1-99.6986 286.812   4
  11  -2   1 170.940 238.618   1
 -11   2  -1 266.686 159.349   2
  11   2   1 112.718 201.552   8
  11   2   1 132.304 270.930   1
 -11  -2  -1 170.478 168.942  17
  11   2  -1 113.643 95.8973   8
 -11   2  -1 143.050 241.653   4
  11  -2   1 275.091 249.186   8
 -11   2   1 3.14194 120.467   4
  11  -2  -1 125.099 106.054   8
 -11   2   1 197.199 141.847   2
  11   2  -1 3.43270 217.031   1
  11  -2  -1 181.658 100.381   1
  11   2   1 99.5173 69.0060  14
  11   2  -1 55.2574 182.605  14
  11  -2   1 161.241 127.131  14
  11  -2  -2 87.7672 168.870  14
  11  -2   2 216.409 169.466   6
  11  -2  -2 59.9843 95.2273   6
 -11  -2   2-18.9616 59.1251  12
 -11   2  -2 32.7286 74.6049  12
  11   2  -2 586.318 319.073  11
 -11  -2   2 110.610 138.438   5
 -11   2  -2 64.0203 101.000   5
 -11  -2   2-216.969 391.579   2
 -11   2   2 162.834 197.730   5
 -11  -2  -2 170.466 297.240  19
 -11  -2   2-126.505 91.0403  19
  11  -2   2 175.737 260.684   1
  11   2  -2 212.988 181.658   9
 -11   2  -2-12.1842 139.718  19
 -11   2   2 94.2238 148.573  19
  11   2   2 29.9984 109.411  18
 -11   2  -2 175.698 159.541   2
  11   2  -2 2.70548 130.555  18
 -11  -2   2-56.8086 186.269   4
  11   2   2 166.969 154.918   1
  11   2   2 94.5296 130.624   8
 -11  -2  -2 50.5185 120.424  17
 -11  -2   2 7.90636 67.3938  17
 -11   2  -2 129.449 168.211   4
  11  -2   2 138.574 133.735   8
  11  -2  -2 211.653 210.058   8
 -11   2   2 81.0966 200.557   4
 -11   2   2 87.3235 68.9984   2
  11   2  -2 61.3583 146.705   1
  11   2   2 132.378 257.824  14
  11   2  -2 135.355 123.451  14
  11  -2  -2 111.938 141.584   1
  11  -2   2 77.1646 43.3109  14
  11  -2  -3-21.5253 89.1170  14
  11  -2   3-1.02131 89.2682   6
  11  -2  -3 39.3846 199.788   1
  11  -2  -3 96.5490 92.4135   6
 -11  -2   3-14.2124 63.7365  12
 -11   2  -3 116.089 73.2015  12
  11   2  -3 259.441 184.878  11
 -11  -2   3-57.3970 173.753   5
 -11   2  -3 210.899 169.573   5
  11  -2   3 145.712 30.5077   1
 -11   2   3 20.7797 106.427   5
 -11  -2   3 9.54580 195.431   2
 -11  -2  -3 81.0788 23.2209  19
 -11  -2   3 50.7217 107.927  19
 -11   2  -3-17.6976 55.8776  19
  11   2  -3 196.360 220.431   9
 -11   2   3 110.737 200.815  19
  11   2   3 47.1756 169.614   1
  11   2   3 277.670 203.733  18
  11   2  -3 83.4836 49.4743  18
 -11  -2   3-41.2817 221.253   4
  11   2   3 39.6823 145.271   8
 -11  -2  -3-204.980 80.2206  17
 -11  -2   3 28.3630 202.231  17
  11   2  -3 110.818 198.375   8
 -11   2  -3 104.773 175.950   4
  11  -2   3 94.6576 146.339   8
  11  -2  -3 58.4021 104.919   8
 -11   2   3-2.98449 47.8716   4
 -11   2   3-18.8320 34.4423   2
  11   2   3 304.383 399.772  14
  11   2  -3 59.6221 60.9725   1
 -11   2  -3-250.601 345.884   3
  11   2  -3-1.27844 153.040  14
  11  -2   3 174.757 252.406  14
  11  -2  -4 158.749 224.782  14
  11  -2   4 312.114 258.000   6
  11   2  -4-2.84195 106.029  13
  11  -2  -4 155.889 139.100   6
 -11   2  -4 105.069 190.739  12
 -11  -2   4 39.6302 19.8869  12
  11  -2  -4 124.202 179.621   1
  11  -2   4 255.266 11.5015   1
  11   2  -4 388.184 262.332  11
 -11  -2   4 48.4173 138.749   5
 -11   2  -4 162.543 194.402   5
 -11  -2  -4 98.6443 68.1324  19
 -11   2   4-21.0429 124.689   5
 -11  -2   4 54.8702 142.741  19
  11   2   4 11.1034 228.683   1
 -11   2  -4 365.017 329.268  19
 -11  -2   4 58.1278 172.907   2
  11   2  -4 250.698 219.195   9
 -11   2   4 300.550 235.341  19
  11   2   4 172.417 226.774  18
  11   2  -4 257.029 221.110  18
 -11  -2   4-31.2371 138.542   4
  11   2   4 63.5743 92.2708   8
 -11  -2  -4 57.3024 192.729  17
 -11   2  -4 219.089 201.203   4
 -11  -2   4-150.562 282.490  17
  11   2  -4 131.080 155.513   8
  11  -2   4 223.357 237.344   8
  11  -2  -4 122.083 126.841   8
 -11   2   4 32.3945 128.199   4
  11   2   4 194.918 131.532  16
 -11   2   4 278.264 159.370   2
  11   2  -4 204.400 233.950  14
  11  -2   4 321.307 282.847  14
 -11   2  -4 150.968 183.025   3
  11   2  -4 291.318 292.114   1
  11  -2  -5 624.198 323.751  14
 -11   2  -5 28.2558 70.9577   3
  11  -2   5 1560.73 488.204   6
  11   2  -5 1486.04 635.704   1
  11   2  -5 1103.46 325.954  13
  11  -2   5 2214.18 638.616   1
  11  -2  -5 816.476 261.267   6
 -11   2  -5 708.322 312.670  12
  11   2  -5 2273.28 629.314  11
 -11  -2   5 793.688 413.961   5
 -11   2  -5 868.268 473.919   5
  11  -2  -5 1136.49 484.328   1
 -11   2   5 1254.37 464.583  19
 -11  -2  -5-103.453 138.784  19
 -11   2   5 1086.61 413.464   5
 -11  -2   5 971.153 417.063  19
 -11   2  -5 913.587 423.970  19
  11   2  -5 634.256 346.686   9
 -11  -2   5 584.141 419.592   2
  11   2   5 1716.88 530.616  18
  11   2  -5 1636.21 567.544  18
 -11  -2   5 244.989 191.281   4
  11   2   5 1276.61 558.403   8
 -11  -2  -5-61.6056 152.642  17
 -11   2  -5 724.382 410.650   4
 -11  -2   5 709.383 389.304  17
  11  -2   5 1552.02 544.684   8
  11   2  -5 1328.38 459.016   8
  11  -2  -5 316.510 99.6514   8
 -11   2   5 1107.57 411.558   4
  11   2   5 1181.85 342.337  16
 -11   2  -5 1321.20 606.669   7
 -11   2  -5 1034.39 580.577  15
 -11   2   5 1033.68 355.143   2
  11   2  -5 1112.04 509.556  14
  11  -2   5 1341.73 483.832  14
  11  -2  -6 32.3093 83.0942  14
  11  -2   6 125.916 186.906   6
 -11   2  -6-62.5252 131.166   3
  11   2  -6 76.3902 56.5998  13
  11   2  -6 712.224 502.486   1
 -11   2  -6-174.690 154.069  12
  11  -2  -6 50.0403 70.0636   6
  11   2  -6 968.257 634.016  11
 -11   2  -6-256.487 238.527   5
 -11  -2   6 338.645 453.748   5
 -11  -2  -6 421.544 526.954  19
 -11   2   6 100.199 132.561   5
 -11   2  -6-123.802 133.395  19
 -11  -2   6 125.338 169.404  19
  11  -2  -6-8.18050 175.602   1
 -11   2   6 16.3970 66.6183  19
  11   2   6 318.930 253.084  18
 -11  -2   6-180.150 253.819   2
  11   2  -6 491.678 470.886  18
 -11  -2   6-2.38166 176.153   4
  11   2   6 10.9357 176.574   8
 -11  -2  -6 106.806 154.254  17
 -11   2  -6 41.9650 88.9850   4
 -11  -2   6 428.169 518.433  17
  11  -2   6 134.795 137.517   8
  11   2  -6 1.40467 122.529   8
 -11   2   6 88.6675 129.501   4
  11   2   6 56.5492 136.181  16
 -11   2  -6-255.764 260.564   7
 -11   2  -6-147.868 77.6285  15
  11   2  -6 440.195 432.862  14
  11  -2   6 52.2962 237.696  14
 -11   2   6-50.9879 160.294   2
  11  -2   6 21.3613 165.077   1
 -11   2   7 987.869 363.635   2
  11  -2  -7 693.463 330.552  14
  11   2  -7 1890.75 451.574  13
 -11   2  -7 1260.64 649.119   3
 -11   2  -7 1883.41 816.673  12
  11   2  -7 1715.97 657.530   1
  11  -2  -7 621.333 228.292   6
 -11   2  -7 2789.49 946.750   5
  11   2  -7 2439.61 710.188  11
 -11  -2   7 1081.86 474.946   5
 -11   2   7 1560.03 497.277  19
 -11  -2  -7 101.579 92.9228  19
 -11   2   7 1296.34 473.125   5
 -11  -2   7 912.028 363.897  19
  11   2  -7 199.490 191.237   9
  11   2   7 1483.30 472.720  18
  11   2  -7 1901.95 532.109   8
  11   2  -7 1728.56 586.401  18
 -11  -2   7 1052.71 492.754   2
  11  -2  -7 707.063 395.881   1
  11   2   7 1493.32 622.022   8
 -11   2  -7 1673.44 747.152   4
 -11  -2   7 924.009 430.554   4
 -11  -2  -7 236.661 121.731  17
 -11  -2   7 694.181 372.561  17
 -11   2   7 1316.42 427.591   4
  11   2   7 1907.46 505.174  16
 -11   2  -7 2195.56 903.192   7
  11  -2   7 3747.82 834.094   6
 -11   2  -7 1829.86 781.591  15
  11   2  -7 1012.26 469.736  14
  11  -2   8 850.850 614.518   6
  11  -2  -8 80.2856 129.534  14
 -11   2   8 112.662 109.942   2
  11   2  -8 252.088 153.615  13
 -11   2  -8 245.507 549.487   3
  11   2  -8 238.742 268.278   1
  11   2  -8 274.713 279.055  11
 -11  -2   8 131.652 191.444   5
 -11   2  -8 2874.31 893.384  19
 -11  -2  -8-259.038 363.879  19
 -11   2   8 106.653 171.181   5
 -11  -2   8 201.929 236.499  19
  11   2  -8 560.442 366.334   9
  11   2   8 205.319 183.354  18
  11   2  -8 70.5708 158.429  18
 -11  -2   8 54.8908 197.036   2
 -11   2  -8 832.255 545.733   4
  11   2   8 335.020 402.246   8
 -11  -2  -8 478.564 302.819  17
 -11  -2   8 109.477 200.992   4
 -11  -2   8-536.203 352.149  17
  11  -2  -8 33.4795 170.172   1
  11   2  -8 126.872 60.1672   8
 -11   2   8-73.4515 89.4230   4
 -11   2  -8 1211.92 1044.99   7
  11   2   8 522.974 311.071  16
 -11   2  -8 824.103 907.598  15
  11  -2   8 2398.97 899.987  14
  11   2  -8-58.4087 143.332  14
  11  -2   9 1229.07 525.326   6
  11  -2  -9 401.371 273.587  14
 -11   2   9 592.357 304.685   2
  11   2  -9 922.700 370.398  13
 -11   2  -9-32.7987 87.5401   3
 -11   2  -9 202.617 233.210  12
  11   2  -9 768.017 414.065   1
  11   2  -9 1040.35 497.398  11
 -11  -2   9 619.677 338.097   5
 -11  -2  -9-205.164 293.528  19
 -11   2  -9 337.192 357.529  19
 -11   2   9 737.992 368.870   5
 -11  -2   9 576.801 294.767  19
  11   2  -9 105.890 199.252   9
  11   2   9 443.060 194.390  18
  11   2  -9 751.041 396.980  18
 -11   2  -9 117.370 127.170   4
  11   2   9 546.934 484.761   8
 -11  -2  -9-107.242 130.639  17
 -11  -2   9 531.977 336.447   2
  11  -2   9 1206.32 583.832   1
 -11  -2   9 321.663 270.219   4
  11  -2   9 1765.27 665.410   8
 -11  -2   9 620.628 425.299  17
  11   2  -9 1009.07 381.480   8
  11  -2   9 991.417 459.145  16
 -11   2  -9 351.250 476.276   7
 -11   2   9 800.471 340.448   4
  11  -2  -9 309.418 261.666   1
  11   2   9 763.286 369.250  16
 -11   2  -9 350.738 414.750  15
  11   2  -9 326.280 223.009  14
  11  -2   9 1476.19 660.098  14
  11  -2  10 92.2454 167.212   6
  11   2 -10 68.0371 131.660  13
 -11   2 -10 149.314 205.036  12
 -11   2 -10 90.3300 179.750   3
  11   2 -10-14.9391 205.027  11
 -11  -2  10 33.0530 100.544   5
 -11  -2 -10 1.08264 151.405  19
 -11   2 -10-75.8401 187.812  19
 -11   2  10 146.881 244.768   5
 -11  -2  10 55.3212 97.6095  19
  11   2 -10-775.397 515.307   9
  11  -2  10 341.476 343.663   1
  11   2 -10 165.359 270.738  18
 -11   2 -10 122.983 110.105   4
  11   2  10-69.3783 117.191   8
 -11  -2  10 118.176 209.916   2
 -11  -2  10 77.5344 165.985   4
  11  -2  10 254.730 262.191   8
 -11  -2  10 158.890 268.389  17
  11  -2  10-155.840 154.944  16
  11   2 -10-104.838 162.254   8
 -11   2 -10 55.6153 249.989   7
 -11   2  10 46.7810 106.590   4
  11   2  10 136.603 175.034  16
 -11   2 -10 148.224 314.011  15
  11  -2  10 648.131 474.727  14
  11   2 -10-44.2682 119.286  14
  11  -3   0 1134.35 434.417  14
  11  -3   0 1257.76 383.044   6
  11  -3   0 1292.24 516.377   1
 -11   3   0 1246.21 313.079   2
 -11   3   0 1334.13 454.327   5
 -11  -3   0-75.7270 193.407  19
 -11   3   0 1458.63 501.866  19
  11   3   0 2050.10 634.689  18
  11   3   0 1562.39 795.140   1
  11   3   0 1669.43 572.812   8
 -11  -3   0 82.9121 171.904  17
  11  -3   0 1256.34 470.915   8
 -11   3   0 1281.83 473.386   4
  11  -3   1-3.88085 98.2023  14
  11  -3  -1 94.9972 163.809  14
  11  -3   1 44.8855 44.5337   6
  11  -3  -1-19.4475 72.8211   6
 -11   3  -1-107.933 228.353  12
  11  -3  -1 34.1905 59.8491   1
 -11   3  -1 105.260 193.296   5
 -11  -3  -1-136.294 330.222  19
 -11  -3   1-134.352 169.017  19
 -11   3   1 1.34754 106.018   5
 -11   3  -1-18.7360 91.0713  19
 -11   3   1 152.834 150.884  19
  11   3   1 217.966 243.494   1
  11   3   1-70.0548 201.451  18
  11   3  -1 192.095 223.323  18
  11   3  -1 195.706 189.500   1
  11   3   1-47.0167 35.4892   8
 -11  -3  -1-151.373 151.039  17
  11   3  -1 99.7928 23.5098   8
 -11  -3   1-25.5698 148.465  17
  11  -3   1 28.2512 140.157   8
 -11   3  -1 96.5682 14.7340   4
  11  -3  -1 85.0722 144.298   8
 -11   3   1 139.159 155.429   4
 -11   3  -1 192.691 140.520   2
 -11   3   1 24.7434 11.8625   2
  11  -3   1 105.351 129.143   1
  11  -3   2 228.941 192.944  14
 -11   3   2 404.286 184.377   2
  11  -3  -2 188.890 206.451  14
  11  -3   2 434.883 232.554   6
 -11  -3   2 47.4509 69.3094  12
  11  -3  -2 345.468 217.791   6
 -11   3  -2 151.178 193.509  12
 -11   3  -2 287.165 174.019   5
 -11  -3  -2 206.369 374.256  19
 -11  -3   2 90.0786 225.052  19
  11  -3  -2 315.930 241.451   1
 -11   3   2 372.396 253.640   5
  11   3   2 296.071 284.440   1
 -11   3  -2 334.365 201.115  19
 -11   3   2 441.390 274.364  19
  11   3   2 654.155 314.927  18
  11   3  -2 518.538 345.686  18
  11   3   2 577.853 350.424   8
 -11  -3  -2 124.806 219.227  17
  11   3  -2 720.581 352.558   8
 -11  -3   2 117.140 272.421  17
  11   3  -2 477.658 417.317   1
 -11   3  -2 334.231 124.743   2
 -11   3  -2 255.080 179.247   4
  11  -3   2 399.193 292.777   8
  11  -3  -2 291.588 218.943   8
  11  -3   2 487.173 302.472   1
 -11   3   2 526.512 318.499   4
  11   3  -2 335.542 332.439  14
  11  -3  -3 219.268 173.619  14
 -11   3   3 251.531 177.559   2
  11  -3   3 336.507 155.889   6
 -11  -3   3 74.3300 87.9548  12
  11  -3  -3 177.752 170.641   6
 -11   3  -3 137.109 163.940  12
  11   3  -3 292.843 238.150  11
 -11   3  -3 78.0492 96.1402   5
 -11  -3  -3-203.027 277.299  19
 -11  -3   3 239.646 221.033  19
 -11   3   3 424.381 291.494   5
 -11   3  -3 150.650 117.143  19
 -11   3   3 319.791 270.851  19
  11   3   3 332.677 251.171  18
  11   3  -3 122.917 173.379  18
  11  -3  -3 95.6302 189.141   1
  11   3   3 125.618 91.8619   8
  11  -3   3 259.281 161.625   1
 -11  -3  -3-27.2511 70.0763  17
 -11  -3   3-1.17622 33.9333  17
  11   3  -3 163.754 106.687   8
 -11   3  -3 424.103 290.054   4
  11   3  -3 236.237 295.362   1
  11  -3   3 152.352 161.225   8
  11  -3  -3-35.1968 167.154   8
 -11   3   3 249.882 227.387   4
  11   3  -3 65.4392 95.7017  14
  11  -3   3 107.987 134.728  14
  11  -3  -4 81.0197 100.752  14
 -11   3   4 85.0374 115.022   2
  11  -3   4 76.6795 12.0382   6
  11  -3  -4 77.3737 80.1631   6
 -11   3  -4 114.285 75.1903  12
  11   3  -4-40.9599 283.216  11
 -11   3  -4-139.303 219.098   5
 -11  -3   4-313.176 407.905   2
 -11  -3  -4-122.541 376.888  19
 -11  -3   4 57.8724 136.469  19
 -11   3   4 182.936 207.437   5
 -11   3  -4-149.528 218.815  19
 -11   3   4 51.1197 83.8137  19
  11  -3   4 111.793 186.402   1
  11   3   4 44.6159 81.3355  18
  11   3  -4-51.6462 122.759  18
  11   3   4 232.717 233.900   8
 -11  -3  -4-296.244 295.944  17
 -11  -3   4-100.570 174.117  17
  11   3  -4 20.3277 79.4612   8
 -11   3  -4-54.9893 228.341   4
  11  -3   4 59.6237 71.7496   8
  11  -3  -4-21.6466 162.230   1
  11   3  -4 23.5691 122.239   1
 -11   3   4 68.0344 34.5647   4
  11   3   4 5.44876 41.7607  16
  11   3  -4 98.9688 201.802  14
 -11   3  -4-268.757 420.471   3
  11  -3   4 72.7699 50.1378  14
  11  -3  -5 266.245 238.044  14
  11   3  -5-181.063 235.334  13
  11  -3   5 275.711 240.240   6
 -11   3   5 429.381 226.843   2
 -11   3  -5 144.793 227.845  12
  11   3  -5 472.806 237.319  11
 -11   3  -5 463.580 327.754   5
  11  -3   5 512.976 333.757   1
 -11  -3  -5-13.1904 148.016  19
 -11  -3   5-153.126 406.104   2
 -11  -3   5 50.1031 105.512  19
  11   3  -5-58.2614 252.043   9
 -11   3   5 318.764 249.696   5
 -11   3  -5 64.9065 50.4438  19
 -11   3   5 193.750 85.6354  19
  11   3   5 513.618 316.529  18
  11   3  -5 151.193 183.712  18
  11   3   5 182.150 240.391   8
 -11  -3  -5 199.537 208.745  17
 -11  -3   5-22.4719 285.677  17
  11   3  -5 541.410 288.870   8
 -11   3  -5 305.916 278.624   4
  11  -3   5 350.245 201.685   8
 -11   3   5 255.870 232.721   4
  11   3  -5 397.489 351.214   1
  11  -3  -5 257.298 269.652   1
  11   3  -5 308.983 219.946  14
 -11   3  -5-154.566 268.237   3
  11  -3   5 426.922 309.946  14
 -11   3  -6-25.6709 267.150   3
  11  -3  -6 175.454 184.788  14
  11  -3   6 1093.15 458.786   6
  11   3  -6 851.173 350.246  13
  11  -3  -6 308.158 307.545   1
 -11   3  -6 1113.70 519.395  12
  11  -3   6 1728.41 658.887   1
  11   3  -6 941.021 441.495  11
 -11  -3   6-8.82714 172.212   5
 -11   3  -6 402.214 344.741   5
  11   3  -6 544.589 452.938  10
 -11  -3  -6-382.553 413.033  19
 -11  -3   6 175.707 192.390  19
  11   3  -6 818.318 405.474   9
 -11   3  -6 631.739 411.833  19
 -11  -3   6 222.567 275.075   2
 -11   3   6 414.208 267.158   5
  11   3   6 230.357 144.621  18
  11   3  -6 790.365 439.036  18
 -11  -3   6-246.746 382.609   4
  11   3   6 8.48442 52.8471   8
 -11  -3  -6 340.413 386.847  17
 -11  -3   6 218.560 328.682  17
 -11   3  -6 462.813 398.894   4
  11   3  -6 429.429 279.150   8
  11  -3   6 1134.00 496.182   8
 -11   3   6 413.596 246.991   4
  11   3  -6 1088.43 588.562   1
  11   3  -6 782.822 451.654  14
  11  -3   6 908.600 478.379  14
 -11   3  -7 706.706 518.135   3
  11  -3   7 1005.14 518.784   6
  11   3  -7 724.423 373.375  13
 -11   3  -7 1670.45 656.177  12
  11  -3   7 3008.35 878.996   1
  11   3  -7 580.405 407.897  11
 -11  -3   7-10.2116 124.188   5
 -11   3  -7 588.108 418.148   5
  11   3  -7 829.109 368.742  10
 -11  -3   7-7.68606 165.673  19
 -11   3  -7 975.597 532.533  19
  11   3  -7 651.440 656.964   9
 -11  -3   7 214.018 202.693   2
  11   3   7 101.948 191.489  18
  11  -3   7 2177.07 739.075   8
  11   3  -7 206.074 263.188  18
 -11  -3   7-112.651 302.613   4
  11   3   7 327.758 447.346   8
 -11  -3  -7 186.024 259.786  17
 -11   3  -7 380.297 312.750   4
 -11  -3   7-282.106 263.863  17
  11   3  -7 570.673 312.273   8
 -11   3  -7-179.351 456.087  15
  11   3  -7 193.644 381.881  14
  11   3  -7 306.189 297.547   1
  11  -3   7 1402.26 620.830  14
  11  -3   8 177.770 164.449   6
 -11   3  -8-53.4037 107.962   3
  11   3  -8 331.921 188.176  13
 -11   3  -8 135.624 240.628  12
  11   3  -8 599.973 405.529  11
 -11  -3   8 265.054 306.190   5
 -11   3  -8-170.589 148.740   5
  11   3  -8-237.704 271.019  10
 -11  -3   8 285.468 214.642  19
 -11   3  -8 141.520 209.032  19
  11   3  -8 314.759 260.597   9
 -11  -3   8 230.406 229.794   2
  11   3  -8 430.717 341.304  18
 -11  -3   8-41.0717 203.113   4
  11   3   8 202.371 301.655   8
 -11  -3  -8-18.4101 225.859  17
 -11   3  -8-5.44702 124.601   4
 -11  -3   8-111.538 119.609  17
  11  -3   8 177.842 73.9816   8
  11   3  -8 339.113 196.734   8
 -11   3  -8-55.2103 317.043   7
 -11   3  -8-49.7798 363.529  15
  11   3  -8-49.1041 141.999  14
  11  -3   8 660.046 394.847   1
  11  -3   8 215.904 242.357  14
  11   3  -8 60.4976 88.3880   1
  11  -3   9 39.4507 50.3212   6
  11   3  -9 112.091 209.680   1
 -11   3  -9 91.2619 278.609   3
  11   3  -9-6.72782 25.1170  13
 -11   3  -9-64.1266 125.637  12
  11   3  -9 510.124 490.514  11
 -11   3  -9 32.1812 119.886   5
 -11  -3   9 63.7992 84.1315   5
  11   3  -9-604.889 496.620  10
 -11   3  -9 123.845 176.708  19
 -11  -3   9-24.5871 118.983  19
  11   3  -9-420.589 268.545   9
 -11  -3   9-9.41096 191.980   2
  11   3  -9 349.026 367.545  18
 -11  -3   9-162.471 234.499   4
  11   3   9 595.460 495.727   8
 -11   3  -9 39.6166 33.5708   4
 -11  -3   9-184.561 218.207  17
  11  -3   9 118.751 143.560   8
  11   3  -9 59.2848 95.4580   8
  11  -3   9-32.1373 143.070   1
 -11   3  -9 138.144 199.844   7
 -11   3  -9 59.9056 134.961  15
  11   3  -9 209.240 297.986  14
  11  -3   9 57.5969 246.325  14
  11  -4   0 39.0499 10.5365  14
 -11   4   0 30.0256 72.0984   2
  11  -4   0 145.196 158.697   6
 -11  -4   0-214.100 323.394  19
  11   4   0 158.476 271.976   1
 -11   4   0 224.114 205.738   5
 -11   4   0 192.784 167.001  19
  11   4   0 221.413 208.015  18
  11  -4   0 58.6348 41.7068   1
  11   4   0 24.0475 105.362   8
 -11  -4   0 77.7128 161.072  17
  11  -4   0 45.3556 49.6967   8
 -11   4   0 101.854 163.530   4
  11  -4   1 1168.10 446.175  14
  11  -4  -1 966.454 413.518  14
  11  -4   1 1104.49 385.571   6
  11  -4  -1 835.950 334.031   6
 -11   4   1 1423.12 468.584   5
 -11   4  -1 1443.57 303.209   2
 -11   4   1 1288.14 323.523   2
  11  -4   1 1136.69 458.109   1
 -11   4   1 1632.36 517.352  19
 -11  -4  -1-15.8545 328.770  19
 -11  -4   1-186.300 294.019  19
 -11   4  -1 1269.64 426.276   5
  11   4  -1 1079.09 597.802   1
 -11   4  -1 1648.24 521.181  19
  11   4   1 2034.70 682.404  18
  11   4  -1 2226.55 707.869  18
 -11   4  -1 1749.10 540.512   4
 -11   4   1 1735.77 523.380   4
  11   4   1 1596.20 657.105   8
  11   4  -1 1551.02 584.719   8
 -11  -4  -1-23.8448 176.913  17
 -11  -4   1 178.455 270.280  17
  11  -4   1 1105.78 448.386   8
  11  -4  -1 603.278 308.524   8
  11  -4  -1 818.767 395.139   1
  11  -4   2 158.892 180.499  14
  11  -4  -2 160.891 206.950  14
  11  -4  -2 34.5091 109.344   1
  11  -4   2 92.8892 87.5531   6
  11  -4  -2 138.215 175.335   6
  11  -4   2 178.108 203.093   1
 -11  -4  -2-112.988 237.700  19
 -11  -4   2-24.2138 94.5611  19
 -11   4  -2 62.2171 50.7375   5
 -11   4   2 193.166 186.228   5
 -11   4  -2-1.86928 122.414  19
 -11   4   2 71.8535 61.4505  19
  11   4   2 424.371 374.760  18
  11   4  -2 114.242 212.467   1
  11   4  -2 10.5996 31.2275  18
  11   4   2 255.804 287.478   8
 -11  -4  -2-238.102 261.424  17
  11   4  -2 0.94585 85.9020   8
 -11  -4   2-340.211 396.377  17
  11  -4   2 287.507 244.671   8
 -11   4  -2 134.473 105.808   4
 -11   4   2 10.4581 64.6904   4
  11  -4   3 254.662 227.230  14
  11  -4  -3 175.082 183.180  14
  11  -4   3 221.588 191.542   1
  11  -4   3 361.100 241.827   6
 -11   4  -3 7.23543 90.2415  12
  11  -4  -3 219.323 250.225   1
 -11  -4  -3-8.63587 228.062  19
 -11   4  -3 557.412 331.999   5
 -11  -4   3 10.1134 144.131  19
 -11   4   3 232.732 232.977   5
 -11   4  -3 101.947 39.1431  19
 -11   4   3 137.132 193.789  19
  11   4   3 243.282 253.636  18
  11   4  -3 267.984 236.631  18
  11   4  -3 634.555 446.221   1
  11   4   3 255.215 333.560   8
 -11  -4  -3 10.0647 57.2242  17
  11   4  -3 481.156 358.095   8
 -11  -4   3-84.9850 231.639  17
  11  -4   3 291.008 205.683   8
 -11   4  -3 185.927 162.417   4
 -11   4   3 177.646 202.688   4
  11  -4   4 480.981 299.598  14
  11  -4   4 665.593 320.116   6
 -11   4  -4 474.628 302.853  12
 -11   4  -4 393.182 236.171   5
 -11  -4   4 328.785 310.519  19
 -11   4  -4 735.078 373.861  19
  11   4   4 270.320 128.326  18
  11   4  -4 687.318 399.193  18
  11   4   4 214.162 390.152   8
 -11  -4  -4-64.6251 195.273  17
  11   4  -4 620.027 430.634   1
  11   4  -4 708.650 387.861   8
 -11  -4   4 198.805 344.636  17
 -11   4  -4 426.312 297.161   4
  11  -4   4 422.101 238.694   8
  11  -4   4 176.434 107.695   1
  11  -4   5-114.489 182.916  14
  11  -4   5 123.058 139.173   6
 -11   4  -5 112.339 171.498  12
 -11   4  -5 58.7823 146.784   5
 -11  -4   5 377.536 313.342  19
 -11   4  -5 140.404 172.860  19
  11   4   5-260.485 349.053  18
  11   4  -5 15.0162 123.745  18
  11   4   5 135.851 232.914   8
 -11  -4  -5-125.930 249.762  17
  11  -4   5-20.0596 179.628   1
 -11  -4   5 11.3490 181.840  17
  11   4  -5 383.593 272.644   8
  11   4  -5 221.205 235.214   1
 -11   4  -5 69.9383 87.6711   4
  11  -4   5 57.9449 21.3978   8
  11  -4   6 204.698 160.619   6
 -11   4  -6 173.766 167.814  12
  11   4  -6 934.282 481.985  11
  11   4  -6 1186.29 470.954  10
 -11   4  -6 265.148 88.1558   5
 -11  -4   6-492.978 535.155   2
 -11  -4   6-55.6830 175.247  19
 -11   4  -6 163.692 205.665  19
  11  -4   6 407.243 217.513   1
  11   4  -6 319.770 278.422  18
  11   4   6 56.9277 317.687   8
 -11  -4   6 48.2369 85.6317  17
  11   4  -6 695.250 340.649   8
 -11   4  -6 256.122 230.578   4
  11   4  -6 268.090 270.789   1
  11  -4   6 582.445 320.656   8
 -11   4  -6-48.4866 240.252   3
  11  -4   6 240.656 228.261  14
 -11   4  -7 42.7109 201.602   3
  11   4  -7 199.695 183.348  13
  11  -4   7 19.0268 141.161   6
 -11   4  -7-163.374 190.326  12
  11   4  -7-420.932 366.343  11
  11  -4   7-176.508 210.294   1
 -11   4  -7-0.54632 90.1135   5
  11   4  -7-222.225 250.587  10
 -11  -4   7-363.794 405.336   2
 -11  -4   7-21.9809 149.617  19
 -11   4  -7-43.9817 131.928  19
  11   4  -7-67.9102 72.5839  18
 -11  -4   7-468.994 359.143  17
  11   4  -7 102.034 145.803   8
 -11   4  -7 114.121 216.178   4
  11  -4   7 135.004 211.588   8
  11   4  -7 53.7854 128.950   1
  11  -4   7 47.3942 119.189  14
 -11   4  -8 39.4796 58.1286   3
  11  -4   8 565.644 335.889   6
  11   4  -8 541.920 319.093  13
  11  -4   8 568.276 281.620   1
 -11   4  -8 75.6969 123.452  12
  11   4  -8 604.015 407.490  11
 -11   4  -8 319.274 251.187   5
  11   4  -8 240.631 265.555  10
  11   4  -8 1288.91 668.194   9
 -11  -4   8 177.878 184.473  19
 -11  -4   8 194.970 303.543   2
 -11   4  -8 119.473 103.016  19
  11   4  -8 466.962 327.811  18
 -11  -4   8 489.360 436.075  17
 -11   4  -8 320.611 177.055   4
  11   4  -8 480.632 272.026   8
  11  -4   8 669.854 367.845   8
  11   4  -8 618.317 425.479   1
  11  -4   8 575.303 329.572  14
  11  -5   0 405.686 273.458  14
  11  -5   0 714.957 362.361   1
 -11  -5   0-125.090 406.266  19
 -11   5   0 813.924 373.181   5
 -11   5   0 682.840 329.773  19
  11   5   0 1197.21 572.020  18
  11   5   0 671.076 455.337   8
 -11  -5   0 425.056 431.800  17
  11  -5   0-133.711 401.211   8
 -11   5   0 829.150 389.883   4
  11  -5   1 25.2161 118.594  14
  11  -5   1 240.237 218.362   1
  11  -5   1 279.408 240.480   6
 -11  -5   1-521.974 548.595  19
 -11   5  -1 608.993 339.527   5
 -11   5  -1 403.749 291.583  19
  11   5   1 396.847 378.069  18
  11   5  -1 120.042 153.036  18
  11   5   1 183.323 114.086   8
  11   5  -1 138.405 115.826   8
 -11  -5  -1 573.378 557.596  17
 -11  -5   1-562.715 415.749  17
  11  -5   1-215.668 348.281   8
 -11   5  -1 307.405 230.520   4
  11  -5   2 296.793 217.266  14
  11  -5   2 568.958 293.595   6
 -11  -5   2 229.049 286.598  19
 -11   5  -2 831.151 380.813   5
 -11   5  -2 1208.92 446.864  19
  11   5   2 1029.05 515.703  18
  11   5  -2 1127.41 536.742  18
  11   5   2 642.606 427.013   8
  11   5  -2 1176.77 560.669   8
 -11  -5  -2-138.644 219.046  17
 -11  -5   2 30.6051 170.158  17
  11  -5   2 691.097 324.711   1
  11  -5   2 432.361 283.576   8
 -11   5  -2 840.571 390.869   4
  11  -5   3 243.693 198.824  14
  11  -5   3 74.4944 84.1643   6
 -11  -5   3 203.294 272.063  19
  11   5  -3 287.328 250.202   1
 -11   5  -3 469.426 253.661   5
 -11   5  -3 432.562 292.127  19
  11  -5   3 237.495 194.709   1
  11   5  -3 153.453 186.401  18
  11   5   3 355.300 415.982   8
  11   5  -3 460.606 332.317   8
 -11  -5   3 19.9657 26.9983  17
  11  -5   3 232.624 179.665   8
 -11   5  -3 467.978 330.565   4
  11  -5   4 110.595 137.458  14
  11  -5   4-86.3114 129.010   6
 -11   5  -4-183.878 214.919  12
  11  -5   4 62.0885 39.8703   1
 -11  -5   4 82.7141 142.279  19
 -11   5  -4-109.645 201.647   5
  11   5  -4-367.450 396.453   1
 -11   5  -4 23.6542 32.8757  19
  11   5  -4 3.90033 213.163  18
  11   5  -4-14.0726 132.735   8
 -11  -5   4-12.6162 184.271  17
  11  -5   4 6.34846 110.179   8
 -11   5  -4-166.930 241.689   4
  11  -5   5 342.488 284.385  14
  11  -5   5 439.193 276.262   1
  11  -5   5 254.807 187.035   6
 -11   5  -5 133.060 170.392  12
 -11   5  -5 516.327 305.333   5
 -11  -5   5-42.5711 46.6017  19
 -11   5  -5 710.268 361.985  19
  11   5  -5 448.334 487.323   1
  11   5  -5 703.275 432.862  18
  11   5  -5 691.155 400.234   8
 -11  -5   5 589.192 430.887  17
  11  -5   5 252.915 258.420   8
 -11   5  -5 624.666 374.721   4
  11  -5   6 186.749 139.463  14
  11  -5   6 141.890 174.022   6
 -11   5  -6 78.0873 158.922  12
 -11   5  -6 186.024 199.111   5
 -11  -5   6 410.729 334.152  19
 -11   5  -6 49.1418 40.1729  19
  11   5  -6-15.2584 124.540  18
  11   5  -6 193.790 289.468   1
 -11  -5   6-87.9201 242.190  17
  11   5  -6 161.444 173.223   8
 -11   5  -6 148.453 126.610   4
  11  -5   6 116.946 216.272   8
  11  -5   6-134.008 150.174   1
 -11  -6   0 596.987 648.100  17
  11   6  -1 612.490 557.536  18
  11   6  -1 425.167 301.822   8
 -11  -6   1 182.648 446.174  17
  11   6  -2 587.604 481.205  18
  11   6  -2 269.611 296.532   8
 -11  -6   2 101.695 327.347  17
 -11  -6   3-406.877 389.509  17
  12   0   0 443.508 203.404   6
  12   0   0 849.189 476.941   1
 -12   0   0 91.2593 132.340  12
 -12   0   0 358.516 291.328   5
  12   0   0 553.412 228.819  11
 -12   0   0 160.046 74.4179   2
 -12   0   0 781.692 447.385  19
  12   0   0 547.357 276.647  18
 -12   0   0 428.292 335.283   4
 -12   0   0 308.524 212.184  17
  12   0   0 541.128 314.460   8
 -12   0   0 460.067 269.219   7
 -12   0   0 372.123 219.138  15
  12   0   0 370.355 336.203  14
  12   0  -1 57.6938 70.4176   6
  12   0   1 347.021 367.407   1
  12   0  -1 85.8102 274.065   1
 -12   0  -1 309.802 254.000  12
 -12   0   1 117.819 153.311  12
 -12   0  -1 73.4959 232.334   5
  12   0   1 816.861 342.625  11
  12   0  -1 187.904 135.474  11
 -12   0   1 419.867 386.146   5
 -12   0  -1 305.756 317.628  19
 -12   0   1 506.566 416.325  19
 -12   0   1 38.2513 109.532   2
  12   0   1 307.865 286.746  18
  12   0  -1 157.782 103.453  18
 -12   0  -1 138.458 305.075   4
 -12   0   1 166.237 247.657   4
  12   0   1 203.179 253.714   8
 -12   0  -1 459.822 300.517  17
 -12   0   1 129.469 202.883  17
  12   0  -1-6.01528 90.6058   8
 -12   0  -1-225.466 318.228   7
 -12   0   1 5.49897 119.583   7
 -12   0  -1 106.760 101.488  15
 -12   0   1 6.69511 104.152  15
  12   0   1 195.842 343.065  14
  12   0  -1 175.766 271.703  14
  12   0   1 140.671 224.557   6
  12   0  -2 615.899 245.536   6
 -12   0  -2 333.081 213.468  12
 -12   0   2-6.33829 63.9890  12
  12   0  -2 475.755 332.902   1
 -12   0  -2 421.447 321.085   5
  12   0   2 880.957 319.076  11
  12   0  -2 407.766 215.830  11
 -12   0   2 558.467 443.654   5
 -12   0  -2 596.218 442.790  19
 -12   0   2 679.019 388.100  19
 -12   0   2 688.824 343.686   2
  12   0   2 666.472 311.987  18
  12   0  -2 618.595 345.461  18
 -12   0  -2 234.925 191.773   4
 -12   0   2 346.671 278.849   4
  12   0   2 942.763 425.618   8
 -12   0  -2-262.757 178.630  17
 -12   0   2 280.027 228.185  17
  12   0  -2 769.740 358.876   8
 -12   0  -2-211.341 259.906   7
 -12   0   2 514.638 299.108   7
 -12   0  -2-155.605 282.507  15
 -12   0   2 524.541 286.304  15
  12   0   2 1149.34 566.362   1
  12   0   2 729.440 498.484  14
  12   0  -2 643.065 437.965  14
  12   0   2 740.139 396.870   6
  12   0  -3 204.017 170.766   6
 -12   0  -3 301.005 289.862  12
 -12   0  -3 7.92738 102.950   5
  12   0  -3 471.657 297.772  11
  12   0  -3-54.0072 180.052   1
 -12   0   3 58.7750 178.411   5
 -12   0  -3 522.095 489.232  19
 -12   0   3-172.667 211.042  19
  12   0   3 717.858 436.976  18
 -12   0   3 85.7158 164.538   2
  12   0  -3 136.934 254.732  18
 -12   0  -3 317.540 356.405   4
 -12   0   3-140.045 222.007   4
  12   0   3 175.198 270.243   8
 -12   0  -3 239.931 485.709  17
 -12   0   3 11.6486 144.230  17
  12   0  -3 8.72255 52.8536   8
 -12   0   3 105.042 199.637   7
  12   0   3-55.6597 131.563   1
 -12   0   3 160.543 211.569  15
  12   0   3 324.132 408.977  14
  12   0  -3 87.0020 92.6496  14
  12   0   3 501.465 426.310   6
 -12   0  -4 420.829 346.991  12
  12   0   4 3143.87 969.967   1
  12   0  -4 2616.09 798.248   1
 -12   0   4 2028.84 580.979   2
  12   0  -4 1238.54 448.192  11
 -12   0   4 1783.03 637.908   5
 -12   0  -4 322.773 328.495  19
 -12   0   4 1583.06 538.573  19
  12   0   4 2697.45 577.631  18
  12   0   4 2749.58 758.805   8
  12   0  -4 2625.63 659.307   8
  12   0  -4 1610.97 517.030  18
 -12   0  -4 608.518 255.633   4
 -12   0   4 1580.15 562.963   4
 -12   0  -4 72.4364 196.325  17
 -12   0   4 617.069 409.642  17
 -12   0   4 2459.63 594.649   7
 -12   0   4 2436.89 597.510  15
  12   0   4 2347.18 623.271   6
  12   0  -4 2616.13 454.785   6
  12   0   4 2831.97 872.852  14
  12   0  -4 1993.37 660.242  14
 -12   0  -5-86.3763 156.449   3
 -12   0  -5-9.71559 91.8129  12
  12   0  -5 282.097 233.985  11
 -12   0   5-29.7268 22.9144   5
 -12   0  -5-45.6745 221.951  19
  12   0  -5-39.6036 78.5955   1
 -12   0   5-101.001 168.434  19
  12   0   5 34.2042 74.7960  18
 -12   0  -5-328.675 387.824   4
  12   0  -5-165.685 261.530  18
 -12   0   5 84.7424 209.567   2
  12   0   5 71.0022 168.804   8
  12   0   5-125.069 120.429   1
 -12   0  -5 249.897 174.002  17
 -12   0   5-184.942 201.555   4
 -12   0   5 64.1714 225.821  17
  12   0  -5-105.790 150.634   8
 -12   0   5 304.797 260.998  15
  12   0   5-4.58983 106.493  14
  12   0   5-3.25967 147.350   6
  12   0  -5 30.1380 134.726  14
 -12   0  -6 525.362 389.768  12
 -12   0  -6 290.291 265.539   3
  12   0   6 5060.08 1214.36   1
 -12   0   6 2481.91 736.345   5
  12   0  -6 3590.52 964.144   1
 -12   0   6 3367.39 750.435   2
  12   0  -6 1337.38 497.880  11
 -12   0   6 2997.79 754.219  19
 -12   0  -6 533.529 384.129  19
  12   0   6 4386.80 704.549  18
  12   0  -6 2404.39 700.337  18
 -12   0   6 2777.45 745.619   4
  12   0   6 5086.45 1054.24   8
  12   0  -6 3554.28 789.172   8
 -12   0   6 1693.57 600.739  17
  12   0   6 3841.90 835.175   6
  12   0   6 4514.19 1101.99  14
  12   0  -6 3190.58 766.042  14
  12  -1   0 210.674 170.872   6
 -12  -1   0 507.520 267.792  12
 -12   1   0 52.1636 42.8474  12
 -12  -1   0 352.600 327.498   5
  12   1   0 254.160 191.146  11
  12  -1   0 210.778 238.141   1
 -12   1   0 295.305 311.097   5
 -12  -1   0 280.219 331.025  19
 -12   1   0 120.846 241.015  19
 -12   1   0 190.541 157.717   2
  12   1   0 399.618 266.062  18
  12  -1   0 137.963 184.689  18
 -12  -1   0 108.667 226.563   4
 -12   1   0 114.763 198.741   4
 -12  -1   0 614.699 359.810  17
  12   1   0 217.296 248.108   8
 -12   1   0 273.125 285.164  17
  12  -1   0 221.886 206.280   8
 -12   1   0 396.833 408.420   7
  12   1   0 448.974 432.582   1
 -12   1   0 370.179 358.905  15
  12   1   0 186.684 175.369   6
  12   1   0 658.982 460.352  14
  12  -1   0 175.386 248.715  14
  12  -1   1 160.710 112.830   6
  12  -1  -1 238.066 182.375   6
 -12  -1  -1-148.791 155.367  12
 -12  -1   1 198.307 187.490  12
 -12   1  -1 204.780 167.635  12
  12  -1   1 271.556 233.534   1
 -12   1   1-295.756 207.125  12
 -12  -1  -1-93.1915 279.919   5
  12   1   1 269.895 155.419  11
  12   1  -1 211.379 112.403  11
 -12  -1   1-6.36391 129.860   5
 -12   1  -1 62.0481 100.410   5
 -12   1   1 202.250 168.303   5
 -12  -1   1-118.804 324.031   2
  12  -1  -1 89.8765 129.061   1
 -12  -1  -1 143.041 96.8607  19
 -12   1  -1 158.906 173.238   2
 -12  -1   1 394.449 365.428  19
 -12   1  -1 158.777 178.041  19
 -12   1   1 77.7524 114.282  19
  12   1   1 192.716 105.095  18
  12   1  -1 277.706 155.756  18
 -12  -1  -1-157.671 367.787   4
 -12   1   1 149.803 127.962   2
  12  -1   1 174.987 147.048  18
  12  -1  -1 175.451 151.952  18
 -12  -1   1-63.6719 85.9602   4
 -12   1  -1 16.3278 136.972   4
  12   1   1 74.0767 149.810   8
 -12  -1  -1-80.2809 148.724  17
 -12  -1   1 282.271 294.027  17
 -12   1   1 115.403 145.205   4
  12   1  -1 116.116 154.565   8
  12  -1   1 160.951 150.863   8
 -12   1  -1-92.5592 146.785  17
 -12   1   1-54.9656 62.6769  17
  12  -1  -1 416.498 287.740   8
  12   1   1 332.881 262.259   1
 -12   1  -1 2.43025 162.638   7
 -12   1  -1 50.7706 126.299  15
  12   1   1 86.0090 55.7120   6
  12   1   1 274.477 255.129  14
  12   1  -1 2.87383 144.903   6
  12   1  -1 158.718 114.603  14
  12   1  -1-31.5003 159.585   1
  12  -1   1 152.219 227.337  14
  12  -1  -1 196.564 220.734  14
  12   1  -2 82.1413 217.382   1
  12  -1   2-29.2085 62.5419   6
  12  -1  -2 73.8293 116.240   6
  12  -1   2 176.571 270.349   1
 -12  -1  -2 7.49827 76.5028  12
 -12   1  -2-88.5440 160.027  12
 -12  -1   2 100.869 134.445  12
  12   1   2 168.624 117.511  11
  12   1  -2 345.652 217.920  11
 -12  -1   2 301.380 335.802   5
 -12   1  -2-102.115 220.012   5
 -12   1   2-73.3761 191.516   5
 -12  -1   2 209.931 247.684   2
 -12  -1  -2-117.453 234.390  19
 -12  -1   2-26.8845 273.287  19
 -12   1  -2 150.075 297.821  19
 -12   1   2 10.0736 62.1171  19
  12  -1  -2-18.1324 115.621   1
  12   1   2 165.710 184.606  18
  12   1  -2 85.0548 174.806  18
 -12  -1  -2-159.163 310.115   4
  12  -1   2 57.7391 132.836  18
  12  -1  -2 63.2406 31.4475  18
 -12  -1   2 77.4522 136.156   4
 -12   1   2 28.3408 71.6369   2
 -12   1  -2 51.9598 110.520   4
  12   1   2 236.014 288.425   8
 -12  -1  -2-13.6993 134.397  17
 -12  -1   2-12.1292 209.931  17
 -12   1   2-46.1548 159.250   4
  12   1  -2 152.592 136.813   8
  12  -1   2 305.059 264.236   8
 -12   1  -2 130.580 263.830  17
 -12   1   2 13.9340 107.734  17
  12  -1  -2-113.597 188.568   8
  12   1   2 179.422 273.725   1
 -12   1  -2-192.674 256.989   7
 -12   1  -2-77.6146 110.065  15
  12   1   2 233.092 250.607   6
  12   1   2-141.349 259.563  14
  12   1  -2-41.6911 124.210   6
  12   1  -2 116.337 165.896  14
  12  -1   2 85.1868 210.986  14
  12  -1  -2 52.6899 139.127  14
  12  -1   3 990.556 366.931   6
  12  -1   3 1226.38 552.679   1
  12  -1  -3 989.042 310.399   6
  12   1  -3 923.757 532.700   1
 -12  -1  -3 114.981 236.687  12
 -12   1  -3 525.757 288.653  12
 -12  -1   3-241.974 180.473  12
  12   1   3 2237.25 493.002  11
  12   1  -3 1526.65 482.246  11
 -12   1  -3 704.947 398.113   5
 -12  -1   3 777.525 446.737   5
 -12   1   3 720.061 352.750   5
 -12  -1  -3-42.1438 135.968  19
 -12   1  -3 739.788 450.252  19
 -12  -1   3 438.712 304.714  19
 -12   1   3 739.514 366.372  19
 -12  -1   3 842.062 397.275   2
  12   1   3 1436.48 475.416  18
  12  -1  -3 1317.58 565.741   1
  12   1  -3 897.647 419.626  18
  12  -1   3 942.265 361.356  18
  12  -1  -3 606.630 341.926  18
 -12  -1   3 615.733 398.848   4
 -12   1  -3 591.212 355.310   4
  12   1   3 1492.26 644.937   8
  12   1   3 1359.24 732.637   1
 -12  -1  -3-129.070 190.782  17
 -12   1   3 868.644 333.079   2
 -12  -1   3 292.597 356.508  17
  12  -1   3 1312.15 508.438   8
 -12   1   3 776.017 403.203   4
  12   1  -3 1276.85 504.165   8
 -12   1  -3-0.90664 133.300  17
 -12   1   3 167.748 93.0062  17
  12  -1  -3 881.249 395.850   8
 -12   1  -3 670.353 437.140   7
 -12   1  -3 1127.63 571.369  15
  12   1   3 890.211 405.655   6
  12   1   3 1328.93 649.742  14
  12   1  -3 936.444 489.351  14
  12  -1   3 987.439 391.629  14
  12  -1  -3 972.656 456.427  14
  12  -1   4-119.956 191.999   6
 -12   1  -4-50.5303 184.185   3
  12  -1  -4 12.6504 62.3539   6
  12   1  -4 238.003 323.540   1
 -12  -1  -4 79.2035 162.622  12
 -12   1  -4 18.2493 24.2542  12
 -12   1  -4-195.531 296.670   5
  12   1  -4-183.657 130.601  11
 -12  -1   4-54.5884 125.167   5
 -12   1   4 24.9056 46.7299   5
 -12  -1  -4 108.108 243.310  19
 -12   1  -4-228.934 205.487  19
 -12  -1   4 84.8003 177.031  19
 -12   1   4-81.3481 162.164  19
 -12  -1   4-60.2629 121.816   2
  12   1   4 15.9916 145.067  18
  12   1  -4 92.2850 129.011  18
  12  -1   4-99.7755 127.614  18
  12  -1  -4-85.4224 153.961  18
  12   1   4-8.68723 113.180   1
 -12   1  -4 31.6931 197.703   4
 -12  -1   4-106.773 85.1533   4
  12  -1  -4-66.0327 73.2996   1
  12   1   4-241.640 256.816   8
 -12  -1  -4-21.9069 28.8145  17
 -12  -1   4 42.7981 118.457  17
  12  -1   4-245.373 298.843   8
 -12   1  -4-1.89037 93.7508  17
  12   1  -4-131.274 204.093   8
 -12   1   4 61.5604 148.634   4
 -12   1   4 127.056 132.319   2
 -12   1   4 4.69993 95.1585  17
  12  -1  -4 153.115 196.295   8
 -12   1  -4-304.713 318.896   7
 -12   1  -4-24.2711 62.1391  15
  12   1   4-196.163 253.876   6
  12   1   4 24.1169 122.545  14
  12  -1   4-172.138 270.311   1
  12   1  -4-138.227 99.5145  14
  12  -1   4-44.3058 282.107  14
  12  -1  -4-139.180 126.305  14
  12   1  -5 2342.37 456.006  13
 -12   1  -5 18.1295 135.807   3
 -12   1  -5 459.884 251.723  12
  12   1  -5 2136.07 790.617   1
  12  -1   5 3052.00 892.753   1
 -12   1  -5 660.216 428.278   5
 -12   1   5 2046.58 534.491   2
  12   1  -5 1876.47 538.094  11
 -12  -1   5 1277.27 572.308   5
 -12   1   5 1670.91 586.268   5
 -12   1   5 2047.17 626.924  19
 -12   1  -5 483.649 352.536  19
 -12  -1   5 1250.12 496.881  19
  12   1   5 3163.23 652.202  18
  12   1  -5 2241.38 663.295  18
  12  -1   5 1692.69 421.853  18
 -12   1   5 1857.18 589.253   4
  12   1   5 2641.69 794.802   8
  12  -1   5 2709.76 744.899   8
  12   1   5 2820.09 971.289   1
  12   1  -5 2744.36 676.619   8
  12  -1  -5 1587.08 558.467   8
 -12  -1   5 1893.93 572.688   2
  12  -1  -5 815.862 377.574  18
 -12   1  -5 858.145 477.508   4
 -12  -1   5 1007.44 457.682   4
 -12  -1   5 1118.32 460.884  17
 -12   1   5 935.806 442.929  17
  12  -1  -5 2126.58 700.081   1
 -12   1  -5 1125.67 513.201   7
  12  -1   5 2145.09 598.989   6
 -12   1  -5 1000.99 384.748  15
  12  -1  -5 1980.69 401.404   6
  12   1   5 1597.56 538.105   6
  12   1   5 2502.54 844.884  14
  12  -1   5 2558.27 796.556  14
  12   1  -5 1851.56 645.636  14
  12  -1  -5 2010.74 614.019  14
 -12   1  -6 15.5799 72.5689   3
  12   1  -6-6.31737 55.0124  13
 -12   1  -6 173.359 202.270  12
 -12   1  -6-61.8648 117.741   5
  12   1  -6 58.4054 154.274   1
  12   1  -6-452.532 305.669  11
 -12  -1   6-46.8405 113.401   5
 -12   1   6-52.5378 67.5650   5
 -12  -1  -6 70.1696 159.432  19
 -12   1  -6-71.9902 163.193  19
  12   1   6-92.6748 70.8629   1
 -12  -1   6 20.4749 145.703  19
 -12   1   6-9.49558 112.249  19
  12   1   6 160.672 121.182  18
  12   1  -6 275.493 270.837  18
 -12   1  -6-48.2208 154.465   4
 -12  -1   6-58.2310 59.5179   2
  12   1   6 75.4177 98.6860   8
 -12  -1   6 27.0439 129.237   4
 -12  -1  -6-212.888 217.897  17
  12  -1   6-62.4606 82.8105   8
 -12  -1   6-33.8283 124.202  17
 -12   1   6 29.3390 138.285  17
  12   1  -6-11.9816 101.197   8
 -12   1   6-144.613 253.280   4
  12  -1   6 196.181 344.204   1
  12  -1  -6-36.4756 181.718   8
 -12   1   6-105.260 137.165   2
 -12   1  -6-179.677 381.495   7
  12  -1  -6-139.600 268.257   1
 -12   1  -6-715.977 452.944  15
  12   1   6-105.001 247.335   6
  12   1   6 59.9080 58.6507  14
  12  -1   6-6.32102 55.1576  14
  12   1  -6 135.297 164.620  14
  12  -1  -6-58.1603 104.836  14
  12  -1   6 164.660 304.598   6
 -12  -2   0-56.2350 16.6025  12
 -12   2   0-132.027 246.825  12
  12   2   0-81.4378 176.328  11
 -12   2   0 78.4574 207.243   5
 -12  -2   0-70.9615 141.021  19
 -12   2   0 60.8653 141.276  19
  12   2   0-67.3446 198.167  18
  12  -2   0-4.93221 70.0428   1
 -12   2   0 107.327 146.450   2
  12   2   0-277.979 336.002   8
 -12  -2   0-81.2681 129.622  17
 -12   2   0 78.1990 156.299   4
  12   2   0 152.606 37.7936   1
  12  -2   0-8.17747 139.410   8
  12   2   0-205.000 310.140  14
  12  -2   0-57.1775 163.481  14
  12  -2   1 324.803 224.240   6
  12  -2  -1-13.8517 38.7172   6
 -12  -2  -1 97.2164 176.295  12
 -12  -2   1-18.0741 78.0550  12
 -12   2  -1 170.834 219.416  12
  12   2   1 466.234 295.336  11
  12   2  -1 391.095 306.513  11
 -12   2  -1-58.5204 128.301   5
 -12   2   1 140.295 170.858   5
 -12  -2  -1-132.701 252.683  19
 -12  -2   1-5.00314 126.955  19
  12  -2   1 158.000 277.668   1
 -12   2  -1-152.742 198.101  19
 -12   2   1 115.409 159.368  19
  12   2   1 97.0711 110.408  18
  12   2  -1 207.445 207.775  18
 -12  -2   1-1021.68 515.180   4
  12   2   1 34.7672 186.084   1
  12   2   1 268.831 248.653   8
 -12  -2  -1 170.294 280.127  17
  12  -2  -1 43.0369 111.944   1
 -12  -2   1 32.3106 101.851  17
  12   2  -1 0.11505 100.354   8
 -12   2  -1 149.051 234.322   4
 -12   2   1 115.877 114.467   2
 -12   2   1 133.335 121.905   4
  12  -2   1 119.709 138.344   8
  12  -2  -1 9.29495 149.407   8
  12   2  -1-93.0022 244.056   1
  12   2   1 191.808 244.029  14
  12   2  -1-200.360 326.634  14
  12  -2   1 166.070 244.704  14
  12  -2  -1 91.1915 168.550  14
  12  -2   2 2.39335 73.2018   6
  12  -2  -2-29.8825 63.5929   6
 -12  -2   2-79.4809 135.186  12
 -12   2  -2-69.3653 72.6589  12
  12   2   2 211.662 211.789  11
 -12  -2   2-188.543 359.422   5
  12   2  -2-353.326 306.673  11
 -12   2  -2-39.5551 134.998   5
  12  -2   2-30.4917 94.5663   1
 -12   2   2 84.0499 125.862   5
 -12  -2  -2 80.8076 248.237  19
 -12  -2   2-61.0455 284.762  19
 -12   2  -2-76.0310 176.276  19
 -12   2   2 84.6572 66.9946  19
  12   2   2-7.16186 169.892  18
  12   2  -2-102.512 133.435  18
 -12  -2   2-124.716 341.707   4
  12   2   2 34.3155 274.335   1
  12   2   2 251.649 388.061   8
 -12  -2  -2-29.8044 136.284  17
 -12  -2   2 87.5887 110.529  17
  12   2  -2 83.3526 167.207   8
 -12   2  -2-127.359 248.106   4
  12  -2   2-71.4435 31.7167   8
 -12   2   2-82.7426 204.230   4
  12  -2  -2 16.5841 13.0711   8
 -12   2   2-4.31326 48.0734   2
  12  -2  -2 29.7388 51.3514   1
  12   2  -2-110.150 213.254   1
  12   2   2-60.1629 138.954  14
  12   2  -2 104.108 214.876  14
  12  -2   2 23.4739 138.406  14
  12  -2  -2 104.107 182.877  14
  12  -2  -3 130.971 190.654  14
  12  -2   3 76.8755 117.799   6
  12  -2  -3 91.7388 109.694   6
 -12   2  -3 106.910 232.029  12
  12  -2   3 113.397 159.143   1
  12   2  -3 354.012 287.004  11
 -12  -2   3-151.336 407.303   5
 -12   2  -3-59.9614 54.4481   5
 -12  -2   3-304.509 371.238   2
 -12   2   3 99.5311 192.901   5
 -12  -2  -3 88.7768 233.885  19
 -12  -2   3 224.407 273.125  19
 -12   2  -3-133.761 254.684  19
 -12   2   3-5.42910 131.027  19
  12   2   3 22.9509 285.747   1
  12   2   3 186.819 253.367  18
  12   2  -3 56.4045 83.3894  18
 -12  -2   3-191.256 303.561   4
  12   2   3-21.3934 42.4114   8
 -12  -2  -3 36.3812 205.193  17
 -12   2  -3 29.1516 96.2585   4
 -12  -2   3-196.248 208.070  17
  12   2  -3-62.3602 153.330   8
  12  -2   3 82.8422 122.431   8
 -12   2   3 200.894 178.271   4
  12  -2  -3 242.733 251.288   8
 -12   2   3 57.4499 45.2663   2
  12   2  -3 55.9474 32.0258   1
 -12   2  -3 331.926 380.819  15
  12  -2  -3-49.0432 219.077   1
  12   2   3 205.893 299.580  14
  12   2  -3-63.2444 51.9812  14
  12  -2   3 194.538 137.981  14
  12  -2  -4 496.042 274.204  14
  12  -2  -4 444.816 376.810   1
  12  -2   4 661.593 333.628   6
  12  -2  -4 443.208 182.601   6
  12  -2   4 1174.58 511.038   1
 -12   2  -4 153.538 111.826  12
  12   2  -4 1628.26 570.072  11
 -12  -2   4 253.531 286.047   5
 -12   2  -4 358.796 281.780   5
 -12   2   4 546.663 359.879   5
 -12  -2  -4 81.1826 179.548  19
 -12  -2   4-106.219 201.696   2
 -12  -2   4 196.020 235.972  19
 -12   2  -4 165.586 91.4231  19
  12   2   4 567.308 436.394   1
 -12   2   4 816.609 390.919  19
  12   2   4 998.333 429.225  18
  12   2  -4 841.139 435.764  18
 -12  -2   4 84.8364 43.6223   4
  12   2   4 852.003 474.972   8
 -12  -2  -4 140.271 186.226  17
 -12   2  -4 354.587 164.900   4
 -12  -2   4 247.240 252.296  17
  12   2  -4 705.544 348.380   8
  12  -2   4 756.505 401.510   8
 -12   2   4 697.392 363.832   4
  12  -2  -4 563.889 331.764   8
 -12   2   4 559.964 264.788   2
 -12   2  -4 606.125 454.945   7
 -12   2  -4 748.694 461.436  15
  12   2  -4 356.707 345.566  14
  12   2  -4 743.488 443.385   1
 -12   2  -4-158.339 295.833   3
  12  -2   4 1027.12 454.745  14
  12  -2  -5 160.548 186.800  14
  12   2  -5 378.904 330.071   1
 -12   2  -5 263.137 287.252   3
  12  -2   5 183.519 157.224   6
  12  -2   5 100.027 193.169   1
  12   2  -5 37.9360 39.9074  13
  12  -2  -5 33.3449 71.3178   1
  12  -2  -5 39.6481 92.8106   6
 -12   2  -5 418.849 352.663  12
  12   2  -5 147.489 207.262  11
 -12  -2   5 220.439 245.925   5
 -12   2  -5 63.5902 50.2123   5
 -12   2   5-18.4330 164.639   5
 -12  -2  -5 13.8248 144.741  19
 -12  -2   5-206.235 122.693  19
 -12   2  -5 145.002 240.104  19
 -12  -2   5-102.078 157.498   2
 -12   2   5 2.15314 60.0481  19
  12   2   5 50.6077 143.838  18
  12   2  -5-9.64550 80.0998  18
 -12  -2   5-203.777 208.523   4
  12   2   5-135.079 181.418   8
 -12   2  -5-102.428 111.656   4
 -12  -2  -5 241.680 200.451  17
 -12  -2   5 116.491 292.311  17
  12  -2   5-396.671 277.349   8
  12   2  -5-15.4861 75.3448   8
 -12   2   5-105.340 183.878   4
  12  -2  -5-369.408 404.530   8
 -12   2  -5 45.6535 142.291   7
 -12   2   5 162.949 193.391   2
 -12   2  -5 202.426 253.169  15
  12   2  -5-3.11885 122.662  14
  12  -2   5-71.2243 224.444  14
 -12  -2  -6-54.9707 127.723  17
  12  -3   0-21.9241 79.7107  14
  12  -3   0 138.671 75.0039   6
 -12   3   0-63.0713 119.480   5
 -12  -3   0 61.3545 86.9083  19
 -12   3   0 122.821 219.873  19
  12   3   0 85.6281 161.879  18
  12   3   0 87.0696 227.591   1
  12   3   0-41.4086 245.486   8
 -12  -3   0 39.9557 127.666  17
 -12   3   0 59.6064 136.910   4
  12  -3   0 6.21383 94.6629   8
  12  -3   0 44.0495 92.2531   1
  12  -3   1 475.236 317.328  14
  12  -3  -1 233.417 187.393  14
  12  -3  -1 483.581 385.256   1
  12  -3   1 534.646 277.475   6
  12  -3  -1 381.865 200.709   6
 -12  -3   1 145.444 157.381  12
 -12   3  -1-79.6739 283.075  12
 -12   3  -1 306.050 208.309   5
 -12   3   1 653.387 347.925   5
 -12  -3  -1-11.2682 98.2712  19
 -12  -3   1-3.56787 199.102  19
 -12   3  -1 558.193 322.874  19
 -12   3   1 584.831 351.724  19
  12   3   1 717.535 551.165   1
  12   3   1 762.218 406.694  18
  12   3  -1 490.345 273.073  18
  12   3  -1 707.498 516.148   1
  12   3   1 911.001 494.677   8
 -12  -3  -1-268.235 272.775  17
  12   3  -1 843.856 432.746   8
 -12  -3   1 3.05286 158.371  17
 -12   3  -1 168.186 237.446   4
  12  -3   1 372.398 242.553   1
  12  -3   1 416.290 297.693   8
 -12   3   1 495.089 313.232   4
  12  -3  -1 474.016 340.513   8
 -12   3   1 632.464 260.831   2
  12  -3  -2 31.6547 126.890  14
  12  -3   2-82.9741 144.875   6
  12  -3  -2-24.9983 28.2554   6
  12  -3  -2 15.9187 91.8043   1
 -12   3  -2-34.1536 50.0321  12
  12   3  -2 73.4829 23.5436  11
 -12   3  -2 192.931 131.654   5
 -12   3   2 107.686 119.193   5
 -12  -3  -2-390.230 369.990  19
 -12  -3   2-48.8817 260.082  19
  12   3   2 47.3095 44.8295   1
 -12   3  -2 263.080 288.730  19
 -12   3   2 68.3815 119.159  19
  12   3   2-0.05927 84.8243  18
  12   3  -2-31.8140 168.834  18
  12  -3   2 50.2861 148.724   1
  12   3   2 145.411 253.200   8
 -12  -3  -2 176.082 123.285  17
 -12  -3   2 102.780 246.195  17
  12   3  -2 80.4967 215.552   8
  12   3  -2-146.107 147.285   1
 -12   3  -2 80.4705 123.818   4
  12  -3   2 29.9011 130.543   8
 -12   3   2-9.87606 67.9832   4
  12  -3  -2 3.64839 118.432   8
 -12   3   2 59.7633 97.2272   2
  12   3  -2-88.0515 180.064  14
  12  -3   2-40.2624 107.854  14
  12  -3  -3-135.283 182.274  14
  12  -3   3 83.3891 44.0163   6
  12  -3  -3 20.8993 109.944   6
 -12   3  -3 145.206 140.576  12
  12   3  -3-286.618 234.538  11
  12  -3  -3 190.276 213.370   1
 -12   3  -3-18.0130 98.9861   5
 -12  -3  -3-63.9877 266.506  19
 -12   3   3-108.199 213.343   5
 -12  -3   3 72.9799 51.9600  19
 -12   3  -3 33.3495 106.025  19
 -12   3   3-16.6162 110.978  19
  12  -3   3 126.153 133.954   1
  12   3   3-36.4580 50.9191  18
  12   3  -3-12.4188 113.129  18
  12   3   3-51.2586 218.119   8
 -12  -3  -3-36.3772 112.251  17
 -12  -3   3-103.125 160.187  17
  12   3  -3 75.3529 108.726   8
 -12   3  -3 28.5002 115.603   4
  12   3  -3 141.395 345.279   1
  12  -3   3 80.0311 187.343   8
  12  -3  -3-45.1598 206.304   8
 -12   3   3 16.1741 127.373   4
  12   3  -3 111.656 188.211  14
 -12   3   3 68.4186 96.6679   2
  12  -3   3-33.9670 224.958  14
  12  -3   4 230.087 212.218   6
  12  -3  -4 52.3462 32.3748   6
 -12   3  -4 224.680 173.976  12
  12   3  -4 185.455 199.844  11
 -12   3  -4 61.9248 117.530   5
  12  -3   4 241.420 272.422   1
  12  -3  -4 247.769 254.112   1
 -12  -3  -4 97.6907 321.909  19
 -12   3   4 34.2674 57.8500   5
 -12  -3   4 139.373 242.950  19
 -12   3  -4 69.7910 112.308  19
 -12   3   4 117.269 112.196  19
  12   3   4 67.8888 201.532  18
  12   3  -4 193.312 198.614  18
  12   3   4 35.1044 118.256   8
 -12  -3  -4 304.726 258.989  17
 -12  -3   4 15.4573 148.929  17
  12   3  -4 286.706 233.142   8
 -12   3  -4 107.132 96.8076   4
  12  -3   4 237.045 239.923   8
  12   3  -4 287.461 275.044   1
 -12   3   4 136.915 185.153   4
  12  -3  -4-308.915 397.297   8
  12   3  -4 96.4412 300.264  14
 -12   3   4 113.150 145.239   2
  12  -3   4-13.2263 120.130  14
 -12  -4   0-14.0087 89.7338  17
   0   0   0    0.00    0.00   0

TITL HFMOF@29 in P4/mnc
REM P4/mnc (#128 in standard setting)
CELL 0.71073  18.939617  18.939617  32.816862  90.0000  90.0000  90.0000
ZERR   16.00   0.001093   0.001093   0.002350   0.0000   0.0000   0.0000
LATT  1
SYMM -x,-y, z
SYMM -y, x, z
SYMM  y,-x, z
SYMM -x+1/2, y+1/2,-z+1/2
SYMM  x+1/2,-y+1/2,-z+1/2
SYMM  y+1/2, x+1/2,-z+1/2
SYMM -y+1/2,-x+1/2,-z+1/2
SFAC C H O Hf
UNIT 576.00 704.00 128.00 16.00
TREF
HKLF 4
END
;
_shelx_hkl_checksum              65330
_shelx_shelxl_version_number     2014/7
_olex2_submission_special_instructions 'No special instructions were received'
_oxdiff_exptl_absorpt_empirical_details
;
Empirical correction (ABSPACK) includes:
- Absorption correction using spherical harmonics
- Frame scaling
;
_oxdiff_exptl_absorpt_empirical_full_max 2.283
_oxdiff_exptl_absorpt_empirical_full_min 0.569
loop_
_space_group_symop_operation_xyz
'x, y, z'
'-x, -y, z'
'-y, x, z'
'y, -x, z'
'-x+1/2, y+1/2, -z+1/2'
'x+1/2, -y+1/2, -z+1/2'
'y+1/2, x+1/2, -z+1/2'
'-y+1/2, -x+1/2, -z+1/2'
'-x, -y, -z'
'x, y, -z'
'y, -x, -z'
'-y, x, -z'
'x-1/2, -y-1/2, z-1/2'
'-x-1/2, y-1/2, z-1/2'
'-y-1/2, -x-1/2, z-1/2'
'y-1/2, x-1/2, z-1/2'
loop_
_atom_site_label
_atom_site_type_symbol
_atom_site_fract_x
_atom_site_fract_y
_atom_site_fract_z
_atom_site_U_iso_or_equiv
_atom_site_adp_type
_atom_site_occupancy
_atom_site_site_symmetry_order
_atom_site_calc_flag
_atom_site_refinement_flags_posn
_atom_site_refinement_flags_adp
_atom_site_refinement_flags_occupancy
_atom_site_disorder_assembly
_atom_site_disorder_group
Hf1 Hf -0.0446(3) 0.1232(3) 0.0000 0.036(5) Uani 1 2 d DS TU P . .
Hf2 Hf 0.0000 0.0000 0.07371(19) 0.031(5) Uani 1 4 d DS TU P . .
O1 O -0.027(2) 0.0909(15) 0.1081(11) 0.033(15) Uiso 1 1 d D U . . .
O4 O -0.080(3) 0.032(3) 0.0373(17) 0.09(2) Uiso 1 1 d . U . . .
O13 O -0.066(2) 0.170(2) 0.0582(8) 0.037(16) Uiso 1 1 d D U . . .
O19 O -0.147(4) 0.159(4) 0.0000 0.06(3) Uiso 1 2 d S TU P . .
O20 O 0.015(3) 0.222(4) 0.0000 0.05(2) Uiso 1 2 d S TU P . .
C3 C -0.0694(11) 0.315(2) 0.1936(14) 0.05(2) Uiso 1 1 d D U . . .
C4 C -0.0910(19) 0.3311(19) 0.1520(17) 0.10(3) Uiso 1 1 d D U . . .
H4 H -0.1070 0.3761 0.1456 0.122 Uiso 1 1 calc R . . . .
C5 C -0.088(2) 0.280(3) 0.1219(11) 0.10(3) Uiso 1 1 d D U . . .
H5 H -0.1016 0.2910 0.0956 0.123 Uiso 1 1 calc R . . . .
C6 C -0.0634(12) 0.210(2) 0.1301(14) 0.07(2) Uiso 1 1 d D U . . .
C7 C -0.0418(19) 0.1933(19) 0.1716(17) 0.09(3) Uiso 1 1 d D U . . .
H7 H -0.0258 0.1482 0.1780 0.111 Uiso 1 1 calc R . . . .
C8 C -0.0452(18) 0.245(3) 0.2017(11) 0.08(3) Uiso 1 1 d D U . . .
H8 H -0.0312 0.2334 0.2280 0.101 Uiso 1 1 calc R . . . .
C9 C -0.0763(14) 0.3730(18) 0.2200(11) 0.03(2) Uiso 1 1 d D U . . .
C16 C -0.0254(18) 0.426(2) 0.2227(13) 0.00(3) Uiso 0.5 1 d DG U . A -2
C15 C -0.026(4) 0.471(4) 0.251(2) 0.00(3) Uiso 1 2 d DG U . A .
C15D C -0.077(5) 0.466(6) 0.285(3) 0.050 Uiso 0 1 d DG . . A .
C9D C -0.128(4) 0.414(5) 0.283(2) 0.050 Uiso 0 1 d DG . . A .
C10 C -0.128(2) 0.367(3) 0.2501(15) 0.07(3) Uiso 0.5 1 d DG U . A -1
C11 C -0.177(2) 0.315(3) 0.248(2) 0.14(5) Uiso 0.5 1 d D U . A -1
H11A H -0.1578 0.2725 0.2590 0.208 Uiso 0.5 1 calc GR . . A -1
H11B H -0.1890 0.3075 0.2196 0.208 Uiso 0.5 1 calc GR . . A -1
H11C H -0.2179 0.3289 0.2627 0.208 Uiso 0.5 1 calc GR . . A -1
C12 C -0.0594(15) 0.1563(18) 0.1002(9) 0.04(2) Uiso 1 1 d D U . . .
C17 C 0.025(2) 0.433(3) 0.1958(15) 0.18(5) Uiso 1 1 d D U . A -2
H H 0.0516 0.3896 0.1941 0.268 Uiso 1 1 calc GR . . . .
HA H 0.0559 0.4705 0.2038 0.268 Uiso 1 1 calc GR . . . .
HB H 0.0049 0.4432 0.1696 0.268 Uiso 1 1 calc GR . . . .
loop_
_atom_site_aniso_label
_atom_site_aniso_U_11
_atom_site_aniso_U_22
_atom_site_aniso_U_33
_atom_site_aniso_U_23
_atom_site_aniso_U_13
_atom_site_aniso_U_12
Hf1 0.054(7) 0.040(6) 0.014(6) 0.000 0.000 0.007(4)
Hf2 0.042(6) 0.042(6) 0.009(7) 0.000 0.000 0.000
loop_
_atom_type_symbol
_atom_type_description
_atom_type_scat_dispersion_real
_atom_type_scat_dispersion_imag
_atom_type_scat_source
C C 0.0033 0.0016 'International Tables Vol C Tables 4.2.6.8 and 6.1.1.4'
H H 0.0000 0.0000 'International Tables Vol C Tables 4.2.6.8 and 6.1.1.4'
Hf Hf -0.5830 6.1852 'International Tables Vol C Tables 4.2.6.8 and 6.1.1.4'
O O 0.0106 0.0060 'International Tables Vol C Tables 4.2.6.8 and 6.1.1.4'
loop_
_exptl_crystal_face_index_h
_exptl_crystal_face_index_k
_exptl_crystal_face_index_l
_exptl_crystal_face_perp_dist
5 -1 3 0.0174
5 1 -3 0.0088
2 2 -5 0.0243
-1 2 -5 0.0459
-3 2 -5 0.0560
-5 1 -3 0.0764
-5 0 1 0.0844
-3 -2 5 0.0877
0 -2 5 0.0691
2 -2 5 0.0410
-1 -5 -4 0.0262
1 5 4 0.0262
loop_
_geom_angle_atom_site_label_1
_geom_angle_atom_site_label_2
_geom_angle_atom_site_label_3
_geom_angle
_geom_angle_site_symmetry_1
_geom_angle_site_symmetry_3
Hf1 Hf1 Hf1 90.0 3 11
Hf2 Hf1 Hf1 59.57(5) . 3
Hf2 Hf1 Hf1 59.57(5) 9 3
Hf2 Hf1 Hf1 59.57(5) . 11
Hf2 Hf1 Hf1 59.57(5) 9 11
Hf2 Hf1 Hf2 88.52(18) 9 .
O4 Hf1 Hf1 36.7(16) 11 11
O4 Hf1 Hf1 36.7(16) 4 11
O4 Hf1 Hf1 86.7(15) 10 11
O4 Hf1 Hf1 86.5(16) 4 3
O4 Hf1 Hf1 33.6(15) 10 3
O4 Hf1 Hf1 86.5(16) 11 3
O4 Hf1 Hf1 86.7(15) . 11
O4 Hf1 Hf1 33.6(15) . 3
O4 Hf1 Hf2 88.7(15) 4 9
O4 Hf1 Hf2 88.7(15) 11 .
O4 Hf1 Hf2 86.2(16) 10 .
O4 Hf1 Hf2 31.6(17) 4 .
O4 Hf1 Hf2 86.2(16) . 9
O4 Hf1 Hf2 33.4(14) . .
O4 Hf1 Hf2 31.6(17) 11 9
O4 Hf1 Hf2 33.4(14) 10 9
O4 Hf1 O4 103(3) 4 10
O4 Hf1 O4 67(3) . 10
O4 Hf1 O4 65(3) 11 10
O4 Hf1 O4 103(3) 11 .
O4 Hf1 O4 65(3) 4 .
O4 Hf1 O4 73(3) 4 11
O4 Hf1 O13 76.4(19) 11 10
O4 Hf1 O13 146(2) 4 10
O4 Hf1 O13 146(2) 11 .
O4 Hf1 O13 76.4(19) 4 .
O4 Hf1 O20 89(2) 4 .
O4 Hf1 O20 89(2) 11 .
O13 Hf1 Hf1 110.2(12) 10 11
O13 Hf1 Hf1 107.0(12) 10 3
O13 Hf1 Hf1 110.2(12) . 11
O13 Hf1 Hf1 107.0(12) . 3
O13 Hf1 Hf2 160.9(12) 10 .
O13 Hf1 Hf2 160.9(12) . 9
O13 Hf1 Hf2 72.5(12) 10 9
O13 Hf1 Hf2 72.5(12) . .
O13 Hf1 O4 138.9(19) 10 .
O13 Hf1 O4 76.9(18) 10 10
O13 Hf1 O4 76.9(18) . .
O13 Hf1 O4 138.9(19) . 10
O13 Hf1 O13 126(2) . 10
O13 Hf1 O20 75.2(14) 10 .
O13 Hf1 O20 75.2(14) . .
O19 Hf1 Hf1 84(2) . 3
O19 Hf1 Hf1 174(2) . 11
O19 Hf1 Hf2 116.9(13) . 9
O19 Hf1 Hf2 116.9(13) . .
O19 Hf1 O4 88(2) . 10
O19 Hf1 O4 142.4(17) . 4
O19 Hf1 O4 88(2) . .
O19 Hf1 O4 142.4(17) . 11
O19 Hf1 O13 71.7(14) . 10
O19 Hf1 O13 71.7(14) . .
O19 Hf1 O20 102(3) . .
O20 Hf1 Hf1 84.0(18) . 11
O20 Hf1 Hf1 174.0(18) . 3
O20 Hf1 Hf2 116.8(11) . 9
O20 Hf1 Hf2 116.8(11) . .
O20 Hf1 O4 145.4(16) . .
O20 Hf1 O4 145.4(16) . 10
Hf1 Hf2 Hf1 60.85(10) 3 9
Hf1 Hf2 Hf1 60.85(10) 11 .
Hf1 Hf2 Hf1 91.48(18) 3 11
Hf1 Hf2 Hf1 60.85(10) 9 11
Hf1 Hf2 Hf1 91.48(18) 9 .
Hf1 Hf2 Hf1 60.85(10) 3 .
O1 Hf2 Hf1 76.5(11) 2 9
O1 Hf2 Hf1 114.1(11) 4 .
O1 Hf2 Hf1 167.6(12) 3 11
O1 Hf2 Hf1 76.5(11) . .
O1 Hf2 Hf1 114.1(11) 2 11
O1 Hf2 Hf1 167.6(12) . 9
O1 Hf2 Hf1 114.1(11) . 3
O1 Hf2 Hf1 167.6(12) 2 .
O1 Hf2 Hf1 109.6(11) 2 3
O1 Hf2 Hf1 109.6(11) 3 .
O1 Hf2 Hf1 167.6(12) 4 3
O1 Hf2 Hf1 109.6(11) . 11
O1 Hf2 Hf1 76.5(11) 3 3
O1 Hf2 Hf1 109.6(11) 4 9
O1 Hf2 Hf1 76.5(11) 4 11
O1 Hf2 Hf1 114.1(11) 3 9
O1 Hf2 O1 116(2) . 2
O1 Hf2 O1 73.5(11) 3 2
O1 Hf2 O1 73.5(11) 4 2
O1 Hf2 O1 73.5(11) . 4
O1 Hf2 O1 116(2) 4 3
O1 Hf2 O1 73.5(11) . 3
O4 Hf2 Hf1 32.3(18) . 3
O4 Hf2 Hf1 91.2(16) . 11
O4 Hf2 Hf1 37.4(17) 2 9
O4 Hf2 Hf1 32.3(18) 3 9
O4 Hf2 Hf1 32.3(18) 2 11
O4 Hf2 Hf1 91.2(16) 4 9
O4 Hf2 Hf1 32.3(18) 4 .
O4 Hf2 Hf1 37.4(17) 4 11
O4 Hf2 Hf1 37.4(17) . .
O4 Hf2 Hf1 88.3(18) 2 .
O4 Hf2 Hf1 91.2(16) 2 3
O4 Hf2 Hf1 91.2(16) 3 .
O4 Hf2 Hf1 88.3(18) . 9
O4 Hf2 Hf1 88.3(18) 4 3
O4 Hf2 Hf1 37.4(17) 3 3
O4 Hf2 Hf1 88.3(18) 3 11
O4 Hf2 O1 84(2) 2 2
O4 Hf2 O1 148(2) 4 2
O4 Hf2 O1 77(2) 2 4
O4 Hf2 O1 148(2) 3 .
O4 Hf2 O1 84(2) 4 4
O4 Hf2 O1 137(2) 4 3
O4 Hf2 O1 137(2) . 2
O4 Hf2 O1 77(2) 3 2
O4 Hf2 O1 137(2) 3 4
O4 Hf2 O1 77(2) 4 .
O4 Hf2 O1 148(2) 2 3
O4 Hf2 O1 137(2) 2 .
O4 Hf2 O1 148(2) . 4
O4 Hf2 O1 77(2) . 3
O4 Hf2 O1 84(2) . .
O4 Hf2 O1 84(2) 3 3
O4 Hf2 O4 108(3) 3 4
O4 Hf2 O4 69.6(17) 3 2
O4 Hf2 O4 69.6(17) 3 .
O4 Hf2 O4 69.6(17) 4 2
O4 Hf2 O4 108(3) 2 .
O4 Hf2 O4 69.6(17) 4 .
C12 O1 Hf2 136(3) . .
Hf1 O4 Hf1 110(2) 3 .
Hf2 O4 Hf1 116(3) . 3
Hf2 O4 Hf1 109(2) . .
C12 O13 Hf1 142(3) . .
C8 C3 C4 117.6(11) . .
C9 C3 C4 113(4) . .
C9 C3 C8 130(4) . .
C3 C4 H4 120.0 . .
C5 C4 C3 120(3) . .
C5 C4 H4 119.9 . .
C4 C5 H5 118.9 . .
C4 C5 C6 122(3) . .
C6 C5 H5 118.8 . .
C5 C6 C7 117.6(11) . .
C12 C6 C5 123(4) . .
C12 C6 C7 119(4) . .
C6 C7 H7 120.0 . .
C8 C7 C6 120(3) . .
C8 C7 H7 119.9 . .
C3 C8 H8 118.8 . .
C7 C8 C3 122(3) . .
C7 C8 H8 118.9 . .
C16 C9 C3 122.5(14) . .
C10 C9 C3 115.8(18) . .
C15 C16 C9 121.7 . .
C17 C16 C9 122.4(2) . .
C17 C16 C15 115.9(2) . .
C16 C15 C15 120(5) . 2_565
C16 C15 C15 115(7) . 8
C16 C15 C15D 121.4 . .
C15 C15 C16 79(10) 7_455 .
C15 C15 C15 88(8) 7_455 2_565
C15 C15 C15 88(7) 7_455 8
C15 C15 C15 5(10) 2_565 8
C15 C15 C15D 104(10) 7_455 .
C15D C15 C15 123(7) . 8
C15D C15 C15 119(5) . 2_565
C9 C15D C15 114(5) 7_455 7_455
C9 C15D C15 115(3) 7_455 .
C9 C15D C9D 7(6) 7_455 .
C15 C15D C15 4(8) . 7_455
C9D C15D C15 116(2) . 7_455
C9D C15D C15 116.7 . .
C9 C9D C15D 46(10) 7_455 .
C9 C9D C10 104(10) 7_455 .
C15D C9D C10 120.0 . .
C9D C10 C9 120.0 . .
C11 C10 C9 120.0(2) . .
C11 C10 C9D 120.0(2) . .
C10 C11 H11A 114.8 . .
C10 C11 H11B 114.8 . .
C10 C11 H11C 114.8 . .
H11A C11 H11B 103.6 . .
H11A C11 H11C 103.6 . .
H11B C11 H11C 103.7 . .
O1 C12 C6 122(3) . .
O13 C12 O1 112(4) . .
O13 C12 C6 123(3) . .
C16 C17 H 109.7 . .
C16 C17 HA 109.7 . .
C16 C17 HB 109.8 . .
H C17 HA 109.2 . .
H C17 HB 109.2 . .
HA C17 HB 109.2 . .
loop_
_geom_bond_atom_site_label_1
_geom_bond_atom_site_label_2
_geom_bond_distance
_geom_bond_site_symmetry_2
Hf1 Hf1 3.511(7) 11
Hf1 Hf1 3.511(7) 3
Hf1 Hf2 3.466(6) .
Hf1 Hf2 3.466(6) 9
Hf1 O4 2.06(6) 11
Hf1 O4 2.23(6) .
Hf1 O4 2.06(6) 4
Hf1 O4 2.23(6) 10
Hf1 O13 2.139(19) 10
Hf1 O13 2.139(19) .
Hf1 O19 2.05(7) .
Hf1 O20 2.19(7) .
Hf2 Hf1 3.466(6) 11
Hf2 Hf1 3.466(6) 9
Hf2 Hf1 3.466(6) 3
Hf2 O1 2.120(19) 2
Hf2 O1 2.120(19) 3
Hf2 O1 2.120(19) .
Hf2 O1 2.120(19) 4
Hf2 O4 2.02(6) 2
Hf2 O4 2.02(6) 3
Hf2 O4 2.02(6) 4
Hf2 O4 2.02(6) .
O1 C12 1.409(9) .
O4 Hf1 2.06(6) 3
O13 C12 1.407(9) .
C3 C4 1.46(5) .
C3 C8 1.42(5) .
C3 C9 1.412(6) .
C4 H4 0.9300 .
C4 C5 1.391(10) .
C5 H5 0.9300 .
C5 C6 1.43(5) .
C6 C7 1.46(5) .
C6 C12 1.411(6) .
C7 H7 0.9300 .
C7 C8 1.390(10) .
C8 H8 0.9300 .
C9 C16 1.3900 .
C9 C10 1.3900 .
C16 C15 1.2705 .
C16 C17 1.311(4) .
C15 C15 0.1(2) 7_455
C15 C15 1.48(7) 2_565
C15 C15 1.48(8) 8
C15 C15D 1.4878 .
C15D C9 1.25(5) 7_455
C15D C15 1.52(9) 7_455
C15D C9D 1.3900 .
C9D C9 0.22(11) 7_455
C9D C10 1.3900 .
C10 C11 1.351(4) .
C11 H11A 1.0069 .
C11 H11B 1.0068 .
C11 H11C 1.0071 .
C17 H 0.9623 .
C17 HA 0.9623 .
C17 HB 0.9623 .
loop_
_geom_torsion_atom_site_label_1
_geom_torsion_atom_site_label_2
_geom_torsion_atom_site_label_3
_geom_torsion_atom_site_label_4
_geom_torsion
_geom_torsion_site_symmetry_1
_geom_torsion_site_symmetry_4
Hf1 O13 C12 O1 1(6) . .
Hf1 O13 C12 C6 162(3) . .
Hf2 O1 C12 O13 -12(6) . .
Hf2 O1 C12 C6 -174(2) . .
C3 C4 C5 C6 0.0(4) . .
C3 C9 C16 C15 -168(5) . .
C3 C9 C16 C17 14(5) . .
C3 C9 C10 C9D 166(5) . .
C3 C9 C10 C11 -14(5) . .
C4 C3 C8 C7 0.0(3) . .
C4 C3 C9 C16 -82(3) . .
C4 C3 C9 C10 112(3) . .
C4 C5 C6 C7 0.0(3) . .
C4 C5 C6 C12 180.0(2) . .
C5 C6 C7 C8 0.0(4) . .
C5 C6 C12 O1 172(3) . .
C5 C6 C12 O13 12(3) . .
C6 C7 C8 C3 0.0(5) . .
C7 C6 C12 O1 -8(3) . .
C7 C6 C12 O13 -168(3) . .
C8 C3 C4 C5 0.0(4) . .
C8 C3 C9 C16 98(3) . .
C8 C3 C9 C10 -68(3) . .
C9 C3 C4 C5 180.0(2) . .
C9 C3 C8 C7 180.0(3) . .
C9 C16 C15 C15 -177(5) . 8
C9 C16 C15 C15 -95(21) . 7_455
C9 C16 C15 C15 -175(9) . 2_565
C9 C16 C15 C15D 5.3 . .
C9 C15D C9D C10 80(23) 7_455 .
C9 C9D C10 C9 47(27) 7_455 .
C9 C9D C10 C11 -134(27) 7_455 .
C16 C15 C15D C9 -13(7) . 7_455
C16 C15 C15D C15 -85(23) . 7_455
C16 C15 C15D C9D -5.1 . .
C15 C15 C15D C9 169(11) 8 7_455
C15 C15 C15D C9 168(15) 2_565 7_455
C15 C15 C15D C9 73(23) 7_455 7_455
C15 C15 C15D C15 97(22) 8 7_455
C15 C15 C15D C15 95(29) 2_565 7_455
C15 C15 C15D C9D 177(5) 8 .
C15 C15 C15D C9D 80(23) 7_455 .
C15 C15 C15D C9D 176(9) 2_565 .
C15 C15D C9D C9 -78(23) . 7_455
C15 C15D C9D C9 -73(22) 7_455 7_455
C15 C15D C9D C10 7(9) 7_455 .
C15 C15D C9D C10 2.3 . .
C15D C9D C10 C9 0.0 . .
C15D C9D C10 C11 179.3(6) . .
C12 C6 C7 C8 180.0(3) . .
C17 C16 C15 C15 3(9) . 2_565
C17 C16 C15 C15 84(21) . 7_455
C17 C16 C15 C15 2(5) . 8
C17 C16 C15 C15D -175.82(15) . .
loop_
_exptl_oxdiff_crystal_face_indexfrac_h
_exptl_oxdiff_crystal_face_indexfrac_k
_exptl_oxdiff_crystal_face_indexfrac_l
_exptl_oxdiff_crystal_face_x
_exptl_oxdiff_crystal_face_y
_exptl_oxdiff_crystal_face_z
5.0010 -0.9990 3.0002 -0.0072 -0.1557 0.1283
4.9999 0.9999 -3.0009 -0.0047 -0.2012 -0.0144
1.9992 1.9990 -5.0010 0.0106 -0.1115 -0.1019
-1.0011 1.9987 -5.0008 0.0142 -0.0044 -0.1360
-3.0013 1.9985 -5.0007 0.0166 0.0670 -0.1588
-5.0010 0.9990 -3.0002 0.0072 0.1557 -0.1283
-5.0003 -0.0006 1.0006 0.0164 0.1839 -0.0388
-2.9993 -1.9990 5.0011 -0.0094 0.1472 0.0905
0.0010 -1.9988 5.0009 -0.0130 0.0401 0.1246
2.0012 -1.9986 5.0007 -0.0154 -0.0313 0.1474
-1.0005 -4.9955 -4.0023 -0.2040 0.0461 0.0013
1.0005 4.9955 4.0023 0.2040 -0.0461 -0.0013
