#------------------------------------------------------------------------------
#$Date: 2019-11-25 22:30:06 +0200 (Mon, 25 Nov 2019) $
#$Revision: 241967 $
#$URL: file:///home/coder/svn-repositories/cod/cif/4/13/18/4131833.cif $
#------------------------------------------------------------------------------
#
# This file is available in the Crystallography Open Database (COD),
# http://www.crystallography.net/
#
# All data on this site have been placed in the public domain by the
# contributors.
#
data_4131833
loop_
_publ_author_name
'Yan, Yong'
'O'Connor, Alice E'
'Kanthasamy, Gopikkaa'
'Atkinson, George'
'Allan, David R.'
'Blake, Alexander J.'
'Schr\"oder, Martin'
_publ_section_title
;
 Unusual and Tunable Negative Linear Compressibility in the Metal-Organic
 Framework MFM-133(M) (M = Zr, Hf).
;
_journal_issue                   11
_journal_name_full               'Journal of the American Chemical Society'
_journal_page_first              3952
_journal_page_last               3958
_journal_paper_doi               10.1021/jacs.7b11747
_journal_volume                  140
_journal_year                    2018
_chemical_formula_moiety         'C88 H72 Hf6 O32'
_chemical_formula_sum            'C88 H72 Hf6 O32'
_chemical_formula_weight         2708.36
_space_group_crystal_system      tetragonal
_space_group_IT_number           128
_space_group_name_Hall           '-P 4 2n'
_space_group_name_H-M_alt        'P 4/m n c'
_audit_creation_date             2016-03-16
_audit_creation_method
;
Olex2 1.2
(compiled 2015.09.30 svn.r3233 for OlexSys, GUI svn.r5103)
;
_cell_angle_alpha                90
_cell_angle_beta                 90
_cell_angle_gamma                90
_cell_formula_units_Z            2
_cell_length_a                   19.5041(13)
_cell_length_b                   19.5041(13)
_cell_length_c                   32.072(3)
_cell_measurement_reflns_used    3037
_cell_measurement_temperature    295(2)
_cell_measurement_theta_max      25.1460
_cell_measurement_theta_min      1.9360
_cell_volume                     12200.5(16)
_computing_cell_refinement
;
CrysAlisPro, Agilent Technologies,
Version 1.171.37.35 (release 13-08-2014 CrysAlis171 .NET)
(compiled Aug 13 2014,18:06:01)
;
_computing_data_collection
;
CrysAlisPro, Agilent Technologies,
Version 1.171.37.35 (release 13-08-2014 CrysAlis171 .NET)
(compiled Aug 13 2014,18:06:01)
;
_computing_data_reduction
;
CrysAlisPro, Agilent Technologies,
Version 1.171.37.35 (release 13-08-2014 CrysAlis171 .NET)
(compiled Aug 13 2014,18:06:01)
;
_computing_molecular_graphics    'Olex2 (Dolomanov et al., 2009)'
_computing_publication_material  'Olex2 (Dolomanov et al., 2009)'
_computing_structure_refinement  'ShelXL (Sheldrick, 2015)'
_computing_structure_solution    'ShelXS (Sheldrick, 2008)'
_diffrn_ambient_temperature      295(2)
_diffrn_detector                 'CCD plate'
_diffrn_detector_area_resol_mean 16.1592
_diffrn_detector_type            Eos
_diffrn_measured_fraction_theta_full 0.701
_diffrn_measured_fraction_theta_max 0.701
_diffrn_measurement_details
;
#__ type_ start__ end____ width___ exp.time_
  1 omega    4.00   60.00   1.0000   85.0000
omega____ theta____ kappa____ phi______ frames
    -       26.4870    0.0000  150.0000 56

#__ type_ start__ end____ width___ exp.time_
  2 omega   -5.00   40.00   1.0000   85.0000
omega____ theta____ kappa____ phi______ frames
    -       26.4870  -53.0000   17.0000 45

#__ type_ start__ end____ width___ exp.time_
  3 omega  -49.00  -16.00   1.0000   85.0000
omega____ theta____ kappa____ phi______ frames
    -       26.4870  134.0000  123.0000 33

#__ type_ start__ end____ width___ exp.time_
  4 omega  -30.00    5.00   1.0000   85.0000
omega____ theta____ kappa____ phi______ frames
    -       26.4870   39.0000  -12.0000 35

#__ type_ start__ end____ width___ exp.time_
  5 omega  -25.00   10.00   1.0000   85.0000
omega____ theta____ kappa____ phi______ frames
    -       26.4870   13.0000   -3.0000 35

#__ type_ start__ end____ width___ exp.time_
  6 omega   10.00   66.00   1.0000   85.0000
omega____ theta____ kappa____ phi______ frames
    -       26.4874  -97.0000 -143.0000 56

#__ type_ start__ end____ width___ exp.time_
  7 omega  -57.00   -4.00   1.0000   85.0000
omega____ theta____ kappa____ phi______ frames
    -      -28.0500   53.0000  -17.0000 53

#__ type_ start__ end____ width___ exp.time_
  8 omega    1.00   15.00   1.0000   85.0000
omega____ theta____ kappa____ phi______ frames
    -      -28.0500  -81.0000   29.0000 14

#__ type_ start__ end____ width___ exp.time_
  9 omega   13.00   26.00   1.0000   85.0000
omega____ theta____ kappa____ phi______ frames
    -      -28.0500  -97.0000   35.0000 13

#__ type_ start__ end____ width___ exp.time_
 10 omega  -20.00   13.00   1.0000   85.0000
omega____ theta____ kappa____ phi______ frames
    -      -28.0500  -53.0000   17.0000 33

#__ type_ start__ end____ width___ exp.time_
 11 omega   -5.00   27.00   1.0000   85.0000
omega____ theta____ kappa____ phi______ frames
    -      -28.0500  -97.0000 -143.0000 32

#__ type_ start__ end____ width___ exp.time_
 12 omega  -20.00    8.00   1.0000   85.0000
omega____ theta____ kappa____ phi______ frames
    -       26.4870   81.0000  151.0000 28

#__ type_ start__ end____ width___ exp.time_
 13 omega   -7.00   51.00   1.0000   85.0000
omega____ theta____ kappa____ phi______ frames
    -       26.4870  -37.0000 -180.0000 58

#__ type_ start__ end____ width___ exp.time_
 14 omega   29.00   70.00   1.0000   85.0000
omega____ theta____ kappa____ phi______ frames
    -       26.4870 -114.0000   44.0000 41

#__ type_ start__ end____ width___ exp.time_
 15 omega  -52.00    0.00   1.0000   85.0000
omega____ theta____ kappa____ phi______ frames
    -      -28.0500   39.0000  167.0000 52

#__ type_ start__ end____ width___ exp.time_
 16 omega  -25.00   29.00   1.0000   85.0000
omega____ theta____ kappa____ phi______ frames
    -      -28.0500  -39.0000   12.0000 54

#__ type_ start__ end____ width___ exp.time_
 17 omega  -28.00   19.00   1.0000   85.0000
omega____ theta____ kappa____ phi______ frames
    -      -28.0500  -39.0000 -167.0000 47

#__ type_ start__ end____ width___ exp.time_
 18 omega   27.00   37.00   1.0000   85.0000
omega____ theta____ kappa____ phi______ frames
    -      -28.0500 -114.0000   44.0000 10
;
_diffrn_measurement_device       'four-circle diffractometer'
_diffrn_measurement_device_type  'SuperNova, Single source at offset, Eos'
_diffrn_measurement_method       '\w scans'
_diffrn_orient_matrix_UB_11      -0.0016513000
_diffrn_orient_matrix_UB_12      0.0317447000
_diffrn_orient_matrix_UB_13      0.0106255000
_diffrn_orient_matrix_UB_21      -0.0350492000
_diffrn_orient_matrix_UB_22      -0.0060058000
_diffrn_orient_matrix_UB_23      0.0047563000
_diffrn_orient_matrix_UB_31      0.0097543000
_diffrn_orient_matrix_UB_32      -0.0164986000
_diffrn_orient_matrix_UB_33      0.0188394000
_diffrn_radiation_monochromator  mirror
_diffrn_radiation_probe          x-ray
_diffrn_radiation_type           MoK\a
_diffrn_radiation_wavelength     0.71073
_diffrn_reflns_av_R_equivalents  0.2276
_diffrn_reflns_av_unetI/netI     0.2924
_diffrn_reflns_Laue_measured_fraction_full 0.701
_diffrn_reflns_Laue_measured_fraction_max 0.701
_diffrn_reflns_limit_h_max       16
_diffrn_reflns_limit_h_min       -16
_diffrn_reflns_limit_k_max       10
_diffrn_reflns_limit_k_min       -10
_diffrn_reflns_limit_l_max       24
_diffrn_reflns_limit_l_min       -19
_diffrn_reflns_number            3862
_diffrn_reflns_point_group_measured_fraction_full 0.701
_diffrn_reflns_point_group_measured_fraction_max 0.701
_diffrn_reflns_theta_full        17.220
_diffrn_reflns_theta_max         17.220
_diffrn_reflns_theta_min         2.088
_diffrn_source                   'SuperNova (Mo) X-ray Source'
_exptl_absorpt_coefficient_mu    2.833
_exptl_absorpt_correction_T_max  1.00000
_exptl_absorpt_correction_T_min  0.08486
_exptl_absorpt_correction_type   multi-scan
_exptl_absorpt_process_details
;
CrysAlisPro, Agilent Technologies,
Version 1.171.37.35 (release 13-08-2014 CrysAlis171 .NET)
(compiled Aug 13 2014,18:06:01)
Empirical absorption correction using spherical harmonics,
 implemented in SCALE3 ABSPACK scaling algorithm.
Empirical absorption correction using spherical harmonics,
 implemented in SCALE3 ABSPACK scaling algorithm.
;
_exptl_crystal_density_diffrn    1.541
_exptl_crystal_F_000             5668
_exptl_crystal_size_max          0.1152
_exptl_crystal_size_mid          0.0844
_exptl_crystal_size_min          0.0508
_refine_diff_density_max         1.327
_refine_diff_density_min         -0.975
_refine_diff_density_rms         0.190
_refine_ls_extinction_coef       0.0005(3)
_refine_ls_extinction_expression Fc^*^=kFc[1+0.001xFc^2^\l^3^/sin(2\q)]^-1/4^
_refine_ls_extinction_method     'SHELXL-2014/7 (Sheldrick 2014'
_refine_ls_goodness_of_fit_ref   1.062
_refine_ls_hydrogen_treatment    undef
_refine_ls_matrix_type           full
_refine_ls_number_parameters     73
_refine_ls_number_reflns         1340
_refine_ls_number_restraints     113
_refine_ls_restrained_S_all      6.633
_refine_ls_R_factor_all          0.2378
_refine_ls_R_factor_gt           0.1388
_refine_ls_shift/su_max          0.005
_refine_ls_shift/su_mean         0.001
_refine_ls_structure_factor_coef Fsqd
_refine_ls_weighting_details
'w=1/[\s^2^(Fo^2^)+(0.2000P)^2^] where P=(Fo^2^+2Fc^2^)/3'
_refine_ls_weighting_scheme      calc
_refine_ls_wR_factor_gt          0.3201
_refine_ls_wR_factor_ref         0.3972
_reflns_Friedel_coverage         0.000
_reflns_number_gt                631
_reflns_number_total             1340
_reflns_threshold_expression     'I > 2\s(I)'
_cod_data_source_file            HfMOF_All.cif
_cod_data_source_block           hfmof_3.55kbar
_cod_original_cell_volume        12201(2)
_cod_database_code               4131833
_chemical_oxdiff_formula         'C88 H72 Hf6 O32'
_chemical_oxdiff_usercomment
'HfMOF1 in DAC, 4:1MeOH/EtOH, 3.6 kbar 28-10-2015'
_shelx_space_group_comment
;
The symmetry employed for this shelxl refinement is uniquely defined
by the following loop, which should always be used as a source of
symmetry information in preference to the above space-group names.
They are only intended as comments.
;
_reflns_odcompleteness_completeness 69.29
_reflns_odcompleteness_iscentric 1
_reflns_odcompleteness_theta     17.19
_olex2_refinement_description
;
1. Restrained distances
 O13-C12
 1.41 with sigma of 0.01
 C12-O1
 1.41 with sigma of 0.01
 C6-C12 = C9-C3
 1.41 with sigma of 0.02
 C6-C12 = C9-C3
 1.41 with sigma of 0.01
 C9-C3 = C6-C12
 1.41 with sigma of 0.01
 Hf1-O13 = Hf2-O1
 2.11 with sigma of 0.02
 O1-C12 = O13-C12
 1.41 with sigma of 0.02
 C9-C15 = C9-C10
 1.41 with sigma of 0.02
 C10-C11 = C16-C17
 1.45 with sigma of 0.005
 C4-C5 = C7-C8
 1.39 with sigma of 0.01
 C6-C12 \\sim C9-C3
 with sigma of 0.01
 C9-C3 \\sim C6-C12
 with sigma of 0.01
 C11-C10 \\sim C16-C15 \\sim C17-C15
 with sigma of 0.01
 C9-C17 \\sim C15-C17 \\sim C9-C11 \\sim C11-C9D
 with sigma of 0.005
 C3-C7 \\sim C8-C6 \\sim C7-C5 \\sim C6-C4 \\sim C5-C3 \\sim C4-C8
 with sigma of 0.01
2. Restrained angles
 C7-C6-C12
 fixed at 120 with sigma of 0.02
 C5-C6-C12
 fixed at 120 with sigma of 0.02
 C7-C6-C12
 fixed at 120 with sigma of 0.02
 C5-C6-C12
 fixed at 120 with sigma of 0.02
 C6-C12-C5
 fixed at 120 with sigma of 0.02
 C7-C6-C12
 fixed at 120 with sigma of 0.02
 C12-C6-C7
 fixed at 120 with sigma of 0.02
 C5-C6-C12
 fixed at 120 with sigma of 0.02
 C6-C12-O13
 fixed at 120 with sigma of 0.02
 O13-C12-C6
 fixed at 120 with sigma of 0.02
 C9-C3-C4
 fixed at 120 with sigma of 0.02
 C3-C9-C4
 fixed at 120 with sigma of 0.02
3. Restrained planarity
 C12, C6, C5, C4, C3, C9, C8, C7
 with sigma of 0.01
 C9, C3, C8, C7, C6, C12, C5, C4
 with sigma of 0.01
 C9, C3, C8, C4
 with sigma of 0.01
 C17, C15, C16, C10, C9, C11
 with sigma of 0.01
4. Rigid bond restraints
 C6, Hf2, Hf1, C8, C3, C5, C4, C7, C9, C10, C11, C12, C15, C16, C17, O1, O4,
 O13, O19, O20
 with sigma for 1-2 distances of 0.01 and sigma for 1-3 distances of 0.01
5. Uiso/Uaniso restraints and constraints
C6 \\sim Hf2 \\sim Hf1 \\sim C8 \\sim C3 \\sim C5 \\sim C4 \\sim C7 \\sim C9
\\sim C10 \\sim C11 \\sim C12 \\sim C15 \\sim C16 \\sim C17 \\sim O1 \\sim O4
\\sim O13 \\sim O19 \\sim O20: within 1.7A with sigma of 0.04 and sigma for
terminal atoms of 0.08
6. Same fragment restrains
{C16, C15, C15D, C9D, C10, C9} sigma for 1-2: 0.01, 1-3: 0.04
as
{C9, C16, C15, C15D, C9D, C10}
7. Others
 Fixed Sof: C16(0.5) C15(0.5) C15D(0.00001) C9D(0.00001) C10(0.5)
 Fixed Uiso: C15D(0.05) C9D(0.05)
8.a Fitted hexagon refined as free rotating group:
 C9(C16,C15,C15D,C9D,C10)
;
_shelx_res_file
;
    hfmof_3-3kbar.res created by SHELXL-2014/7

TITL HfMOF_3-3kbar in P4/mnc #128
REM reset to P4/mnc #128
REM DFIX 1.48 0.01 C20 C1
REM DFIX 1.48 0.01 C4 C7
REM SADI 0.01 C2 C6 C6 C20
REM SADI 0.01 O2 C20 O1 C20
REM SADI 0.01 C8 C7 C7 C9
REM SADI 0.01 C9 C7 C8 C7
REM SADI 0.01 C20 C1 C6 C1
REM SADI 0.01 C8 C7 C9 C7
REM FLAT 0.02 C20 C1 C2 C3 C4 C5 C6 C7
REM FLAT 0.02 O2 C20 O1 C1
REM FLAT 0.02 C8 C7 C4 C9
REM <item "olex2.restraint.angle 120 C2 C1 C20">
REM <item "olex2.restraint.angle 120 C6 C1 C20">
REM <item "olex2.restraint.angle 120 C7 C4 C5">
REM <item "olex2.restraint.angle 120 C3 C4 C7">
REM >
REM <HklSrc "%.\\HfMOF_3-3kbar.hkl">
REM </olex2.extras>
CELL 0.71073 19.504065 19.504065 32.07237 90 90 90
ZERR 13 0.0013 0.0013 0.003268 0 0 0
LATT 1
SYMM -Y,+X,+Z
SYMM -X,-Y,+Z
SYMM +Y,-X,+Z
SYMM 0.5+X,0.5-Y,0.5-Z
SYMM 0.5-X,0.5+Y,0.5-Z
SYMM 0.5+Y,0.5+X,0.5-Z
SYMM 0.5-Y,0.5-X,0.5-Z
SFAC C H O Hf
UNIT 572 468 104 13
DFIX 1.41 0.01 O13 C12
DFIX 1.41 0.01 C12 O1
DFIX 1.41 C6 C12 C9 C3
DFIX 1.41 0.01 C6 C12 C9 C3
DFIX 1.41 0.01 C9 C3 C6 C12
DFIX 2.11 Hf1 O13 Hf2 O1
DFIX 1.41 O1 C12 O13 C12
DFIX 1.41 C9 C15 C9 C10
DFIX 1.45 0.005 C10 C11 C16 C17
DFIX 1.39 0.01 C4 C5 C7 C8
SADI 0.01 C6 C12 C9 C3
SADI 0.01 C9 C3 C6 C12
SADI 0.01 C11 C10 C16 C15 C17 C15
SADI 0.005 C9 C17 C15 C17 C9 C11 C11 C9D
SADI 0.01 C3 C7 C8 C6 C7 C5 C6 C4 C5 C3 C4 C8
FLAT 0.01 C12 C6 C5 C4 C3 C9 C8 C7
FLAT 0.01 C9 C3 C8 C7 C6 C12 C5 C4
FLAT 0.01 C9 C3 C8 C4
FLAT 0.01 C17 C15 C16 C10 C9 C11
DELU C6 Hf2 Hf1 C8 C3 C5 C4 C7 C9 C10 C11 C12 C15 C16 C17 O1 O4 O13 O19 O20
SIMU 0.04 0.08 1.7 C6 Hf2 Hf1 C8 C3 C5 C4 C7 C9 C10 C11 C12 C15 C16 C17 O1 =
 O4 O13 O19 O20

L.S. 6
PLAN  9
MPLA 6 C3 C4 C5 C6 C7 C8
MPLA 4 C9 C10 C15 C16
BIND Hf1 Hf2
BOND
MORE -1
BOND $H
CONF
fmap 2
acta 52
OMIT 2 3 3
OMIT 1 2 0
OMIT 2 5 3
OMIT 0 5 5
OMIT 1 3 5
OMIT 2 14 9
OMIT 3 4 3
OMIT 0 3 5
OMIT 4 15 0
OMIT 2 2 2
OMIT 0 3 3
OMIT 1 3 1
OMIT 2 5 1
OMIT 1 1 8
OMIT 8 10 13
OMIT 3 5 2
OMIT 4 6 17
OMIT 1 3 7
OMIT 6 6 18
OMIT 4 6 2
OMIT 7 7 18
OMIT 6 10 15
OMIT 1 2 4
OMIT 7 9 18
REM <olex2.extras>
REM <restraints
REM  <item "olex2.restraint.angle 120 C7 C6 C12">
REM  <item "olex2.restraint.angle 120 C5 C6 C12">
REM  <item "olex2.restraint.angle 120 C7 C6 C12">
REM  <item "olex2.restraint.angle 120 C5 C6 C12">
REM  <item "olex2.restraint.angle 120 C6 C12 C5">
REM  <item "olex2.restraint.angle 120 C7 C6 C12">
REM  <item "olex2.restraint.angle 120 C12 C6 C7">
REM  <item "olex2.restraint.angle 120 C5 C6 C12">
REM  <item "olex2.restraint.angle 120 C6 C12 O13">
REM  <item "olex2.restraint.angle 120 O13 C12 C6">
REM  <item "olex2.restraint.angle 120 C9 C3 C4">
REM  <item "olex2.restraint.angle 120 C3 C9 C4">
REM >
REM <HklSrc "%.\\HfMOF_3-3kbar.hkl">
REM </olex2.extras>

WGHT    0.200000
EXTI    0.000454
FVAR       0.15311
HF1   4   -0.041136    0.120794    0.000000    10.50000    0.08663    0.07722 =
         0.04516    0.00000    0.00000   -0.00100
HF2   4    0.000000    0.000000    0.076577    10.25000    0.06961    0.06961 =
         0.05654    0.00000    0.00000    0.00000
O1    3   -0.026939    0.088356    0.111140    11.00000    0.06364
O4    3   -0.077781    0.041665    0.035824    11.00000    0.06400
O13   3   -0.059549    0.168406    0.059243    11.00000    0.06267
O19   3   -0.145113    0.163020    0.000000    10.50000    0.05699
O20   3    0.020476    0.217936    0.000000    10.50000    0.12229
C3    1   -0.065789    0.310667    0.193335    11.00000    0.07654
C4    1   -0.080751    0.328205    0.148898    11.00000    0.10782
C5    1   -0.075526    0.274390    0.120709    11.00000    0.10150
C6    1   -0.058484    0.209138    0.129925    11.00000    0.07203
C7    1   -0.043551    0.191547    0.174312    11.00000    0.11894
C8    1   -0.048754    0.245400    0.202505    11.00000    0.09768
SAME 0.01 0.04 C16 C15 C15D C9D C10 C9
AFIX  66
C9    1   -0.071510    0.366420    0.221231    11.00000    0.06423
C16   1   -0.020434    0.416089    0.220145    10.50000    0.00668
C15   1   -0.024174    0.472618    0.246438    10.50000    0.02494
C15D  1   -0.078990    0.479479    0.273818    10.00001   10.05000
C9D   1   -0.130067    0.429811    0.274904    10.00001   10.05000
C10   1   -0.126335    0.373614    0.249571    10.50000    0.09912
AFIX   0
C11   1   -0.176058    0.323942    0.250000    10.50000    0.16719
C12   1   -0.052858    0.153707    0.101922    11.00000    0.06956
C17   1    0.032998    0.418134    0.196985    11.00000    0.11358
HKLF 4

REM  HfMOF_3-3kbar in P4/mnc #128
REM R1 =  0.1388 for     631 Fo > 4sig(Fo)  and  0.2378 for all    1340 data
REM     73 parameters refined using    113 restraints

END

WGHT      0.2000      0.0000

REM Highest difference peak  1.327,  deepest hole -0.975,  1-sigma level  0.190
Q1    1  -0.0503  0.0875  0.1006  11.00000  0.05    0.85
Q2    1  -0.0600  0.1651  0.0723  11.00000  0.05    0.84
Q3    1   0.0042  0.0766  0.1364  11.00000  0.05    0.82
Q4    1   0.0490  0.3621 -0.0623  11.00000  0.05    0.74
Q5    1  -0.0370  0.2052  0.0647  11.00000  0.05    0.73
Q6    1   0.0000  0.0000  0.2349  10.25000  0.05    0.73
Q7    1  -0.1773  0.1241  0.0888  11.00000  0.05    0.71
Q8    1  -0.1135  0.0204  0.0573  11.00000  0.05    0.61
Q9    1   0.2182  0.4338  0.1576  11.00000  0.05    0.60
;
_shelx_res_checksum              60732
_shelx_hkl_file
;
   0  -1   5 961.706 188.890   2
   0  -1   6 6.62511 21.0139   2
   0  -1   7 673.313 172.798   2
   0  -1   8 6.32177 39.0396   2
   0  -1   9 3401.73 464.372   2
   0  -1  10-27.3697 74.7929   2
   0  -1  11 5400.13 647.941   2
   0  -1  12 24.2619 121.423   2
   0  -1  13 4518.79 656.072   2
   0  -1  14 211.186 288.006   2
   0  -1  15 4938.72 752.557   2
   0  -1  16 817.648 322.624   2
   0  -1  17 2817.76 588.610   2
   0  -1  18 140.659 249.432   2
  -1  -1   5-17.3140 41.6742   2
   1  -1   5-3.40860 23.5593   2
   1  -1   6 393.706 122.378   2
  -1  -1   6 247.976 103.901   2
  -1  -1   7-8.12813 29.9724   2
   1  -1   7-6.68395 48.7999   2
   1  -1   8 1253.71 247.630   2
  -1  -1   8 1378.73 290.036   2
   1  -1   9-21.2117 50.7978   2
  -1  -1   9-21.4868 21.3101   2
  -1  -1  10 3162.32 493.307   2
   1  -1  10 3083.83 434.827   2
  -1  -1  11 30.1819 129.754   2
   1  -1  11 9.63519 5.91771   2
  -1  -1  12 4119.01 614.770   2
   1  -1  12 3790.19 544.581   2
   1  -1  13 84.4369 136.320   2
  -1  -1  13 126.206 276.412   2
  -1  -1  14 3158.94 580.501   2
   1  -1  14 2783.55 524.072   2
  -1  -1  15 593.138 434.811   2
   1  -1  15 49.8834 92.5008   2
   1  -1  16 2059.90 450.019   2
  -1  -1  16 2194.11 520.437   2
  -1  -1  17 897.876 333.945   2
   1  -1  17 73.0424 163.770   2
  -1  -1  18 892.221 392.093   2
   1  -1  18 812.370 300.530   2
  -2   0   0 8655.15 467.579   5
  -2   0   0 8105.94 421.642   4
   2   0  -1 3.43393 7.11394  14
  -2   0   1-1.57275 11.9663   2
  -2   0   1 12.5611 22.3731   4
  -2   0   1 2.50639 14.8450   5
  -2   0   2 2940.08 218.361   5
  -2   0   2 2293.26 242.978   2
   2   0  -2 2968.40 211.210  14
  -2   0   2 3083.65 202.428  19
  -2   0   3-1.90614 11.7064   2
  -2   0   4 853.908 177.958   2
  -2   0   5-18.8352 72.9056   2
   0  -2  12 2358.01 467.372   2
   0  -2  13-50.3390 128.956   2
   0  -2  14 2433.39 494.061   2
   0  -2  15 138.377 139.657   2
   0  -2  16 722.408 310.027   2
   0  -2  17-108.220 179.144   2
   0  -2  18 30.2579 108.195   2
   0  -2  19-100.134 234.878   2
   0  -2  20-45.6220 149.499   2
   0  -2  21-14.3611 182.205   2
   0  -2  22 150.177 242.201   2
   0  -2  23 311.944 116.585   2
   0  -2  24 78.5331 485.321   2
  -2   1   0 318.365 72.6937  19
   2  -1   0 272.797 65.9904   8
   2   1  -1 2857.90 353.082  18
   2  -1   1 3987.08 267.550  14
  -2   1  -1 3827.16 261.187   4
  -2   1  -1 3605.74 225.656   5
   2  -1   2 198.719 69.2569  14
  -2   1  -2 207.232 58.3058   5
  -2   1  -2 200.385 72.0665   4
  -2   1  -3 1764.27 205.221   5
   1   2  -3 1047.20 258.645  18
  -2  -1   3 1594.39 207.823   5
   1  -2   3 1495.73 152.123   8
  -1   2  -4 94.9877 36.0363  19
  -1   2  -4 98.1099 35.2707   4
  -2  -1   4 71.3234 36.3762   5
   2  -1   5 556.160 103.444   2
  -1   2  -5 463.410 104.105   4
   1  -2   5 484.429 86.0870  14
  -2  -1   5 464.356 96.2977   5
  -2  -1   6 29.8170 61.7393   2
   2  -1   6 54.5952 38.1588   2
  -2  -1   6 51.8163 25.8978   5
   2  -1   7 98.2447 56.9408   2
  -2  -1   7 80.4620 73.5587   2
  -1  -2   7 47.5750 32.2550   5
   2  -1   8 228.705 99.4579   2
  -1  -2   8 260.929 62.2450   5
  -2  -1   8 335.037 155.112   2
   2  -1   9 27.1186 47.4595   2
  -1  -2   9 59.8939 30.0777   5
  -2  -1   9 42.0559 25.1898   2
  -1  -2  10 3.80128 22.0721   5
   2  -1  10 13.2421 33.8137   2
  -2  -1  10 56.7445 99.6962   2
  -2  -1  11 1545.00 372.286   2
   2  -1  11 1498.46 295.952   2
  -1  -2  12 88.3612 155.247   2
   2  -1  12 28.9790 73.1421   2
   1  -2  12 10.9906 67.1994   2
   2  -1  13 1810.81 372.131   2
  -1  -2  13 2341.12 487.974   2
   1  -2  13 1985.83 443.475   2
  -2  -1  13 1853.68 451.108   2
   1  -2  14 27.2315 65.4000   2
   2  -1  14 26.7215 39.2373   2
  -2  -1  14 12.9586 182.540   2
  -1  -2  14 159.693 291.968   2
   2  -1  15 391.597 190.639   2
   1  -2  15 341.119 179.285   2
  -1  -2  15 533.501 291.619   2
  -2  -1  15 481.933 256.477   2
  -2  -1  16 502.727 365.521   2
   2  -1  16 133.228 119.639   2
  -1  -2  16 198.789 158.950   2
   1  -2  16 19.4666 71.9877   2
   1  -2  17 87.9340 99.8839   2
   2  -1  17 91.5824 69.2583   2
  -2  -1  17-51.8133 75.5606   2
  -1  -2  17-15.3015 136.808   2
   1  -2  18 245.555 267.335   2
  -1  -2  18-155.552 169.380   2
  -2  -1  18 134.253 182.481   2
   2  -1  18 74.0970 127.716   2
  -1  -2  19 37.8329 125.616   2
  -2  -1  19 246.009 272.898   2
   1  -2  20-8.94486 154.419   2
  -1  -2  20 89.3842 60.1851   2
  -1  -2  21 81.2950 161.405   2
   1  -2  21 437.261 284.501   2
   1  -2  22-169.484 178.955   2
  -1  -2  22 312.186 236.109   2
   1  -2  23 89.2497 311.706   2
  -1  -2  23 302.872 366.421   2
   1  -2  24-27.1877 166.803   2
   2  -2   2 389.994 94.0034   8
  -2   2  -2 491.221 93.2247  19
  -2   2  -3 2.97024 16.0120  19
   2  -2   3-5.09733 11.2686  14
   2  -2   3 6.97196 20.7993   8
  -2   2  -4 270.741 61.3489   5
  -2   2  -4 269.958 77.0983   4
   2  -2   4 314.120 83.5929  14
   2  -2   5 3.50101 25.4826  14
  -2   2  -5 1.86003 19.8501   5
  -2   2  -5-0.64553 14.5845   4
  -2  -2   7 25.5127 51.9777   5
  -2  -2   8 176.105 66.1451   5
  -2  -2   9 25.3047 44.2142   5
  -2  -2  10 19.8479 31.9820   5
  -2  -2  11 2.06894 1.37142   5
   2  -2  12 1537.19 345.577   2
  -2  -2  12 977.116 155.290   5
  -2  -2  13 170.338 183.702   2
   2  -2  13-124.694 128.921   2
  -2  -2  14 488.629 231.806   2
   2  -2  14 563.906 197.429   2
  -2  -2  15 85.1302 175.132   2
   2  -2  15 70.4301 62.3604   2
  -2  -2  16-126.194 100.503   2
   2  -2  16 63.7612 130.799   2
  -2  -2  17 156.587 184.254   2
   2  -2  17-97.9860 146.631   2
   2  -2  18 309.399 206.740   2
  -2  -2  18 398.539 245.788   2
  -2  -2  19 19.0481 83.5533   2
   2  -2  19-136.227 120.024   2
   2  -2  20 814.471 261.172   2
  -2  -2  20 312.608 290.626   2
  -2  -2  21 168.215 141.422   2
   2  -2  21 24.8144 127.155   2
  -2  -2  22-13.8252 186.580   2
   2  -2  22-208.941 159.022   2
   2  -2  23 104.919 134.064   2
  -2  -2  23-10.9429 103.158   2
   2  -2  24-92.6585 262.007   2
  -3   0   0-25.8364 33.3497   5
  -3   0   1 2061.60 248.892   5
  -3   0   1 2358.26 250.415   4
  -3   0   2 0.35909 9.56536   4
   3   0  -2 0.01931 13.8024   8
  -3   0   2-3.15144 25.7195   5
  -3   0   2-0.26235 31.9378   2
   3   0  -2-0.41677 20.4680  14
   3   0   2 14.1642 13.1570  18
  -3   0   3 34.4430 29.2237   5
  -3   0   3 65.6987 45.9041  19
   3   0  -3 38.6863 28.3314  14
  -3   0   3 68.7241 52.6577   2
   3   0  -4 5.64406 19.4054  14
  -3   0   4-21.0674 27.4530   2
  -3   0   4-7.15779 21.9659   5
  -3   0   5-92.2424 65.8277   2
   0   3  -5 19.5866 72.5569  18
  -3   0   6 4.70962 19.2565   2
   0  -3   7 2944.99 206.179   8
  -3   0   7 2265.51 381.067   2
  -3   0   8-10.5297 42.8619   2
  -3   0   9 42.4964 104.169   2
  -3   0  10 26.5351 72.3209   2
  -3   0  11 77.0045 116.292   2
  -3   0  12-51.6315 115.464   2
  -3   0  13 153.572 149.755   2
   0  -3  17 157.859 52.9854   5
   0  -3  18 121.565 39.0035   5
   3  -1   0 835.301 145.096   8
   3  -1   0 898.338 150.544  14
  -3   1   0 889.918 139.627   5
   3   1   0 662.143 201.300  18
   3  -1   1 599.889 131.191  14
  -3   1   1 510.379 108.402  19
  -3   1  -1 574.657 130.891   4
   3  -1  -1 448.775 99.1086  14
   3  -1  -1 375.648 90.4042   8
  -3   1  -1 571.610 120.624   5
  -3   1  -2 251.229 95.4829   4
   3  -1   2 269.991 96.9946  14
  -3   1  -2 197.206 82.3589   5
  -3  -1   3 230.583 96.5659   5
  -3   1  -3 259.581 108.462   5
  -3  -1   4 415.046 99.9055   4
   3   1  -4 416.035 72.3988   8
  -3  -1   4 390.791 113.507   5
  -3  -1   5 457.409 88.9575  19
  -3  -1   5 432.827 113.982   5
  -3  -1   5 465.082 93.6730   4
   1   3  -5 537.627 200.175  18
  -3  -1   6 1588.46 320.243   2
   3  -1   6 1443.48 173.653   2
  -3  -1   6 1331.70 205.310   5
  -1   3  -6 1822.72 186.126   4
   1  -3   6 1235.84 156.230   8
  -3  -1   7 220.242 80.1907   5
  -3  -1   7 93.1945 85.6174   2
   1  -3   7 312.488 78.7152  14
   3   1  -7 153.753 53.1065  14
  -1   3  -7 204.908 53.4232  19
  -1   3  -7 243.829 82.8970   4
   3  -1   7 214.284 69.9099   2
   3  -1   8 355.245 98.3401   2
   1  -3   8 672.296 120.334  14
  -3  -1   8 490.566 118.677   5
  -3  -1   8 445.500 191.806   2
   3   1  -8 321.091 72.0733  14
   3   1  -9 264.525 64.3152  14
   3  -1   9 386.320 124.946   2
  -3  -1   9 539.387 209.935   2
   3  -1  10 5.50977 40.0419   2
  -3  -1  10 9.65340 59.2964   2
  -3  -1  11 70.4417 109.052   2
   3  -1  11 152.591 103.755   2
   3  -1  12 97.5976 36.9859   2
  -3  -1  12 378.167 231.012   2
   3  -1  13-70.9301 83.3696   2
  -3  -1  13 72.0339 112.369   2
  -1  -3  13-18.3039 32.0180   5
   3  -1  14 256.995 102.977   2
  -3  -1  14 178.196 71.5113   2
  -1  -3  14 151.828 63.4900   5
  -1  -3  15 202.817 73.0598   5
  -3  -1  15 134.520 134.230   2
   3  -1  15 262.414 163.385   2
  -3  -1  16 312.101 193.233   2
   3  -1  16 120.725 109.056   2
  -1  -3  16 59.4017 41.3535   5
  -1  -3  17 124.429 68.4834   5
   3  -1  17 211.635 140.850   2
  -3  -1  17 266.955 226.765   2
  -1  -3  18 694.975 139.832   5
  -3  -1  18 908.885 416.312   2
   3  -1  18 842.802 313.930   2
  -3  -1  19 363.537 270.013   2
  -3   2  -1 80.8373 41.2130  19
   3  -2   1 88.9819 53.5304   8
   3  -2   2 657.104 132.337  14
   3   2  -2 575.100 236.365  18
   3  -2   2 811.856 151.223   8
  -3   2  -2 881.190 155.790  19
  -3   2  -3 308.424 80.1043   5
  -3   2  -3 434.766 111.249   4
   3  -2   3 377.443 104.579  14
   2   3  -4 192.075 117.136  18
  -3   2  -4 179.935 70.2416   4
   3  -2   4 193.636 77.8093  14
  -3   2  -4 210.896 74.3829   5
  -3   2  -5 1086.22 212.078   4
   2  -3   5 1141.84 172.676   8
  -2   3  -5 1017.36 149.440  19
  -3   2  -5 1117.51 191.497   5
  -2   3  -6 159.798 33.9100  18
  -2   3  -6 273.264 83.5253  19
   2  -3   6 290.002 83.7358  14
  -2   3  -6 322.304 94.4562   4
  -2   3  -6 309.394 60.7702   5
   2  -3   7 3835.89 332.007  14
  -2   3  -7 3454.45 240.835   5
  -3  -2   7 2604.46 331.714   5
  -2   3  -7 3249.17 349.442   4
  -3  -2   8-5.54051 31.7745   5
  -3  -2   8 0.55848 2.11271   4
  -3  -2   9 622.106 96.3350   4
  -3  -2   9 556.036 144.146   5
  -3  -2  10 414.185 123.381   5
  -3  -2  11 62.3124 52.2931   5
  -3  -2  12 104.843 62.7324   5
  -2  -3  12 86.7618 74.1806   5
  -3  -2  13 143.919 64.4574   5
  -2  -3  13 283.797 125.532   5
   3  -2  13 268.390 144.171   2
  -2  -3  14 18.2092 24.2833   5
   3  -2  14-53.7932 87.6654   2
  -3  -2  14 36.3172 36.8693   5
   3  -2  15-80.4734 91.5456   2
  -3  -2  15-18.5392 53.7835   5
  -3  -2  15 15.6587 97.6139   2
  -2  -3  15 12.2448 8.58416   5
  -3  -2  16 429.471 287.595   2
   3  -2  16 537.493 197.991   2
  -2  -3  16 416.379 115.620   5
  -3  -2  16 490.650 127.370   5
  -3  -2  17 999.258 189.163   5
  -3  -2  17 825.252 385.810   2
   3  -2  17 1690.51 394.994   2
  -2  -3  17 975.974 182.353   5
  -2  -3  18 73.2048 86.0565   5
  -3  -2  18-14.3868 70.3439   5
  -3  -2  18-60.2067 122.172   2
  -3  -2  19 2268.93 676.747   2
   3  -2  19 2317.45 505.399   2
  -3  -2  19 1464.43 233.563   5
   3  -2  20 153.589 104.297   2
  -3  -2  20 44.7370 24.6202   5
  -3  -2  20 135.500 156.074   2
   3  -2  21 1013.75 391.332   2
  -3  -2  21 545.034 404.560   2
   3  -2  22 145.333 212.388   2
   3  -2  23 389.122 304.454   2
   3   3  -3-66.6152 133.262  18
   3   3  -4 1795.41 426.543  18
  -3   3  -4 2011.22 236.323  19
   3  -3   4 1937.89 244.247   8
   3  -3   5 14.7946 22.6678  14
   3  -3   5 5.44959 11.5309   8
  -3   3  -5-10.5418 15.8990  19
  -3   3  -5-5.88761 18.8176   5
  -3   3  -5 19.3613 36.8341   4
  -3   3  -6 3253.53 364.860   4
   3  -3   6 3039.73 322.644  14
  -3   3  -6 3192.75 276.003   5
  -3   3  -7-11.9420 53.6537   5
  -3   3  -7-8.23081 46.5641   4
   3  -3   7 13.6281 27.1545  14
  -3  -3  12 26.9843 63.7198   5
  -3  -3  13 4.04490 41.7732   5
  -3  -3  14 96.7710 84.7241   5
  -3  -3  15 18.5246 45.2279   5
  -3  -3  16 755.407 176.837   5
  -3  -3  17-98.0605 89.2242   5
  -3  -3  18 1816.03 294.606   5
  -3  -3  19-8.43230 42.7434   5
  -4   0   0 940.992 221.457   5
  -4   0   1 2.08813 34.5335   4
  -4   0   1-6.35781 20.3457   5
  -4   0   2 18.7146 33.8188   2
  -4   0   2 22.3964 27.0622   4
  -4   0   2 26.1294 46.8309   5
  -4   0   3-13.8950 51.1186   2
  -4   0   3 5.74847 36.1567   4
   4   0  -3-22.3693 36.8931  14
  -4   0   3 14.2951 38.3844   5
   4   0  -3-4.07786 20.8453   8
   4   0   3-10.6509 18.9913  18
  -4   0   4 1778.83 295.390   2
   4   0  -4 1677.44 225.568  14
  -4   0   4 2038.16 235.819  19
  -4   0   4 1992.45 255.797   5
  -4   0   5 22.5300 4.48212   5
   4   0  -5 41.1250 40.9210  14
  -4   0   5 6.82425 11.5551   2
  -4   0   6 1272.84 199.676   5
   4   0  -6 920.052 155.758  14
  -4   0   6 1222.20 278.300   2
  -4   0   7-23.7604 82.7177   2
   4   0  -7-3.64320 13.2862  14
   0   4  -7 20.3502 110.910  18
   0   4  -8 2915.82 211.984   4
  -4   0   8 2044.80 391.705   2
  -4   0   9-1.06411 65.0369   2
   0  -4  10 102.375 44.0314  14
   0  -4  10 99.5619 41.6727   8
  -4   0  10 102.323 113.095   2
  -4   0  11-37.0229 79.7003   2
   0  -4  11 22.8298 16.6035   8
  -4   0  12-5.12613 106.039   2
  -4   0  13-16.1330 46.9895   2
   0   4 -14 23.7895 14.5698  19
  -4   1   0 1424.21 181.503   2
  -4   1   0 3174.25 320.087   5
  -4   1   0 3036.92 313.266   4
   4  -1   0 2986.33 320.921  14
   4   1   1 35.7530 87.1834  18
   4  -1   1 90.4959 93.2794  14
   4  -1  -1 59.1734 36.9682  14
  -4   1  -1 56.5916 65.6542   4
  -4   1  -1 36.6206 36.3045   5
  -4   1   1 113.594 59.8050  19
  -4   1   1 48.3472 23.6696   4
   4  -1  -1 79.0130 48.3920   8
  -4   1   1 96.0229 55.3098   5
  -4   1  -1 58.0304 36.4233   2
  -4   1   2 163.723 61.2822   5
  -4   1  -2 154.427 67.2588   4
  -4   1  -2 166.449 81.1440   5
   4  -1  -2 118.528 57.2031  14
  -4   1   2 169.440 74.9862  19
  -4  -1   3 397.200 140.466   5
  -4   1  -3 412.140 154.179   5
   4  -1  -3 347.684 99.9243  14
  -4  -1   4 10.7728 33.7425   5
  -4  -1   4 34.6547 36.1973   4
  -4  -1   5 2557.05 330.738   5
  -4  -1   5 2990.86 293.971   4
  -4  -1   6 597.756 119.422  19
  -4  -1   6 616.286 155.529   5
  -4  -1   6 732.810 134.570   4
   1   4  -6 445.410 177.357  18
  -1   4  -7 1431.77 330.291  18
  -4  -1   7 2297.64 302.436   5
  -4  -1   7 2523.54 457.829   2
   4  -1   7 2156.25 212.487   2
   4   1  -8 156.394 57.0822  14
  -4  -1   8 259.898 94.9171   5
   4  -1   8 185.133 63.9441   2
  -4  -1   8 312.186 135.312   2
  -1   4  -8 354.522 91.8647   4
   1  -4   9 1180.92 161.591  14
   4  -1   9 760.215 159.232   2
  -4  -1   9 886.850 179.540   5
  -1   4  -9 861.963 175.698   4
   1  -4   9 866.784 149.199   8
  -4  -1   9 961.039 281.487   2
   4   1  -9 519.954 113.234  14
   4  -1  10 449.290 116.680   2
   1  -4  10 687.399 124.594  14
   4   1 -10 251.828 76.4606  14
   1  -4  10 660.479 128.966   8
  -4  -1  10 519.290 196.259   2
  -4  -1  10 548.909 136.211   5
  -4  -1  11 8.21698 52.7131   2
   4  -1  11-14.6759 22.8797   2
  -1   4 -11 49.9456 35.8592  19
   4   1 -11 21.8240 31.2923  14
  -4  -1  11 0.11440 37.0555   5
  -4  -1  12 93.8115 68.2339   2
  -1   4 -12 190.676 33.5624  19
  -1  -4  12 33.3682 11.9580   8
   4   1 -12 43.0176 37.3446  14
   4  -1  12 39.3610 33.7531   2
   4   1 -13-21.5627 29.3173  14
   4  -1  13 36.6879 41.1638   2
  -4  -1  13 17.4713 82.7646   2
   4  -1  14 531.356 187.969   2
  -4  -1  14 584.894 256.533   2
   4   1 -14 71.1666 41.1790  14
   4  -1  15 238.450 184.305   2
  -4  -1  15-159.331 158.785   2
   4  -1  16 489.917 194.379   2
  -4  -1  16 577.458 307.892   2
  -4  -1  17 884.822 356.298   2
   4  -1  17 1045.68 314.589   2
   4  -1  18 554.016 266.667   2
  -4  -1  18 562.114 323.488   2
   4  -1  19 2320.70 529.765   2
  -4  -1  19 843.945 434.353   2
  -4   2   0 353.779 119.941  19
   4  -2   0 273.581 88.2915  14
   4   2  -1 1078.98 344.410  18
   4  -2   1 1299.31 209.385   8
  -4   2  -1 1375.13 194.012   5
   4  -2   1 1485.89 222.785  14
  -4   2  -1 1665.36 241.530  19
   4  -2   2 538.081 145.345  14
  -4   2  -2 477.194 137.338   4
  -4   2  -2 433.106 115.624   5
  -4   2  -3 1425.69 235.338   4
   4  -2   3 1435.14 232.924  14
  -4   2  -3 1408.52 217.359   5
   4  -2   4 1886.97 280.039  14
  -4   2  -4 1384.16 255.330   4
  -4   2  -4 1456.49 229.422   5
  -4   2  -5 79.9487 48.4256   5
   2   4  -6 3584.46 688.459  18
   4   2  -6 4408.28 258.823   8
  -4  -2   7 415.901 100.328  19
  -4  -2   7 189.073 69.9120   5
   2  -4   7 237.277 85.7891   8
  -2   4  -7 309.114 99.8105   4
  -4  -2   8 1520.98 203.857   4
  -2   4  -8 2389.45 295.242   4
  -4  -2   8 1529.49 284.360   5
  -2   4  -8 2038.28 163.513   5
   2  -4   8 2199.27 257.115  14
   2  -4   8 1718.59 233.335   8
  -4  -2   9 409.483 97.7040   4
  -2   4  -9 428.174 91.7756  19
   2  -4   9 485.866 126.036   8
   2  -4   9 612.375 143.127  14
  -4  -2   9 376.156 126.888   5
  -2   4  -9 456.581 141.004   4
  -4  -2  10 894.536 133.458   4
  -2   4 -10 807.466 135.785  19
  -4  -2  10 647.128 174.340   5
  -4  -2  11 909.165 130.870   4
  -4  -2  11 933.459 208.551   5
  -4  -2  12 95.4953 90.5534   5
  -4  -2  13 587.710 151.950   5
  -4  -2  14-24.2431 41.8767   5
  -2  -4  14-14.4760 14.8761   8
   4  -2  14 63.1151 61.3659   2
  -4  -2  15 776.819 188.161   5
   4  -2  15 1161.15 334.024   2
   4  -2  16 362.574 191.704   2
  -4  -2  16 239.721 97.8500   5
   4  -2  17 1665.87 414.592   2
  -4  -2  17 1011.49 218.838   5
  -4  -2  18 2247.45 324.187   5
   4  -2  18 3581.49 618.877   2
  -4  -2  19 463.926 150.507   5
   4  -2  19 1187.36 428.280   2
   4  -2  20 3115.48 636.066   2
  -4  -2  20 1766.93 306.654   5
   4  -2  21 151.318 120.843   2
   4  -2  22 1338.20 499.929   2
  -4   3  -3 56.0886 65.0112  19
   4  -3   3 51.3508 50.4545   8
   4   3  -3 86.1601 141.093  18
   4  -3   3 71.8392 76.4181  14
   4  -3   4 1046.57 196.283  14
   4  -3   4 1159.65 214.845   8
  -4   3  -4 1082.96 172.866   5
  -4   3  -4 1196.64 220.516   4
  -4   3  -4 1306.76 222.917  19
  -4   3  -5 2830.46 292.049   5
   3   4  -5 2172.81 579.228  18
   4  -3   5 2972.97 352.533  14
  -4   3  -5 3023.47 357.223   4
  -4   3  -6 33.5062 27.4333   5
   3  -4   6 0.01851 13.1291   8
  -4   3  -6-15.1736 14.7150   4
   4  -3   6 55.8172 79.6258  14
   3  -4   7 4861.93 420.979  14
  -3   4  -7 5228.42 447.626   4
  -3   4  -7 4034.02 356.380  19
  -4   3  -7 4089.57 427.858   5
  -3   4  -7 4718.28 309.674   5
   3  -4   7 4170.98 400.925   8
   3  -4   8 985.877 192.672  14
   3  -4   8 979.873 193.735   8
  -3   4  -8 818.044 163.415  19
  -3   4  -8 1110.36 160.801   5
  -3   4  -8 897.615 206.923   4
  -3   4  -9 1750.59 243.118  19
   3  -4   9 2384.89 309.193  14
  -3   4  -9 1698.60 230.996   5
  -4  -3   9 1153.17 139.576  19
  -4  -3  12 663.567 237.467   5
  -4  -3  13 104.763 73.3130   5
  -4  -3  14 412.311 158.214   5
  -4  -3  15-8.03291 25.6315   4
  -4  -3  15-79.6988 64.0565   5
  -4  -3  16 75.9037 42.4097   4
  -4  -3  16 173.305 78.2190   5
  -4  -3  17 1269.27 273.297   5
  -4  -3  18 486.061 176.077   5
  -4  -3  19 1940.53 338.740   5
   4   4  -4 288.733 122.536  18
   4  -4   5 16.1957 38.8840  14
   4  -4   5-4.03221 26.0217   8
   4  -4   6 3073.94 359.143  14
  -4   4  -6 2845.88 335.356  19
   4  -4   6 2783.35 345.185   8
  -4   4  -6 3241.36 377.483   4
  -4   4  -6 3010.26 288.839   5
   4  -4   7 27.9588 33.6917   8
  -4   4  -7-3.02962 28.4411   4
  -4   4  -7 23.8875 37.5794   5
  -4   4  -7-8.93216 26.1742  19
   4  -4   7 14.2667 47.0877  14
  -4   4  -8 2808.35 319.901   5
   4  -4   8 3333.04 400.221  14
  -4   4  -8 2613.21 333.254  19
  -4   4  -8 2645.25 392.081   4
   4  -4   9-3.47136 48.6228  14
  -4   4  -9 15.9329 28.5450   5
  -4  -4  10 663.325 101.988  19
  -5   0   0 15.1792 14.4513   5
  -5   0   1 371.156 140.934   5
  -5   0   1 383.988 125.569   4
  -5   0   2-6.35957 24.4785   5
  -5   0   2 13.2900 48.2844   4
   5   0  -3 65.8722 54.2870   8
  -5   0   3 75.6634 41.9806   4
  -5   0   3 23.7852 41.6161   2
  -5   0   3 43.9711 15.1931   5
   5   0  -4 86.1315 53.3356  14
   5   0   4-39.3217 37.5494  18
  -5   0   4 148.110 78.9746   5
   5   0  -4 189.034 78.4736   8
  -5   0   4 168.276 90.2226   4
  -5   0   4 127.799 54.9816  19
  -5   0   4 62.1013 67.5763   2
  -5   0   5 150.481 55.7638   4
  -5   0   5 166.472 79.2436  19
  -5   0   5 174.718 84.4311   5
   5   0  -5 193.035 89.6366  14
  -5   0   5 192.073 117.698   2
   5   0  -6 34.4167 22.2702  14
  -5   0   6-5.77302 27.0797   5
  -5   0   6-51.7017 92.5720   2
  -5   0   7 3475.25 505.043   2
  -5   0   7 3733.52 388.173   5
   5   0  -7 2686.33 310.067  14
  -5   0   8-86.1107 111.542   2
  -5   0   8-17.2949 42.4423   5
   0   5  -8 31.4362 226.192  18
   5   0  -8 28.5432 32.7826  14
  -5   0   9 384.527 173.226   2
   5   0  -9 204.392 81.2192  14
   0   5 -10 7.42381 10.9967   4
  -5   0  10 59.2989 87.1695   2
   5   0 -10 22.2869 16.8289  14
   0  -5  11 36.2882 28.6742  14
  -5   0  11 93.6173 98.2076   2
   0  -5  12-88.4358 41.6573  14
  -5   0  12 79.0341 47.9621   2
  -5   0  13 746.989 290.548   2
  -5   0  14 71.5674 87.0651   2
   0  -5  14-38.3228 31.5975   8
   0  -5  15 18.6527 10.0947   8
   0  -5  16 73.7530 51.0588   8
  -5   1   0 327.557 93.4767   2
  -5   1   0 398.592 133.578   4
   5  -1   0 377.001 119.823  14
  -5   1   0 536.135 160.101   5
  -5   1   1 2721.74 308.962   2
  -5   1  -1 3983.15 436.826   4
  -5   1  -1 3459.14 290.960   2
  -5   1  -1 3418.12 390.563   5
   5  -1  -1 3963.43 386.750   8
  -5   1   1 3728.99 399.378   5
  -5   1   1 3886.09 385.217   4
   5  -1  -1 4004.33 410.707  14
  -5   1   2 24.6007 60.1244  19
  -5   1   2 11.4376 49.3440   2
  -5   1  -2-0.97005 2.05664   4
  -5   1   2-11.7116 20.1247   5
   5  -1  -2 3.64403 15.8200   8
  -5   1   2-6.47808 21.0475   4
   5  -1  -2 7.30808 23.6188  14
  -5   1  -2 25.3822 55.4604   5
   5   1   2 12.4487 71.1378  18
   5  -1  -3 11.7923 5.60169  14
  -5  -1   3 17.7723 41.8832   5
  -5   1   3 5.69216 17.8093  19
  -5   1   3-0.21377 19.4008   5
  -5   1   3-29.9617 67.1618   2
  -5   1  -3 65.4092 68.0101   5
   5  -1  -4 511.028 139.203  14
  -5   1   4 623.899 151.119   5
  -5   1   4 299.001 107.319   2
  -5  -1   4 502.220 178.671   5
   5  -1  -5 245.437 94.0567  14
   5   1  -5 480.115 112.832   8
  -5  -1   5 368.328 118.726   4
  -5  -1   5 387.200 151.772   5
  -5  -1   6 2423.93 299.631   4
  -5  -1   6 2855.45 312.285  19
  -5  -1   6 1971.63 324.804   5
  -5  -1   7 303.409 102.374   4
  -5  -1   7 314.723 96.6992  19
  -5  -1   7 245.994 132.577   5
   1   5  -8 2602.45 605.766  18
   5  -1   8 2298.78 219.437   2
  -1   5  -8 1262.41 330.595  18
  -5  -1   8 2824.84 490.046   2
  -5  -1   8 2434.14 270.415   4
  -5  -1   8 2412.55 342.833   5
   5  -1   9 793.558 144.858   2
  -5  -1   9 885.792 286.412   2
   5   1  -9 480.378 124.598  14
  -1   5  -9 987.055 158.324   4
  -5  -1   9 882.382 209.796   5
  -1   5 -10 136.574 72.5471   4
   5   1 -10 115.237 67.6430  14
  -5  -1  10 207.726 105.746   5
  -5  -1  10 10.7798 102.358   2
   5  -1  10 81.9811 28.6864   2
   5   1 -11 211.639 88.5820  14
   1  -5  11 476.713 97.2803  14
   5  -1  11 434.472 111.241   2
  -5  -1  11 463.252 137.787   5
  -5  -1  11 467.438 236.332   2
  -5  -1  12 118.480 68.2761   5
   5  -1  12 120.740 70.7822   2
   5   1 -12-41.5073 61.2891  14
   1  -5  12-6.17861 40.8389  14
  -5  -1  12 36.8918 106.894   2
   5  -1  13 587.267 168.158   2
  -5  -1  13 698.554 285.112   2
  -5  -1  13 728.731 188.308   5
   1  -5  13 644.801 137.707   8
   5   1 -13 143.033 73.6684  14
  -5  -1  14 495.003 229.956   2
   1  -5  14 562.925 137.268   8
  -5  -1  14 500.184 153.809   5
   5  -1  14 460.244 151.803   2
   5  -1  15 830.606 263.184   2
  -5  -1  15 555.088 166.674   5
  -5  -1  15 690.197 249.562   2
  -5  -1  16 77.3514 19.0278   5
   5  -1  16 35.9409 97.8063   2
   5   1 -16-33.4000 34.3699  14
  -1  -5  16 104.088 41.6627   8
  -5  -1  16-64.5422 115.432   2
   5   1 -17 39.4719 42.5030  14
  -5  -1  17 261.465 132.482   2
  -5  -1  18 709.002 326.878   2
   5  -1  18 1111.05 361.124   2
  -5  -1  19 129.732 220.322   2
   5  -1  19 508.889 257.893   2
  -5   2   0 6468.60 517.847  19
   5  -2   0 5109.48 460.735  14
  -5   2   0 5517.19 451.885   5
   5   2   0 4346.64 702.968  18
   5  -2   0 5130.59 453.678   8
  -5   2   1 467.840 129.658  19
   5  -2  -1 322.655 109.152  14
   5  -2   1 449.799 138.327  14
  -5   2  -1 433.106 131.729   5
   5  -2   1 495.185 143.584   8
  -5   2  -1 394.788 145.024   4
  -5   2  -2 2147.66 302.744   4
  -5   2  -2 2160.55 290.833   5
   5  -2  -2 1020.19 194.301  14
   5  -2   2 2323.99 320.152  14
  -5   2  -3 2026.80 299.218   5
  -5   2  -3 2173.99 339.507   4
   5  -2   3 2411.48 348.637  14
  -5   2  -4 845.822 204.558   5
  -5   2  -4 875.103 221.350   4
  -5   2  -5 1701.15 312.221   5
  -5  -2   7 2808.33 429.767   5
   2   5  -7 3074.62 750.069  18
  -5  -2   8 987.802 246.555   5
  -5  -2   8 974.349 168.668  19
  -2   5  -9 1509.43 230.421   4
  -5  -2   9 1111.66 268.432   5
  -5  -2   9 935.663 182.023   4
  -2   5  -9 1019.42 295.226  18
   2  -5  10 1092.00 186.145   8
  -5  -2  10 1369.58 209.049   4
  -5  -2  10 1198.54 256.959   5
  -2   5 -10 1308.79 138.051   5
  -2   5 -10 1689.32 263.737   4
  -5  -2  11-55.0548 64.8445   5
  -5  -2  11 106.908 73.8074   4
  -5  -2  12 2120.50 232.614   4
  -5  -2  12 1951.96 328.266   5
  -5  -2  13 325.115 124.084   5
   2  -5  13 281.835 103.651   8
  -5  -2  13 362.651 94.1735   4
  -2   5 -14 465.098 111.684  19
  -5  -2  14 898.009 220.905   5
  -5  -2  15 51.2549 66.7651   5
  -2   5 -15-20.2211 25.2707  19
  -5  -2  16 1711.77 315.608   5
  -2   5 -16 555.684 141.142  19
  -2   5 -17 224.934 102.445  19
  -5  -2  17 614.753 195.641   5
  -5  -2  18 1149.45 260.570   5
  -5  -2  19 2065.57 360.308   5
  -5  -2  20 1125.10 274.474   5
   5  -3   1 1079.15 208.589  14
   5  -3   2 259.354 110.542  14
   5   3  -2 266.488 200.723  18
  -5   3  -2 431.359 138.644  19
   5  -3   2 268.222 118.830   8
   5  -3   3 2808.17 357.566   8
   5  -3   3 2753.44 348.000  14
  -5   3  -3 3202.27 380.758  19
  -5   3  -3 2835.62 319.163   5
  -5   3  -3 2789.78 354.236   4
   5  -3   4 942.947 229.744   8
   5  -3   4 932.439 223.390  14
  -5   3  -4 749.499 175.154   5
  -5   3  -4 891.126 208.944   4
   5  -3   5 1313.14 263.653  14
  -5   3  -5 1195.00 249.979   4
  -5   3  -5 1184.01 221.190   5
   3   5  -6 2518.09 724.320  18
   5  -3   6 3987.01 474.023  14
  -5   3  -6 3494.15 471.101   4
  -5   3  -6 3241.45 401.572   5
   3   5  -7 1347.95 496.058  18
  -5   3  -7 1043.19 240.758   5
   3  -5   8 2063.94 281.834  14
   5   3  -8 2575.97 204.331   8
  -3   5  -8 3394.41 363.742   4
   3  -5   9 1810.37 259.876  14
  -3   5  -9 2076.58 299.267   4
  -3   5  -9 1207.19 275.262  18
   3  -5   9 1304.99 228.357   8
  -3   5  -9 1814.20 190.806   5
  -5  -3   9 1595.99 209.252  19
  -3   5 -10 422.586 154.242   4
  -3   5 -10 505.189 109.335   5
   3  -5  10 488.935 125.073  14
   3  -5  10 466.281 123.637   8
  -3   5 -11 975.115 165.253  19
  -3   5 -11 993.926 181.524   5
  -3   5 -12 28.6090 14.6684  19
   3  -5  12 154.139 91.0787   8
  -5  -3  12 51.2808 38.6585   5
  -5  -3  13 1412.24 328.910   5
  -5  -3  14 137.139 99.4080   5
  -3   5 -14 232.299 103.764  19
  -5  -3  15 360.389 155.098   5
  -3   5 -15 318.415 118.938  19
  -5  -3  16 57.2086 49.4413   4
  -5  -3  16 139.190 109.098   5
  -5  -3  17 825.648 241.719   5
  -5  -3  18 1116.00 290.222   5
  -5  -3  19 889.923 253.722   5
   5   4  -3 89.6310 176.993  18
  -5   4  -4 305.575 113.825  19
   5  -4   4 219.722 109.258   8
   5   4  -4 458.951 319.142  18
   5  -4   4 269.880 105.813  14
   4   5  -5 539.366 206.708  18
  -5   4  -5 1033.47 216.085  19
  -5   4  -5 1029.09 230.082   4
   5  -4   5 795.666 198.783   8
  -5   4  -5 872.924 173.797   5
   5  -4   5 825.975 202.213  14
   4   5  -6 723.966 443.707  18
   5  -4   6 791.184 198.618   8
  -5   4  -6 799.760 190.082  19
  -5   4  -6 732.518 166.125   5
  -5   4  -6 653.714 175.490   4
   5  -4   6 765.043 200.349  14
  -5   4  -7 2898.81 399.473  19
  -5   4  -7 3206.04 439.771   4
   5  -4   7 3303.45 423.927  14
  -5   4  -7 3104.40 360.468   5
   4  -5   7 1829.71 287.690  14
  -4   5  -7 3038.04 372.427   4
   5  -4   7 3354.83 431.846   8
  -5   4  -8 209.425 94.2493   5
   4  -5   8 160.705 79.7516   8
   5  -4   8 361.488 149.125  14
  -4   5  -8 228.510 79.5920   5
  -5   4  -8 182.086 108.115   4
  -4   5  -8 284.680 101.017   4
   4  -5   8 119.072 59.0879  14
  -4   5  -9 749.762 201.887  18
  -5   4  -9 977.969 240.280   5
  -4   5  -9 1465.31 290.348   4
   4  -5   9 1287.30 243.925   8
   4  -5   9 1311.59 253.997  14
  -4   5  -9 1447.12 216.967   5
  -4   5  -9 1003.31 201.959  19
   4  -5  10 1387.45 270.113  14
  -4   5 -10 778.213 173.250  19
  -4   5 -10 959.794 185.818   5
   4  -5  10 1366.46 241.154   8
  -4   5 -10 916.641 244.335   4
  -4   5 -11 17.5723 48.9390  19
  -5  -4  11 10.7111 7.87449  19
   4  -5  11 49.1924 81.6496   8
  -4   5 -11-8.40815 26.0744   5
  -4   5 -12 587.320 160.534  19
  -4   5 -13 430.512 143.620  19
   5   5  -5 22.0285 77.8449  18
   5  -5   6 398.746 148.328  14
  -5   5  -6 524.775 156.015   4
   5  -5   7-32.1391 62.2565  14
  -5   5  -7-47.2154 42.7297   5
   5  -5   7 0.14043 43.8001   8
  -5   5  -7 11.7784 38.6401   4
   5  -5   8 2020.09 328.352  14
   5  -5   8 2089.83 332.467   8
  -5   5  -8 1814.01 296.683  19
  -5   5  -8 2296.31 291.215   5
  -5   5  -8 2304.75 376.838   4
  -5   5  -9-1.70062 49.1917  19
  -5   5  -9-5.67708 35.6191   5
  -5   5  -9-69.8903 79.3915  18
  -5   5  -9 32.2517 58.5843   4
   5  -5   9-153.550 112.228   8
   5  -5   9-22.4370 105.475  14
  -5   5 -10 2.41624 30.3747  19
   5  -5  10 30.0424 32.8274   8
   5  -5  10 101.240 110.044  14
  -5   5 -10 38.8477 29.0828   4
  -5   5 -11-39.7362 46.1365  19
  -5   5 -12 259.426 114.374  19
  -5  -5  12 118.073 46.4450  19
  -6   0   0 116.056 97.1400   5
  -6   0   1-53.2453 88.7142   5
  -6   0   2 205.507 91.4619   4
  -6   0   2 236.064 90.1907   5
  -6   0   3 64.1734 71.0767   5
   6   0  -3 77.8777 91.0891   8
  -6   0   3 178.799 93.3428   4
  -6   0   4 26.1227 78.5662   5
  -6   0   4-35.4918 51.1412   2
  -6   0   4-13.0236 22.4303   4
   6   0  -4 53.5750 31.9036   8
   6   0  -5-46.2092 60.2587  14
  -6   0   5-12.3286 56.5141   5
  -6   0   5-39.2261 79.7411  19
  -6   0   5-14.5321 82.1203   2
  -6   0   5 16.5353 57.4081   4
   6   0  -6 923.135 207.661  14
  -6   0   6 1128.93 249.354   5
  -6   0   6 1017.97 205.503  19
  -6   0   6 877.980 256.887   2
  -6   0   6 915.615 187.791   4
  -6   0   7 7.60500 57.9382   2
  -6   0   7-18.0728 30.3896   5
   6   0  -7-12.5566 35.9935  14
  -6   0   8 428.361 139.822   5
   6   0  -8 185.239 84.6190  14
  -6   0   8 400.204 188.631   2
   6   0  -9 31.6107 59.5942  14
  -6   0   9-0.77452 19.7550   5
  -6   0   9 106.116 141.479   2
   0   6  -9 138.064 162.674  18
  -6   0  10-7.84164 26.1277   5
   6   0 -10 73.0551 64.3229  14
  -6   0  10 181.826 146.311   2
  -6   0  11-89.6117 92.2426   5
   6   0 -11-33.0258 55.5986  14
  -6   0  11 113.901 138.654   2
   0   6 -11-20.2537 8.00036   4
  -6   0  12 2424.93 527.217   2
   0   6 -12 2645.85 293.469   4
  -6   0  12 2232.03 333.604   5
  -6   0  13 104.961 163.358   2
   0  -6  13 14.2881 6.16147  14
  -6   0  14 419.289 272.137   2
  -6   0  15 23.5829 69.9609   2
  -6   1   0 2690.43 392.437   5
  -6   1   0 3211.77 411.762   4
  -6   1   0 3039.56 333.666   2
  -6   1  -1 460.460 163.673   4
   6  -1  -1 598.752 173.406  14
  -6   1  -1 407.017 161.175   5
   6  -1  -1 727.418 186.732   8
  -6   1   1 529.971 154.344   4
  -6   1   1 525.743 146.430   2
  -6   1   1 535.042 176.012   5
  -6   1   2 520.157 168.928   5
  -6   1   2 671.388 188.387  19
   6  -1  -2 539.571 169.570  14
   6  -1  -2 520.017 149.440   8
  -6   1   2 363.395 118.831   2
  -6   1   2 619.982 172.055   4
  -6   1  -2 329.864 153.040   5
  -6   1   3 10.6421 34.9119   2
   6  -1  -3 2.69648 39.3847  14
   6   1   3-44.1802 54.4780  18
  -6   1   3 8.77703 45.8227   5
  -6   1   3-3.28539 27.3950  19
  -6   1  -3 32.0281 77.9473   5
  -6   1   3-15.3803 56.6556   4
  -6  -1   3 52.2326 57.4365   5
  -6   1   4 430.352 131.908  19
   6  -1  -4 310.801 122.774  14
  -6   1   4 307.404 128.445   2
  -6   1   4 365.033 124.310   5
  -6  -1   4 338.783 149.562   5
  -6   1   5 508.302 168.868   2
  -6  -1   5 717.885 222.971   5
   6   1  -5 1001.28 192.992   8
  -6   1   5 746.082 184.587   5
  -6  -1   5 690.129 189.240   4
   6  -1  -5 542.157 153.726  14
  -6  -1   6 364.672 143.699   5
  -6  -1   6 364.895 123.440   4
  -6   1   6 200.004 89.7325   2
  -6   1   6 431.295 133.869   5
   6  -1  -6 218.737 89.5907  14
  -6  -1   7 765.774 211.855   5
  -6   1   7 457.870 174.920   2
  -6  -1   7 860.227 192.449   4
   6  -1  -7 361.433 120.332  14
  -6  -1   7 1118.19 213.271  19
  -6  -1   8 578.277 147.763   4
  -6  -1   8 581.234 190.196   5
  -6   1   8 367.483 176.056   2
   6  -1  -8 246.056 101.550  14
  -6  -1   9 762.956 224.076   5
  -6   1   9 363.822 173.707   2
   1   6  -9 803.661 375.354  18
  -6  -1   9 560.044 144.357   4
   6  -1  10 1182.82 185.378   2
  -6  -1  10 1350.16 405.806   2
  -6  -1  10 1364.17 275.037   5
  -6  -1  10 1250.95 209.610   4
  -1   6 -10 1018.74 326.991  18
  -6  -1  11 532.102 169.065   5
  -1   6 -11 576.616 134.982   4
   6  -1  11 401.300 111.338   2
  -6  -1  11 495.969 210.019   2
  -6  -1  12 860.465 227.023   5
  -1   6 -12 794.415 183.484   4
   1  -6  12 715.099 133.148  14
   6  -1  12 725.020 175.356   2
  -6  -1  12 691.168 271.465   2
   6   1 -12 171.429 76.1516  14
   1  -6  13 1636.39 222.571  14
   6   1 -13 260.588 100.582  14
  -6  -1  13 1549.63 405.885   2
  -6  -1  13 1333.21 269.585   5
   6  -1  13 1472.98 268.092   2
   6  -1  14 812.836 221.367   2
  -6  -1  14 639.510 286.670   2
  -6  -1  14 568.358 181.102   5
   6  -1  15 262.273 114.274   2
   6   1 -15 60.7737 70.9251  14
  -6  -1  15 162.628 92.0875   5
  -6  -1  15 165.702 118.198   2
   6   1 -16 59.0548 61.7860  14
  -6  -1  16 663.742 214.439   5
   6  -1  16 785.457 241.282   2
  -6  -1  16 571.797 310.344   2
   1  -6  17 66.1821 60.0616   8
  -6  -1  17 34.8963 38.3829   5
  -6  -1  17-89.5685 218.646   2
   6  -1  17 41.5210 103.682   2
   1  -6  18 637.155 172.998   8
   6  -1  18 783.987 274.470   2
  -6  -1  18 410.247 295.268   2
   6  -1  19 634.245 285.515   2
  -6  -1  19 551.587 386.143   2
   6  -1  20 625.962 277.645   2
   6  -2   0 646.333 183.147  14
   6  -2   0 596.660 167.960   8
  -6   2   0 716.923 186.979  19
  -6   2   0 645.150 170.866   5
  -6   2   0 649.000 165.667   4
   6   2   1 3418.92 659.886  18
   6  -2   1 4663.55 493.083  14
  -6   2   1 5061.63 499.862  19
   6  -2  -1 3446.70 399.956   8
   6  -2   1 4831.11 502.951   8
  -6   2   1 4292.53 431.688   5
  -6   2  -1 4555.75 478.713   5
  -6   2  -1 4246.58 459.389   4
  -6   2   1 4203.02 430.920   4
   6  -2  -1 3857.22 435.449  14
  -6   2   2 221.668 99.0153  19
  -6   2   2 73.1420 12.5927   5
  -6   2  -2 253.897 123.314   5
   6  -2  -2 150.034 80.8172  14
   6  -2   2 284.081 143.052  14
  -6   2  -2 145.198 50.7529   2
  -6   2  -2 189.619 121.901   4
  -6   2  -3 1074.50 132.312   2
   6  -2  -3 629.212 166.975  14
  -6   2  -3 1083.65 260.256   4
  -6   2  -3 1038.33 239.102   5
   6  -2  -4 456.574 150.043  14
  -6   2  -4 796.103 228.987   5
  -6   2  -4 696.129 213.967   4
  -6   2  -5 687.433 229.979   5
  -6  -2   7 1334.69 303.044   5
   6   2  -7 2113.60 246.925   8
  -6  -2   8 1543.77 237.111  19
   2   6  -8 698.324 269.801  18
  -6  -2   8 999.805 259.401   5
  -6  -2   9 1294.33 301.555   5
  -6  -2   9 1328.23 203.672  19
  -2   6 -10 84.6646 38.9612  18
  -2   6 -10 131.190 9.95732   4
  -6  -2  10 195.866 75.8821   4
  -6  -2  10 50.5123 75.3465   5
  -6  -2  11 2720.29 330.440   4
  -6  -2  11 2796.06 442.300   5
  -2   6 -11 4492.50 448.156   4
  -6  -2  12 710.385 218.245   5
  -6  -2  12 718.854 164.286   4
   2  -6  12 648.636 140.143  14
  -2   6 -12 636.824 168.831   4
   2  -6  13 1520.41 232.974  14
  -6  -2  13 1069.93 269.015   5
  -6  -2  13 1231.15 207.061   4
   2  -6  14 376.857 119.058   8
  -6  -2  14 464.592 112.876   4
  -6  -2  14 474.939 164.862   5
   2  -6  15 1457.05 239.716   8
  -6  -2  15 1623.68 230.279   4
  -6  -2  15 1795.98 362.333   5
  -6  -2  16 25.4469 40.5423   5
   2  -6  16 76.1057 54.6654   8
  -6  -2  16 44.8483 25.7087   4
   2  -6  17 1550.51 266.727   8
  -6  -2  17 1500.74 328.090   5
   2  -6  18 504.653 169.480   8
  -6  -2  18 570.181 224.818   5
   2  -6  19 1501.16 291.561   8
  -6  -2  19 1189.18 293.300   5
  -6  -2  20 589.481 204.865   5
  -6  -2  21 1082.85 305.891   5
   6  -3   0 757.964 193.210  14
   6  -3   1 212.096 100.750  14
   6  -3  -1 82.1232 70.7265  14
  -6   3  -1 258.718 105.149  19
   6   3  -1 374.674 244.473  18
  -6   3  -1 166.093 51.4092   5
   6  -3   1 227.172 109.389   8
   6  -3   2 3079.70 407.081  14
   6  -3   2 3087.07 409.989   8
  -6   3  -2 3112.45 366.630   5
  -6   3  -2 3316.69 403.845   4
  -6   3  -2 3896.18 454.548  19
  -6   3  -3-39.0924 20.2209  19
   6  -3   3 33.2801 58.7910  14
   6  -3   3 21.5205 22.4178   8
  -6   3  -3 22.2435 36.9027   5
  -6   3  -3-26.9746 75.0668   4
   6  -3   4 1446.38 285.716  14
  -6   3  -4 1380.76 282.649   4
  -6   3  -4 1398.32 260.156   5
  -6   3  -5 1921.18 323.928   5
   6  -3   5 2416.80 384.797  14
  -6   3  -5 2175.25 378.831   4
  -6   3  -6 1137.42 262.624   5
  -6   3  -6 1129.40 280.124   4
  -6   3  -7 1285.03 292.435   5
   3   6  -7 1295.91 510.171  18
   6   3  -8 3385.04 292.912   8
   3   6  -8 3170.94 810.878  18
  -3   6 -10 2443.04 476.205  18
   3  -6  10 1990.28 287.183  14
  -3   6 -10 3535.99 402.341   4
  -6  -3  10 2263.57 268.519  19
  -3   6 -11 75.1148 38.4509   4
  -3   6 -11 118.683 44.0848   5
   3  -6  11-4.09969 64.3310  14
  -3   6 -12 2167.66 366.627   4
  -3   6 -12 2037.62 245.279   5
   3  -6  13 450.945 194.862  14
   3  -6  13 607.011 160.709   8
  -6  -3  13 406.117 184.824   5
   3  -6  14 1170.33 242.713   8
  -6  -3  14 958.594 285.731   5
   3  -6  15 187.520 92.0701   8
  -6  -3  15 158.199 119.396   5
   3  -6  16 1271.35 256.872   8
  -6  -3  16 685.058 232.504   5
   3  -6  17 284.015 173.961   8
  -6  -3  17-1.73827 121.551   5
  -6  -3  18 1071.67 313.949   5
   3  -6  18 2092.81 349.713   8
  -6  -3  19 702.881 260.067   5
  -6  -3  20 716.590 219.082   5
   6   4  -2 15.7374 135.487  18
   6  -4   2 19.5358 14.6314  14
   6  -4   3 727.514 198.180  14
   6   4  -3 1098.84 452.291  18
  -6   4  -3 828.416 177.430   5
  -6   4  -3 852.808 211.009  19
  -6   4  -4 157.061 103.737  19
  -6   4  -4 65.7432 44.8328   5
   6  -4   4 114.087 58.6268  14
   6  -4   4 145.057 94.4006   8
  -6   4  -4 91.9587 69.9995   4
  -6   4  -5 864.103 227.237  19
  -6   4  -5 638.234 161.762   5
   6  -4   5 727.934 217.216   8
   6  -4   5 746.852 198.998  14
  -6   4  -5 733.800 205.925   4
   6  -4   6 1635.73 323.967   8
  -6   4  -6 1563.94 306.623  19
  -6   4  -6 1464.38 315.665   4
  -6   4  -6 1492.60 263.550   5
   6  -4   6 1569.28 313.632  14
   6  -4   7 1097.30 257.641  14
   4   6  -7 855.442 393.751  18
  -6   4  -7 993.339 261.308   4
  -6   4  -7 887.700 219.138   5
  -6   4  -8 858.745 223.186   5
  -6   4  -8 903.025 263.006   4
   4  -6   9 898.431 212.175  14
   6   4  -9 1829.90 211.917   8
  -4   6  -9 1897.32 304.301   4
  -6   4  -9 1260.62 297.745   5
  -4   6 -10 87.9750 106.253  18
   4  -6  10 10.6797 36.6693  14
  -4   6 -10 241.333 123.178   4
  -4   6 -10 48.5387 33.4334   5
   4  -6  11 1386.84 267.062   8
  -4   6 -11 2082.08 265.033   5
  -6  -4  11 1377.73 195.794  19
  -4   6 -11 2042.58 371.135   4
   4  -6  12 387.231 229.982  14
   4  -6  12 612.635 173.014   8
  -4   6 -12 695.612 173.213   5
   4  -6  13 291.930 116.953   8
   4  -6  14 483.767 169.232   8
   4  -6  15 866.278 227.390   8
  -4   6 -15 389.046 123.410  19
  -4   6 -16 7.74745 38.2876  19
   4  -6  16-163.982 122.856   8
  -4   6 -17 36.6905 45.3908  19
   6   5  -4 185.833 287.081  18
   6  -5   4 45.7992 21.5111  14
   6  -5   5 61.9155 42.3963  14
  -6   5  -5 316.461 111.384   4
   5   6  -6 11.4190 220.643  18
  -6   5  -6 40.5880 40.9513   5
   6  -5   6 53.5471 67.2823   8
   6  -5   6 100.392 20.9085  14
  -6   5  -6 22.4786 23.9017   4
  -6   5  -7 680.390 198.524  19
   6  -5   7 548.269 166.771  14
  -6   5  -7 733.237 184.968   5
   6  -5   7 521.887 174.861   8
  -6   5  -7 678.008 203.417   4
  -6   5  -8 257.493 115.998  19
   6  -5   8 362.063 138.609  14
   6  -5   8 391.996 152.498   8
   5  -6   8 233.245 124.421  14
  -6   5  -8 411.923 183.369   4
  -6   5  -8 400.823 146.101   5
  -5   6  -8 278.850 106.521   4
  -6   5  -9 183.773 121.134   4
  -6   5  -9 235.329 126.455  19
  -6   5  -9 121.230 66.2889   5
   6  -5   9 280.145 157.583  14
  -5   6  -9 203.194 78.0890   5
   5  -6   9 157.710 73.0328  14
  -5   6  -9 224.253 120.751   4
   6  -5   9 179.856 103.058   8
  -6   5 -10 220.821 127.460   5
  -5   6 -10 395.294 146.879   5
  -5   6 -10 331.797 147.543   4
   6  -5  10 335.554 174.011   8
   5  -6  10 197.637 109.389   8
   5  -6  10 230.346 103.806  14
  -6   5 -10 234.596 132.575  19
   5  -6  11 441.580 156.024   8
   5  -6  11 100.492 194.194  14
  -5   6 -11 453.881 155.287   5
  -5   6 -11 521.860 198.143   4
  -6   5 -11 405.502 161.219  19
   5  -6  12 50.4137 110.238  14
   5  -6  12 147.245 96.5322   8
  -5   6 -12 60.0395 56.7850   5
  -6  -5  12 45.8550 41.4604  19
   5  -6  13 735.529 216.893   8
  -5   6 -13 423.898 156.253  19
  -5  -6  13 168.798 48.5889  19
   5  -6  14-14.5896 82.7373   8
  -5   6 -14 23.7536 81.9896  19
  -5   6 -15-3.11860 77.4836  19
   5  -6  15 44.3002 65.3303   8
  -5   6 -16 8.88954 65.7812  19
  -5   6 -17 52.3661 76.7545  19
  -5   6 -18 32.4727 98.1713  19
   6   6  -5-102.632 243.308  18
   6   6  -6 750.459 471.805  18
   6  -6   7 53.5210 91.5726  14
  -6   6  -7 17.7599 48.1196   4
   6  -6   8 185.239 100.179  14
  -6   6  -8 195.230 98.1840   5
  -6   6  -8 213.682 119.991   4
  -6   6  -9 23.7166 31.2620   5
   6  -6   9-72.5916 96.1245  14
  -6   6  -9 76.1625 122.097   4
  -6   6 -10 150.827 109.597   4
   6  -6  10-33.4852 81.0822   8
   6  -6  10 66.7633 101.125  14
  -6   6 -10 129.506 93.1477   5
   6  -6  11-30.5815 96.1782  14
   6  -6  11-37.7981 71.1206   8
  -6   6 -11 8.62377 29.0781   5
  -6   6 -11 11.9229 55.8965  19
  -6   6 -11 121.980 133.206   4
  -6   6 -12 515.054 181.403  19
  -6   6 -12 560.384 196.364   5
   6  -6  12 605.509 213.772   8
   6  -6  13-29.9706 115.799   8
  -6   6 -13-3.04114 121.378  19
  -6   6 -14 61.0064 123.774  19
   6  -6  14 506.982 185.342   8
   6  -6  15-27.6826 159.174   8
  -6   6 -15 17.0171 127.958  19
  -6   6 -16 77.5427 152.555  19
  -6   6 -17-5.97530 64.6261  19
  -6   6 -18 7.80078 50.8766  19
  -7   0   0 61.7216 101.048   5
  -7   0   1 355.924 161.898   5
  -7   0   2 19.9028 71.6888   4
  -7   0   2 19.4386 30.2579   5
  -7   0   3 506.889 186.006   4
  -7   0   3 493.920 195.951   5
  -7   0   4-22.6730 76.5921   5
   7   0  -4 1.07067 9.48133   8
  -7   0   4 27.2767 27.4178   4
  -7   0   5 192.586 111.882   5
  -7   0   5 159.677 82.6398  19
  -7   0   5 98.8679 47.1415   4
  -7   0   6 33.5319 32.5235  19
  -7   0   6-24.2649 80.7387   5
  -7   0   6-35.5102 61.7708   2
  -7   0   6-43.9054 53.2503   4
   7   0   7 262.219 129.285  18
   7   0  -7 286.358 135.949  14
  -7   0   7 429.372 163.073   5
  -7   0   7 357.818 132.177   4
  -7   0   7 268.245 145.855   2
   7   0  -8 61.1809 68.9678  14
  -7   0   8-30.1991 73.9996   5
  -7   0   8-41.7420 151.666   2
  -7   0   8-1.56223 21.8409   4
   7   0  -9-5.52685 39.5984  14
  -7   0   9 43.4229 22.9013   5
  -7   0   9 21.8583 72.8439   2
   0   7 -10-1.40439 240.249  18
   7   0 -10 23.6958 60.8873  14
  -7   0  10-94.6175 124.506   2
  -7   0  10-37.4005 70.9482   5
  -7   0  11 1718.73 433.216   2
   7   0 -11 569.756 161.963  14
  -7   0  11 1760.50 313.911   5
   7   0 -12 13.6687 58.2659  14
  -7   0  12-1.38833 58.1428   5
  -7   0  12 13.8882 115.662   2
  -7   0  13 1754.17 439.708   2
   7   0 -13 385.489 140.446  14
   0   7 -13 2123.88 276.114   4
  -7   0  13 1430.27 299.329   5
   0  -7  14 60.9254 28.8300  14
   7   0 -14 17.2312 33.6687  14
  -7   0  14 204.465 199.375   2
  -7   0  14 85.7456 69.1899   5
   0  -7  15 170.726 104.270  14
  -7   0  15 664.844 325.272   2
  -7   1   0 1570.11 331.942   4
  -7   1   0 1405.03 320.610   5
  -7   1   1 526.726 176.451   4
  -7   1   1 533.522 173.800   5
  -7   1   1 487.067 158.537   2
  -7   1  -1 404.079 150.191   5
  -7   1  -1 257.962 91.2014   4
  -7   1   2 572.973 185.583   5
  -7   1   2 467.544 162.369   4
   7  -1  -2 459.601 152.586   8
   7  -1  -2 371.651 125.936  14
  -7   1  -2 275.045 156.693   5
  -7   1   2 417.593 139.838   2
   7  -1  -3 402.520 154.305  14
  -7   1   3 646.372 204.566  19
   7  -1  -3 417.476 156.225   8
  -7   1   3 507.377 183.396   5
  -7   1   3 460.029 150.304   4
  -7   1   3 398.702 168.321   2
   7   1   4 28.8491 22.7637  18
  -7   1   4-28.8827 21.0408   2
  -7   1   4 4.48243 50.4032   5
  -7   1   4 28.6733 73.6878  19
   7  -1  -4 43.9034 76.2349  14
  -7   1   4 84.2194 75.7008   4
  -7  -1   4-45.0462 65.5956   5
  -7   1   5 265.867 129.527   2
   7   1  -5 530.167 152.058   8
   7  -1  -5 270.928 117.643  14
  -7   1   5 416.904 169.734   5
  -7  -1   5 390.648 186.633   5
  -7   1   5 375.242 121.759   4
  -7  -1   6 204.361 107.719   4
  -7  -1   6 251.071 119.258   5
   7  -1  -6 207.375 99.8487  14
  -7   1   6 209.568 119.597   2
  -7   1   6 265.356 108.361   5
   7   1  -6 320.518 122.390   8
  -7  -1   7 304.271 124.175   4
  -7  -1   7 315.039 140.533   5
  -7   1   7 236.757 153.340   2
   7  -1  -7 244.380 105.044  14
  -7  -1   7 376.048 121.598  19
  -7   1   7 322.688 137.397   5
   7  -1  -8 89.3245 80.1506  14
  -7  -1   8 268.405 112.171   5
  -7  -1   8 323.611 121.662   4
  -7   1   8 224.694 125.373   2
  -7   1   8 267.883 99.3802   5
  -7  -1   8 337.294 105.644  19
  -7   1   9 876.515 294.157   2
   7  -1  -9 354.587 126.611  14
  -7  -1   9 1324.27 251.866   4
  -7  -1   9 1204.14 279.465   5
  -7   1   9 1260.11 259.008   5
  -7  -1  10 692.161 220.274   5
   1   7 -10 711.514 443.007  18
  -7   1  10 631.783 262.888   2
  -7  -1  10 638.891 166.847   4
  -7  -1  11 680.580 217.327   5
  -7  -1  11 745.297 169.944   4
  -1   7 -11 641.981 291.747  18
   7  -1  11 766.330 143.881   2
   7  -1  12 1480.63 233.125   2
  -7  -1  12 1302.62 308.566   5
  -1   7 -12 1741.65 246.586   4
  -7  -1  12 1112.17 217.117   4
  -7  -1  13 293.567 180.251   2
   1   7 -13 362.617 100.840   4
  -1   7 -13 552.889 155.476   4
   1  -7  13 205.157 81.5435  14
  -7  -1  13 469.899 184.647   5
   7  -1  13 450.831 153.993   2
  -7  -1  13 378.568 114.412   4
   7  -1  14 1809.02 316.196   2
  -7  -1  14 1684.82 480.521   2
  -7  -1  14 1518.26 309.073   5
   1  -7  14 748.063 196.859  14
   1  -7  15 134.448 103.826  14
   7  -1  15 569.952 190.220   2
  -7  -1  15 247.775 160.966   2
  -7  -1  15 407.447 160.319   5
  -1  -7  15 213.344 80.3535  14
  -7  -1  16 116.735 92.4759   5
   7   1 -16 91.5829 80.2189  14
  -7  -1  16 248.612 266.572   2
   7  -1  16 164.771 18.7415   2
  -7  -1  17 553.912 318.980   2
   7  -1  17 538.583 204.462   2
  -7  -1  17 626.523 215.128   5
  -7  -1  18-26.5658 175.636   2
  -7  -1  18 111.717 93.3977   5
  -7  -1  19-5.45154 216.471   2
   7  -2   0 1969.21 340.300  14
  -7   2   0 1373.79 236.993   2
   7  -2   0 2154.05 354.842   8
  -7   2   0 2469.31 386.418  19
  -7   2   0 2092.22 350.038   5
  -7   2   0 1885.22 326.778   4
  -7   2  -1 1396.47 215.434   2
   7  -2   1 1944.64 344.005  14
   7  -2  -1 1494.47 289.628  14
  -7   2   1 936.660 200.622   2
   7  -2  -1 1562.94 286.753   8
  -7   2   1 2058.84 347.099  19
  -7   2  -1 1747.72 338.138   4
   7  -2   1 2341.28 376.313   8
  -7   2  -1 1697.08 315.842   5
  -7   2   1 1694.23 298.386   5
  -7   2   1 1852.15 314.770   4
  -7   2   2 581.703 160.933   2
  -7   2  -2 1160.93 176.145   2
   7  -2  -2 1083.87 248.043  14
  -7   2  -2 1092.65 263.827   4
   7   2   2 1184.74 399.078  18
  -7   2  -2 990.565 254.115   5
  -7   2   2 1165.41 247.666   5
  -7   2   2 1202.79 241.381   4
  -7   2   2 1481.77 285.718  19
  -7   2   3 4.67712 52.4196   5
  -7   2  -3 37.7430 71.5124   4
   7  -2  -3 61.3297 34.3560  14
  -7   2  -3 69.8942 53.1620   5
   7  -2  -4 343.211 125.031  14
  -7   2   4 574.067 164.643   5
  -7   2  -4 519.013 215.378   5
  -7   2  -5 105.312 66.4879   5
   7  -2  -5 131.062 83.8022  14
   7  -2  -6 395.443 149.815  14
   7   2  -7 1033.30 190.724   8
  -7  -2   8 1865.81 437.130   5
  -7  -2   8 3868.15 487.256  19
   2   7  -9-163.729 356.416  18
  -7  -2   9-8.59293 17.4882  19
  -7  -2   9-82.1976 80.0198   5
   2   7 -10 2860.38 771.022  18
  -7  -2  10 1942.23 389.075   5
  -2   7 -11 838.534 370.453  18
  -7  -2  11 522.185 199.681   5
  -7  -2  11 502.884 139.810   4
  -7  -2  12 826.916 258.651   5
  -7  -2  12 842.725 192.772   4
  -2   7 -12 1623.19 283.761   4
   2  -7  13 588.918 192.303  14
  -2   7 -13 1419.68 282.843   4
  -7  -2  13 1322.10 242.842   4
  -7  -2  13 1229.94 331.902   5
  -7  -2  14 868.382 198.877   4
   2  -7  14 318.081 196.215  14
  -7  -2  14 814.682 232.716   5
  -7  -2  15 637.122 231.236   5
   2  -7  15 311.268 200.323  14
  -7  -2  15 909.791 201.108   4
  -7  -2  16 990.420 273.900   5
  -7  -2  16 1025.83 199.344   4
  -7  -2  17 53.6552 19.7292   5
  -7  -2  17 44.1547 46.2509   4
  -7  -2  18 1018.51 297.782   5
  -7  -2  19 170.139 168.184   5
  -7  -2  20 583.082 220.873   5
  -7  -2  21-17.0293 61.6258   5
   7   3   0 1607.69 487.523  18
  -7   3   0 1400.40 259.935   5
  -7   3   0 1602.79 283.246   4
  -7   3   0 1807.80 325.484  19
   7  -3   0 1256.09 269.049  14
  -7   3  -1 992.283 236.539  19
  -7   3   1 827.228 196.561   5
   7  -3   1 741.053 210.810   8
   7  -3   1 687.177 202.601  14
  -7   3  -1 836.215 215.806   4
   7  -3  -1 466.024 157.033  14
  -7   3  -1 729.136 198.671   5
   7   3   1 209.371 299.405  18
   7  -3   2 1044.20 253.971   8
   7  -3  -2 480.254 148.566  14
  -7   3  -2 1042.73 246.165   5
  -7   3  -2 1033.13 237.545   4
  -7   3  -2 1081.21 263.273  19
   7  -3   2 848.627 221.322  14
   7  -3   3 1581.67 313.742  14
   7  -3   3 1855.58 342.714   8
  -7   3  -3 1682.10 332.514   4
  -7   3  -3 1307.99 273.313   5
  -7   3  -4-14.2198 32.5593   5
   7  -3   4-8.80765 88.4337  14
  -7   3  -4-0.36542 64.6998   4
  -7   3  -5 438.232 184.281   5
  -7   3  -5 769.301 236.244   4
  -7   3  -6 512.914 177.890   5
  -7   3  -7 1156.37 303.768   5
   3   7  -8-558.025 689.475  18
   7   3  -8 438.628 133.489   8
   3   7  -9 4213.05 988.505  18
  -7  -3  10 29.6088 38.9579  19
  -3   7 -11 782.988 308.723  18
  -3   7 -11 1749.68 299.452   4
   3  -7  12 737.872 187.352  14
  -3   7 -12 1675.09 311.096   4
  -3   7 -12 1289.60 165.215   5
   3  -7  13 792.536 235.631  14
  -3   7 -13 1466.48 320.706   4
  -3   7 -13 1437.13 190.942   5
  -7  -3  13 721.281 264.529   5
  -7  -3  14 949.257 325.740   5
   3  -7  14 708.840 274.830  14
  -7  -3  15 317.218 163.414   5
  -7  -3  16 331.342 195.925   5
  -7  -3  17 898.878 296.416   5
   3  -7  18 72.5644 29.2898   8
  -7  -3  18-34.1925 113.534   5
   3  -7  19 1056.65 254.854   8
  -7  -3  19 792.587 349.287   5
  -7  -3  20 66.9363 167.902   5
   7   4  -1 1107.07 483.084  18
   7  -4   1 757.943 215.410  14
  -7   4  -2 157.646 69.4084   4
   7   4  -2 360.672 343.644  18
   7  -4   2 213.856 115.804  14
  -7   4  -2 282.346 116.431   5
  -7   4  -3 257.327 134.960  19
   7  -4   3 181.072 95.1188  14
  -7   4  -3 215.818 105.020   5
   7  -4   3 148.617 96.2724   8
  -7   4  -3 235.096 113.797   4
  -7   4  -4 639.279 178.275   5
   7  -4   4 545.913 202.787   8
  -7   4  -4 612.121 213.262   4
   7  -4   4 483.401 194.542  14
  -7   4  -4 656.346 205.304  19
  -7   4  -5 38.3826 65.5395  19
  -7   4  -5 47.2582 57.7407   4
   7  -4   5 249.867 169.144  14
  -7   4  -5 22.3592 64.6520   5
   7  -4   5 128.868 36.0714   8
  -7   4  -6 449.636 178.217   4
   7  -4   6 518.280 206.280  14
  -7   4  -6 423.989 136.064  19
   7  -4   6 521.519 189.638   8
  -7   4  -6 448.972 177.647   5
  -7   4  -7 653.893 213.167   5
  -7   4  -7 912.393 291.983   4
   4   7  -8 1757.43 735.355  18
  -7   4  -8 1059.05 283.145   5
   4  -7  10 110.926 175.627  14
  -4   7 -10 1881.49 330.818   4
  -4   7 -11 391.519 184.214  18
   4  -7  11 122.768 158.207  14
  -4   7 -11 557.186 183.587   4
  -7  -4  11 528.997 126.433  19
  -4   7 -12 528.634 176.370   4
   4  -7  12 172.038 150.434  14
  -4   7 -12 559.360 135.511   5
   4  -7  13 1926.43 339.851  14
  -4   7 -13 2246.56 432.240   4
  -4   7 -13 2124.88 287.044   5
   4  -7  14 85.4366 170.069  14
   4  -7  16 276.714 93.5304   8
   4  -7  17-49.0845 71.0707   8
   4  -7  18 269.398 143.923   8
   4  -7  19 145.354 140.904   8
   4  -7  20 335.330 150.995   8
   7   5  -2-557.474 680.977  18
   7   5  -3 187.787 325.260  18
   7  -5   3 0.32103 107.014  14
  -7   5  -4 25.0199 80.6927   4
   7  -5   4 70.6298 63.8632  14
  -7   5  -4 75.9895 66.4553   5
   7  -5   5-4.06776 77.8971  14
  -7   5  -5 74.2932 71.7641   5
  -7   5  -5 94.9266 87.4247   4
   7  -5   6 169.478 129.988  14
  -7   5  -6 375.990 149.895  19
   7  -5   6 187.958 110.678   8
  -7   5  -6 238.637 98.2152   4
  -7   5  -6 271.197 126.544   5
  -7   5  -7 79.3233 39.7336  19
   5   7  -7 11.9482 147.230  18
   7  -5   7 86.3068 95.2653  14
  -7   5  -7 60.7509 117.071   5
   7  -5   7 76.5183 72.7933   8
  -7   5  -7 117.950 122.582   4
  -7   5  -8 168.481 144.969   4
   7  -5   8 210.941 119.806  14
   7  -5   8 195.128 105.976   8
  -7   5  -8 167.754 105.366   5
   5   7  -8 429.111 378.704  18
  -7   5  -8 147.704 111.444  19
  -7   5  -9 403.004 195.386   5
  -7   5  -9 441.696 181.467   4
   7  -5   9 576.092 224.405   8
  -5   7  -9 395.799 149.077   4
  -7   5  -9 533.348 181.141  19
   5  -7  10 2.28776 81.2596  14
   7  -5  10 326.367 166.955   8
  -5   7 -10 189.887 70.6882   5
  -5   7 -10 289.952 146.851   4
  -7   5 -10 299.183 195.293   5
  -7   5 -10-9.32580 90.5943  19
   5  -7  11 4.66540 61.6220  14
  -5   7 -11-9.32961 88.3440   4
  -5   7 -11 44.4419 45.2936   5
  -5   7 -12 1302.25 334.505   4
   5  -7  12 940.254 247.471  14
  -5   7 -12 1381.69 247.252   5
   5  -7  13 1.68356 102.267  14
  -5   7 -13 130.013 55.3453   4
  -7  -5  13-35.9755 70.3446  19
  -5   7 -13 32.5423 37.6868   5
   5  -7  15 118.382 122.107   8
   5  -7  16 13.1754 60.2973   8
   5  -7  17 91.5790 130.853   8
   5  -7  18 45.3946 128.568   8
   5  -7  19 9.51624 68.6743   8
   5  -7  20 52.8282 193.197   8
   5  -7  21 65.1171 84.0664   8
   7   6  -4 45.1508 264.434  18
   7   6  -5 291.758 418.934  18
   7  -6   6-16.3927 110.334  14
  -7   6  -6-46.4331 58.7099   5
  -7   6  -6-52.9781 124.925   4
   7  -6   7 316.757 144.734  14
   6   7  -7 830.736 578.211  18
  -7   6  -7 529.519 169.020   5
  -7   6  -7 668.098 228.129   4
  -6   7  -8-50.7344 83.3109   4
  -7   6  -8 0.94692 81.3342   5
  -7   6  -8 127.242 117.509   4
   7  -6   8-21.2474 94.1669  14
   7  -6   9 110.167 64.2172  14
  -7   6  -9-4.86830 125.081   4
  -7   6  -9 3.01856 13.9994   5
   6  -7   9-24.8039 75.2175  14
  -6   7  -9-1.19052 56.4496   5
   7  -6   9-5.36503 58.1128   8
  -6   7  -9 15.9595 54.4495   4
  -7   6 -10 65.2805 110.600   4
  -7   6 -10-7.19926 33.4687  19
  -7   6 -10 68.9386 85.7297   5
   6  -7  10 2.12268 70.9207  14
   7  -6  10-59.4969 74.2393  14
  -6   7 -10-61.0356 31.2890   5
  -6   7 -10-46.2405 86.0037   4
   7  -6  10-52.8274 38.5765   8
   6  -7  11 15.4587 78.1117  14
  -6   7 -11 146.299 125.121   4
  -6   7 -11 132.509 91.7765   5
   7  -6  11 236.441 115.220   8
  -7   6 -11 206.240 110.352   5
  -7   6 -11 131.397 80.8726  19
  -6   7 -12 154.246 126.092   4
  -7   6 -12 60.8145 60.0607  19
   6  -7  12 9.18200 99.9921  14
   7  -6  12-17.6388 19.1312   8
  -7   6 -12 73.5378 75.7862   5
  -6   7 -12 4.99331 53.6178   5
   6  -7  13 106.385 164.705  14
   7  -6  13 237.370 280.886   8
  -7   6 -13 25.3517 136.657  19
  -6   7 -13 610.415 188.373   5
  -7   6 -14 37.3389 5.73570  19
   7  -6  14-14.8687 19.1300   8
   6  -7  14 0.04044 31.9029   8
   6  -7  15 56.4331 115.352   8
  -7   6 -15 50.5204 157.054  19
  -7   6 -16 17.1999 77.0697  19
   6  -7  16-14.6324 80.7880   8
  -7   6 -17 21.1721 87.5182  19
   6  -7  17 11.4387 83.6724   8
   6  -7  18 51.2610 114.350   8
  -7   6 -18 35.8798 69.4082  19
   6  -7  19 3.55750 100.692   8
   6  -7  20 18.3091 211.620   8
   6  -7  21 161.084 233.948   8
   6  -7  22 20.3473 35.5016   8
   7   7  -5-397.146 660.590  18
   7   7  -6 1926.39 935.614  18
  -7   7  -7-59.4874 102.864   4
   7  -7   8 202.429 119.919  14
  -7   7  -8 564.871 171.274   5
  -7   7  -8 614.826 209.327   4
   7  -7   9 86.1276 96.8497  14
  -7   7  -9 43.1604 48.8610   5
  -7   7  -9-128.878 124.165   4
  -7   7 -10 246.079 170.423   4
  -7   7 -10 59.2550 48.0796   5
   7  -7  10 70.2558 96.3062  14
  -7   7 -11 12.2238 71.4079   5
   7  -7  11 46.4728 77.7499  14
  -7   7 -11 33.3391 165.746   4
   7  -7  12-32.1963 44.9440  14
  -7   7 -12 140.479 38.0752   5
  -7   7 -12 60.6532 49.6980   4
   7  -7  13 5.10427 73.0796   8
  -7   7 -13 63.2074 65.9171   5
   7  -7  14 156.507 270.811   8
   7  -7  15 34.5763 62.7232   8
  -7   7 -16 6.87876 110.068  19
   7  -7  16 14.1186 159.982   8
  -7   7 -17 11.2383 80.1318  19
   7  -7  17 27.2782 140.549   8
  -7   7 -18 18.5563 62.8329  19
   7  -7  18-32.0475 37.4207   8
   7  -7  19-7.48013 87.6298   8
   7  -7  20 146.375 367.928   8
   7  -7  21 17.1240 79.4760   8
  -8   0   1 14.0642 45.3924   5
  -8   0   2 666.759 239.671   5
  -8   0   3-15.1811 45.7761   4
  -8   0   3-19.4116 60.3233   5
  -8   0   4 240.893 140.057   4
   8   0  -4 98.3473 81.7224   8
  -8   0   4 139.259 70.6287   5
  -8   0   5-55.8505 48.6893   5
  -8   0   5 52.0213 78.5146   4
   8   0  -5-50.0159 68.5197   8
  -8   0   5 2.97117 87.7363  19
  -8   0   6 378.182 149.547   4
  -8   0   6 415.325 175.587   5
  -8   0   6 593.281 166.651  19
  -8   0   7 8.01661 102.746   2
  -8   0   7 25.1391 35.2642  19
  -8   0   7 19.4246 56.6129   5
  -8   0   7 1.02118 6.87458   4
  -8   0   8 60.5525 96.4482   5
  -8   0   8-46.3815 106.706   2
  -8   0   8-13.2243 60.7355   4
   8   0  -9-13.8612 76.8177  14
  -8   0   9-2.41980 25.6677   5
  -8   0   9-11.6422 100.159   2
  -8   0   9 34.9637 18.3887   4
   8   0   9-69.8055 118.778  18
   8   0 -10 209.065 115.177  14
  -8   0  10 546.939 193.725   5
  -8   0  10 421.411 220.853   2
  -8   0  10 479.821 161.649   4
  -8   0  11-73.2356 121.014   2
   8   0 -11-46.1658 31.7553  14
  -8   0  11 26.5441 39.8892   5
   0   8 -11-167.891 357.551  18
  -8   0  11 0.02541 52.6737   4
   8   0 -12 393.087 160.087  14
  -8   0  12 1765.62 357.918   5
  -8   0  12 1487.76 392.860   2
   8   0 -13-33.6418 11.9820  14
  -8   0  13-16.2240 18.9103   5
  -8   0  13 36.1936 58.3278   2
  -8   0  14 1349.57 395.336   2
  -8   0  14 1230.18 304.101   5
   8   0 -14 180.789 91.9958  14
   8   0 -15-6.63713 51.9619  14
  -8   0  15-123.599 138.651   5
  -8   0  15-56.0419 41.6673   2
  -8   0  16 351.141 298.933   2
  -8   1   0 150.112 84.9380   5
  -8   1   0 348.964 174.832   4
  -8   1  -1 736.065 262.381   5
  -8   1   1 899.614 266.046   5
  -8   1   1 1027.60 278.370   4
  -8   1   2 58.0966 22.0531   5
  -8   1   2 37.5111 73.2572   4
   8  -1  -2 112.157 73.0313   8
  -8   1  -2 108.236 117.604   5
  -8   1   3 446.051 195.740   5
  -8   1   3 532.152 195.423   4
   8  -1  -3 466.968 160.386   8
  -8   1   3 309.140 141.673   2
  -8   1   3 575.434 198.038  19
  -8   1   4 226.708 126.509   2
   8  -1  -4 226.842 161.982  14
  -8   1   4 247.863 123.136  19
  -8   1   4 246.373 132.977   5
  -8   1   4 306.389 129.136   4
  -8  -1   4 154.992 127.970   5
  -8   1   5 81.0194 83.4203   2
   8  -1  -5 298.548 192.645  14
   8   1  -5 295.016 234.392   8
  -8   1   5-11.4647 26.1273   4
  -8  -1   5 50.1101 162.180   5
  -8   1   5 18.9419 40.6893   5
  -8   1   5 108.716 115.417  19
   8   1   6 405.690 291.255  18
   8   1  -6 409.240 178.656   8
  -8   1   6 240.233 113.393   5
  -8   1   6 172.824 148.763   2
  -8   1   6 187.753 98.5585   4
   8  -1  -6 109.682 28.4074  14
  -8  -1   6 104.248 66.5484   5
  -8  -1   7 78.8713 34.1995   5
   8  -1  -7 178.040 114.616  14
  -8  -1   7 277.726 127.293  19
  -8   1   7 194.900 100.510   5
  -8   1   7 183.304 91.3741   4
  -8   1   7 204.002 115.627   2
  -8  -1   7 30.9033 74.6589   4
  -8  -1   8 464.441 163.482   4
  -8  -1   8 613.130 176.843  19
  -8  -1   8 425.708 209.089   5
   8  -1  -8 117.164 90.9426  14
  -8   1   8 428.959 152.326   5
  -8   1   8 381.528 219.883   2
  -8  -1   9 273.177 132.668   4
  -8   1   9 319.211 140.073   5
  -8  -1   9 178.914 90.8485   5
   8  -1  -9 139.474 116.922  14
  -8   1   9 353.181 198.260   2
  -8  -1  10 232.140 137.136   5
   8  -1 -10 174.171 100.585  14
  -8   1  10 362.507 155.955   5
  -8   1  10 352.911 196.690   2
  -8  -1  10 378.153 150.486   4
  -1   8 -11 90.2863 407.044  18
   1   8 -11 1077.08 494.995  18
  -8  -1  11 947.637 283.685   5
  -8   1  11 925.978 322.572   2
   8  -1 -11 163.611 110.127  14
  -8  -1  11 1120.51 252.508   4
  -1   8 -12 479.030 283.918  18
  -8  -1  12 388.166 186.793   5
   8  -1  12 465.407 119.975   2
  -8  -1  12 425.135 148.969   4
   8  -1  13 1957.23 269.665   2
  -8  -1  13 1736.64 379.882   5
  -8  -1  13 1605.47 287.824   4
  -1   8 -13 2339.68 314.171   4
   8  -1  14 274.082 121.277   2
  -1   8 -14 298.541 129.487   4
  -8  -1  14 97.5720 138.815   5
  -8  -1  14 245.897 119.730   4
  -8  -1  15 899.587 294.034   5
   1  -8  15 166.644 162.054  14
  -8  -1  15 817.648 196.504   4
  -8  -1  16 49.8631 90.0088   5
  -8  -1  16 60.5013 38.7882   4
  -8  -1  17-141.958 130.664   5
  -8  -1  17 49.4305 39.0395   4
  -8  -1  18 200.033 119.838   5
  -8  -1  19-5.96766 97.6783   5
   8  -2   0 3252.72 473.452  14
   8  -2   0 3572.42 488.901   8
  -8   2   0 3013.32 464.783   4
  -8   2   0 2976.82 457.132   5
  -8   2   0 2692.55 343.389   2
  -8   2  -1 581.452 201.827   4
   8  -2  -1 596.415 192.503  14
  -8   2   1 667.825 195.282   5
  -8   2  -1 638.217 143.845   2
   8  -2  -1 787.451 222.750   8
  -8   2   1 603.375 192.806   4
  -8   2  -1 668.596 224.475   5
  -8   2   1 502.407 162.940   2
  -8   2   1 955.779 263.089  19
   8  -2  -2 837.867 233.718  14
  -8   2   2 748.252 205.322   2
  -8   2   2 1012.14 259.491   5
  -8   2   2 1073.19 251.882   4
  -8   2  -2 975.133 271.677   5
  -8   2   2 1258.58 285.663  19
  -8   2  -2 1029.13 288.175   4
  -8   2  -3 89.4545 86.8886   5
   8   2   3 99.8235 142.043  18
  -8   2   3 39.3478 38.9775  19
  -8   2   3 89.7313 91.5698   2
  -8   2   3 65.8431 75.9591   5
  -8   2   3 47.5861 30.1799   4
   8  -2  -3 39.3997 69.2293  14
   8   2   4 224.399 192.712  18
   8  -2  -4 197.137 106.091  14
  -8   2   4 128.207 80.4168   5
  -8   2   4 70.5619 83.9827   2
  -8   2  -4 383.195 251.656   5
  -8   2   4 144.629 53.2224   4
   8  -2  -5 338.133 150.166  14
  -8   2   5 475.686 179.779   2
  -8   2   5 473.679 164.384   5
  -8   2   6 10.9373 58.7473   2
   8  -2  -6 107.412 104.462  14
  -8   2   6 76.0376 61.7533   5
   8  -2  -7 276.697 110.919  14
   8   2  -7 1329.78 259.630   8
  -8   2   7 909.676 228.069   5
  -8  -2   8 20.9394 92.9882   5
  -8  -2   9 1174.34 258.671  19
  -8  -2   9 591.617 219.540   5
   2   8 -10 758.464 269.072  18
  -8  -2  10 729.792 186.774  19
  -8  -2  10 646.456 243.646   5
  -8  -2  11 780.533 268.771   5
   2   8 -11 1063.87 465.905  18
  -8  -2  12 1312.80 340.017   5
  -2   8 -12 1920.67 587.568  18
  -8  -2  12 1169.28 272.349   4
  -8  -2  13 326.324 163.464   5
  -2   8 -13 569.816 169.198   4
  -8  -2  13 301.494 121.168   4
  -8  -2  14 1543.29 394.768   5
   2  -8  14 526.038 201.983  14
  -8  -2  14 1712.56 313.009   4
  -2   8 -14 2066.31 371.411   4
  -8  -2  15 415.392 145.047   4
   2  -8  15 183.685 140.625  14
  -8  -2  15 280.159 140.477   5
  -8  -2  16 505.937 160.198   4
  -8  -2  16 332.966 219.739   5
  -8  -2  17 248.550 110.041   5
  -8  -2  18 97.5722 84.0409   5
  -8  -2  19 360.764 124.091   5
  -8  -2  20-136.988 144.800   5
  -8  -2  21 127.791 96.2881   5
  -8   3   0 556.585 176.719  19
   8  -3   0 263.571 92.9668  14
  -8   3   0 473.277 171.514   5
  -8   3   0 435.385 163.614   4
   8  -3   1 2947.40 443.911  14
   8  -3  -1 1888.71 342.559  14
   8   3   1 2863.19 703.402  18
   8  -3   1 3113.73 463.920   8
  -8   3   1 3193.53 459.933  19
  -8   3  -1 3059.57 441.363   5
  -8   3  -1 2694.69 424.280   4
  -8   3   1 2613.61 388.648   5
  -8   3   1 2658.73 389.787   4
  -8   3  -1 3395.68 490.973  19
   8  -3   2 185.368 163.318  14
  -8   3  -2 77.2055 10.7268  19
   8   3   2 152.899 282.618  18
  -8   3  -2 68.4579 25.4290   5
  -8   3  -2 92.9529 92.3333   4
   8  -3  -2 65.9847 81.1086  14
  -8   3  -2 25.4564 36.0484   2
   8  -3   2 144.015 80.7154   8
  -8   3   2 157.385 71.9816   5
  -8   3  -3 862.549 150.047   2
   8  -3   3 1381.30 356.029  14
  -8   3  -3 1266.54 290.844   4
   8  -3  -3 596.308 187.329  14
   8  -3   3 1546.54 347.916   8
  -8   3  -3 1078.87 275.243   5
  -8   3   3 1172.38 254.498   5
  -8   3  -4 214.696 117.967   4
  -8   3  -4 140.989 91.5526   5
  -8   3  -4 209.984 72.9586   2
  -8   3  -5-22.1564 88.9636   4
  -8   3  -5-22.3507 61.0439   5
  -8   3  -6 283.476 183.221   5
   8   3  -8 2399.97 339.538   8
   8   3  -9 213.308 100.081   8
   3   8  -9 86.9603 394.270  18
  -8  -3  10 694.492 186.802  19
   3   8 -10 730.359 484.028  18
  -8  -3  11 1290.09 251.726  19
  -3   8 -12 652.990 361.329  18
  -3   8 -12 504.657 163.613   4
   3  -8  13 695.349 207.615  14
  -3   8 -13 3262.51 450.922   4
  -3   8 -14 177.835 146.740   4
   3  -8  14 97.4743 116.258  14
   3  -8  15 672.772 259.630  14
  -8  -3  15 886.180 282.447   5
   3  -8  16 27.3208 147.532  14
  -8  -3  16 304.477 223.493   5
  -8  -3  17 217.841 226.722   5
  -8  -3  18 204.324 164.315   5
  -8  -3  19 272.737 241.263   5
  -8  -3  20 128.439 123.932   5
   8  -4   0 1179.06 281.673  14
   8   4   0 2394.47 701.257  18
  -8   4   0 2552.59 381.371   5
  -8   4  -1 66.2031 65.0239   4
   8   4  -1 185.291 299.464  18
   8  -4   1 38.5903 63.7841  14
  -8   4  -1 17.0359 52.3160   5
  -8   4  -2 2594.41 431.610  19
   8  -4   2 1629.36 348.770  14
  -8   4  -2 2181.92 356.669   5
  -8   4  -2 2239.14 387.092   4
  -8   4  -3-11.1730 92.1469  19
  -8   4  -3-87.1367 110.814   5
   8  -4   3-25.5946 80.0173  14
   8  -4   3 33.4887 90.5405   8
  -8   4  -3 41.2328 38.0979   4
  -8   4  -4 494.358 181.966   5
  -8   4  -4 385.487 188.201   4
  -8   4  -4 368.968 153.054  19
   8  -4   4 454.772 185.990   8
   8  -4   4 357.498 165.919  14
  -8   4  -5 50.8770 46.5880  19
  -8   4  -5 48.4150 84.1670   5
   8  -4   5 22.3870 73.6692  14
  -8   4  -5 56.0936 37.6556   4
   8  -4   5 118.275 106.782   8
  -8   4  -6 91.9950 188.942   4
  -8   4  -6 14.9694 25.6439   5
   8  -4   6-37.9308 30.0836   8
  -8   4  -7 236.458 145.255   5
  -8   4  -7 164.765 113.474   4
  -8   4  -8 79.4204 97.4173   5
   4   8  -9 75.4796 292.099  18
   8   4 -10 1057.97 200.625   8
  -4   8 -11 190.392 69.3294   4
  -4   8 -12 1697.54 433.258  18
   4  -8  12 436.417 201.977  14
  -8  -4  12 1346.26 255.672  19
   4  -8  13-27.4425 100.996  14
  -4   8 -13-136.446 126.468   4
   4  -8  14 673.350 314.773  14
  -4   8 -14 2651.61 482.946   4
   4  -8  15 78.3790 166.066  14
   8   5  -1 934.811 182.019  18
   8   5  -2 646.770 482.240  18
   8  -5   2 277.587 144.387  14
  -8   5  -2 465.048 148.924   5
   8  -5   3 220.493 123.196  14
  -8   5  -3 375.776 129.765   5
  -8   5  -3 422.365 159.264   4
   8  -5   4 156.746 117.959  14
  -8   5  -4 137.047 86.3009   5
  -8   5  -4 30.3527 51.6602   4
   8  -5   5 31.7626 14.0811  14
  -8   5  -5 34.1865 74.6634  19
  -8   5  -5 42.7875 69.3248   5
  -8   5  -5-37.9349 77.8902   4
   8  -5   5 31.6434 45.7508   8
   8  -5   6 35.5120 81.1280  14
  -8   5  -6 55.4689 86.9105  19
  -8   5  -6 51.7566 94.7366   4
  -8   5  -6-37.7252 65.2666   5
   8  -5   6 27.7427 62.8429   8
  -8   5  -7-19.7810 52.5885   4
   8  -5   7 8.27791 47.2157  14
  -8   5  -7 48.7423 69.9177   5
  -8   5  -7 93.8848 94.8700  19
   8  -5   7-18.4208 57.9224   8
  -8   5  -8-45.9726 35.1198   4
   5   8  -8-297.297 478.729  18
  -8   5  -8-5.36944 59.4197   5
   8  -5   8 102.654 132.505   8
  -8   5  -8 206.102 143.111  19
  -8   5  -9 45.2910 128.993   5
   8  -5   9 77.4444 40.4139   8
  -8   5  -9-38.2253 95.3277  19
  -5   8 -10 19.3459 60.9831   4
  -8   5 -10 107.818 27.6241   5
  -8   5 -10 55.1393 104.681  19
  -5   8 -11 1694.80 348.101   4
  -5   8 -12 73.6550 148.087  18
   5  -8  12-1.08790 45.2949  14
  -5   8 -12 114.838 103.143   4
  -5   8 -12 131.004 68.4266   5
  -5   8 -13 1716.60 395.626   4
   5  -8  13 221.271 265.134  14
   5  -8  14 32.1975 116.862  14
  -5   8 -14 125.691 149.653   4
   5  -8  15 195.249 217.002  14
   8   6  -2-520.761 867.250  18
   8   6  -3 490.891 269.912  18
   8   6  -4-32.6019 349.619  18
   8  -6   5 5.46767 109.811  14
  -8   6  -5 173.454 80.2662   5
  -8   6  -5 325.230 165.980   4
   8  -6   6 296.334 152.386  14
  -8   6  -6 276.035 120.133   5
  -8   6  -6 265.719 155.927   4
   6   8  -7-38.5158 336.759  18
   8  -6   7 34.0110 45.7331  14
  -8   6  -7 80.3378 85.8111   5
  -8   6  -7 67.4025 47.5235   4
   6   8  -8 674.638 552.880  18
   8  -6   8 279.323 173.243  14
  -8   6  -8 298.019 163.242   4
  -8   6  -8 364.621 163.047   5
   8  -6   8 230.981 165.849   8
  -8   6  -9 304.203 167.925   4
   8  -6   9 265.012 165.517  14
  -8   6  -9 304.465 136.497  19
   8  -6   9 332.395 184.212   8
  -8   6  -9 189.863 86.1882   5
  -8   6 -10 37.5172 98.5240  19
  -8   6 -10-14.5393 66.3349   5
   8  -6  10 14.1208 50.8353   8
  -6   8 -10 1.37681 77.7246   4
  -8   6 -10-58.4744 77.8383   4
  -8   6 -11 211.916 155.230  19
   6  -8  11 49.7590 82.8055  14
   8  -6  11 4.27094 36.8448   8
  -6   8 -11 221.012 96.6485   5
  -6   8 -11 224.059 156.609   4
  -8   6 -11 189.029 146.851   5
  -6   8 -12 537.294 219.663   4
   6  -8  12 63.1460 169.494  14
  -6   8 -12 546.888 162.735   5
   8  -6  12 631.147 231.210   8
  -8   6 -12 581.732 228.274  19
   6  -8  13 34.2726 130.967  14
  -6   8 -13 193.089 122.545   4
   8  -6  13 205.613 110.062   8
  -8   6 -13-3.39068 32.0605  19
   6  -8  14 1.84395 114.837  14
   8  -6  14 40.2936 147.630   8
  -8   6 -14 27.2311 132.539  19
  -8   6 -15 38.0993 48.3253  19
  -8   6 -16 5.62447 90.1246  19
  -8   6 -17 18.9423 72.1918  19
   6  -8  20-10.2938 52.0534   8
   6  -8  21 47.1713 87.4368   8
   8   7  -4-16.3496 588.230  18
   8   7  -5 1634.17 823.249  18
  -8   7  -7 960.879 241.845   5
   7   8  -7 1323.58 764.887  18
  -8   7  -7 988.174 285.887   4
   8  -7   8 99.9565 85.4068  14
  -8   7  -8 108.465 111.212   5
  -8   7  -8 31.6152 91.2595   4
   8  -7   9 312.195 173.993  14
  -8   7  -9 513.445 193.810   5
  -8   7  -9 880.361 275.172   4
  -7   8  -9 513.332 201.657   4
   8  -7  10 133.967 156.415  14
  -8   7 -10 154.834 142.396   5
   7  -8  10 42.1076 152.263  14
  -8   7 -10 136.107 207.429   4
  -7   8 -10 109.091 79.7278   5
  -7   8 -10 99.0175 86.6116   4
  -8   7 -11 33.2973 96.8292   4
  -8   7 -11 96.9613 97.0683   5
   8  -7  11 42.0005 143.154  14
   7  -8  11-13.4027 71.7350  14
  -7   8 -11 76.2271 102.030   4
  -7   8 -11 69.5977 39.6616   5
  -7   8 -12 51.8015 104.381   4
   7  -8  12-13.6141 71.6986  14
  -7   8 -12 126.768 66.8502   5
   8  -7  12 92.8578 121.906   8
  -8   7 -12 20.0802 53.8691   5
  -7   8 -13 335.974 195.331   4
   7  -8  13 52.7360 109.880  14
   8  -7  13 28.3108 76.0058   8
  -8   7 -13 209.416 138.539   5
  -8   7 -14 2.58019 67.3443  19
   8  -7  14 17.0733 89.8447   8
  -8   7 -15 22.2038 76.4260  19
   8  -7  15-3.90831 23.5034   8
  -8   7 -16-20.2603 58.1559  19
   8  -7  16 81.0767 88.5493   8
  -8   7 -17 37.9759 139.041  19
   8  -7  17-27.0793 174.026   8
  -8   7 -18 127.196 194.986  19
   8  -7  18 69.8465 247.409   8
   7  -8  18 3.98748 61.8847   8
   8  -7  19 128.429 395.810   8
   7  -8  19 156.123 273.609   8
  -8   7 -19 81.9974 185.785  19
   8  -7  20-12.0248 226.269   8
   7  -8  20 20.1222 178.456   8
   8   8  -6 2986.20 1215.71  18
  -8   8  -9-93.8469 56.9259   5
  -8   8  -9-7.53329 112.164   4
   8  -8  10 70.8749 74.1356  14
  -8   8 -10 702.797 225.302   5
  -8   8 -10 994.007 324.379   4
   8  -8  11 0.98219 47.1396  14
  -8   8 -11-131.658 25.5295   4
  -8   8 -11 5.17740 33.3301   5
  -8   8 -12-118.471 133.391   4
  -8   8 -12 11.2731 53.8315   5
   8  -8  12 32.6764 87.9635  14
   8  -8  13-214.531 173.052  14
  -8   8 -13 53.0829 85.5066   4
   8  -8  17 85.8851 121.682   8
   8  -8  18 218.793 375.652   8
   8  -8  19 41.3115 119.835   8
  -9   0   1 82.9099 113.157   5
  -9   0   2-17.9000 79.1604   5
  -9   0   3 87.4437 45.6071   5
  -9   0   4-142.035 139.079   5
   9   0  -4-26.8829 93.3639   8
  -9   0   4-28.9043 63.4858   4
  -9   0   5 158.516 149.179   5
  -9   0   5 168.801 114.553  19
   9   0  -5 290.805 136.339   8
  -9   0   5 207.578 109.509   4
  -9   0   6 15.8291 29.5349  19
  -9   0   6 13.8877 98.1369   4
  -9   0   6 12.7747 17.8005   5
  -9   0   7 134.730 107.813  19
  -9   0   7 40.3210 29.0738   5
  -9   0   7 46.9944 37.7157   4
  -9   0   8-61.8637 97.7361   5
  -9   0   8 54.7825 102.541   4
  -9   0   9-53.5927 13.6222   5
  -9   0   9-29.8211 71.8831   4
  -9   0  10-41.2876 134.521   2
  -9   0  10-67.2679 84.2852   5
  -9   0  10-43.1141 67.0658   4
   9   0  11 453.382 161.833  18
  -9   0  11 557.195 217.904   5
  -9   0  11 565.497 300.979   2
  -9   0  11 469.829 177.788   4
  -9   0  12 71.5164 59.3839   5
  -9   0  12 125.372 169.594   2
  -9   0  12 57.7751 78.4835   4
  -9   0  13 1292.01 329.914   5
   9   0 -13 274.750 125.520  14
  -9   0  13 1303.30 355.659   2
  -9   0  13 1147.41 261.335   4
   9   0 -14 11.4737 60.7253  14
  -9   0  14 185.438 155.593   5
  -9   0  14-27.4151 34.4212   4
  -9   0  14-158.860 246.708   2
   9   0 -15 27.1052 49.7021  14
  -9   0  15 292.175 126.146   5
  -9   0  15 175.783 189.672   2
   9   0 -16-42.4300 89.2981  14
  -9   0  16 5.21610 62.8145   2
  -9   1   0 737.690 246.044   5
  -9   1   1 2.67057 45.1517   5
  -9   1  -1 49.7386 59.5946   5
  -9   1   1 52.0408 54.0029   4
  -9   1   2 297.506 143.060   4
  -9   1   2 317.652 181.367   5
   9  -1  -2 570.366 212.785   8
  -9   1   3 16.2123 30.0742  19
  -9   1   3 43.0491 70.9480   4
   9  -1  -3 113.304 100.187   8
  -9   1   3-3.09181 77.9007   5
  -9   1   4-34.3247 55.1584   5
  -9   1   4-27.1430 107.227   2
  -9   1   4 2.94719 40.1979   4
  -9   1   4-68.6433 105.101  19
  -9   1   5 89.8952 94.9322  19
  -9   1   5-8.64018 59.3427   5
   9   1  -5-24.9454 57.6328   8
  -9   1   5 15.4155 54.5127   4
  -9   1   5-4.90899 29.6251   2
  -9  -1   5-1.24324 71.2265   5
   9  -1  -6 5.01060 70.4503  14
   9   1  -6 169.630 128.939   8
  -9   1   6 140.728 95.6101   4
  -9  -1   6-6.37337 71.3599   5
  -9   1   6 77.4107 45.2123   2
  -9   1   7 143.104 108.150   2
   9  -1  -7 71.5166 38.5288  14
  -9   1   7 83.5885 78.5729   5
  -9  -1   7 70.5262 3.27710  19
  -9   1   7 162.135 111.427   4
  -9  -1   7 81.7447 70.5075   5
  -9  -1   8 125.210 107.774  19
  -9  -1   8-84.9215 150.200   5
   9   1   8 51.4010 61.3813  18
  -9   1   8 127.050 150.903   2
  -9   1   8 25.7369 32.4695   5
   9  -1  -8-13.6319 50.7172  14
  -9  -1   8 86.2044 85.6877   4
  -9   1   8 96.9378 119.927   4
  -9  -1   9 114.402 130.264   5
  -9  -1   9 100.375 66.0383   4
  -9   1   9 28.2367 56.4383   4
  -9  -1   9 60.4810 39.6835  19
   9  -1  -9 94.6762 95.7568  14
  -9   1   9 126.832 115.278   2
  -9   1   9 81.1726 124.585   5
  -9  -1  10 131.272 109.643   4
  -9  -1  10 166.736 140.821   5
   9  -1 -10 77.9800 76.5210  14
  -9   1  10 317.487 201.859   2
  -9   1  10 55.9648 61.1909   5
  -9  -1  11-19.5047 87.7008   5
   1   9 -11-124.295 635.220  18
  -9  -1  11 54.9472 77.1398   4
  -9   1  11 392.514 240.499   2
  -9   1  11 257.508 167.871   5
  -1   9 -12 168.179 407.789  18
   1   9 -12 1414.43 691.836  18
  -9  -1  12 549.615 179.463   5
   9  -1 -12 136.824 129.897  14
  -9  -1  12 814.485 247.699   4
  -9   1  12 854.693 327.240   2
  -1   9 -13 137.289 118.819  18
  -9  -1  13 83.1735 80.4664   4
  -9  -1  13 40.3255 70.9592   5
  -9  -1  14 943.144 314.724   5
  -9  -1  14 881.283 232.594   4
  -9  -1  15 57.4800 120.028   5
  -9  -1  15-49.7367 67.4324   4
  -9  -1  16 85.0867 159.755   5
  -9  -1  16 120.057 83.3382   4
  -9  -1  17 167.457 156.150   5
  -9  -1  17-33.0714 50.0926   4
  -9  -1  18 118.465 164.399   5
  -9  -1  19 142.015 101.451   5
  -9   2   0 203.308 113.996   4
  -9   2   0 411.368 184.951   5
  -9   2   0 513.065 178.915   2
   9  -2   0 634.069 220.788   8
  -9   2   1 2207.27 350.794   2
   9  -2   1 3438.42 530.974   8
   9  -2  -1 2861.68 466.611   8
  -9   2   1 3208.43 508.069  19
  -9   2  -1 1952.24 392.779   4
  -9   2  -1 2014.23 413.632   5
  -9   2   1 2422.00 432.242   4
  -9   2   1 2433.54 428.480   5
  -9   2   2 184.103 149.417  19
  -9   2  -2 42.5074 61.7304   5
   9  -2  -2 124.857 125.164  14
  -9   2   2 101.006 53.8721   2
  -9   2   2 58.4473 64.5883   5
  -9   2   2 122.805 78.3334   4
   9  -2  -2 127.035 60.8920   8
  -9   2  -2-21.2330 45.7384   4
  -9   2  -3 219.620 189.788   5
  -9   2   3 267.306 143.096   5
  -9   2   3 72.9182 74.3690   2
  -9   2   3 244.747 135.844   4
   9  -2  -3 250.796 130.311  14
  -9   2   3 511.792 215.459  19
   9  -2  -4 60.3436 94.8264  14
  -9   2   4 111.979 122.205   5
  -9   2   4 68.9449 98.6147   4
  -9   2  -4-41.5898 129.059   5
  -9   2   4-16.3592 32.5925   2
   9   2   5-157.172 194.602  18
   9  -2  -5-78.7343 77.4397  14
  -9   2   5-14.5856 48.6431   4
  -9   2   5 24.4650 32.1720   5
  -9   2   5-119.424 126.118   2
   9   2   6-59.7188 430.947  18
   9  -2  -6 80.8979 49.7809  14
  -9   2   6 516.987 187.222   5
  -9   2   6 320.980 123.837   4
  -9   2   6 256.565 163.835   2
   9  -2  -7-5.01043 53.3944  14
   9   2  -7 29.1653 65.2140   8
  -9   2   7-2.61358 49.0059   5
  -9   2   7-117.890 143.217   2
   9  -2  -8 65.1838 45.5625  14
  -9   2   8 165.116 133.040   5
   9   2  -8 229.358 116.455   8
  -9  -2   9-26.6032 129.697   5
  -9  -2   9 201.084 128.330  19
  -9  -2  10 305.578 137.989  19
  -9  -2  10 171.549 98.0160   5
   2   9 -11 1136.14 614.854  18
  -9  -2  11 605.919 230.494   5
   2   9 -12 333.988 289.482  18
  -9  -2  12 186.911 165.295   5
  -2   9 -13 1764.41 612.454  18
  -9  -2  13 881.577 307.830   5
  -9  -2  14 95.2386 111.282   5
  -2   9 -14 35.1676 51.2455   4
  -9  -2  15 1135.95 379.075   5
   2  -9  15 96.3229 142.960  14
  -9  -2  15 687.086 206.547   4
  -9  -2  16 130.748 38.2022   5
  -9  -2  16 136.689 59.8713   4
  -9  -2  17-34.6310 117.818   5
  -9  -2  18 113.072 100.667   5
  -9  -2  19-28.2486 115.660   5
  -9  -2  20 12.8687 63.0894   5
  -9  -2  21-1.57758 112.706   5
  -9   3   0 5450.78 651.724  19
   9  -3   0 3721.90 530.228  14
  -9   3   0 3065.54 384.732   2
   9  -3   0 4347.02 579.328   8
  -9   3   0 4527.45 565.329   4
  -9   3   0 4348.66 562.090   5
  -9   3  -1 100.821 55.1865  19
  -9   3  -1 59.8306 45.9970   2
   9  -3   1 6.08390 117.373  14
   9  -3  -1 32.0863 58.4577  14
  -9   3  -1-24.7926 86.2690   5
  -9   3  -1 41.1250 37.6351   4
  -9   3   1 45.1853 61.0639   5
  -9   3   1 39.8365 37.0067  19
   9  -3   1 48.0412 38.3414   8
  -9   3   1 26.1356 49.7524   2
  -9   3   1 163.145 128.564   4
  -9   3  -2 2306.60 291.417   2
  -9   3   2 1292.46 274.124   2
   9  -3  -2 1640.35 346.768  14
   9  -3   2 3325.19 522.858   8
  -9   3  -2 2742.77 475.245   4
  -9   3  -2 2537.19 449.188   5
  -9   3   2 2383.52 406.633   5
  -9   3   2 2483.36 406.804   4
  -9   3  -2 2646.66 485.320  19
  -9   3  -3-24.1089 44.4883   4
   9  -3  -3 36.9421 71.3511  14
  -9   3   3-122.848 143.488   4
  -9   3  -3-39.0855 97.1812   5
  -9   3  -3-51.7323 47.8013   2
   9  -3   3 87.7553 88.9418   8
  -9   3   3 37.8358 73.0339   5
   9   3   3 62.2455 216.295  18
  -9   3  -4 196.559 67.1595   5
   9   3   4-216.171 342.178  18
   9  -3  -4 138.445 110.816  14
  -9   3   4 315.805 146.671   5
  -9   3  -4 180.409 114.205   4
  -9   3  -5 39.2340 36.1163   5
  -9   3  -6-66.7894 66.1523   5
   9   3  -8 211.126 129.333   8
   9   3  -9 104.238 76.4213   8
  -9  -3  10 853.455 234.299  19
   3   9 -11-95.6972 50.3246  18
  -9  -3  11 54.7316 65.4166  19
  -3   9 -13 207.339 183.586  18
  -3   9 -13-71.7846 109.432   4
  -3   9 -14 2901.37 448.447   4
   3  -9  15-25.7134 111.119  14
  -9  -3  17 54.3789 105.216   5
  -9  -3  18 13.3181 97.4997   5
  -9  -3  19-258.700 249.341   5
  -9  -3  20-261.417 320.573   5
   9  -4   0 185.149 126.401  14
  -9   4   0 349.841 146.252   5
  -9   4   0 253.902 118.852   4
   9   4   1 3648.32 945.395  18
   9  -4   1 2551.98 421.533  14
   9  -4  -1 1709.50 352.788  14
  -9   4  -1 3951.07 508.503   5
  -9   4  -1 4013.21 540.979   4
  -9   4   1 3953.50 510.618   5
  -9   4   1 3538.76 486.665   4
  -9   4  -1 4274.05 576.545  19
   9  -4   2 41.0128 35.8221  14
  -9   4  -2 97.6744 95.3606   5
  -9   4  -2-47.2293 115.721   4
   9  -4   2-15.8282 46.4506   8
  -9   4  -2 21.4197 97.7980  19
   9   4   2-131.668 471.092  18
   9  -4   3 1484.80 348.916  14
   9  -4   3 1329.79 325.946   8
  -9   4  -3 1520.95 344.865   4
  -9   4  -3 1551.30 334.478   5
  -9   4  -3 1744.42 380.225  19
   9  -4   4 687.198 239.787  14
  -9   4  -4 416.485 197.350   5
  -9   4  -4 633.156 223.227   4
   9  -4   4 621.931 215.607   8
  -9   4  -4 680.803 256.115  19
  -9   4  -5 134.921 95.3427   5
   9  -4   5 48.3414 32.6426   8
  -9   4  -5 67.4982 32.1853   2
  -9   4  -5 166.745 105.960   4
  -9   4  -5 41.4084 50.6980  19
  -9   4  -6 87.7207 111.944   5
   9  -4   6 15.5197 48.3180   8
  -9   4  -6-10.5570 92.8021   4
  -9   4  -7-60.1230 134.039   5
  -9   4  -8-16.4754 125.161   5
   4   9 -10 105.668 494.493  18
   9   4 -10 23.5578 52.4832   8
  -9  -4  12 1055.49 298.870  19
  -4   9 -12 83.0357 96.8149   4
  -4   9 -13 2721.62 648.235  18
  -4   9 -13 3017.05 470.844   4
   4  -9  14-13.5741 77.3532  14
  -4   9 -14 27.9730 32.7024   4
  -4   9 -15 1942.94 437.435   4
   4  -9  15 205.380 212.595  14
   4  -9  16 46.5826 41.6128  14
   9   5   0 2010.88 646.837  18
  -9   5  -1 371.188 127.888   4
   9   5  -1 721.062 378.355  18
  -9   5  -2 1272.88 303.184   4
   9  -5   2 735.091 224.963  14
  -9   5  -2 1288.44 290.078   5
   9  -5   3 646.138 239.888  14
  -9   5  -3 1155.15 282.108   5
  -9   5  -3 1167.95 301.893   4
  -9   5  -4 272.451 143.181  19
   9  -5   4 164.648 56.6068  14
  -9   5  -4 279.953 137.033   5
  -9   5  -4 115.504 57.2463   4
   9  -5   5 677.807 216.289  14
  -9   5  -5 730.207 235.292   5
  -9   5  -5 830.742 274.448   4
  -9   5  -5 931.888 253.390  19
   9  -5   5 766.364 250.447   8
  -9   5  -6 95.3609 107.753  19
   9  -5   6 2.11471 64.1233  14
  -9   5  -6 81.5993 59.8751   4
  -9   5  -6 117.296 76.7648   5
   9  -5   6 24.2278 70.7940   8
  -9   5  -7 698.246 219.740  19
  -9   5  -7 793.278 300.715   4
  -9   5  -7 452.786 193.070   5
   9  -5   7 618.035 248.255   8
  -9   5  -8-60.3413 90.9797   5
   9  -5   8-26.9210 100.552   8
  -9   5  -8-11.1791 75.8341   4
  -9   5  -9 304.177 152.113  19
   9  -5   9 801.600 264.436   8
  -9   5  -9 364.569 132.264   5
   5   9 -10 607.064 436.821  18
   9  -5  10 620.281 253.058   8
  -9   5 -10 237.564 192.570  19
  -5   9 -12 1935.87 392.653   4
  -5   9 -13 298.731 133.275   4
  -9  -5  13 281.135 156.005  19
  -5   9 -14 1242.93 349.149   4
   5  -9  14 113.809 195.831  14
   5  -9  15 60.8257 189.106  14
  -5   9 -15 224.287 203.807   4
   5  -9  16 142.399 215.805  14
   9   6  -1 274.164 352.255  18
   9   6  -2 1153.48 728.667  18
   9  -6   4 620.614 232.380  14
  -9   6  -4 1169.37 276.164   5
  -9   6  -4 1307.64 318.523   4
   9  -6   5 16.9483 84.2965  14
  -9   6  -5 197.721 129.745   5
  -9   6  -5 248.889 121.014   4
   9  -6   6 416.834 181.945  14
  -9   6  -6 821.316 244.489   5
  -9   6  -6 578.395 220.589   4
   9  -6   7 348.052 157.376  14
  -9   6  -7 499.130 155.723   5
  -9   6  -7 713.485 269.722   4
  -9   6  -8 802.979 219.717  19
  -9   6  -8 693.387 286.181   4
   9  -6   8 621.092 227.966  14
  -9   6  -8 702.880 252.602   5
   9  -6   8 659.565 230.526   8
  -9   6  -9-122.793 138.375   5
   6   9  -9 100.434 422.094  18
  -9   6  -9 23.9799 81.4368   4
   9  -6   9-11.6623 103.408   8
  -9   6  -9 224.735 160.257  19
   9  -6  10 1169.56 365.265   8
  -9   6 -10 538.147 219.809   5
  -9   6 -10 817.472 247.884  19
  -9   6 -11 154.446 93.5929  19
   9  -6  11 226.526 92.0830   8
  -9   6 -11-29.6558 55.9928   5
   9  -6  12 779.189 283.817   8
  -6   9 -12 532.217 203.706   4
  -9   6 -12 445.790 214.258  19
   6  -9  13 81.5680 168.428  14
  -6   9 -13 443.225 185.723   4
   9  -6  13 419.778 252.699   8
  -9   6 -13 32.6420 144.624  19
  -9   6 -14 4.07748 151.203  19
  -6   9 -14 768.769 300.747   4
   9  -6  14 660.907 214.811   8
   6  -9  14 31.8651 130.201  14
   6  -9  15-3.65945 106.096  14
  -6   9 -15 256.824 149.513   4
  -9   6 -15 19.2231 136.815  19
  -9   6 -16 38.1896 144.599  19
   9   7  -3 1218.97 719.484  18
   9   7  -4 656.903 725.018  18
  -9   7  -6 1653.74 387.768   4
   9  -7   7 297.137 189.672  14
  -9   7  -7 354.244 153.876   5
  -9   7  -7 348.256 151.281   4
   9  -7   8 399.378 152.002  14
  -9   7  -8 1172.48 301.820   5
  -9   7  -8 1092.51 328.773   4
   9  -7   9 479.675 194.792  14
  -9   7  -9 533.487 223.984   4
  -9   7  -9 418.821 220.637   5
  -9   7 -10 90.6795 125.715   5
   9  -7  10-192.520 187.011  14
  -9   7 -10-80.0345 173.871   4
  -9   7 -11 280.076 23.1725   5
  -7   9 -11 587.788 247.834   4
  -9   7 -11 528.983 285.467   4
  -7   9 -12 28.7135 82.8248   4
   9  -7  12 90.3313 89.3174   8
  -9   7 -12 86.4835 102.517   5
  -9   7 -13 6.03685 170.712  19
  -7   9 -13 532.640 254.501   4
   9  -7  13 400.360 191.135   8
  -9   7 -14 11.1570 47.7152  19
   7  -9  14 44.6292 67.3252  14
  -7   9 -14-101.832 159.502   4
   9  -7  14 2.25282 121.742   8
  -9   7 -15 121.835 181.702  19
   7  -9  15 27.9839 147.687  14
   9  -7  15 63.4572 224.552   8
  -9   7 -16-0.57403 57.6536  19
   9  -7  16 64.5458 116.321   8
  -9   7 -17 45.6258 49.5688  19
   9  -7  17 105.577 231.195   8
  -9   7 -18 14.1109 50.3648  19
   9  -7  18-3.16554 103.619   8
  -9   7 -19 14.4431 129.154  19
   9  -7  19 39.3342 255.427   8
  -9   8  -8 60.0559 32.8710   4
   9  -8   9 420.798 175.599  14
  -9   8  -9 1221.27 309.321   5
  -9   8  -9 1240.08 327.550   4
   9  -8  10 163.475 115.505  14
  -9   8 -10 288.649 136.434   4
  -9   8 -10 101.588 84.2247   5
  -9   8 -11 79.6339 75.0833   4
   9  -8  11 120.714 76.7520  14
  -8   9 -11 105.746 148.746   4
  -9   8 -11-43.9017 93.4499   5
   9  -8  12 230.173 104.127  14
  -9   8 -12 134.589 69.3474   5
   8  -9  12-19.0895 38.5160  14
  -8   9 -12 56.4701 35.3959   4
  -9   8 -12 209.672 155.121   4
  -8   9 -13 171.157 197.401   4
   8  -9  13 285.424 190.460  14
   8  -9  14-12.9365 120.924  14
  -8   9 -14-45.1702 196.712   4
   9  -8  16 23.8231 268.570   8
   9  -8  17 40.4783 207.181   8
  -9   9 -11-343.910 260.366   4
  -9   9 -11-33.2919 62.6776   5
  -9   9 -12 106.802 121.529   4
   9  -9  12-14.8330 51.7832  14
   9  -9  13 209.798 170.877  14
  -9   9 -13 68.8924 137.686   4
 -10   0   2 44.6536 134.539   5
 -10   0   3 9.99059 72.2626   5
  10   0  -4 1134.83 295.525   8
 -10   0   4 618.677 264.842   5
 -10   0   5 88.9541 59.4618   5
  10   0  -5 50.3873 42.6628   8
 -10   0   5 102.632 131.487  19
 -10   0   6 1146.13 307.685  19
 -10   0   6 841.135 300.188   5
 -10   0   6 917.538 265.924   4
 -10   0   7-1.93292 115.214  19
 -10   0   7-95.7669 98.4354   5
 -10   0   7-23.8032 49.6500   4
 -10   0   8 420.993 185.698   5
 -10   0   8 858.115 260.714   4
 -10   0   9-91.6159 73.1498   5
 -10   0   9 61.5386 103.525   4
 -10   0  10 10.7774 87.3002   5
 -10   0  10 239.398 168.460   4
 -10   0  11 132.029 151.300   5
 -10   0  11 61.8674 103.476   4
 -10   0  12 87.8708 110.113   5
 -10   0  12 176.356 92.9862   4
   0  10 -13-210.760 347.347  18
 -10   0  13-87.4509 79.9340   5
 -10   0  13-3.00605 90.4041   4
 -10   0  14 1.03911 130.848   2
 -10   0  14 59.0452 101.179   5
 -10   0  14 126.876 113.765   4
 -10   0  15 185.535 225.330   2
 -10   0  15 47.7749 107.461   5
 -10   0  15 20.3028 36.8843   4
 -10   0  16 4.08988 148.750   2
 -10   0  16 233.209 173.826   5
 -10   1   0 83.7659 95.0911   5
 -10   1  -1-10.9385 50.2676   5
 -10   1   1 1.87077 39.3975   5
 -10   1   2-29.5542 63.8030   5
  10  -1  -2 99.1648 111.929   8
 -10   1   2 64.1126 90.5360   4
 -10   1   3 207.012 102.151   4
 -10   1   3 75.5682 68.8682   5
  10  -1  -3 127.471 94.0709   8
 -10   1   3 292.629 200.030  19
 -10   1   4 19.4756 107.072  19
 -10   1   4-42.2208 56.9726   4
 -10   1   4-83.0179 138.833   5
  10  -1  -4 70.8656 77.5763   8
 -10   1   5 935.271 272.957  19
 -10   1   5 489.373 202.170   5
 -10   1   5 602.013 217.838   4
  10   1  -5 718.730 237.248   8
 -10   1   6-233.963 134.112  19
 -10   1   6 24.3233 107.535   2
 -10   1   6 71.7439 69.6475   5
 -10   1   6 91.0739 124.160   4
  10   1  -6-17.3781 41.8813   8
 -10  -1   6 5.16501 95.1329   5
 -10   1   7 1030.17 284.873   5
  10   1  -7 1015.96 267.994   8
 -10   1   7 869.888 254.991   4
 -10   1   7 708.377 267.560   2
 -10  -1   7 1174.20 326.219  19
 -10  -1   7 647.573 267.776   5
  10  -1  -8 49.7861 86.4334  14
 -10   1   8-19.3665 40.1050   5
 -10  -1   8 13.6190 63.9143   5
 -10   1   8-64.3518 77.3612   4
 -10   1   8-177.938 176.801   2
 -10  -1   8 18.9891 33.6053  19
 -10  -1   9 304.211 216.053   5
 -10  -1   9 245.312 75.2869  19
  10  -1  -9 188.772 115.620  14
 -10   1   9 374.216 183.534   5
 -10   1   9 164.504 96.0650   4
 -10   1   9 96.0446 123.763   2
 -10   1  10 60.5590 91.5225   2
 -10  -1  10-0.62234 25.4214   5
  10   1  10 38.1728 182.178  18
  10  -1 -10-53.8816 108.373  14
 -10   1  10-18.7566 67.6440   5
 -10   1  10-18.0930 57.7394   4
 -10  -1  10 96.4681 75.4199   4
 -10  -1  11-115.578 123.935   5
 -10   1  11-88.7537 160.041   2
  10  -1 -11-110.535 135.148  14
 -10   1  11 115.494 80.3337   5
 -10   1  11 79.1913 72.6015   4
 -10  -1  11 90.2906 105.173   4
 -10  -1  12 102.213 75.0608   4
 -10  -1  12 89.8562 138.686   5
 -10   1  12 49.5060 8.39010   2
  10  -1 -12 83.3471 121.524  14
 -10   1  12 95.2562 109.633   5
 -10  -1  13 216.235 121.938   4
 -10  -1  13-6.93267 84.2635   5
   1  10 -13 342.515 497.849  18
 -10  -1  14-35.5725 36.3174   5
 -10  -1  14 71.1659 75.0240   4
 -10  -1  15 23.2609 22.9743   5
 -10  -1  15-66.6827 78.3157   4
 -10  -1  16-64.8682 171.167   5
 -10  -1  16 86.1361 98.9763   4
 -10  -1  17 137.692 183.697   5
 -10  -1  18-136.008 157.057   5
 -10  -1  19 577.511 280.282   5
 -10  -1  20 7.45457 118.223   5
 -10   2   0 1431.52 360.338   4
 -10   2   0 1341.98 350.991   5
  10  -2   0 1813.90 410.282   8
 -10   2  -1 16.9737 56.8694   5
 -10   2   1 39.7852 45.3268   4
 -10   2   1 115.377 20.5723   5
  10  -2   1-17.7184 114.614   8
  10  -2  -1-32.8541 90.5483   8
 -10   2  -1-32.5878 103.464   4
 -10   2   1-2.15626 126.447  19
 -10   2   2 416.900 232.397  19
 -10   2   2 242.781 159.867   5
 -10   2   2 109.571 17.0171   4
 -10   2   2 187.700 90.2965   2
  10  -2  -2 194.970 118.143   8
 -10   2  -2 410.082 215.780   5
 -10   2   3-12.2093 50.6880  19
 -10   2   3 71.8802 95.8204   5
 -10   2   3 42.4908 40.2616   4
 -10   2  -3 10.8378 93.2220   5
 -10   2   3-38.2252 67.1779   2
 -10   2   4 133.830 14.6708  19
 -10   2   4 24.2240 34.2458   2
  10  -2  -4 97.5342 83.3004  14
 -10   2   4 17.6812 33.7587   5
 -10   2   4 70.7014 49.1794   4
  10  -2  -5-19.8681 85.3082  14
 -10   2   5 42.6015 30.9815   2
 -10   2   5-16.8062 60.6157   5
 -10   2   5 71.4767 74.8658   4
  10  -2  -6 149.145 103.544  14
 -10   2   6 141.123 131.420   5
 -10   2   6 194.404 172.578   2
 -10   2   6 296.538 136.715   4
  10   2   7-6.35119 206.894  18
  10  -2  -7 80.3157 97.5660  14
  10   2  -7-28.1873 60.6404   8
 -10   2   7 28.0872 82.0773   5
 -10   2   7 35.8689 98.0933   2
 -10   2   7 76.8211 100.996   4
  10   2   8-14.5742 275.790  18
  10  -2  -8-0.35681 15.1919  14
 -10   2   8 244.756 161.384   5
  10   2  -8 203.079 125.047   8
 -10   2   8 121.162 34.2116   2
 -10   2   8 168.864 107.360   4
  10  -2  -9-13.6199 84.2467  14
 -10  -2   9 267.200 141.546  19
 -10  -2  10 49.8833 61.9450  19
 -10  -2  10 81.9200 135.634   5
 -10  -2  11 24.6026 94.7578   5
 -10  -2  12 207.380 108.323   5
 -10  -2  13-61.0957 85.9729   5
  -2  10 -14 444.697 236.834  18
 -10  -2  14 428.053 262.848   5
 -10  -2  15 44.0987 45.4391   5
 -10  -2  16 112.327 117.328   5
 -10  -2  17 11.0864 70.7912   5
 -10  -2  18 33.9882 58.1015   5
 -10  -2  19 18.2224 43.7552   5
 -10  -2  20 189.272 115.807   5
 -10   3   0-16.6580 86.7003  19
  10  -3   0-92.4180 150.972  14
 -10   3   0-3.75580 57.0977   2
 -10   3   0 17.2202 99.6489   5
 -10   3   0-66.8596 110.270   4
  10  -3   0 77.0801 104.117   8
 -10   3  -1 2278.76 325.543   2
 -10   3   1 2024.58 354.247   2
  10  -3  -1 2072.76 421.416  14
  10  -3   1 3098.71 524.609   8
 -10   3  -1 2329.50 461.662   4
 -10   3  -1 2106.61 433.974   5
 -10   3   1 2601.77 457.563   5
 -10   3   1 2588.96 456.609   4
 -10   3  -1 2753.26 521.816  19
 -10   3   1 3014.61 509.280  19
 -10   3  -2 91.6296 137.387   4
 -10   3  -2 57.4776 28.8138   5
  10  -3  -2 108.223 125.355  14
 -10   3   2 34.7040 64.4415   2
 -10   3   2 45.7816 58.3655   5
  10  -3   2 32.2790 18.5052   8
 -10   3   2 184.326 95.1082   4
 -10   3  -2 48.9200 30.2782  19
 -10   3  -3 247.000 128.868   5
  10  -3  -3 250.485 171.709  14
  10  -3   3 368.113 175.025   8
 -10   3   3 379.643 171.313   5
 -10   3   3 263.384 160.389   4
 -10   3   3 223.413 116.505   2
 -10   3  -3 147.773 96.4294   4
 -10   3  -4 14.5728 85.8630   5
  10   3   4 18.1471 78.6127  18
  10  -3  -4-38.3380 96.5540  14
 -10   3   4 122.394 124.512   5
 -10   3   4 95.5342 67.3795   4
  10   3   5 156.244 133.951  18
  10  -3  -5-43.9255 84.8129  14
 -10   3   5 9.74074 85.7603   4
 -10   3   5 16.4383 48.0238   5
 -10   3  -5 119.930 180.771   5
  10   3  -8-87.7785 47.5112   8
  10   3  -9 126.450 69.0584   8
 -10  -3  10-92.3241 124.500  19
 -10  -3  11 793.839 230.579  19
 -10  -3  12-0.56184 29.5016  19
  -3  10 -14-187.948 284.817  18
  10  -4   0 2020.40 389.275  14
 -10   4   0 3273.67 521.967   5
 -10   4   0 3327.45 507.276   4
 -10   4  -1 146.133 45.6769   2
 -10   4  -1 351.767 175.053  19
  10  -4   1 350.794 181.807  14
  10  -4  -1 129.379 80.9046  14
 -10   4  -1 239.810 114.176   5
 -10   4   1 389.728 178.519   5
 -10   4  -1 472.317 185.672   4
 -10   4   1 199.549 121.875   4
  10   4   2 2229.55 634.723  18
 -10   4  -2 1104.58 210.942   2
  10  -4   2 1609.74 366.619  14
  10  -4  -2 713.356 217.454  14
  10  -4   2 1676.55 391.354   8
 -10   4  -2 1820.73 393.386   4
 -10   4  -2 1792.70 383.314   5
 -10   4   2 1536.41 338.584   5
 -10   4   2 1864.44 370.053   4
 -10   4  -2 2136.88 429.245  19
 -10   4  -3 390.241 205.309  19
  10   4   3 570.080 367.713  18
  10  -4   3 326.668 200.013  14
 -10   4  -3 313.429 123.080   5
 -10   4  -3 396.569 171.002   4
  10  -4   3 393.217 193.659   8
 -10   4  -3 276.595 101.188   2
 -10   4  -4 344.375 183.589  19
 -10   4  -4 89.0855 98.6565   4
 -10   4  -4 164.183 103.265   5
  10  -4   4 100.009 38.9226   8
 -10   4  -4 166.266 72.5475   2
 -10   4  -5 802.491 280.173   5
 -10   4  -5 502.786 196.975   4
 -10   4  -5 932.123 284.019  19
  10  -4   5 1194.12 352.428   8
  10  -4   6 82.4457 78.1431   8
 -10   4  -6 11.4313 55.0381   5
 -10   4  -7 140.762 128.654   5
  10   4 -10 1165.39 261.240   8
 -10  -4  12 939.948 254.126  19
 -10  -4  13 119.835 37.8059  19
  -4  10 -14 1635.18 378.355   4
  10   5   0 595.896 366.916  18
  10   5   1 1945.12 728.667  18
  10  -5   1 610.398 204.593  14
 -10   5  -1 1501.58 329.371   5
 -10   5  -1 1511.74 336.121   4
  10   5   2 515.660 398.345  18
  10  -5   2 498.675 181.137  14
 -10   5  -2 1299.91 316.900   5
 -10   5  -2 1180.97 313.502   4
  10  -5   3 526.348 225.629  14
 -10   5  -3 607.598 223.225   5
 -10   5  -3 550.447 222.317   4
 -10   5  -4 1083.87 285.546  19
  10  -5   4 605.658 216.931  14
 -10   5  -4 959.435 286.835   5
 -10   5  -4 1024.90 320.171   4
 -10   5  -5-12.2097 48.1994  19
  10  -5   5-81.4378 136.703  14
 -10   5  -5-56.9924 79.1365   4
 -10   5  -5 1.29590 34.7777   5
  10  -5   5-41.6879 67.3899   8
 -10   5  -6 1411.43 326.195  19
 -10   5  -6 1263.71 327.246   4
 -10   5  -6 1245.18 327.340   5
  10  -5   6 1854.20 414.016   8
 -10   5  -7 219.858 146.420  19
 -10   5  -7 102.777 71.5138   5
  10  -5   7-5.64578 39.3650   8
 -10   5  -7-190.107 203.950   4
 -10   5  -8 741.538 304.561  19
  10  -5   8 1163.83 379.703   8
 -10   5  -8 698.885 261.858   5
  10  -5   9-9.03185 88.9129   8
 -10   5  -9 102.525 134.111   5
 -10   5  -9-35.1961 140.243  19
  10  -5  10 982.655 325.028   8
 -10   5 -10-13.4588 148.053  19
  -5  10 -14 484.774 204.578   4
   5 -10  16-42.6201 175.084  14
  10   6  -1 1435.28 764.921  18
 -10   6  -3 1511.61 360.340   4
  10  -6   4-27.7753 116.010  14
 -10   6  -4 31.4207 131.203   5
 -10   6  -4 70.2718 120.443   4
  10  -6   5 746.816 245.195  14
 -10   6  -5 1398.29 335.305   5
 -10   6  -5 1642.98 366.642   4
  10  -6   6 31.9398 150.846  14
 -10   6  -6 430.989 182.177   5
 -10   6  -6 639.645 244.982   4
 -10   6  -7 887.240 309.277  19
 -10   6  -7 1120.45 316.137   4
  10  -6   7 1156.26 333.870  14
 -10   6  -7 1022.78 293.045   5
 -10   6  -8 54.3932 67.4231   4
 -10   6  -8 95.2913 40.7328   5
 -10   6  -8 133.475 101.850  19
  10  -6   8-63.2266 115.518   8
 -10   6  -9 901.682 293.619   5
 -10   6  -9 857.975 325.933  19
  10  -6   9 1387.98 409.694   8
 -10   6  -9 900.433 284.293   4
 -10   6 -10 11.1591 87.6431  19
  10  -6  10 111.390 131.866   8
 -10   6 -10-49.5503 87.9473   5
  10  -6  11 705.395 264.583   8
 -10   6 -11 72.2127 93.7299  19
 -10   6 -12 75.9299 120.266  19
  10  -6  12 440.174 184.151   8
  10  -6  13 1190.00 369.633   8
 -10   6 -13-53.3851 63.3322  19
  10  -6  14 55.6570 139.879   8
 -10   6 -14 2.86063 48.6456  19
   6 -10  15-15.1802 78.1591  14
  10  -6  15 174.080 314.980   8
 -10   6 -15 49.9518 135.159  19
   6 -10  16 59.7052 247.144  14
 -10   6 -16 69.4118 149.416  19
  10   7  -3 506.709 462.886  18
  10  -7   6 17.3352 128.007  14
 -10   7  -6 837.997 253.298   5
 -10   7  -6 688.440 245.731   4
  10  -7   7 505.065 212.548  14
 -10   7  -7 1289.60 322.357   5
 -10   7  -7 1327.18 344.711   4
  10  -7   8 253.681 262.006  14
 -10   7  -8 789.623 255.150   5
 -10   7  -8 857.785 265.499   4
 -10   7  -9 384.745 210.083   4
 -10   7  -9 375.237 207.110   5
  10  -7   9 113.859 115.969  14
 -10   7 -10 547.006 202.546   5
 -10   7 -10 939.389 337.778   4
  10  -7  11 16.8208 91.5620   8
 -10   7 -11-30.6852 85.6548   5
 -10   7 -12-5.64074 85.0633  19
  10  -7  12 611.534 266.018   8
 -10   7 -12 504.933 195.528   5
 -10   7 -13 5.43706 55.3301  19
  -7  10 -13 255.474 217.305   4
  10  -7  13 19.6169 119.385   8
 -10   7 -14 17.8055 142.323  19
  -7  10 -14 246.430 215.932   4
  10  -7  14 141.100 300.864   8
 -10   7 -15-10.1710 143.697  19
   7 -10  15 0.60279 184.291  14
  10  -7  15 24.0616 242.264   8
  -7  10 -15 562.833 398.282   4
 -10   7 -16 39.6299 86.0904  19
   7 -10  16-6.70698 120.712  14
  10  -7  16 41.1474 237.232   8
 -10   7 -17-5.53537 101.614  19
  10  -7  17 9.65140 102.217   8
 -10   8  -8 1560.33 379.334   4
  10  -8   9 183.356 166.959  14
 -10   8  -9 320.037 163.258   5
 -10   8  -9 302.963 173.893   4
 -10   8 -10 244.708 158.100   4
  10  -8  10 109.907 55.0938  14
 -10   8 -10 86.2847 41.5321   5
 -10   8 -11 100.230 89.7167   4
 -10   8 -11 250.908 184.150   5
  10  -8  11-14.0578 137.936  14
 -10   8 -12-180.524 224.328   5
  -8  10 -13 3256.76 675.983   4
  -8  10 -14 47.1947 222.105   4
   8 -10  15 16.9935 153.093  14
  -8  10 -15 377.136 220.322   4
  10  -8  16-12.4000 58.6240   8
 -10   9 -11 331.160 401.084   4
 -10   9 -11 519.234 322.388   5
  10  -9  12-64.3062 104.092  14
 -10   9 -12 99.0188 37.6598   4
  -9  10 -13-113.592 142.134   4
 -10   9 -13-265.628 246.125   4
   9 -10  14 19.8304 48.1749  14
  -9  10 -14 108.788 91.3730   4
 -10  10 -13 177.085 164.831   4
  11   0  -3 1194.26 336.570   8
 -11   0   3 188.007 149.405   5
  11   0  -4 55.9444 85.6467   8
 -11   0   4 110.877 165.258   5
  11   0  -5 4302.89 607.763   8
 -11   0   5 2596.71 561.024   5
 -11   0   5 3073.60 568.690  19
 -11   0   6 6.29710 80.7252  19
 -11   0   6 44.5483 66.7309   5
 -11   0   7 1706.82 426.759   5
 -11   0   7 1887.57 403.813   4
 -11   0   7 2700.04 479.110  19
 -11   0   8-48.7048 106.266   5
 -11   0   8-71.7056 75.6673   4
 -11   0   9 1152.67 320.205   4
 -11   0   9 1051.69 342.888   5
 -11   0  10 139.262 108.438   5
 -11   0  10-110.602 135.328   4
 -11   0  11 425.182 182.231   5
 -11   0  11 541.116 214.113   4
 -11   0  12-64.2353 55.7409   5
 -11   0  12-19.0667 107.751   4
 -11   0  13 99.1255 154.010   5
 -11   0  13 22.4576 35.6151   4
 -11   0  14-126.713 150.780   5
 -11   0  14 59.0584 102.347   4
 -11   0  15 199.980 168.685   5
 -11   0  15 259.376 151.576   4
 -11   0  16 172.044 207.993   5
 -11   0  16-131.640 135.708   4
 -11   1   0-52.1161 37.3907   5
  11  -1  -1 5.23412 90.3185   8
 -11   1   1-58.2701 71.5434   5
  11  -1  -2 280.183 183.901   8
 -11   1   2 141.421 41.0709   5
 -11   1   3-16.0714 124.170   5
  11  -1  -3 27.2550 78.8083   8
 -11   1   3 81.8172 61.5642   4
 -11   1   3-81.9186 115.094  19
 -11   1   4 1514.88 401.815  19
 -11   1   4 905.242 313.657   5
  11  -1  -4 1527.94 364.790   8
 -11   1   4 1060.20 321.305   4
 -11   1   5-1.58943 99.4459  19
 -11   1   5-4.37710 107.828   4
 -11   1   5 27.6002 82.5641   5
  11   1  -5-81.4338 115.809   8
  11   1  -6 4036.56 574.080   8
 -11   1   6 2646.75 483.907   4
 -11   1   6 2271.48 475.420   5
 -11   1   6 3463.59 547.053  19
 -11   1   7-39.1548 89.5840   5
 -11   1   7-34.7527 86.2367   4
  11   1  -7 44.2371 85.2393   8
 -11  -1   7-60.7136 136.439   5
 -11  -1   7 53.1142 75.2905  19
 -11  -1   8 1502.01 378.207  19
 -11   1   8 1645.30 408.412   5
 -11   1   8 1835.18 393.632   4
 -11  -1   8 1441.20 434.470   5
 -11  -1   9-1.25885 72.6543  19
 -11   1   9-15.9870 76.5507   5
 -11   1   9-20.1432 178.306   2
 -11   1   9-20.6518 41.7350   4
 -11  -1   9 48.6363 137.144   5
 -11   1  10 451.727 230.495   5
 -11   1  10 583.310 249.744   2
 -11   1  10 552.073 201.776   4
 -11  -1  10 256.857 87.2225   5
 -11   1  11 46.2556 33.8357   5
 -11   1  11-2.89048 109.728   2
 -11   1  11 6.28907 33.8817   4
 -11  -1  11-8.86028 97.9103   5
 -11  -1  12-230.121 204.650   5
  11  -1 -12-47.7854 87.8311  14
 -11   1  12-11.3297 102.088   5
 -11   1  12-206.383 206.043   2
 -11   1  12 19.3645 92.1498   4
 -11  -1  12-47.4756 118.356   4
 -11  -1  13-23.6826 66.4178   5
  11  -1 -13 39.0103 88.7892  14
 -11   1  13-2.16566 73.9540   5
 -11   1  13 237.553 192.031   2
 -11  -1  13 1.27406 73.1395   4
 -11  -1  14-237.378 227.275   5
 -11  -1  14 80.7130 45.2508   4
 -11  -1  15 83.7857 118.271   5
 -11  -1  15 91.4644 154.561   4
 -11  -1  16-182.716 180.993   4
 -11  -1  16 190.030 217.777   5
 -11  -1  17 287.979 228.206   5
 -11  -1  18 714.249 289.044   5
 -11  -1  19-142.435 182.943   5
 -11   2   0-13.5085 104.067   5
  11  -2   0 1.00119 79.7834   8
 -11   2   0-160.062 149.518   4
 -11   2  -1-24.8248 107.489   5
 -11   2   1 128.464 83.1643   5
  11  -2   1 380.405 241.080   8
  11  -2  -1 267.005 166.722   8
 -11   2   1 219.643 164.213   4
 -11   2   1 157.151 45.7660  19
 -11   2   2 25.7969 72.2325  19
 -11   2   2 54.1318 117.964   4
 -11   2   2 13.9291 48.1653   5
  11  -2  -2 88.8936 88.0558   8
 -11   2  -2 50.3401 128.058   5
 -11   2   3 41.3387 151.070  19
 -11   2   3 89.4909 21.7135   5
 -11   2   3 154.723 138.143   4
 -11   2   4 81.7369 78.6381  19
 -11   2   4 125.185 96.3452   5
 -11   2   4 25.4692 71.1367   4
 -11   2   4-19.4831 95.5565   2
 -11   2   5 1272.55 370.342   5
 -11   2   5 988.277 288.688   4
 -11   2   5 1208.11 327.469   2
  11  -2  -6-38.4151 29.7900  14
 -11   2   6-11.0276 164.222   5
 -11   2   6-51.1607 73.6130   4
 -11   2   6-112.270 160.045   2
 -11   2   7 1138.26 316.111   2
  11  -2  -7 314.959 165.421  14
  11   2  -7 1670.97 357.797   8
 -11   2   7 1057.27 314.438   5
 -11   2   7 1270.38 319.103   4
 -11   2   8 51.5561 52.3284   2
  11  -2  -8 176.935 143.594  14
 -11   2   8 6.75020 106.392   5
  11   2  -8 71.3175 127.395   8
 -11   2   8 141.081 119.425   4
  11   2   9 428.320 290.532  18
  11  -2  -9-48.7279 100.659  14
 -11   2   9 275.874 146.991   2
 -11   2   9 443.467 216.420   5
 -11   2   9 413.334 169.570   4
 -11  -2   9 344.834 170.488  19
 -11  -2  10-179.946 149.884  19
  11   2  10 48.2554 177.276  18
 -11  -2  12 134.822 82.2468   5
 -11  -2  13 280.595 192.108   5
 -11  -2  14 6.06119 102.261   5
 -11  -2  15 70.0497 85.8935   5
 -11  -2  16-179.191 90.0002   5
 -11  -2  17 224.880 268.278   5
 -11  -2  18 194.444 203.332   5
 -11  -2  19 468.914 297.086   5
 -11   3   0 1335.41 284.174   2
 -11   3   0 1726.08 400.018   4
 -11   3   0 1232.95 339.179   5
  11  -3   0 1902.15 433.818   8
 -11   3   0 1867.71 440.965  19
 -11   3   1 49.7742 36.0403  19
 -11   3  -1 119.855 150.667   4
 -11   3  -1 62.3177 90.6032   5
 -11   3   1 192.074 129.871   5
 -11   3   1-43.7836 74.0570   4
 -11   3  -1 65.6631 80.1489  19
  11  -3   1 191.421 151.382   8
 -11   3   1 1.47920 82.7999   2
 -11   3  -2 416.861 206.398   5
 -11   3   2 575.761 185.403  19
 -11   3   2 512.982 212.641   2
  11  -3  -2 405.297 188.548  14
 -11   3   2 613.247 256.765   5
 -11   3   2 402.390 182.520   4
  11  -3   2 442.272 205.702   8
 -11   3  -2 447.496 218.527   4
 -11   3  -2 400.125 231.090  19
  11  -3  -3 59.3421 102.615  14
 -11   3   3 118.892 129.778   5
  11  -3   3 58.4167 97.2796   8
 -11   3   3 109.054 122.271   2
 -11   3   3 53.2965 65.6748   4
 -11   3  -3-90.2594 132.814   5
  11  -3  -4-60.9514 107.928  14
 -11   3   4 108.431 93.3129   5
 -11   3   4 101.365 68.5539   4
 -11   3   4 177.002 107.145   2
 -11   3  -4-6.86880 34.5361   5
 -11   3   5 205.172 121.388   2
  11  -3  -5 107.289 117.775  14
 -11   3   5 147.690 83.2124   5
 -11   3  -5 263.976 158.737   5
 -11   3   5 273.675 162.205   4
  11   3   6 342.076 194.151  18
  11  -3  -6 147.110 75.4158  14
 -11   3   6 419.693 233.530   5
  11   3   7 406.079 304.128  18
  11   3  -8 222.646 89.8461   8
  11   3  -9-12.8864 69.3843   8
 -11  -3  10-30.3610 148.246  19
 -11  -3  11 169.206 173.662  19
 -11  -3  12 218.980 16.3671  19
 -11   4   0 238.975 125.014   2
  11  -4   0 163.961 107.545  14
 -11   4   0 291.761 177.703   5
 -11   4   0 97.2283 106.166   4
 -11   4  -1 1824.80 412.639  19
 -11   4  -1 1355.56 269.604   2
  11  -4   1 1247.90 334.163  14
  11  -4  -1 930.765 312.698  14
 -11   4  -1 1593.14 387.650   4
 -11   4   1 1476.78 341.979   4
 -11   4  -1 1571.24 387.252   5
 -11   4   1 1648.79 370.842   5
 -11   4  -2 133.937 73.6081   2
 -11   4  -2 280.964 138.659  19
 -11   4  -2 142.144 116.339   4
 -11   4  -2 125.523 106.181   5
  11  -4  -2 66.1351 33.3471  14
 -11   4   2 93.4072 68.1868   5
  11  -4   2 72.6467 133.224   8
 -11   4   2 203.130 139.926   4
 -11   4  -3 359.435 206.841  19
 -11   4  -3 310.729 172.887   4
 -11   4  -3 244.156 149.995   5
 -11   4   3 293.557 178.651   5
  11  -4   3 420.040 201.790   8
 -11   4   3 324.850 167.836   4
 -11   4  -4 630.119 226.165  19
 -11   4  -4 438.810 219.212   5
  11   4   4 794.940 477.614  18
  11  -4   4 688.980 246.493   8
 -11   4  -4 344.001 166.899   4
  11   4   5 254.711 384.529  18
  11  -4   5 88.7920 62.8075   8
 -11   4  -5 20.3877 60.9140  19
 -11   4  -5 33.9299 96.6157   5
  11  -4   6 741.939 337.395   8
 -11   4  -6 343.294 206.603   5
 -11   4  -7-209.320 186.449   5
  11   4  -9 38.5387 93.2861   8
 -11  -4  12 128.624 21.2683  19
 -11  -4  13 298.878 130.544  19
 -11   5   0 621.358 199.510   5
 -11   5   0 802.090 251.086   4
  11  -5   1 97.3457 72.2966  14
 -11   5  -1 571.467 234.397   5
 -11   5  -1 431.059 187.973   4
  11   5   2 1679.04 791.885  18
  11  -5   2 664.211 260.176  14
 -11   5  -2 1061.85 325.011   5
 -11   5  -2 1246.63 350.614   4
  11   5   3 343.827 55.8466  18
  11  -5   3 286.517 182.264  14
 -11   5  -3 619.779 226.070   5
 -11   5  -3 501.593 216.440   4
 -11   5  -4 14.5956 68.3276  19
  11  -5   4-8.48562 64.1780  14
 -11   5  -4-38.2349 116.375   4
 -11   5  -4 12.4624 96.7079   5
 -11   5  -5 915.332 294.286  19
 -11   5  -5 271.099 106.971   4
 -11   5  -5 464.144 203.400   5
  11  -5   5 550.704 247.283   8
 -11   5  -6-100.408 125.938  19
  11  -5   6-85.0100 150.992   8
 -11   5  -6 193.557 119.807   5
 -11   5  -6 206.550 161.872   4
 -11   5  -7 743.281 295.247  19
  11  -5   7 923.611 305.286   8
 -11   5  -7 962.416 320.860   5
  11  -5   8 175.071 134.111   8
 -11   5  -8-4.64867 44.4681   5
 -11   5  -8 128.271 144.802  19
  11  -5   9 461.644 231.589   8
 -11   5  -9 156.931 160.360  19
  11  -5  10 151.635 128.420   8
 -11   5 -10-33.9608 52.7906  19
  11   6   0 986.786 571.620  18
  11  -6   3-3.80372 91.4887  14
 -11   6  -3 69.1911 90.0262   5
 -11   6  -3-144.861 184.161   4
  11  -6   4 86.0036 186.481  14
 -11   6  -4 718.322 263.197   5
 -11   6  -4 888.241 300.048   4
  11  -6   5 11.9282 98.4764  14
 -11   6  -5 256.321 154.095   5
 -11   6  -5 37.0830 109.399   4
 -11   6  -6 837.380 276.250   4
  11  -6   6 126.092 208.803  14
 -11   6  -6 775.985 284.424   5
 -11   6  -7 414.568 225.434   4
 -11   6  -7 146.291 145.693  19
 -11   6  -7 409.736 222.049   5
 -11   6  -8 421.980 205.252   5
 -11   6  -8 856.661 294.149  19
  11  -6   8 602.100 275.970   8
 -11   6  -8 918.663 327.823   4
 -11   6  -9-101.905 101.941  19
  11  -6   9 29.0548 146.639   8
 -11   6  -9 83.8098 155.372   5
 -11   6 -10 263.831 194.711  19
  11  -6  10 448.017 256.899   8
 -11   6 -10 471.585 236.447   5
 -11   6 -11-143.091 147.523  19
  11  -6  11 161.004 138.713   8
 -11   6 -12-23.0538 51.6970  19
  11  -6  12 625.978 256.610   8
  11  -6  13 18.0691 132.526   8
 -11   6 -13 13.8026 180.197  19
  11  -6  14 142.179 338.711   8
 -11   6 -14 7.17959 61.8753  19
  11  -6  15 5.26521 166.117   8
 -11   6 -15 0.81845 115.558  19
 -11   6 -16 26.2388 301.678  19
 -11   7  -5 405.631 147.053   4
  11  -7   6 146.436 171.475  14
 -11   7  -6 437.665 252.539   5
 -11   7  -6 917.337 318.066   4
  11  -7   7 38.3132 177.607  14
 -11   7  -7 178.833 203.848   5
 -11   7  -7 452.081 182.671   4
 -11   7  -8 564.826 229.165   4
 -11   7  -8 108.808 133.320   5
  11  -7   8 270.006 164.959  14
 -11   7  -9 107.208 84.6220   5
 -11   7  -9 104.610 61.1422   4
 -11   7 -10-2.46064 77.3769   5
  11  -7  11 244.815 184.158   8
 -11   7 -11 559.988 300.047   5
 -11   7 -12 21.4672 152.453  19
  11  -7  12-20.8195 44.2390   8
 -11   7 -13 31.0919 259.884  19
  11  -7  13-22.9515 111.615   8
 -11   7 -14 33.4159 201.609  19
  11  -7  14 22.1673 137.073   8
 -11   7 -15 41.2958 107.975  19
  11  -7  15 33.4723 182.948   8
 -11   8  -8 160.432 141.022   5
 -11   8  -8 564.255 261.517   4
  11  -8   9-0.68001 60.5680  14
 -11   8  -9 243.514 191.193   5
 -11   8 -10-122.297 129.012   4
 -11   8 -10 130.996 142.639   5
  11  -8  10-309.366 191.084  14
 -11   8 -11 329.076 278.995   5
 -11   8 -11 32.1318 57.0886   4
 -11   8 -12 212.496 163.350   5
 -11   9 -11-18.9031 13.3799   5
  11  -9  11 83.2246 151.812  14
 -11   9 -12-147.418 125.060   4
  12   0  -3-49.3126 83.1895   8
  12   0  -4 3237.21 582.944   8
 -12   0   4 1463.09 446.505   5
  12   0  -5-53.5434 81.9961   8
 -12   0   5-68.6037 152.295   5
 -12   0   5 12.8422 95.9163  19
 -12   0   6 2086.40 519.267   5
 -12   0   6 4035.47 673.295  19
 -12   0   7-24.1831 183.271  19
 -12   0   7-16.2354 92.5014   5
 -12   0   8 2505.41 543.261   5
 -12   0   8 3098.58 562.851  19
 -12   0   9-35.9852 127.737   5
 -12   0   9 28.0428 130.074   4
 -12   0  10 1062.03 353.754   4
 -12   0  10 905.117 352.356   5
 -12   0  11-3.28298 110.421   4
 -12   0  11 14.1711 11.4826   5
 -12   0  12 241.225 105.585   4
 -12   0  12 516.232 260.782   5
 -12   0  13 136.994 218.738   5
 -12   0  13-9.59964 18.2558   4
 -12   0  14-31.2774 88.9572   5
 -12   0  14-4.43041 73.0286   4
 -12   0  15 485.136 392.356   5
 -12   0  15 10.7959 108.889   4
 -12   0  16 809.732 300.263   5
 -12   0  16 984.526 319.576   4
  12  -1  -1 412.217 211.245   8
 -12   1   1 151.728 122.334   5
  12  -1  -2-21.2395 104.484   8
 -12   1   2 130.415 160.644   5
  12  -1  -3 1376.37 362.160   8
 -12   1   3 769.282 310.104   5
 -12   1   3 960.367 341.330  19
 -12   1   4 22.5187 96.7140   5
 -12   1   4 2.15320 48.2802  19
  12  -1  -4-2.06861 9.65751   8
 -12   1   5 1677.29 479.009   5
 -12   1   5 1797.00 405.372   4
 -12   1   5 2476.04 509.510  19
 -12   1   6-81.4575 36.8260   4
 -12   1   6-52.4128 134.576  19
 -12   1   6-61.4337 150.355   5
  12   1  -6-22.7750 134.412   8
  12   1  -7 4428.12 642.689   8
 -12   1   7 3098.23 554.501   4
 -12   1   7 2828.72 608.951   5
 -12  -1   7 2938.79 546.053  19
 -12  -1   8 76.7771 159.733  19
 -12   1   8-6.94442 48.1822   5
 -12   1   8 30.1512 57.5918   4
 -12  -1   8-43.6183 190.999   5
 -12  -1   9 1655.72 412.370  19
 -12   1   9 1391.32 381.579   5
 -12   1   9 1700.61 412.279   4
 -12  -1   9 853.310 341.611   5
 -12   1  10 13.5139 45.4947   5
 -12   1  10-40.5340 16.7386   4
 -12  -1  10 16.2101 184.335   5
 -12   1  11 494.954 263.257   5
 -12   1  11 181.118 86.0619   4
 -12  -1  11 243.403 203.219   5
 -12   1  12 10.3129 148.622   5
 -12   1  12 89.2439 120.765   4
 -12  -1  12-5.21485 54.3442   5
 -12   1  13 24.6668 39.0728   5
 -12  -1  13 152.599 108.699   5
 -12  -1  14-208.223 198.767   5
 -12  -1  15 242.085 204.730   5
 -12  -1  15 155.920 34.5817   4
 -12  -1  16-149.906 202.145   5
 -12  -1  16-178.277 161.737   4
 -12  -1  17 370.527 69.8505   5
  12  -2   0-0.05895 81.0172   8
 -12   2   0 97.5290 122.333   5
 -12   2   0 207.012 215.538  19
 -12   2   1 53.3388 161.739   5
  12  -2   1 6.08759 72.6251   8
  12  -2  -1 120.769 150.499   8
 -12   2  -1 18.0689 139.224   5
 -12   2   1-66.2602 117.024  19
 -12   2   2 0.05900 104.221  19
 -12   2   2 12.4586 127.356   5
  12  -2  -2 62.6390 65.9042   8
 -12   2  -2 180.546 166.372   5
 -12   2   2-7.94484 38.6759   4
 -12   2   3 53.3041 77.7553  19
 -12   2   3 130.735 115.988   4
 -12   2   3-143.355 161.523   5
 -12   2   4 781.455 300.758  19
 -12   2   4 633.657 253.973   4
 -12   2   4 545.493 255.530   5
 -12   2   5-86.9412 126.849   5
 -12   2   5-82.3725 109.013   4
 -12   2   6 1778.51 465.949   2
 -12   2   6 1642.05 425.581   5
  12   2  -6 3049.07 558.064   8
 -12   2   6 1920.16 424.754   4
 -12   2   7-17.1892 103.986   5
 -12   2   7-3.55812 56.2895   4
 -12   2   7-89.8627 119.965   2
  12   2  -7-9.29340 48.6916   8
 -12   2   8 1436.23 403.670   5
  12   2  -8 2080.24 434.160   8
 -12   2   8 1515.50 357.296   4
 -12   2   8 1476.01 393.061   2
  12  -2  -9-6.25604 82.6886  14
 -12   2   9-34.3300 71.7278   5
 -12   2   9-108.910 138.589   4
 -12   2   9-143.048 117.090   2
 -12  -2   9 44.0380 154.209  19
 -12  -2  10 272.095 212.452  19
 -12  -2  11-61.4677 77.5563  19
 -12  -2  14-64.9052 91.3578   5
 -12  -2  15-91.3418 69.4705   5
 -12  -2  16 122.991 204.581   5
 -12  -2  17 68.7653 171.434   5
 -12   3   0 49.7292 30.5092   4
 -12   3   0-18.4831 76.2896  19
 -12   3   0 56.6344 82.9923   5
  12  -3   0 49.3696 106.439   8
 -12   3  -1 420.777 211.213  19
 -12   3  -1 348.152 219.910   5
 -12   3   1 606.799 221.889  19
 -12   3   1 443.706 235.685   4
 -12   3   1 452.729 239.529   5
  12  -3   1 552.887 250.891   8
 -12   3  -1 351.924 210.990   4
 -12   3   2 7.51048 91.8371  19
 -12   3   2 23.7037 83.6948   5
 -12   3   2 30.1116 67.5736   4
 -12   3   2 20.4786 40.5006   2
  12  -3   2 49.4879 80.6483   8
 -12   3  -2-73.7512 168.743  19
 -12   3  -2 75.0375 33.3251   5
 -12   3   3 100.316 163.945   5
 -12   3   3 18.9803 65.3106   4
  12  -3   3-58.2811 100.525   8
 -12   3   3-0.42515 115.801   2
 -12   3  -3 185.329 117.283   5
 -12   3   4 27.6690 72.8921   2
  12  -3  -4 14.4598 62.3395  14
 -12   3   4 76.9694 107.057   5
  12  -3   4 71.7076 35.7029   8
 -12   3   4-24.5684 87.1745   4
 -12   3  -4 90.3885 87.4506   5
 -12   3   5 374.119 215.604   2
  12  -3  -5 163.098 138.640  14
 -12   3   5 394.729 212.157   5
 -12   3   5 444.212 232.777   4
  12  -3  -6 20.3839 62.7732  14
 -12   3   6 116.924 117.877   5
 -12   3   6-51.7208 28.9890   4
  12   3   8-10.3636 146.401  18
  12   3  -8 140.497 102.102   8
  12   3   9 130.400 326.575  18
  12   3  -9 54.8960 115.397   8
 -12  -3  10 19.5644 115.786  19
 -12  -3  11 39.4107 172.542  19
 -12  -3  12 256.491 195.762  19
 -12   4   0 1246.36 295.009   2
 -12   4   0 1171.68 356.104   5
 -12   4   0 1442.10 386.563   4
 -12   4  -1 53.7252 127.137  19
 -12   4  -1-166.860 186.488   4
 -12   4  -1-69.5678 80.5960   5
  12  -4  -1-32.6453 148.669  14
 -12   4   1 127.128 108.349   5
 -12   4   1 71.2531 122.923   2
 -12   4   1-36.0903 74.8763   4
 -12   4  -2 491.489 249.603  19
 -12   4  -2 414.842 216.044   4
 -12   4  -2 509.177 271.860   5
  12  -4  -2 139.144 104.347  14
 -12   4   2 439.940 223.493   5
 -12   4   2 515.767 260.747   4
  12  -4   2 409.652 240.357   8
 -12   4   2 266.146 141.548   2
 -12   4  -3 251.870 185.367  19
 -12   4  -3-91.9616 181.571   5
  12  -4  -3 29.4763 3.83733  14
 -12   4   3 135.859 124.189   5
  12  -4   3 198.301 191.661   8
 -12   4   3-99.9673 163.546   4
 -12   4  -3 71.6705 13.3737   4
 -12   4  -4 145.266 111.672  19
  12  -4   4-61.0224 103.410   8
 -12   4  -4 71.4136 141.789   5
  12  -4   5 32.6090 119.184   8
 -12   4  -5-151.260 145.113   5
 -12   4  -5 187.441 195.634  19
  12   4   6 169.090 327.413  18
  12  -4   6 359.974 261.119   8
 -12   4  -6 248.108 199.662   5
 -12   4  -6 157.473 99.7874  19
  12  -4   7 42.3549 102.794   8
  12   4  -9 247.113 156.462   8
 -12  -4  11-126.839 134.519  19
 -12  -4  12 275.977 158.538  19
 -12  -4  13 540.224 379.374  19
  12  -5   0-0.91495 30.5897  14
 -12   5   0 148.030 116.646   5
 -12   5   0 15.1493 46.8580   4
  12  -5   1 4.23623 150.627  14
 -12   5  -1 538.335 199.001   5
 -12   5  -1 952.575 298.605   4
  12  -5   2 47.9320 142.107  14
 -12   5  -2 138.355 97.0606   5
 -12   5  -2 87.2349 44.1513   4
 -12   5  -3-137.895 145.926  19
 -12   5  -3 187.601 113.905   4
 -12   5  -3 102.869 29.4919   5
 -12   5  -4 66.9452 151.383   4
 -12   5  -4 76.7618 117.211  19
  12   5   4 351.221 433.223  18
 -12   5  -4-34.7183 101.642   5
 -12   5  -5-44.9456 70.1655  19
 -12   5  -5-170.226 160.994   5
  12  -5   5 93.7586 135.456   8
 -12   5  -5-266.572 195.795   4
 -12   5  -6-284.952 208.450  19
  12  -5   6 178.570 210.730   8
 -12   5  -6 154.646 137.275   5
 -12   5  -7 86.6514 122.585  19
  12  -5   7 332.987 112.215   8
 -12   5  -7 161.693 214.312   5
  12  -5   8-59.4859 114.747   8
 -12   5  -8-100.701 166.782   5
 -12   5  -8 294.023 204.512  19
  12  -5   9-99.9723 144.657   8
 -12   5  -9 169.595 155.434  19
  12  -5  10 35.5529 77.7276   8
 -12   5 -10-157.683 47.2776  19
  12  -5  11 431.386 227.195   8
 -12   6  -2 83.1602 68.5053   4
  12  -6   3 164.721 132.925  14
 -12   6  -3-65.0673 138.940   5
 -12   6  -3 158.069 111.998   4
  12  -6   4-10.8501 169.952  14
 -12   6  -4 112.202 149.403   5
 -12   6  -4-4.31028 39.8979   4
 -12   6  -5-32.0719 36.7760   4
 -12   6  -5-30.3054 47.4205   5
 -12   6  -6 202.348 192.332   4
 -12   6  -6 246.828 157.462   5
 -12   6  -7 29.7653 44.9370   5
 -12   6  -7 105.303 112.574  19
 -12   6  -7 43.8138 24.4241   4
 -12   6  -8 349.840 228.615  19
  12  -6   8 147.477 153.776   8
 -12   6  -8 194.018 56.2560   5
 -12   6  -9 71.8930 192.682  19
  12  -6   9 383.764 245.948   8
 -12   6  -9 25.1647 62.0720   5
 -12   6 -10-121.695 134.656  19
  12  -6  10 58.9740 118.992   8
 -12   6 -11-23.6758 159.252  19
  12  -6  11 102.275 152.995   8
 -12   6 -12-225.618 235.157  19
  12  -6  12 72.5785 60.7855   8
  12  -6  13 2.03441 189.127   8
 -12   6 -13 121.892 278.114  19
  12  -6  14 58.7809 189.120   8
 -12   6 -14-12.1446 175.371  19
  12  -6  15 57.4946 189.504   8
 -12   6 -15 11.3898 217.114  19
 -12   7  -5 396.081 282.809   5
 -12   7  -5 303.687 157.327   4
  12  -7   6-16.7268 41.8104  14
 -12   7  -6 30.0286 46.7504   4
 -12   7  -6 133.788 63.1893   5
 -12   7  -7 203.601 79.8037   4
 -12   7  -7 341.245 188.613   5
  12  -7   7 19.5701 102.368  14
 -12   7  -8 8.45140 59.9122   5
 -12   7  -8-66.3346 140.646   4
 -12   7  -9-213.166 93.1565   5
 -12   7 -10 354.596 270.939   5
 -12   7 -11-17.4827 44.7958  19
  12  -7  11-209.996 175.412   8
 -12   7 -11-53.7795 166.367   5
 -12   7 -12 0.20053 116.289  19
  12  -7  12 8.62840 89.9799   8
 -12   7 -13-18.2268 163.674  19
  12  -7  13 7.44717 268.882   8
 -12   8  -8 551.223 274.960   4
 -12   8  -8 617.075 300.910   5
 -12   8  -9 155.551 157.034   4
 -12   8  -9-72.4099 117.964   5
 -12   8 -10-200.903 102.453   5
 -12   8 -10-137.869 185.684   4
 -12   8 -11-67.2145 174.803   5
  13   0  -3 1762.65 475.905   8
  13   0  -4-51.4765 137.168   8
  13   0  -5 3009.21 601.859   8
 -13   0   5 1850.13 492.585  19
 -13   0   6 95.5553 143.766  19
 -13   0   6 226.097 202.556   5
 -13   0   7 2237.99 562.831   5
 -13   0   7 2665.56 579.542  19
 -13   0   8-74.9694 141.282  19
 -13   0   8-82.6121 158.665   5
 -13   0   9 1020.37 341.855   5
 -13   0  10-8.34763 230.897   5
 -13   0  11 104.303 257.448   5
 -13   0  11 362.983 176.472   4
 -13   0  12-141.607 137.173   5
 -13   0  12 11.4063 65.8452   4
 -13   0  13-14.6525 236.057   5
 -13   0  13-124.587 115.816   4
 -13   0  14 93.8476 131.191   4
 -13   0  14 25.9013 158.910   5
 -13   0  15 221.785 132.680   4
 -13   0  15 93.0618 355.590   5
 -13   0  16 172.652 128.761   4
 -13   0  16 168.506 213.249   5
  13  -1  -1 13.6144 58.4973   8
  13  -1  -2 358.118 188.072   8
 -13   1   2 357.697 252.415   5
  13  -1  -3-60.1537 129.477   8
 -13   1   3 48.7505 60.1358   5
 -13   1   3 173.350 205.341  19
 -13   1   4 914.859 312.329  19
  13   1  -4 2010.69 489.036   8
  13  -1  -4 1268.57 370.858   8
 -13   1   4 862.542 359.149   5
 -13   1   5-226.571 227.236  19
  13   1  -5 41.4778 132.532   8
 -13   1   5-172.503 178.474   5
 -13   1   6 1831.34 482.422   5
 -13   1   6 2407.04 524.796  19
 -13   1   7-43.3421 94.6981   5
  13   1  -7 50.5343 112.225   8
 -13   1   7-141.994 186.002   4
 -13  -1   7-110.386 215.089  19
 -13  -1   8 1458.51 393.458  19
 -13   1   8 1601.00 451.000   5
 -13   1   8 1675.86 428.077   4
 -13  -1   9-193.083 172.088  19
 -13   1   9 33.9412 127.236   4
 -13   1   9-208.185 197.042   5
 -13   1  10 632.115 270.533   4
 -13   1  10 127.754 285.363   5
 -13  -1  10 14.1607 206.830   5
 -13   1  11-82.9478 165.076   5
 -13   1  11 83.4886 147.002   4
 -13  -1  11 13.5221 212.117   5
 -13   1  12 18.6846 246.018   5
 -13   1  12 115.031 221.928   4
 -13  -1  12 3.58069 157.093   5
 -13   1  13 290.812 292.192   5
 -13   1  13 103.351 216.232   4
 -13  -1  13 12.1181 224.112   5
 -13  -1  14 132.184 97.8131   5
 -13  -1  15-134.795 96.9081   5
  13  -2   0 27.9610 43.7318   8
 -13   2   0 1.34228 24.5885   5
 -13   2   0 47.9272 179.638  19
  13  -2   1-43.0927 68.0876   8
  13  -2  -1-68.4167 82.5611   8
 -13   2  -1-44.6064 89.8686   5
 -13   2   1 7.50926 135.061   5
 -13   2   1 88.3921 193.061  19
 -13   2   2-56.5108 94.0103  19
  13  -2   2 20.1871 138.764   8
  13  -2  -2 253.085 170.673   8
 -13   2   2 55.5892 153.781   5
 -13   2   3 207.722 179.526   5
 -13   2   3 270.871 137.861  19
 -13   2   3 66.1012 115.302   4
 -13   2   4 6.02075 77.6480   5
 -13   2   4 21.4098 67.2440  19
 -13   2   4-40.1398 105.464   4
 -13   2   5 1046.35 346.471   4
 -13   2   5 974.202 357.446   5
 -13   2   6 9.21571 84.5392   4
 -13   2   6 67.9528 65.0010   5
  13   2  -6 8.14193 91.4750   8
 -13   2   7 889.746 317.746   5
 -13   2   7 1140.16 330.504   4
 -13   2   8 105.455 98.0176   4
  13   2  -8 191.310 183.839   8
 -13  -2   8-19.7614 91.6155  19
 -13  -2   9 368.030 228.538  19
 -13   2   9 461.558 210.454   5
 -13   2   9 608.820 251.751   4
 -13  -2  10 2.37423 76.6184  19
 -13   2  10 3.23321 99.8629   5
 -13   2  10 197.151 108.953   2
 -13   2  10-112.079 99.2480   4
 -13  -2  11-89.2503 212.499  19
 -13   3   0 453.570 271.857   5
 -13   3   0 387.881 245.718  19
  13  -3   0 693.318 300.905   8
 -13   3   0 241.808 169.970   4
 -13   3  -1-146.239 132.689  19
 -13   3   1 47.6769 146.548  19
 -13   3   1-28.1992 114.079   5
  13  -3   1 1.17746 81.3686   8
 -13   3  -1 112.048 175.978   5
 -13   3   1-44.5802 76.4132   4
 -13   3   2 51.9505 26.2005   4
 -13   3   2 202.909 82.7419  19
 -13   3   2-63.0318 60.5033   5
  13  -3   2 230.091 176.198   8
 -13   3  -2 120.919 172.426   5
 -13   3  -2 170.277 197.736  19
 -13   3   3 106.907 77.8880   4
 -13   3   3-49.7797 98.8735   5
  13  -3   3 26.1001 144.438   8
 -13   3  -3-62.9399 66.9678   5
 -13   3  -3-33.9286 118.991  19
 -13   3   4 110.844 88.8073   5
 -13   3   4 139.321 12.2376   2
 -13   3   4 177.117 135.410   4
  13  -3   4 317.707 178.967   8
 -13   3   5 57.9405 144.030   5
 -13   3   5 73.1493 129.903   4
 -13   3   5 141.214 84.7774   2
 -13   3   6 609.440 271.015   5
 -13   3   6 543.747 274.630   4
 -13   3   6 443.741 190.778   2
 -13   3   7 2.91052 52.6669   5
  13   3  -7 188.548 233.740   8
  13   3  -8 330.948 169.018   8
  13   3  -9 134.923 178.814   8
 -13  -3  10-59.4165 197.168  19
 -13  -3  11 124.661 155.079  19
 -13  -3  12 438.133 231.380  19
 -13   4   0 169.284 167.749   4
 -13   4   0 176.589 118.196   5
 -13   4  -1 753.691 276.984   4
 -13   4  -1 320.052 249.249  19
 -13   4  -1 724.939 299.894   5
 -13   4   1 525.875 237.744   5
 -13   4   1 792.207 273.556   4
 -13   4  -2 57.0586 79.4725   5
 -13   4  -2 53.1700 113.785  19
 -13   4   2 71.3549 85.5787   5
 -13   4   2 236.061 148.098   4
  13  -4   2 164.516 172.827   8
 -13   4  -2-25.8262 171.527   4
 -13   4   2 92.6319 93.3916   2
 -13   4  -3 12.9592 119.035  19
 -13   4   3 99.9135 25.8290   2
  13  -4  -3 44.6878 87.7581  14
 -13   4   3 91.1792 104.535   5
 -13   4   3 230.553 134.491   4
  13  -4   3 101.019 51.9007   8
 -13   4  -3-143.740 189.122   5
 -13   4  -4 13.7202 91.9749  19
 -13   4   4 126.932 191.965   5
  13  -4   4 79.7115 62.7977   8
 -13   4  -4-141.728 165.623   5
  13  -4   5 269.642 277.566   8
 -13   4  -5-95.3303 189.589   5
 -13   4  -5 364.181 267.271  19
  13  -4   6 84.7738 114.638   8
 -13   4  -6-203.001 191.339  19
  13  -4   7 174.454 213.698   8
  13  -4   8 371.008 237.094   8
 -13  -4  11 1912.29 506.563  19
 -13  -4  12 10.4409 64.9947  19
  13  -5   0 147.164 162.159  14
 -13   5   0 769.978 310.001   5
 -13   5   0 931.576 325.064   4
 -13   5  -1 24.7690 73.8048   5
 -13   5  -1 111.309 150.593   4
 -13   5   1 238.960 249.269   5
 -13   5   1 193.366 126.320   4
 -13   5  -2 533.877 267.458   4
 -13   5  -2 594.376 240.244   5
 -13   5  -3 10.1941 92.4236   4
 -13   5  -3-61.0745 48.8890  19
 -13   5  -3 74.9759 128.109   5
 -13   5  -4-63.3301 200.723   5
 -13   5  -4 37.6334 116.375  19
 -13   5  -4-169.886 101.671   4
 -13   5  -5 93.8514 114.022  19
  13  -5   5 170.578 152.226   8
 -13   5  -5 65.4217 130.852   5
 -13   5  -6-66.3233 85.9919  19
  13  -5   6 164.032 164.373   8
 -13   5  -6-12.6097 107.346   5
 -13   5  -7 121.792 199.274  19
  13  -5   7-17.6161 194.600   8
 -13   5  -7 82.1571 154.612   5
 -13   5  -8 62.6703 177.175  19
  13  -5   8-138.541 178.278   8
  13  -5   9 176.806 223.121   8
 -13   5  -9 325.289 319.899  19
  13  -5  10 147.696 146.841   8
 -13   5 -10-93.1614 181.470  19
  13  -5  11-61.9304 60.4799   8
 -13   5 -11 216.310 175.635  19
 -13   6  -2 235.037 228.437   5
 -13   6  -2 372.878 229.051   4
  13  -6   3-4.16544 98.6821  14
 -13   6  -3 184.893 138.028   5
 -13   6  -3 157.727 190.359   4
 -13   6  -4 10.5436 76.0692   4
 -13   6  -4-5.75605 85.2735   5
 -13   6  -5-178.025 153.772   4
 -13   6  -5-2.09075 70.8129   5
 -13   6  -6-17.7898 162.928   5
 -13   6  -6 212.681 88.9792   4
 -13   6  -7 57.7137 145.452  19
 -13   6  -7 227.516 212.509   5
 -13   6  -8-93.0793 123.476  19
  13  -6   8 217.883 148.703   8
 -13   6  -8-334.925 275.313   5
 -13   6  -9 33.0790 83.0855  19
  13  -6   9-128.931 83.5091   8
 -13   6 -10-183.877 146.798  19
  13  -6  10 8.90724 101.972   8
 -13   6 -11-77.6500 124.452  19
  13  -6  11 448.758 237.830   8
 -13   6 -12 221.350 180.631  19
  13  -6  12-55.8325 82.3932   8
 -13   7  -5 265.817 286.607   4
 -13   7  -5 246.303 179.480   5
 -13   7  -6 866.907 344.550   4
 -13   7  -6 287.343 319.817   5
 -13   7  -7-249.990 212.755   5
 -13   7  -7-13.3004 159.379   4
 -13   7  -8-23.4134 63.4005   5
 -13   7  -9 521.175 274.238   5
 -13   7 -10-335.381 286.062   5
 -13   7 -11 104.176 172.241  19
  13  -7  11-62.5668 109.650   8
 -13   8  -8 363.262 264.265   4
 -13   8  -8 165.110 174.294   5
 -13   8  -9-183.366 129.340   5
 -13   8  -9 176.207 158.934   4
  14   0  -2 261.362 107.027   8
  14   0  -3-34.7785 115.528   8
  14   0  -4 1124.84 388.784   8
 -14   0   4 507.184 281.362  19
  14   0  -5 60.8720 129.956   8
 -14   0   5-102.512 111.546  19
 -14   0   6 1224.66 402.820  19
 -14   0   7-54.5715 137.397  19
 -14   0   7-1.44474 107.921   5
 -14   0   8 509.844 251.737  19
 -14   0   8 61.0727 262.881   5
 -14   0   9-40.4286 162.732   5
 -14   0  10 151.788 323.560   5
 -14   0  11 4.21207 68.4354   5
 -14   0  12 152.824 243.490   5
 -14   0  13-2.16893 93.3665   5
  14  -1   0 81.3221 183.622   8
  14  -1  -1-106.238 162.698   8
  14  -1  -2 94.7543 97.3963   8
 -14   1   2 9.24852 231.084  19
  14  -1  -3 259.731 217.131   8
 -14   1   3 357.348 269.993  19
 -14   1   4-74.4697 155.305  19
  14   1  -4-3.30132 208.986   8
 -14   1   4 162.816 120.915   5
 -14   1   5 1251.55 392.656  19
  14   1  -5 1118.05 407.021   8
 -14   1   5 940.916 375.092   5
 -14   1   6 150.258 139.534  19
  14   1  -6 120.891 150.017   8
 -14   1   6 101.962 120.854   5
 -14  -1   6-83.0524 113.523  19
 -14   1   7 245.602 241.850   5
 -14  -1   7 844.125 260.475  19
 -14   1   8-63.5898 87.0852   5
 -14  -1   8-125.744 218.979  19
 -14   1   9 24.0335 242.790   5
 -14  -1   9 350.812 265.554  19
 -14   1   9 533.183 278.363   4
 -14   1  10 26.3117 154.713   5
 -14   1  10 60.9180 9.42584   4
 -14   1  11 56.4527 128.076   4
 -14   1  11 93.5858 102.233   5
 -14   1  12 48.3359 110.546   4
 -14   1  12 4.90950 125.659   5
 -14  -1  12-13.4232 229.365   5
 -14   1  13 69.3428 78.6661   4
 -14   1  13-119.086 192.559   5
 -14  -1  13-99.0206 33.1138   5
  14  -2   0 59.4286 85.5570   8
 -14   2   0 247.399 285.209  19
 -14   2   1 200.191 163.498  19
  14  -2   1-43.0129 100.910   8
  14  -2  -1 196.542 187.661   8
 -14   2   1 270.949 236.453   5
 -14   2   2-12.7798 106.603  19
  14  -2   2 205.815 232.616   8
  14  -2  -2 64.6067 124.434   8
 -14   2   2 126.086 204.427   5
 -14   2   3-73.5620 154.965  19
 -14   2   3 110.419 175.245   5
 -14   2   4 202.219 201.168   5
 -14   2   4 98.2179 155.388  19
 -14   2   5-402.549 230.398   5
 -14   2   5-214.862 244.045   4
 -14   2   6 49.3797 339.712   5
  14   2  -6 1013.59 325.235   8
 -14   2   6 395.999 216.099   4
 -14   2   7 9.53476 123.047   4
 -14   2   7 8.74283 169.605   5
  14   2  -7-232.284 230.363   8
 -14   2   8 331.149 212.879   4
  14   2  -8 748.458 334.826   8
 -14  -2   8 371.120 399.465  19
 -14  -2   9 132.630 15.2664  19
 -14   2   9 79.4909 258.478   5
 -14   2   9 180.081 203.363   4
 -14  -2  10-40.9026 154.644  19
 -14   2  10-2.49604 152.221   5
 -14   2  10 18.8913 100.186   4
 -14  -2  11 143.469 131.855  19
 -14   3   0 42.2000 168.326  19
  14  -3   0 60.4614 89.3390   8
 -14   3   0-212.178 143.768   5
 -14   3   1 211.584 138.749   5
 -14   3  -1 644.905 295.427  19
 -14   3   1 531.755 348.796  19
  14  -3   1 743.454 313.884   8
 -14   3  -1 585.046 280.903   5
 -14   3   2-30.0319 131.960   5
 -14   3   2 76.8473 67.7762  19
  14  -3   2 43.6831 137.549   8
 -14   3  -2 63.7500 116.576   5
 -14   3   2 20.1356 74.8990   4
 -14   3  -2 82.8122 192.979  19
 -14   3   3 48.8201 129.001   5
  14  -3   3 92.2224 143.990   8
 -14   3  -3-72.6879 39.9229  19
 -14   3   3 78.5956 96.3886   4
 -14   3   4-23.5178 102.566   4
 -14   3   4 67.6788 52.3442   5
  14  -3   4 136.731 184.306   8
 -14   3   5-14.0916 132.207   4
 -14   3   5 4.34324 158.301   5
  14  -3   5-0.57712 163.930   8
 -14   3   6 1.54981 83.8223   5
 -14   3   6 65.7555 71.5661   4
 -14   3   7 98.9682 171.974   2
 -14   3   7 14.8361 181.615   5
 -14   3   7 34.7734 177.799   4
  14   3  -7 278.429 225.425   8
  14   3  -8 417.475 192.246   8
 -14  -3  10-27.7910 91.8212  19
 -14  -3  11 311.974 221.329  19
 -14  -3  12 186.371 128.060  19
 -14   4   0 814.039 342.222   5
 -14   4   0 1023.49 342.473   4
 -14   4  -1-89.0518 142.718   5
 -14   4   1 34.1546 51.7741   4
 -14   4  -1 224.212 242.942  19
 -14   4   1 214.648 207.024   5
 -14   4  -1 99.9946 74.2752   4
 -14   4  -2 386.953 257.043  19
 -14   4   2 308.444 264.285   4
 -14   4   2 269.315 249.290   5
 -14   4  -2 317.736 185.878   5
 -14   4  -3-254.234 275.717  19
 -14   4   3 240.269 151.530   5
 -14   4   3-4.26894 132.297   4
  14  -4   3 140.635 96.1134   8
 -14   4  -3 311.969 205.668   5
 -14   4  -4-241.634 241.885  19
 -14   4   4 189.574 108.598   5
 -14   4   4 26.7205 207.218   4
  14  -4   4-111.616 217.728   8
 -14   4  -4 78.8465 184.216   5
  14  -4   5 179.492 193.423   8
 -14   4  -5-89.1267 108.090  19
  14  -4   6-52.5099 221.867   8
 -14   4  -6 130.900 229.203  19
  14  -4   7 832.968 440.639   8
 -14   4  -7-290.596 234.531  19
  14  -4   8 138.322 216.538   8
 -14  -4  11-123.198 228.175  19
 -14   5   0 446.653 258.454   4
 -14   5   0 1.65187 61.1065   5
 -14   5  -1 415.542 244.924   4
 -14   5  -1 746.328 326.178   5
 -14   5   1 58.1926 356.559   5
 -14   5   1 52.6951 310.914   4
 -14   5  -2 132.636 132.740   5
 -14   5  -2 6.98681 204.750   4
 -14   5  -3 68.7189 166.956   5
 -14   5  -3 157.064 110.426  19
 -14   5  -3-236.019 241.237   4
 -14   5  -4 518.474 365.437  19
 -14   5  -4 369.897 279.362   5
 -14   5  -5-38.1238 57.3777  19
  14  -5   5 148.461 210.472   8
 -14   5  -5-38.8303 88.1316   5
 -14   5  -6-50.9345 225.315  19
  14  -5   6 578.898 280.403   8
 -14   5  -6 185.857 166.651   5
 -14   5  -7-112.711 195.128  19
  14  -5   7 145.618 181.126   8
 -14   5  -8 370.064 302.052  19
  14  -5   8 696.406 282.016   8
  14  -5   9 121.410 85.4026   8
 -14   5  -9 377.553 275.771  19
  14  -5  10 776.753 337.754   8
 -14   5 -10-130.722 142.990  19
 -14   6  -2 454.813 227.430   4
 -14   6  -2-102.851 98.8685   5
 -14   6  -3 241.542 160.883   4
 -14   6  -3 289.676 212.020   5
 -14   6  -4-122.379 245.629   5
 -14   6  -4 210.172 145.707   4
 -14   6  -5 177.523 206.494   5
 -14   6  -5 251.776 127.170   4
 -14   6  -6 350.455 252.773   5
 -14   6  -7 182.887 157.346  19
 -14   6  -7 328.055 215.533   5
 -14   6  -8 74.3216 205.231  19
  14  -6   8 126.518 163.156   8
 -14   6  -8 3.52883 155.733   5
 -14   6  -9 91.6122 170.100  19
  14  -6   9 472.505 311.281   8
 -14   7  -5 164.834 106.314   4
 -14   7  -5-76.8661 169.935   5
 -14   7  -6 81.3693 15.5765   5
 -14   7  -6 106.618 79.3582   4
 -14   7  -7 188.686 191.544   5
  15   0  -1-25.6603 158.088   8
  15   0  -2 274.331 225.663   8
  15   0  -3 32.5392 65.8203   8
  15   0  -4-11.4912 127.996   8
 -15   0   4 46.7562 198.836  19
 -15   0   5 226.911 242.486  19
  15   0  -5 450.576 270.253   8
 -15   0   6 211.403 238.100  19
 -15   0   7 119.279 182.439  19
 -15   0   9 1.82941 93.5279   5
 -15   0  10-18.0178 156.444   5
  15  -1   0 232.693 197.921   8
  15  -1   1 175.295 223.014   8
  15  -1  -1 35.3279 18.3985   8
  15  -1  -2 18.6950 103.497   8
 -15   1   2 5.92741 168.719  19
 -15   1   3 272.602 262.412  19
  15   1  -3 522.527 352.165   8
  15  -1  -3 32.4656 53.9204   8
 -15   1   4 17.4223 135.233  19
  15   1  -4 101.907 65.8851   8
 -15   1   5-17.2616 113.847  19
  15   1  -5-241.481 232.649   8
 -15   1   5-1.34153 33.8879   5
 -15   1   6 387.597 272.844  19
  15   1  -6 518.285 272.851   8
 -15   1   6-0.66451 240.436   5
 -15  -1   7-69.2394 107.218  19
 -15   1   7-16.4220 201.582   5
 -15  -1   8 57.6477 65.7410  19
 -15   1   8 55.0797 160.704   5
 -15  -1   9 145.069 166.226  19
 -15   1   9 13.7944 45.5950   5
 -15   1  10 5.42621 85.8452   5
  15  -2   0 116.259 40.8258   8
 -15   2   0-6.11192 170.657  19
 -15   2   1 214.856 89.7041  19
  15  -2   1 282.357 308.291   8
  15  -2  -1 279.511 116.285   8
 -15   2  -1 230.572 264.777  19
 -15   2   2-194.012 193.262  19
  15  -2   2 243.983 219.700   8
 -15   2   2-165.543 249.001   5
 -15   2   3-5.25952 104.905  19
  15  -2   3 217.935 136.624   8
 -15   2   3 158.476 215.766   5
 -15   2   4-265.691 247.198  19
 -15   2   4 125.594 100.622   5
  15   2  -5-24.8642 76.9965   8
 -15   2   5 2.29748 210.434   5
 -15   2   6-97.9622 118.944   5
  15   2  -6-121.144 95.2091   8
 -15   2   7-18.1803 259.314   5
  15   2  -7 91.6766 96.5042   8
 -15   2   7-321.709 196.775   4
 -15   2   8-43.1146 178.303   5
 -15   2   8 5.81563 130.084   4
 -15  -2   8 227.705 177.557  19
 -15   2   9-16.0176 210.924   4
 -15  -2   9-25.6413 77.0921  19
 -15   2   9-1.01826 106.962   5
 -15   3   0 217.638 237.111  19
 -15   3   0 17.7211 137.055   5
 -15   3  -1-10.5288 157.725  19
 -15   3   1-77.2658 81.6679  19
  15  -3   1 49.1499 145.128   8
 -15   3  -1-6.04632 204.521   5
 -15   3   1 95.0500 251.580   5
 -15   3  -2 196.311 190.336  19
 -15   3   2-199.804 169.370  19
 -15   3   2 109.363 207.183   5
 -15   3   3 93.9239 83.2475   5
 -15   3  -3 10.7215 115.344  19
 -15   3   4-53.6291 170.764   5
  15  -3   4 263.277 110.428   8
 -15   3   4-75.2794 204.145   4
 -15   3  -4-30.7726 141.541  19
 -15   3   5 7.65072 213.843   5
  15  -3   5 228.159 196.446   8
 -15   3   5-68.6408 97.8979   4
 -15   3   6 47.5209 88.2696   4
 -15   3   6 9.65436 188.833   5
  15  -3   6-269.089 271.680   8
 -15   3   7 38.5859 122.766   4
 -15   3   7-3.61430 40.4206   5
 -15  -3   9-25.9494 116.082  19
 -15   4   0 2.77802 21.9295   5
 -15   4   1 14.1168 163.648   5
 -15   4  -1 707.479 362.356  19
 -15   4   1 197.925 176.791   4
 -15   4  -1 28.8166 280.172   5
 -15   4  -2-166.102 108.483  19
 -15   4   2-1.34810 140.228   5
 -15   4  -2 94.0163 252.645   5
 -15   4   2-22.8514 74.2591   4
 -15   4  -3-78.8792 220.664  19
 -15   4   3 33.6461 85.3026   4
 -15   4   3 14.2339 197.327   5
  15  -4   3 458.483 229.211   8
 -15   4  -3 166.468 54.7929   5
 -15   4  -4-15.2208 101.612  19
 -15   4   4 152.647 143.698   4
 -15   4   4 6.12068 133.726   5
  15  -4   4-15.6755 72.9836   8
 -15   4  -5 322.399 402.991  19
  15  -4   5 133.091 165.466   8
  15  -4   6 196.254 241.667   8
 -15   4  -6 161.707 248.888  19
  15  -4   7-102.533 103.823   8
 -15   4  -7-185.217 141.239  19
 -15   5   0 13.7548 270.205   4
 -15   5   0 126.105 359.622   5
 -15   5  -1 49.5917 196.878   5
 -15   5   1 11.8353 199.332   4
 -15   5   1 4.02532 153.090   5
 -15   5  -1 22.7167 76.3437   4
 -15   5  -2 140.110 168.594   5
 -15   5  -3 654.052 365.982   5
 -15   5  -4 113.445 105.437  19
 -15   5  -4 233.150 228.913   5
 -15   5  -5-28.5893 59.1092  19
  15  -5   5 457.100 278.052   8
 -15   5  -5 239.064 211.917   5
 -15   5  -6-140.271 61.8837  19
  15  -5   6-10.2262 69.4644   8
 -15   6  -2 296.933 191.808   4
 -15   6  -2 61.6510 279.172   5
  16   0  -1-114.090 218.902   8
  16   0  -2 181.321 232.166   8
  16   0  -3 5.32576 45.0896   8
 -16   0   3 306.975 288.312  19
  16   0  -4 96.5700 112.688   8
 -16   0   4 39.7445 115.384  19
  16  -1   0-105.928 98.4688   8
  16  -1  -1 286.289 64.9045   8
 -16   1   1-5.52036 21.9588  19
  16  -1  -2 99.6217 142.554   8
 -16   1   2 428.447 378.206  19
 -16   1   3-182.591 223.410  19
  16   1  -3 223.433 213.023   8
  16  -1  -3 83.3254 113.731   8
 -16   1   4-124.748 246.542  19
  16   1  -4-397.046 262.818   8
 -16   2   0 554.016 361.528  19
  16  -2   0 927.176 411.346   8
  16  -2   1 164.104 224.796   8
  16  -2  -1 132.933 161.101   8
 -16   2   2 41.6786 54.0326  19
 -16   2  -2-432.469 363.008  19
 -16   2   3 336.082 270.545  19
  16  -2   3 13.5337 61.7895   8
   0   0   0    0.00    0.00   0
TITL HfMOF_3-3kbar in P4/mnc
REM P4/mnc (#128 in standard setting)
CELL 0.71073  19.504065  19.504065  32.072370  90.0000  90.0000  90.0000
ZERR   13.00   0.001300   0.001300   0.003268   0.0000   0.0000   0.0000
LATT  1
SYMM -x,-y, z
SYMM -y, x, z
SYMM  y,-x, z
SYMM -x+1/2, y+1/2,-z+1/2
SYMM  x+1/2,-y+1/2,-z+1/2
SYMM  y+1/2, x+1/2,-z+1/2
SYMM -y+1/2,-x+1/2,-z+1/2
SFAC C H O Hf
UNIT 572.00 468.00 104.00 13.00
TREF
HKLF 4
END
;
_shelx_hkl_checksum              12209
_shelx_shelxl_version_number     2014/7
_olex2_submission_special_instructions 'No special instructions were received'
loop_
_space_group_symop_operation_xyz
'x, y, z'
'-y, x, z'
'-x, -y, z'
'y, -x, z'
'x+1/2, -y+1/2, -z+1/2'
'-x+1/2, y+1/2, -z+1/2'
'y+1/2, x+1/2, -z+1/2'
'-y+1/2, -x+1/2, -z+1/2'
'-x, -y, -z'
'y, -x, -z'
'x, y, -z'
'-y, x, -z'
'-x-1/2, y-1/2, z-1/2'
'x-1/2, -y-1/2, z-1/2'
'-y-1/2, -x-1/2, z-1/2'
'y-1/2, x-1/2, z-1/2'
loop_
_atom_site_label
_atom_site_type_symbol
_atom_site_fract_x
_atom_site_fract_y
_atom_site_fract_z
_atom_site_U_iso_or_equiv
_atom_site_adp_type
_atom_site_occupancy
_atom_site_site_symmetry_order
_atom_site_calc_flag
_atom_site_refinement_flags_posn
_atom_site_refinement_flags_adp
_atom_site_refinement_flags_occupancy
Hf1 Hf -0.0411(2) 0.12079(18) 0.0000 0.070(2) Uani 1 2 d DS TU P
Hf2 Hf 0.0000 0.0000 0.07658(15) 0.065(3) Uani 1 4 d DS TU P
O1 O -0.0269(15) 0.0884(11) 0.1111(9) 0.064(11) Uiso 1 1 d D U .
O4 O -0.0778(16) 0.0417(17) 0.0358(11) 0.064(11) Uiso 1 1 d . U .
O13 O -0.0595(15) 0.1684(14) 0.0592(7) 0.063(11) Uiso 1 1 d D U .
O19 O -0.145(2) 0.163(2) 0.0000 0.057(15) Uiso 1 2 d S TU P
O20 O 0.020(3) 0.218(3) 0.0000 0.12(2) Uiso 1 2 d S TU P
C3 C -0.0658(8) 0.3107(16) 0.1933(11) 0.077(16) Uiso 1 1 d D U .
C4 C -0.0808(14) 0.3282(14) 0.1489(15) 0.108(19) Uiso 1 1 d D U .
C5 C -0.0755(15) 0.274(2) 0.1207(9) 0.102(19) Uiso 1 1 d D U .
C6 C -0.0585(9) 0.2091(18) 0.1299(12) 0.072(16) Uiso 1 1 d D U .
C7 C -0.0436(15) 0.1915(15) 0.1743(15) 0.12(2) Uiso 1 1 d D U .
C8 C -0.0488(14) 0.245(2) 0.2025(8) 0.098(18) Uiso 1 1 d D U .
C9 C -0.0715(9) 0.3664(11) 0.2212(6) 0.064(15) Uiso 1 1 d D U .
C16 C -0.0204(13) 0.4161(15) 0.2201(10) 0.007(19) Uiso 0.5 1 d DG U .
C15 C -0.025(3) 0.475(3) 0.2500 0.025(18) Uiso 1 2 d DG U .
C10 C -0.1264(12) 0.3736(12) 0.2500 0.10(3) Uiso 1 2 d DG U .
C11 C -0.1761(8) 0.3239(8) 0.2500 0.17(4) Uiso 1 2 d DS TU P
C12 C -0.0529(11) 0.1537(14) 0.1019(8) 0.070(16) Uiso 1 1 d D U .
C17 C 0.0330(12) 0.4181(18) 0.1970(11) 0.11(2) Uiso 1 1 d D U .
loop_
_atom_site_aniso_label
_atom_site_aniso_U_11
_atom_site_aniso_U_22
_atom_site_aniso_U_33
_atom_site_aniso_U_23
_atom_site_aniso_U_13
_atom_site_aniso_U_12
Hf1 0.087(4) 0.077(3) 0.045(4) 0.000 0.000 -0.001(3)
Hf2 0.070(4) 0.070(4) 0.057(6) 0.000 0.000 0.000
loop_
_atom_type_symbol
_atom_type_description
_atom_type_scat_dispersion_real
_atom_type_scat_dispersion_imag
_atom_type_scat_source
C C 0.0033 0.0016 'International Tables Vol C Tables 4.2.6.8 and 6.1.1.4'
H H 0.0000 0.0000 'International Tables Vol C Tables 4.2.6.8 and 6.1.1.4'
O O 0.0106 0.0060 'International Tables Vol C Tables 4.2.6.8 and 6.1.1.4'
Hf Hf -0.5830 6.1852 'International Tables Vol C Tables 4.2.6.8 and 6.1.1.4'
loop_
_exptl_crystal_face_index_h
_exptl_crystal_face_index_k
_exptl_crystal_face_index_l
_exptl_crystal_face_perp_dist
_exptl_oxdiff_crystal_face_indexfrac_h
_exptl_oxdiff_crystal_face_indexfrac_k
_exptl_oxdiff_crystal_face_indexfrac_l
_exptl_oxdiff_crystal_face_x
_exptl_oxdiff_crystal_face_y
_exptl_oxdiff_crystal_face_z
1 0 0 0.0688 0.9989 0.0008 0.0003 -0.0016 -0.0350 0.0097
-2 -2 5 0.0290 -1.9995 -2.0009 4.9923 -0.0072 0.1058 0.1076
-4 2 -5 0.0236 -3.9941 1.9960 -4.9943 0.0169 0.1042 -0.1660
-1 2 -5 0.0527 -0.9973 1.9984 -4.9933 0.0120 -0.0008 -0.1368
5 1 -2 0.0689 4.9955 1.0043 -1.9954 0.0024 -0.1906 -0.0054
0 -1 -1 0.0254 -0.0009 -1.0037 -0.9994 -0.0425 0.0013 -0.0023
0 1 1 0.0254 0.0009 1.0037 0.9994 0.0425 -0.0013 0.0023
3 -2 5 0.0551 2.9952 -1.9968 4.9940 -0.0153 -0.0692 0.1562
-5 -1 1 0.0165 -4.9956 -1.0054 0.9966 -0.0131 0.1859 -0.0134
loop_
_geom_angle_atom_site_label_1
_geom_angle_atom_site_label_2
_geom_angle_atom_site_label_3
_geom_angle
_geom_angle_site_symmetry_1
_geom_angle_site_symmetry_3
Hf1 Hf1 Hf1 90.0 2 10
Hf2 Hf1 Hf1 59.78(4) . 10
Hf2 Hf1 Hf1 59.78(4) 9 2
Hf2 Hf1 Hf1 59.78(4) 9 10
Hf2 Hf1 Hf1 59.78(4) . 2
Hf2 Hf1 Hf2 89.24(14) . 9
O4 Hf1 Hf1 88.9(8) 10 2
O4 Hf1 Hf1 32.3(9) 10 10
O4 Hf1 Hf1 88.9(9) 11 10
O4 Hf1 Hf1 32.3(9) 4 10
O4 Hf1 Hf1 34.1(9) . 2
O4 Hf1 Hf1 88.9(8) 4 2
O4 Hf1 Hf1 88.9(9) . 10
O4 Hf1 Hf1 34.1(9) 11 2
O4 Hf1 Hf2 35.9(8) 10 9
O4 Hf1 Hf2 88.1(9) . 9
O4 Hf1 Hf2 86.6(9) 4 9
O4 Hf1 Hf2 88.1(9) 11 .
O4 Hf1 Hf2 34.9(9) 11 9
O4 Hf1 Hf2 34.9(9) . .
O4 Hf1 Hf2 86.6(9) 10 .
O4 Hf1 Hf2 35.9(8) 4 .
O4 Hf1 O4 68.1(19) . 11
O4 Hf1 O4 70.7(17) 11 10
O4 Hf1 O4 105.5(17) . 10
O4 Hf1 O4 70.7(17) . 4
O4 Hf1 O4 105.5(17) 11 4
O4 Hf1 O4 64.5(18) 4 10
O4 Hf1 O13 76.8(12) . .
O4 Hf1 O13 139.7(12) . 11
O4 Hf1 O13 139.7(12) 11 .
O4 Hf1 O13 76.8(12) 11 11
O4 Hf1 O19 87.7(13) 11 .
O4 Hf1 O19 87.7(13) . .
O4 Hf1 O19 147.3(9) 4 .
O4 Hf1 O19 147.3(9) 10 .
O4 Hf1 O20 145.2(10) 11 .
O4 Hf1 O20 145.2(10) . .
O4 Hf1 O20 85.8(14) 4 .
O4 Hf1 O20 85.8(14) 10 .
O13 Hf1 Hf1 110.0(8) 11 10
O13 Hf1 Hf1 110.0(8) . 10
O13 Hf1 Hf1 108.3(8) 11 2
O13 Hf1 Hf1 108.3(8) . 2
O13 Hf1 Hf2 162.2(8) 11 .
O13 Hf1 Hf2 73.0(8) . .
O13 Hf1 Hf2 162.2(8) . 9
O13 Hf1 Hf2 73.0(8) 11 9
O13 Hf1 O4 140.1(12) . 10
O13 Hf1 O4 140.1(12) 11 4
O13 Hf1 O4 79.7(12) . 4
O13 Hf1 O4 79.7(12) 11 10
O13 Hf1 O13 124.7(17) . 11
O13 Hf1 O19 71.5(9) 11 .
O13 Hf1 O19 71.5(9) . .
O13 Hf1 O20 74.0(10) . .
O13 Hf1 O20 74.0(10) 11 .
O19 Hf1 Hf1 175.9(11) . 10
O19 Hf1 Hf1 85.9(11) . 2
O19 Hf1 Hf2 117.8(7) . 9
O19 Hf1 Hf2 117.8(7) . .
O19 Hf1 O20 100.3(18) . .
O20 Hf1 Hf1 173.8(14) . 2
O20 Hf1 Hf1 83.8(14) . 10
O20 Hf1 Hf2 116.5(9) . .
O20 Hf1 Hf2 116.5(9) . 9
Hf1 Hf2 Hf1 60.44(8) 2 9
Hf1 Hf2 Hf1 60.44(8) 9 10
Hf1 Hf2 Hf1 90.76(14) 2 10
Hf1 Hf2 Hf1 60.44(8) 2 .
Hf1 Hf2 Hf1 60.44(8) 10 .
Hf1 Hf2 Hf1 90.76(14) 9 .
O1 Hf2 Hf1 76.2(9) 3 9
O1 Hf2 Hf1 76.2(9) . .
O1 Hf2 Hf1 112.8(9) 2 9
O1 Hf2 Hf1 112.8(9) . 2
O1 Hf2 Hf1 110.4(8) 2 .
O1 Hf2 Hf1 110.4(8) . 10
O1 Hf2 Hf1 110.4(8) 4 9
O1 Hf2 Hf1 166.9(9) 4 2
O1 Hf2 Hf1 112.8(9) 4 .
O1 Hf2 Hf1 76.2(9) 2 2
O1 Hf2 Hf1 166.9(9) 3 .
O1 Hf2 Hf1 112.8(9) 3 10
O1 Hf2 Hf1 166.9(9) . 9
O1 Hf2 Hf1 76.2(9) 4 10
O1 Hf2 Hf1 166.9(9) 2 10
O1 Hf2 Hf1 110.4(8) 3 2
O1 Hf2 O1 74.1(8) . 4
O1 Hf2 O1 74.1(8) 4 3
O1 Hf2 O1 116.8(18) . 3
O1 Hf2 O1 74.1(8) . 2
O1 Hf2 O1 116.8(18) 4 2
O1 Hf2 O1 74.1(8) 2 3
O1 Hf2 O4 80.7(13) 4 3
O1 Hf2 O4 142.9(13) 4 2
O1 Hf2 O4 142.9(13) 3 .
O1 Hf2 O4 142.7(13) 2 3
O1 Hf2 O4 80.6(13) 2 2
O1 Hf2 O4 80.7(13) 3 2
O1 Hf2 O4 142.7(13) . 2
O1 Hf2 O4 80.7(13) . 4
O1 Hf2 O4 142.9(13) . 3
O1 Hf2 O4 142.9(13) 2 4
O1 Hf2 O4 80.6(13) 3 3
O1 Hf2 O4 80.7(13) 2 .
O1 Hf2 O4 80.6(13) 4 4
O1 Hf2 O4 80.6(13) . .
O1 Hf2 O4 142.7(13) 3 4
O1 Hf2 O4 142.7(13) 4 .
O4 Hf2 Hf1 89.4(9) . 9
O4 Hf2 Hf1 32.9(9) 2 2
O4 Hf2 Hf1 35.8(9) 4 .
O4 Hf2 Hf1 35.8(9) 2 9
O4 Hf2 Hf1 32.9(9) . .
O4 Hf2 Hf1 89.4(9) 2 10
O4 Hf2 Hf1 87.8(9) 3 2
O4 Hf2 Hf1 32.9(9) 4 10
O4 Hf2 Hf1 89.4(9) 4 2
O4 Hf2 Hf1 35.8(9) 3 10
O4 Hf2 Hf1 87.8(9) 2 .
O4 Hf2 Hf1 87.8(9) 4 9
O4 Hf2 Hf1 89.4(9) 3 .
O4 Hf2 Hf1 32.9(9) 3 9
O4 Hf2 Hf1 35.8(9) . 2
O4 Hf2 Hf1 87.8(9) . 10
O4 Hf2 O4 105.6(18) . 3
O4 Hf2 O4 68.5(9) 4 3
O4 Hf2 O4 68.5(9) . 4
O4 Hf2 O4 68.5(9) 2 3
O4 Hf2 O4 68.5(9) . 2
O4 Hf2 O4 105.6(18) 2 4
C12 O1 Hf2 136(2) . .
Hf1 O4 Hf1 113.6(15) . 2
Hf1 O4 Hf2 108.3(14) 2 .
Hf1 O4 Hf2 112.1(15) . .
C12 O13 Hf1 139(2) . .
C8 C3 C4 118.2(10) . .
C8 C3 C9 127(3) . .
C9 C3 C4 114(3) . .
C5 C4 C3 116(2) . .
C6 C5 C4 126(3) . .
C5 C6 C7 118.3(10) . .
C5 C6 C12 127(4) . .
C12 C6 C7 115(3) . .
C8 C7 C6 116(2) . .
C3 C8 C7 126(3) . .
C16 C9 C3 117.6(8) . .
C16 C9 C10 119.4 . .
C10 C9 C3 123.0(8) . .
C9 C16 C15 115.7(12) . 7_455
C15 C16 C9 118(3) . .
C15 C16 C15 6(5) . 7_455
C17 C16 C9 128.3(2) . .
C17 C16 C15 116.0(12) . 7_455
C9 C10 C9 124.9(14) . 7_455
C11 C10 C9 116.9(14) . 7_455
C11 C10 C9 118.2(2) . .
O1 C12 O13 115(3) . .
O1 C12 C6 126(3) . .
O13 C12 C6 117(3) . .
loop_
_geom_bond_atom_site_label_1
_geom_bond_atom_site_label_2
_geom_bond_distance
_geom_bond_site_symmetry_2
Hf1 Hf1 3.520(5) 10
Hf1 Hf1 3.520(5) 2
Hf1 Hf2 3.497(4) 9
Hf1 Hf2 3.497(4) .
Hf1 O4 2.15(3) 4
Hf1 O4 2.05(3) .
Hf1 O4 2.15(3) 10
Hf1 O4 2.05(3) 11
Hf1 O13 2.145(17) .
Hf1 O13 2.145(17) 11
Hf1 O19 2.19(4) .
Hf1 O20 2.24(6) .
Hf2 Hf1 3.497(4) 9
Hf2 Hf1 3.497(4) 10
Hf2 Hf1 3.497(4) 2
Hf2 O1 2.115(17) 2
Hf2 O1 2.115(17) 3
Hf2 O1 2.115(17) .
Hf2 O1 2.115(17) 4
Hf2 O4 2.16(3) 3
Hf2 O4 2.16(3) 4
Hf2 O4 2.16(3) .
Hf2 O4 2.16(3) 2
O1 C12 1.403(9) .
O4 Hf1 2.15(3) 2
O13 C12 1.405(9) .
C3 C4 1.49(4) .
C3 C8 1.35(4) .
C3 C9 1.413(6) .
C4 C5 1.389(10) .
C5 C6 1.35(4) .
C6 C7 1.49(4) .
C6 C12 1.410(6) .
C7 C8 1.390(10) .
C9 C16 1.3900 .
C9 C10 1.4104 .
C16 C15 1.50(4) .
C16 C17 1.280(4) .
C15 C15 1.44(5) 8
C10 C9 1.43(2) 7_455
C10 C11 1.371(4) .
loop_
_geom_torsion_atom_site_label_1
_geom_torsion_atom_site_label_2
_geom_torsion_atom_site_label_3
_geom_torsion_atom_site_label_4
_geom_torsion
_geom_torsion_site_symmetry_4
Hf1 O13 C12 O1 -1(4) .
Hf1 O13 C12 C6 166(2) .
Hf2 O1 C12 O13 -5(4) .
Hf2 O1 C12 C6 -170.6(16) .
C3 C4 C5 C6 0.0(4) .
C3 C9 C16 C15 -177(6) 7_455
C3 C9 C16 C15 179(4) .
C3 C9 C16 C17 -1(4) .
C3 C9 C10 C9 179(3) 7_455
C3 C9 C10 C11 0(4) .
C4 C3 C8 C7 0.0(3) .
C4 C3 C9 C16 -73(2) .
C4 C3 C9 C10 107(3) .
C4 C5 C6 C7 0.0(4) .
C4 C5 C6 C12 180.0(3) .
C5 C6 C7 C8 0.0(4) .
C5 C6 C12 O1 172(3) .
C5 C6 C12 O13 6(2) .
C6 C7 C8 C3 0.0(5) .
C7 C6 C12 O1 -8(3) .
C7 C6 C12 O13 -174(2) .
C8 C3 C4 C5 0.0(3) .
C8 C3 C9 C16 107(2) .
C8 C3 C9 C10 -73(3) .
C9 C3 C4 C5 180.0(2) .
C9 C3 C8 C7 180.0(3) .
C9 C16 C15 C16 4(11) 7_455
C16 C9 C10 C9 -1(5) 7_455
C16 C9 C10 C11 180.0(5) .
C10 C9 C16 C17 179.51(16) .
C12 C6 C7 C8 180.0(3) .
